# generated using pymatgen
data_Cs7RbBi4Mo4(PO8)4
_symmetry_space_group_name_H-M   'P 1'
_cell_length_a   12.68523121
_cell_length_b   12.68523112
_cell_length_c   12.68523100
_cell_angle_alpha   147.11714178
_cell_angle_beta   119.97538807
_cell_angle_gamma   70.15905210
_symmetry_Int_Tables_number   1
_chemical_formula_structural   Cs7RbBi4Mo4(PO8)4
_chemical_formula_sum   'Cs7 Rb1 Bi4 Mo4 P4 O32'
_cell_volume   945.95109473
_cell_formula_units_Z   1
loop_
 _symmetry_equiv_pos_site_id
 _symmetry_equiv_pos_as_xyz
  1  'x, y, z'
loop_
 _atom_site_type_symbol
 _atom_site_label
 _atom_site_symmetry_multiplicity
 _atom_site_fract_x
 _atom_site_fract_y
 _atom_site_fract_z
 _atom_site_occupancy
  Cs  Cs0  1  0.244481  0.624906  0.548245  1
  Cs  Cs1  1  0.256915  0.805249  0.382612  1
  Cs  Cs2  1  0.923646  0.874999  0.118902  1
  Cs  Cs3  1  0.575695  0.694394  0.950873  1
  Cs  Cs4  1  0.755189  0.375073  0.450578  1
  Cs  Cs5  1  0.742844  0.194295  0.618819  1
  Cs  Cs6  1  0.077658  0.125972  0.882082  1
  Rb  Rb7  1  0.426191  0.309712  0.049521  1
  Bi  Bi8  1  0.166903  0.750469  0.916829  1
  Bi  Bi9  1  0.333151  0.249724  0.582688  1
  Bi  Bi10  1  0.833459  0.249665  0.083248  1
  Bi  Bi11  1  0.665605  0.748473  0.415868  1
  Mo  Mo12  1  0.093087  0.340228  0.751336  1
  Mo  Mo13  1  0.410507  0.160820  0.248259  1
  Mo  Mo14  1  0.908999  0.659324  0.249876  1
  Mo  Mo15  1  0.588099  0.842292  0.749783  1
  P  P16  1  0.925985  0.750023  0.676157  1
  P  P17  1  0.572593  0.250137  0.825781  1
  P  P18  1  0.074469  0.250018  0.324229  1
  P  P19  1  0.425284  0.747363  0.174415  1
  O  O20  1  0.941934  0.718214  0.777405  1
  O  O21  1  0.557677  0.334985  0.777867  1
  O  O22  1  0.058570  0.781579  0.722744  1
  O  O23  1  0.439701  0.168222  0.728791  1
  O  O24  1  0.059308  0.281358  0.223003  1
  O  O25  1  0.440123  0.658360  0.217722  1
  O  O26  1  0.941698  0.218737  0.277486  1
  O  O27  1  0.558303  0.833296  0.276395  1
  O  O28  1  0.104012  0.589651  0.916761  1
  O  O29  1  0.395295  0.314322  0.483418  1
  O  O30  1  0.325353  0.912538  0.012668  1
  O  O31  1  0.173500  0.186188  0.580770  1
  O  O32  1  0.896659  0.409464  0.083098  1
  O  O33  1  0.597753  0.684002  0.508417  1
  O  O34  1  0.674127  0.089979  0.986056  1
  O  O35  1  0.825499  0.812313  0.415722  1
  O  O36  1  0.358373  0.591703  0.930260  1
  O  O37  1  0.141329  0.072036  0.233279  1
  O  O38  1  0.339284  0.906449  0.267519  1
  O  O39  1  0.161389  0.427767  0.569105  1
  O  O40  1  0.640913  0.407999  0.070713  1
  O  O41  1  0.858724  0.927660  0.767277  1
  O  O42  1  0.658455  0.090871  0.733076  1
  O  O43  1  0.838854  0.572164  0.431536  1
  O  O44  1  0.935087  0.226012  0.579747  1
  O  O45  1  0.568666  0.140667  0.293350  1
  O  O46  1  0.356047  0.274402  0.203438  1
  O  O47  1  0.157461  0.355506  0.925602  1
  O  O48  1  0.066898  0.774243  0.424573  1
  O  O49  1  0.431514  0.866492  0.714436  1
  O  O50  1  0.647561  0.727188  0.792554  1
  O  O51  1  0.849170  0.642496  0.075113  1
