# generated using pymatgen
data_Er4TmZnNiBi
_symmetry_space_group_name_H-M   'P 1'
_cell_length_a   8.42532200
_cell_length_b   8.42532161
_cell_length_c   8.66986370
_cell_angle_alpha   124.77935790
_cell_angle_beta   124.77934686
_cell_angle_gamma   79.98258248
_symmetry_Int_Tables_number   1
_chemical_formula_structural   Er4TmZnNiBi
_chemical_formula_sum   'Er8 Tm2 Zn2 Ni2 Bi2'
_cell_volume   404.59534891
_cell_formula_units_Z   2
loop_
 _symmetry_equiv_pos_site_id
 _symmetry_equiv_pos_as_xyz
  1  'x, y, z'
loop_
 _atom_site_type_symbol
 _atom_site_label
 _atom_site_symmetry_multiplicity
 _atom_site_fract_x
 _atom_site_fract_y
 _atom_site_fract_z
 _atom_site_occupancy
  Er  Er0  1  0.779955  0.279955  0.784863  1
  Er  Er1  1  0.220045  0.720045  0.215137  1
  Er  Er2  1  0.495092  0.995092  0.215137  1
  Er  Er3  1  0.304176  0.465312  0.500000  1
  Er  Er4  1  0.034688  0.195824  0.500000  1
  Er  Er5  1  0.504908  0.004908  0.784863  1
  Er  Er6  1  0.695824  0.534688  0.500000  1
  Er  Er7  1  0.965312  0.804176  0.500000  1
  Tm  Tm8  1  0.000000  0.000000  0.000000  1
  Tm  Tm9  1  0.500000  0.500000  0.000000  1
  Zn  Zn10  1  0.140961  0.640961  0.781924  1
  Zn  Zn11  1  0.859039  0.359039  0.218076  1
  Ni  Ni12  1  0.631095  0.868905  0.500000  1
  Ni  Ni13  1  0.368905  0.131095  0.500000  1
  Bi  Bi14  1  0.250000  0.250000  0.000000  1
  Bi  Bi15  1  0.750000  0.750000  0.000000  1
