# generated using pymatgen
data_Y7Th(InAu2)4
_symmetry_space_group_name_H-M   'P 1'
_cell_length_a   8.02567376
_cell_length_b   8.02567386
_cell_length_c   7.51433900
_cell_angle_alpha   90.00000000
_cell_angle_beta   90.00000000
_cell_angle_gamma   89.89504845
_symmetry_Int_Tables_number   1
_chemical_formula_structural   Y7Th(InAu2)4
_chemical_formula_sum   'Y7 Th1 In4 Au8'
_cell_volume   484.00858444
_cell_formula_units_Z   1
loop_
 _symmetry_equiv_pos_site_id
 _symmetry_equiv_pos_as_xyz
  1  'x, y, z'
loop_
 _atom_site_type_symbol
 _atom_site_label
 _atom_site_symmetry_multiplicity
 _atom_site_fract_x
 _atom_site_fract_y
 _atom_site_fract_z
 _atom_site_occupancy
  Y  Y0  1  0.165517  0.834483  0.500000  1
  Y  Y1  1  0.334460  0.335827  0.000000  1
  Y  Y2  1  0.664173  0.665540  0.000000  1
  Y  Y3  1  0.675994  0.676297  0.500000  1
  Y  Y4  1  0.323703  0.324006  0.500000  1
  Y  Y5  1  0.177528  0.822472  0.000000  1
  Y  Y6  1  0.824380  0.175620  0.000000  1
  Th  Th7  1  0.835331  0.164669  0.500000  1
  In  In8  1  0.496269  0.997218  0.256859  1
  In  In9  1  0.002782  0.503731  0.743141  1
  In  In10  1  0.496269  0.997218  0.743141  1
  In  In11  1  0.002782  0.503731  0.256859  1
  Au  Au12  1  0.626621  0.373379  0.256984  1
  Au  Au13  1  0.371470  0.628530  0.261740  1
  Au  Au14  1  0.129929  0.127615  0.765831  1
  Au  Au15  1  0.872385  0.870071  0.765831  1
  Au  Au16  1  0.371470  0.628530  0.738260  1
  Au  Au17  1  0.626621  0.373379  0.743016  1
  Au  Au18  1  0.872385  0.870071  0.234169  1
  Au  Au19  1  0.129929  0.127615  0.234169  1
