# generated using pymatgen
data_Sn4B3IrRh6
_symmetry_space_group_name_H-M   'P 1'
_cell_length_a   9.30155000
_cell_length_b   9.30150408
_cell_length_c   5.68457000
_cell_angle_alpha   90.00000000
_cell_angle_beta   90.00000000
_cell_angle_gamma   120.00089103
_symmetry_Int_Tables_number   1
_chemical_formula_structural   Sn4B3IrRh6
_chemical_formula_sum   'Sn8 B6 Ir2 Rh12'
_cell_volume   425.92473009
_cell_formula_units_Z   2
loop_
 _symmetry_equiv_pos_site_id
 _symmetry_equiv_pos_as_xyz
  1  'x, y, z'
loop_
 _atom_site_type_symbol
 _atom_site_label
 _atom_site_symmetry_multiplicity
 _atom_site_fract_x
 _atom_site_fract_y
 _atom_site_fract_z
 _atom_site_occupancy
  Sn  Sn0  1  0.666686  0.333355  0.250000  1
  Sn  Sn1  1  0.411281  0.502192  0.250000  1
  Sn  Sn2  1  0.090921  0.588723  0.250000  1
  Sn  Sn3  1  0.497801  0.909088  0.250000  1
  Sn  Sn4  1  0.502200  0.090913  0.750000  1
  Sn  Sn5  1  0.909080  0.411277  0.750000  1
  Sn  Sn6  1  0.588720  0.497808  0.750000  1
  Sn  Sn7  1  0.333314  0.666646  0.750000  1
  B  B8  1  0.207268  0.036688  0.250000  1
  B  B9  1  0.963330  0.170591  0.250000  1
  B  B10  1  0.829409  0.792734  0.250000  1
  B  B11  1  0.170590  0.207265  0.750000  1
  B  B12  1  0.036669  0.829409  0.750000  1
  B  B13  1  0.792732  0.963311  0.750000  1
  Ir  Ir14  1  0.000000  0.000000  0.000000  1
  Ir  Ir15  1  0.000000  0.000000  0.500000  1
  Rh  Rh16  1  0.769934  0.123932  0.000863  1
  Rh  Rh17  1  0.354012  0.230080  0.000864  1
  Rh  Rh18  1  0.876055  0.645992  0.000869  1
  Rh  Rh19  1  0.769934  0.123932  0.499137  1
  Rh  Rh20  1  0.354012  0.230080  0.499136  1
  Rh  Rh21  1  0.876055  0.645992  0.499131  1
  Rh  Rh22  1  0.123945  0.354008  0.500869  1
  Rh  Rh23  1  0.645988  0.769921  0.500864  1
  Rh  Rh24  1  0.230066  0.876068  0.500863  1
  Rh  Rh25  1  0.123945  0.354008  0.999131  1
  Rh  Rh26  1  0.645988  0.769921  0.999136  1
  Rh  Rh27  1  0.230066  0.876068  0.999137  1
