# generated using pymatgen
data_Hf12Co5Re6Ir
_symmetry_space_group_name_H-M   'P 1'
_cell_length_a   4.57155300
_cell_length_b   6.49259400
_cell_length_c   13.71489900
_cell_angle_alpha   89.99998282
_cell_angle_beta   89.99912687
_cell_angle_gamma   89.99997864
_symmetry_Int_Tables_number   1
_chemical_formula_structural   Hf12Co5Re6Ir
_chemical_formula_sum   'Hf12 Co5 Re6 Ir1'
_cell_volume   407.07517556
_cell_formula_units_Z   1
loop_
 _symmetry_equiv_pos_site_id
 _symmetry_equiv_pos_as_xyz
  1  'x, y, z'
loop_
 _atom_site_type_symbol
 _atom_site_label
 _atom_site_symmetry_multiplicity
 _atom_site_fract_x
 _atom_site_fract_y
 _atom_site_fract_z
 _atom_site_occupancy
  Hf  Hf0  1  0.499999  0.246813  0.000000  1
  Hf  Hf1  1  0.499999  0.753188  0.000000  1
  Hf  Hf2  1  0.999923  0.248061  0.169172  1
  Hf  Hf3  1  0.999923  0.751939  0.169172  1
  Hf  Hf4  1  0.499922  0.250686  0.334051  1
  Hf  Hf5  1  0.499922  0.749315  0.334051  1
  Hf  Hf6  1  0.000000  0.249559  0.500000  1
  Hf  Hf7  1  0.000000  0.750442  0.500000  1
  Hf  Hf8  1  0.500078  0.250686  0.665949  1
  Hf  Hf9  1  0.500078  0.749315  0.665949  1
  Hf  Hf10  1  0.000075  0.248061  0.830828  1
  Hf  Hf11  1  0.000075  0.751939  0.830828  1
  Co  Co12  1  0.499915  0.000000  0.166837  1
  Co  Co13  1  0.999913  0.500000  0.333187  1
  Co  Co14  1  0.499999  0.000000  0.500000  1
  Co  Co15  1  0.000087  0.500000  0.666813  1
  Co  Co16  1  0.500085  0.000000  0.833163  1
  Re  Re17  1  0.000000  0.000000  0.000000  1
  Re  Re18  1  0.499953  0.500000  0.167570  1
  Re  Re19  1  0.999915  0.999999  0.334335  1
  Re  Re20  1  0.499999  0.500000  0.500000  1
  Re  Re21  1  0.000085  0.000001  0.665665  1
  Re  Re22  1  0.500047  0.500000  0.832430  1
  Ir  Ir23  1  0.000000  0.500000  0.000000  1
