# generated using pymatgen
data_Ho9Er(Pb3Cl)2
_symmetry_space_group_name_H-M   'P 1'
_cell_length_a   9.18274300
_cell_length_b   9.18274313
_cell_length_c   6.58464800
_cell_angle_alpha   90.00000000
_cell_angle_beta   90.00000000
_cell_angle_gamma   120.00001033
_symmetry_Int_Tables_number   1
_chemical_formula_structural   Ho9Er(Pb3Cl)2
_chemical_formula_sum   'Ho9 Er1 Pb6 Cl2'
_cell_volume   480.84822336
_cell_formula_units_Z   1
loop_
 _symmetry_equiv_pos_site_id
 _symmetry_equiv_pos_as_xyz
  1  'x, y, z'
loop_
 _atom_site_type_symbol
 _atom_site_label
 _atom_site_symmetry_multiplicity
 _atom_site_fract_x
 _atom_site_fract_y
 _atom_site_fract_z
 _atom_site_occupancy
  Ho  Ho0  1  0.260847  0.999972  0.250034  1
  Ho  Ho1  1  0.739125  0.999972  0.749966  1
  Ho  Ho2  1  0.000028  0.260875  0.250034  1
  Ho  Ho3  1  0.000028  0.739153  0.749966  1
  Ho  Ho4  1  0.739125  0.739153  0.250034  1
  Ho  Ho5  1  0.260847  0.260875  0.749966  1
  Ho  Ho6  1  0.333333  0.666667  0.000000  1
  Ho  Ho7  1  0.666667  0.333333  0.000000  1
  Ho  Ho8  1  0.666667  0.333333  0.500000  1
  Er  Er9  1  0.333333  0.666667  0.500000  1
  Pb  Pb10  1  0.610350  0.999822  0.250141  1
  Pb  Pb11  1  0.389472  0.999822  0.749859  1
  Pb  Pb12  1  0.000178  0.610528  0.250141  1
  Pb  Pb13  1  0.000178  0.389650  0.749859  1
  Pb  Pb14  1  0.389472  0.389650  0.250141  1
  Pb  Pb15  1  0.610350  0.610528  0.749859  1
  Cl  Cl16  1  0.000000  0.000000  0.000000  1
  Cl  Cl17  1  0.000000  0.000000  0.500000  1
