# generated using pymatgen
data_HoTm2AlC3
_symmetry_space_group_name_H-M   'P 1'
_cell_length_a   3.52225900
_cell_length_b   6.94282400
_cell_length_c   9.90695100
_cell_angle_alpha   90.00000000
_cell_angle_beta   90.00000000
_cell_angle_gamma   90.00000000
_symmetry_Int_Tables_number   1
_chemical_formula_structural   HoTm2AlC3
_chemical_formula_sum   'Ho2 Tm4 Al2 C6'
_cell_volume   242.26878347
_cell_formula_units_Z   2
loop_
 _symmetry_equiv_pos_site_id
 _symmetry_equiv_pos_as_xyz
  1  'x, y, z'
loop_
 _atom_site_type_symbol
 _atom_site_label
 _atom_site_symmetry_multiplicity
 _atom_site_fract_x
 _atom_site_fract_y
 _atom_site_fract_z
 _atom_site_occupancy
  Ho  Ho0  1  0.000000  0.750000  0.458387  1
  Ho  Ho1  1  0.000000  0.250000  0.541613  1
  Tm  Tm2  1  0.500000  0.510955  0.201363  1
  Tm  Tm3  1  0.500000  0.489045  0.798637  1
  Tm  Tm4  1  0.500000  0.989045  0.201363  1
  Tm  Tm5  1  0.500000  0.010955  0.798637  1
  Al  Al6  1  0.000000  0.750000  0.004288  1
  Al  Al7  1  0.000000  0.250000  0.995712  1
  C  C8  1  0.500000  0.509896  0.566661  1
  C  C9  1  0.500000  0.490104  0.433339  1
  C  C10  1  0.500000  0.990104  0.566661  1
  C  C11  1  0.500000  0.009896  0.433339  1
  C  C12  1  0.000000  0.750000  0.208032  1
  C  C13  1  0.000000  0.250000  0.791968  1
