# generated using pymatgen
data_Ga12OsRu3
_symmetry_space_group_name_H-M   'P 1'
_cell_length_a   6.54621543
_cell_length_b   6.54621543
_cell_length_c   6.81748700
_cell_angle_alpha   90.00000000
_cell_angle_beta   90.00000000
_cell_angle_gamma   89.95865317
_symmetry_Int_Tables_number   1
_chemical_formula_structural   Ga12OsRu3
_chemical_formula_sum   'Ga12 Os1 Ru3'
_cell_volume   292.14926078
_cell_formula_units_Z   1
loop_
 _symmetry_equiv_pos_site_id
 _symmetry_equiv_pos_as_xyz
  1  'x, y, z'
loop_
 _atom_site_type_symbol
 _atom_site_label
 _atom_site_symmetry_multiplicity
 _atom_site_fract_x
 _atom_site_fract_y
 _atom_site_fract_z
 _atom_site_occupancy
  Ga  Ga0  1  0.999427  0.498638  0.500000  1
  Ga  Ga1  1  0.500138  0.000118  0.000000  1
  Ga  Ga2  1  0.501362  0.000573  0.500000  1
  Ga  Ga3  1  0.999882  0.499862  0.000000  1
  Ga  Ga4  1  0.345488  0.654512  0.234430  1
  Ga  Ga5  1  0.654964  0.345036  0.234951  1
  Ga  Ga6  1  0.155332  0.155554  0.735530  1
  Ga  Ga7  1  0.844446  0.844668  0.735530  1
  Ga  Ga8  1  0.654964  0.345036  0.765049  1
  Ga  Ga9  1  0.345488  0.654512  0.765570  1
  Ga  Ga10  1  0.844446  0.844668  0.264470  1
  Ga  Ga11  1  0.155332  0.155554  0.264470  1
  Os  Os12  1  0.159177  0.840823  0.500000  1
  Ru  Ru13  1  0.839948  0.160052  0.500000  1
  Ru  Ru14  1  0.340510  0.340904  0.000000  1
  Ru  Ru15  1  0.659096  0.659490  0.000000  1
