# generated using pymatgen
data_Sc5Cr4(P4Rh5)3
_symmetry_space_group_name_H-M   'P 1'
_cell_length_a   12.59142901
_cell_length_b   12.54499169
_cell_length_c   3.81956700
_cell_angle_alpha   90.00000000
_cell_angle_beta   90.00000000
_cell_angle_gamma   119.79255351
_symmetry_Int_Tables_number   1
_chemical_formula_structural   Sc5Cr4(P4Rh5)3
_chemical_formula_sum   'Sc5 Cr4 P12 Rh15'
_cell_volume   523.59345429
_cell_formula_units_Z   1
loop_
 _symmetry_equiv_pos_site_id
 _symmetry_equiv_pos_as_xyz
  1  'x, y, z'
loop_
 _atom_site_type_symbol
 _atom_site_label
 _atom_site_symmetry_multiplicity
 _atom_site_fract_x
 _atom_site_fract_y
 _atom_site_fract_z
 _atom_site_occupancy
  Sc  Sc0  1  0.330650  0.664253  0.000000  1
  Sc  Sc1  1  0.665150  0.332112  0.000000  1
  Sc  Sc2  1  0.812869  0.000338  0.500000  1
  Sc  Sc3  1  0.999566  0.811625  0.500000  1
  Sc  Sc4  1  0.188834  0.188907  0.500000  1
  Cr  Cr5  1  0.450339  0.999386  0.000000  1
  Cr  Cr6  1  0.006307  0.451959  0.000000  1
  Cr  Cr7  1  0.549571  0.546836  0.000000  1
  Cr  Cr8  1  0.179137  0.379503  0.000000  1
  P  P9  1  0.174504  0.001783  0.000000  1
  P  P10  1  0.011526  0.185290  0.000000  1
  P  P11  1  0.824261  0.824936  0.000000  1
  P  P12  1  0.170138  0.484158  0.500000  1
  P  P13  1  0.514618  0.681006  0.500000  1
  P  P14  1  0.315337  0.832332  0.500000  1
  P  P15  1  0.684894  0.515542  0.500000  1
  P  P16  1  0.830674  0.313964  0.500000  1
  P  P17  1  0.483491  0.166722  0.500000  1
  P  P18  1  0.638757  0.999237  0.000000  1
  P  P19  1  0.000553  0.639535  0.000000  1
  P  P20  1  0.352234  0.358638  0.000000  1
  Rh  Rh21  1  0.357934  0.485554  0.500000  1
  Rh  Rh22  1  0.508735  0.866984  0.500000  1
  Rh  Rh23  1  0.130264  0.642073  0.500000  1
  Rh  Rh24  1  0.870046  0.509599  0.500000  1
  Rh  Rh25  1  0.640627  0.128043  0.500000  1
  Rh  Rh26  1  0.492414  0.358115  0.500000  1
  Rh  Rh27  1  0.625016  0.803644  0.000000  1
  Rh  Rh28  1  0.194227  0.822429  0.000000  1
  Rh  Rh29  1  0.806316  0.626447  0.000000  1
  Rh  Rh30  1  0.820216  0.195255  0.000000  1
  Rh  Rh31  1  0.373323  0.179507  0.000000  1
  Rh  Rh32  1  0.280476  0.000699  0.500000  1
  Rh  Rh33  1  0.999911  0.283451  0.500000  1
  Rh  Rh34  1  0.718796  0.718373  0.500000  1
  Rh  Rh35  1  0.998287  0.001765  0.000000  1
