# generated using pymatgen
data_AcAs12OsRu3
_symmetry_space_group_name_H-M   'P 1'
_cell_length_a   7.48680649
_cell_length_b   7.48680526
_cell_length_c   7.48540500
_cell_angle_alpha   109.46743197
_cell_angle_beta   109.46742866
_cell_angle_gamma   109.47500801
_symmetry_Int_Tables_number   1
_chemical_formula_structural   AcAs12OsRu3
_chemical_formula_sum   'Ac1 As12 Os1 Ru3'
_cell_volume   323.00324448
_cell_formula_units_Z   1
loop_
 _symmetry_equiv_pos_site_id
 _symmetry_equiv_pos_as_xyz
  1  'x, y, z'
loop_
 _atom_site_type_symbol
 _atom_site_label
 _atom_site_symmetry_multiplicity
 _atom_site_fract_x
 _atom_site_fract_y
 _atom_site_fract_z
 _atom_site_occupancy
  Ac  Ac0  1  0.000000  0.000000  0.000000  1
  As  As1  1  0.848869  0.648646  0.498176  1
  As  As2  1  0.151131  0.351354  0.501824  1
  As  As3  1  0.151172  0.649274  0.800384  1
  As  As4  1  0.848828  0.350726  0.199616  1
  As  As5  1  0.649274  0.498102  0.848890  1
  As  As6  1  0.350726  0.501898  0.151110  1
  As  As7  1  0.648646  0.799777  0.150470  1
  As  As8  1  0.351354  0.200223  0.849530  1
  As  As9  1  0.498102  0.848828  0.649212  1
  As  As10  1  0.501898  0.151172  0.350788  1
  As  As11  1  0.799777  0.151131  0.649308  1
  As  As12  1  0.200223  0.848869  0.350692  1
  Os  Os13  1  0.000000  0.000000  0.500000  1
  Ru  Ru14  1  0.500000  0.500000  0.500000  1
  Ru  Ru15  1  0.500000  0.000000  0.000000  1
  Ru  Ru16  1  0.000000  0.500000  0.000000  1
