# generated using pymatgen
data_TiNb3(AlRh5)2
_symmetry_space_group_name_H-M   'P 1'
_cell_length_a   4.03445700
_cell_length_b   5.48316161
_cell_length_c   10.75425170
_cell_angle_alpha   90.53973261
_cell_angle_beta   90.00000000
_cell_angle_gamma   90.00000000
_symmetry_Int_Tables_number   1
_chemical_formula_structural   TiNb3(AlRh5)2
_chemical_formula_sum   'Ti1 Nb3 Al2 Rh10'
_cell_volume   237.89048119
_cell_formula_units_Z   1
loop_
 _symmetry_equiv_pos_site_id
 _symmetry_equiv_pos_as_xyz
  1  'x, y, z'
loop_
 _atom_site_type_symbol
 _atom_site_label
 _atom_site_symmetry_multiplicity
 _atom_site_fract_x
 _atom_site_fract_y
 _atom_site_fract_z
 _atom_site_occupancy
  Ti  Ti0  1  0.500000  0.178724  0.640752  1
  Nb  Nb1  1  0.500000  0.319503  0.139843  1
  Nb  Nb2  1  0.500000  0.680353  0.856206  1
  Nb  Nb3  1  0.500000  0.823072  0.362867  1
  Al  Al4  1  0.000000  0.998898  0.999247  1
  Al  Al5  1  0.000000  0.498237  0.501597  1
  Rh  Rh6  1  0.000000  0.006626  0.503012  1
  Rh  Rh7  1  0.000000  0.498648  0.999161  1
  Rh  Rh8  1  0.000000  0.071117  0.245426  1
  Rh  Rh9  1  0.000000  0.925639  0.756256  1
  Rh  Rh10  1  0.000000  0.571221  0.255635  1
  Rh  Rh11  1  0.000000  0.423845  0.741583  1
  Rh  Rh12  1  0.500000  0.309914  0.391837  1
  Rh  Rh13  1  0.500000  0.694316  0.607638  1
  Rh  Rh14  1  0.500000  0.806389  0.108538  1
  Rh  Rh15  1  0.500000  0.193497  0.890402  1
