# generated using pymatgen
data_Tb7Ho9Cd4Os3Pd
_symmetry_space_group_name_H-M   'P 1'
_cell_length_a   9.59246263
_cell_length_b   9.70750005
_cell_length_c   9.73302300
_cell_angle_alpha   59.91299457
_cell_angle_beta   59.51412808
_cell_angle_gamma   59.46106585
_symmetry_Int_Tables_number   1
_chemical_formula_structural   Tb7Ho9Cd4Os3Pd
_chemical_formula_sum   'Tb7 Ho9 Cd4 Os3 Pd1'
_cell_volume   635.44919007
_cell_formula_units_Z   1
loop_
 _symmetry_equiv_pos_site_id
 _symmetry_equiv_pos_as_xyz
  1  'x, y, z'
loop_
 _atom_site_type_symbol
 _atom_site_label
 _atom_site_symmetry_multiplicity
 _atom_site_fract_x
 _atom_site_fract_y
 _atom_site_fract_z
 _atom_site_occupancy
  Tb  Tb0  1  0.815902  0.803637  0.190227  1
  Tb  Tb1  1  0.936948  0.560039  0.561966  1
  Tb  Tb2  1  0.551356  0.940982  0.940499  1
  Tb  Tb3  1  0.551367  0.940978  0.567161  1
  Tb  Tb4  1  0.936957  0.560023  0.941058  1
  Tb  Tb5  1  0.551295  0.567318  0.940694  1
  Tb  Tb6  1  0.936871  0.940929  0.561098  1
  Ho  Ho7  1  0.346461  0.351640  0.350622  1
  Ho  Ho8  1  0.346462  0.351637  0.951273  1
  Ho  Ho9  1  0.346423  0.952895  0.350337  1
  Ho  Ho10  1  0.970124  0.343209  0.343333  1
  Ho  Ho11  1  0.815716  0.189550  0.190193  1
  Ho  Ho12  1  0.184945  0.811418  0.811178  1
  Ho  Ho13  1  0.184942  0.811428  0.192456  1
  Ho  Ho14  1  0.815711  0.189552  0.804544  1
  Ho  Ho15  1  0.185433  0.190480  0.812051  1
  Cd  Cd16  1  0.580982  0.578977  0.580159  1
  Cd  Cd17  1  0.580977  0.578977  0.259886  1
  Cd  Cd18  1  0.580868  0.258967  0.580081  1
  Cd  Cd19  1  0.254885  0.581466  0.581822  1
  Os  Os20  1  0.149435  0.137623  0.135788  1
  Os  Os21  1  0.149438  0.137618  0.577156  1
  Os  Os22  1  0.150822  0.577099  0.136037  1
  Pd  Pd23  1  0.575678  0.143556  0.140382  1
