# generated using pymatgen
data_Sc2Ga10OsRu2
_symmetry_space_group_name_H-M   'P 1'
_cell_length_a   8.86560600
_cell_length_b   8.86560600
_cell_length_c   6.18609300
_cell_angle_alpha   90.00000000
_cell_angle_beta   90.00000000
_cell_angle_gamma   90.00000000
_symmetry_Int_Tables_number   1
_chemical_formula_structural   Sc2Ga10OsRu2
_chemical_formula_sum   'Sc4 Ga20 Os2 Ru4'
_cell_volume   486.22053656
_cell_formula_units_Z   2
loop_
 _symmetry_equiv_pos_site_id
 _symmetry_equiv_pos_as_xyz
  1  'x, y, z'
loop_
 _atom_site_type_symbol
 _atom_site_label
 _atom_site_symmetry_multiplicity
 _atom_site_fract_x
 _atom_site_fract_y
 _atom_site_fract_z
 _atom_site_occupancy
  Sc  Sc0  1  0.183016  0.683016  0.000000  1
  Sc  Sc1  1  0.816984  0.316984  0.000000  1
  Sc  Sc2  1  0.683016  0.816984  0.000000  1
  Sc  Sc3  1  0.316984  0.183016  0.000000  1
  Ga  Ga4  1  0.062149  0.208139  0.713049  1
  Ga  Ga5  1  0.937851  0.791861  0.713049  1
  Ga  Ga6  1  0.562149  0.291861  0.713049  1
  Ga  Ga7  1  0.437851  0.708139  0.713049  1
  Ga  Ga8  1  0.791861  0.062149  0.713049  1
  Ga  Ga9  1  0.208139  0.937851  0.713049  1
  Ga  Ga10  1  0.708139  0.562149  0.713049  1
  Ga  Ga11  1  0.291861  0.437851  0.713049  1
  Ga  Ga12  1  0.937851  0.791861  0.286951  1
  Ga  Ga13  1  0.062149  0.208139  0.286951  1
  Ga  Ga14  1  0.437851  0.708139  0.286951  1
  Ga  Ga15  1  0.562149  0.291861  0.286951  1
  Ga  Ga16  1  0.208139  0.937851  0.286951  1
  Ga  Ga17  1  0.791861  0.062149  0.286951  1
  Ga  Ga18  1  0.291861  0.437851  0.286951  1
  Ga  Ga19  1  0.708139  0.562149  0.286951  1
  Ga  Ga20  1  0.000000  0.500000  0.728596  1
  Ga  Ga21  1  0.500000  0.000000  0.728596  1
  Ga  Ga22  1  0.000000  0.500000  0.271404  1
  Ga  Ga23  1  0.500000  0.000000  0.271404  1
  Os  Os24  1  0.000000  0.000000  0.000000  1
  Os  Os25  1  0.500000  0.500000  0.000000  1
  Ru  Ru26  1  0.177316  0.677316  0.500000  1
  Ru  Ru27  1  0.822684  0.322684  0.500000  1
  Ru  Ru28  1  0.677316  0.822684  0.500000  1
  Ru  Ru29  1  0.322684  0.177316  0.500000  1
