# generated using pymatgen
data_Nd6CoPtBr6
_symmetry_space_group_name_H-M   'P 1'
_cell_length_a   10.34831405
_cell_length_b   10.34831546
_cell_length_c   10.49868104
_cell_angle_alpha   109.51543190
_cell_angle_beta   109.51543428
_cell_angle_gamma   108.79422767
_symmetry_Int_Tables_number   1
_chemical_formula_structural   Nd6CoPtBr6
_chemical_formula_sum   'Nd12 Co2 Pt2 Br12'
_cell_volume   871.66549356
_cell_formula_units_Z   2
loop_
 _symmetry_equiv_pos_site_id
 _symmetry_equiv_pos_as_xyz
  1  'x, y, z'
loop_
 _atom_site_type_symbol
 _atom_site_label
 _atom_site_symmetry_multiplicity
 _atom_site_fract_x
 _atom_site_fract_y
 _atom_site_fract_z
 _atom_site_occupancy
  Nd  Nd0  1  0.469372  0.478154  0.240416  1
  Nd  Nd1  1  0.737739  0.228957  0.259584  1
  Nd  Nd2  1  0.736939  0.010180  0.476379  1
  Nd  Nd3  1  0.239440  0.466199  0.476379  1
  Nd  Nd4  1  0.271043  0.762261  0.240416  1
  Nd  Nd5  1  0.033801  0.260560  0.023621  1
  Nd  Nd6  1  0.021846  0.030628  0.259584  1
  Nd  Nd7  1  0.489820  0.763061  0.023621  1
  Nd  Nd8  1  0.481646  0.231646  0.463293  1
  Nd  Nd9  1  0.012707  0.487293  0.750000  1
  Nd  Nd10  1  0.268354  0.018354  0.036707  1
  Nd  Nd11  1  0.237293  0.262707  0.750000  1
  Co  Co12  1  0.251102  0.248898  0.250000  1
  Co  Co13  1  0.498898  0.001102  0.250000  1
  Pt  Pt14  1  0.999220  0.249220  0.498439  1
  Pt  Pt15  1  0.250780  0.500780  0.001561  1
  Br  Br16  1  0.249932  0.754895  0.746144  1
  Br  Br17  1  0.508752  0.503788  0.753856  1
  Br  Br18  1  0.987219  0.743770  0.993733  1
  Br  Br19  1  0.745105  0.250068  0.753856  1
  Br  Br20  1  0.996212  0.991248  0.746144  1
  Br  Br21  1  0.250037  0.993487  0.506267  1
  Br  Br22  1  0.756230  0.512781  0.506267  1
  Br  Br23  1  0.506513  0.249963  0.993733  1
  Br  Br24  1  0.754831  0.745169  0.250000  1
  Br  Br25  1  0.744219  0.994219  0.988439  1
  Br  Br26  1  0.995169  0.504831  0.250000  1
  Br  Br27  1  0.505781  0.755781  0.511561  1
