# generated using pymatgen
data_Pr16Mg2Cd2Os3Pt
_symmetry_space_group_name_H-M   'P 1'
_cell_length_a   10.05454809
_cell_length_b   10.11505265
_cell_length_c   10.12795400
_cell_angle_alpha   59.95779259
_cell_angle_beta   59.75819067
_cell_angle_gamma   59.69241594
_symmetry_Int_Tables_number   1
_chemical_formula_structural   Pr16Mg2Cd2Os3Pt
_chemical_formula_sum   'Pr16 Mg2 Cd2 Os3 Pt1'
_cell_volume   725.07651012
_cell_formula_units_Z   1
loop_
 _symmetry_equiv_pos_site_id
 _symmetry_equiv_pos_as_xyz
  1  'x, y, z'
loop_
 _atom_site_type_symbol
 _atom_site_label
 _atom_site_symmetry_multiplicity
 _atom_site_fract_x
 _atom_site_fract_y
 _atom_site_fract_z
 _atom_site_occupancy
  Pr  Pr0  1  0.342938  0.348776  0.349823  1
  Pr  Pr1  1  0.342938  0.348776  0.958464  1
  Pr  Pr2  1  0.343313  0.959678  0.348505  1
  Pr  Pr3  1  0.967124  0.343816  0.344529  1
  Pr  Pr4  1  0.814235  0.191096  0.190686  1
  Pr  Pr5  1  0.189856  0.809726  0.809476  1
  Pr  Pr6  1  0.189856  0.809726  0.190942  1
  Pr  Pr7  1  0.814235  0.191096  0.803984  1
  Pr  Pr8  1  0.191975  0.192918  0.807553  1
  Pr  Pr9  1  0.816158  0.805977  0.188932  1
  Pr  Pr10  1  0.939663  0.560707  0.559143  1
  Pr  Pr11  1  0.556584  0.940794  0.938893  1
  Pr  Pr12  1  0.556584  0.940794  0.563729  1
  Pr  Pr13  1  0.939663  0.560707  0.940486  1
  Pr  Pr14  1  0.557686  0.565395  0.938460  1
  Pr  Pr15  1  0.939804  0.942894  0.558650  1
  Mg  Mg16  1  0.574863  0.574010  0.579335  1
  Mg  Mg17  1  0.574863  0.574010  0.271791  1
  Cd  Cd18  1  0.581223  0.258755  0.580011  1
  Cd  Cd19  1  0.258061  0.580629  0.580655  1
  Os  Os20  1  0.143835  0.138092  0.137130  1
  Os  Os21  1  0.143835  0.138092  0.580943  1
  Os  Os22  1  0.143317  0.581788  0.137448  1
  Pt  Pt23  1  0.577388  0.141748  0.140432  1
