# generated using pymatgen
data_Ti3SnP6PbO24
_symmetry_space_group_name_H-M   'P 1'
_cell_length_a   8.45359227
_cell_length_b   8.45359255
_cell_length_c   9.08639693
_cell_angle_alpha   62.27822067
_cell_angle_beta   117.72177731
_cell_angle_gamma   120.00000661
_symmetry_Int_Tables_number   1
_chemical_formula_structural   Ti3SnP6PbO24
_chemical_formula_sum   'Ti3 Sn1 P6 Pb1 O24'
_cell_volume   474.33571724
_cell_formula_units_Z   1
loop_
 _symmetry_equiv_pos_site_id
 _symmetry_equiv_pos_as_xyz
  1  'x, y, z'
loop_
 _atom_site_type_symbol
 _atom_site_label
 _atom_site_symmetry_multiplicity
 _atom_site_fract_x
 _atom_site_fract_y
 _atom_site_fract_z
 _atom_site_occupancy
  Ti  Ti0  1  0.149870  0.850131  0.449608  1
  Ti  Ti1  1  0.849598  0.150403  0.548793  1
  Ti  Ti2  1  0.646105  0.353895  0.938316  1
  Sn  Sn3  1  0.352973  0.647027  0.058919  1
  P  P4  1  0.029520  0.247050  0.245242  1
  P  P5  1  0.752949  0.537228  0.245242  1
  P  P6  1  0.462773  0.970480  0.245242  1
  P  P7  1  0.539881  0.036147  0.752542  1
  P  P8  1  0.248809  0.460119  0.752542  1
  P  P9  1  0.963853  0.751192  0.752542  1
  Pb  Pb10  1  0.000312  0.999688  0.000935  1
  O  O11  1  0.480290  0.158179  0.091482  1
  O  O12  1  0.841822  0.230629  0.091482  1
  O  O13  1  0.769372  0.519711  0.091482  1
  O  O14  1  0.181418  0.449994  0.214548  1
  O  O15  1  0.550005  0.516875  0.214548  1
  O  O16  1  0.483127  0.818583  0.214548  1
  O  O17  1  0.101815  0.096101  0.271361  1
  O  O18  1  0.903899  0.734354  0.271361  1
  O  O19  1  0.265647  0.898184  0.271361  1
  O  O20  1  0.993558  0.196324  0.416697  1
  O  O21  1  0.803676  0.380535  0.416697  1
  O  O22  1  0.619465  0.006443  0.416697  1
  O  O23  1  0.372965  0.000906  0.584823  1
  O  O24  1  0.212765  0.627035  0.584823  1
  O  O25  1  0.999094  0.787235  0.584823  1
  O  O26  1  0.732993  0.111665  0.720187  1
  O  O27  1  0.098858  0.267006  0.720187  1
  O  O28  1  0.888333  0.901142  0.720187  1
  O  O29  1  0.531219  0.183762  0.799602  1
  O  O30  1  0.452145  0.468781  0.799602  1
  O  O31  1  0.816239  0.547855  0.799602  1
  O  O32  1  0.217854  0.467347  0.904658  1
  O  O33  1  0.154150  0.782146  0.904658  1
  O  O34  1  0.532654  0.845851  0.904658  1
