# generated using pymatgen
data_Tm3Th2Sc3(CdIr)2
_symmetry_space_group_name_H-M   'P 1'
_cell_length_a   9.48414384
_cell_length_b   9.48414904
_cell_length_c   9.50132300
_cell_angle_alpha   59.94024668
_cell_angle_beta   59.94003517
_cell_angle_gamma   59.88876213
_symmetry_Int_Tables_number   1
_chemical_formula_structural   Tm3Th2Sc3(CdIr)2
_chemical_formula_sum   'Tm6 Th4 Sc6 Cd4 Ir4'
_cell_volume   603.26243760
_cell_formula_units_Z   2
loop_
 _symmetry_equiv_pos_site_id
 _symmetry_equiv_pos_as_xyz
  1  'x, y, z'
loop_
 _atom_site_type_symbol
 _atom_site_label
 _atom_site_symmetry_multiplicity
 _atom_site_fract_x
 _atom_site_fract_y
 _atom_site_fract_z
 _atom_site_occupancy
  Tm  Tm0  1  0.186876  0.814436  0.813534  1
  Tm  Tm1  1  0.814441  0.186873  0.185151  1
  Tm  Tm2  1  0.814438  0.186874  0.813533  1
  Tm  Tm3  1  0.186877  0.814435  0.185155  1
  Tm  Tm4  1  0.814340  0.814343  0.185659  1
  Tm  Tm5  1  0.186388  0.186384  0.813614  1
  Th  Th6  1  0.601904  0.601909  0.601053  1
  Th  Th7  1  0.601909  0.601907  0.195133  1
  Th  Th8  1  0.602728  0.193732  0.601769  1
  Th  Th9  1  0.193726  0.602727  0.601773  1
  Sc  Sc10  1  0.066593  0.433001  0.433446  1
  Sc  Sc11  1  0.432999  0.066598  0.066958  1
  Sc  Sc12  1  0.433000  0.066595  0.433451  1
  Sc  Sc13  1  0.066597  0.433004  0.066954  1
  Sc  Sc14  1  0.433714  0.433707  0.066289  1
  Sc  Sc15  1  0.067226  0.067220  0.432776  1
  Cd  Cd16  1  0.833159  0.833163  0.834892  1
  Cd  Cd17  1  0.833161  0.833162  0.498785  1
  Cd  Cd18  1  0.832599  0.498828  0.834284  1
  Cd  Cd19  1  0.498829  0.832600  0.834287  1
  Ir  Ir20  1  0.389393  0.389392  0.390582  1
  Ir  Ir21  1  0.389391  0.389395  0.830632  1
  Ir  Ir22  1  0.389131  0.830577  0.390146  1
  Ir  Ir23  1  0.830578  0.389137  0.390142  1
