# generated using pymatgen
data_Ce2Cr5(NiP)7
_symmetry_space_group_name_H-M   'P 1'
_cell_length_a   9.27140432
_cell_length_b   9.27566576
_cell_length_c   3.68473200
_cell_angle_alpha   90.00000000
_cell_angle_beta   90.00000000
_cell_angle_gamma   120.29560968
_symmetry_Int_Tables_number   1
_chemical_formula_structural   Ce2Cr5(NiP)7
_chemical_formula_sum   'Ce2 Cr5 Ni7 P7'
_cell_volume   273.60609555
_cell_formula_units_Z   1
loop_
 _symmetry_equiv_pos_site_id
 _symmetry_equiv_pos_as_xyz
  1  'x, y, z'
loop_
 _atom_site_type_symbol
 _atom_site_label
 _atom_site_symmetry_multiplicity
 _atom_site_fract_x
 _atom_site_fract_y
 _atom_site_fract_z
 _atom_site_occupancy
  Ce  Ce0  1  0.665205  0.330250  0.500000  1
  Ce  Ce1  1  0.334817  0.668600  0.000000  1
  Cr  Cr2  1  0.384272  0.431621  0.500000  1
  Cr  Cr3  1  0.881849  0.784952  0.500000  1
  Cr  Cr4  1  0.902516  0.119757  0.500000  1
  Cr  Cr5  1  0.048596  0.616984  0.500000  1
  Cr  Cr6  1  0.214036  0.093948  0.500000  1
  Ni  Ni7  1  0.154636  0.274094  0.000000  1
  Ni  Ni8  1  0.120686  0.844093  0.000000  1
  Ni  Ni9  1  0.722654  0.878027  0.000000  1
  Ni  Ni10  1  0.942084  0.372077  0.000000  1
  Ni  Ni11  1  0.566386  0.952606  0.500000  1
  Ni  Ni12  1  0.630488  0.571368  0.000000  1
  Ni  Ni13  1  0.430564  0.059898  0.000000  1
  P  P14  1  0.596574  0.709385  0.500000  1
  P  P15  1  0.115028  0.406222  0.500000  1
  P  P16  1  0.886528  0.592575  0.000000  1
  P  P17  1  0.291641  0.889692  0.500000  1
  P  P18  1  0.998433  0.998380  0.000000  1
  P  P19  1  0.706612  0.111384  0.000000  1
  P  P20  1  0.406396  0.294089  0.000000  1
