# generated using pymatgen
data_Zr11Nb8Si16W
_symmetry_space_group_name_H-M   'P 1'
_cell_length_a   6.94384636
_cell_length_b   6.94523473
_cell_length_c   12.84999634
_cell_angle_alpha   90.01533352
_cell_angle_beta   89.85135047
_cell_angle_gamma   90.02811811
_symmetry_Int_Tables_number   1
_chemical_formula_structural   Zr11Nb8Si16W
_chemical_formula_sum   'Zr11 Nb8 Si16 W1'
_cell_volume   619.71000232
_cell_formula_units_Z   1
loop_
 _symmetry_equiv_pos_site_id
 _symmetry_equiv_pos_as_xyz
  1  'x, y, z'
loop_
 _atom_site_type_symbol
 _atom_site_label
 _atom_site_symmetry_multiplicity
 _atom_site_fract_x
 _atom_site_fract_y
 _atom_site_fract_z
 _atom_site_occupancy
  Zr  Zr0  1  0.500503  0.351412  0.622745  1
  Zr  Zr1  1  0.501523  0.649276  0.124126  1
  Zr  Zr2  1  0.148501  0.999628  0.873775  1
  Zr  Zr3  1  0.002203  0.655223  0.032962  1
  Zr  Zr4  1  0.997564  0.344344  0.531639  1
  Zr  Zr5  1  0.655640  0.001202  0.967993  1
  Zr  Zr6  1  0.155949  0.498665  0.782332  1
  Zr  Zr7  1  0.845601  0.502344  0.283018  1
  Zr  Zr8  1  0.499734  0.156160  0.218171  1
  Zr  Zr9  1  0.501057  0.843874  0.717821  1
  Zr  Zr10  1  0.343426  0.999769  0.467658  1
  Nb  Nb11  1  0.347761  0.508183  0.376565  1
  Nb  Nb12  1  0.851899  0.998233  0.373995  1
  Nb  Nb13  1  0.005695  0.154094  0.125575  1
  Nb  Nb14  1  0.990891  0.846955  0.627782  1
  Nb  Nb15  1  0.670105  0.672931  0.499697  1
  Nb  Nb16  1  0.826698  0.170096  0.749920  1
  Nb  Nb17  1  0.172534  0.832101  0.251475  1
  Nb  Nb18  1  0.329952  0.327979  0.999432  1
  Si  Si19  1  0.045420  0.704504  0.437466  1
  Si  Si20  1  0.950785  0.300310  0.936054  1
  Si  Si21  1  0.703251  0.045213  0.561893  1
  Si  Si22  1  0.201297  0.452436  0.187481  1
  Si  Si23  1  0.797882  0.546714  0.688328  1
  Si  Si24  1  0.456446  0.203864  0.813921  1
  Si  Si25  1  0.549193  0.800477  0.314513  1
  Si  Si26  1  0.297529  0.954986  0.064515  1
  Si  Si27  1  0.855943  0.784474  0.823791  1
  Si  Si28  1  0.137751  0.209759  0.322559  1
  Si  Si29  1  0.799558  0.865690  0.179273  1
  Si  Si30  1  0.287945  0.643764  0.571823  1
  Si  Si31  1  0.709656  0.357230  0.069883  1
  Si  Si32  1  0.636835  0.293378  0.424798  1
  Si  Si33  1  0.369737  0.699648  0.925212  1
  Si  Si34  1  0.200734  0.135571  0.676297  1
  W  W35  1  0.652802  0.489510  0.875512  1
