# generated using pymatgen
data_Ba(WF5)2
_symmetry_space_group_name_H-M   'P 1'
_cell_length_a   8.51999674
_cell_length_b   8.51999646
_cell_length_c   8.95692871
_cell_angle_alpha   84.41038165
_cell_angle_beta   84.41038258
_cell_angle_gamma   138.30241980
_symmetry_Int_Tables_number   1
_chemical_formula_structural   Ba(WF5)2
_chemical_formula_sum   'Ba2 W4 F20'
_cell_volume   415.99100203
_cell_formula_units_Z   2
loop_
 _symmetry_equiv_pos_site_id
 _symmetry_equiv_pos_as_xyz
  1  'x, y, z'
loop_
 _atom_site_type_symbol
 _atom_site_label
 _atom_site_symmetry_multiplicity
 _atom_site_fract_x
 _atom_site_fract_y
 _atom_site_fract_z
 _atom_site_occupancy
  Ba  Ba0  1  0.430728  0.569272  0.750000  1
  Ba  Ba1  1  0.569272  0.430728  0.250000  1
  W  W2  1  0.348347  0.034119  0.901844  1
  W  W3  1  0.965881  0.651653  0.598156  1
  W  W4  1  0.651653  0.965881  0.098156  1
  W  W5  1  0.034119  0.348347  0.401844  1
  F  F6  1  0.137898  0.557429  0.572929  1
  F  F7  1  0.442571  0.862102  0.927071  1
  F  F8  1  0.862102  0.442571  0.427071  1
  F  F9  1  0.557429  0.137898  0.072929  1
  F  F10  1  0.697627  0.302373  0.750000  1
  F  F11  1  0.302373  0.697627  0.250000  1
  F  F12  1  0.200482  0.799518  0.750000  1
  F  F13  1  0.799518  0.200482  0.250000  1
  F  F14  1  0.976699  0.247609  0.937875  1
  F  F15  1  0.752391  0.023301  0.562125  1
  F  F16  1  0.023301  0.752391  0.062125  1
  F  F17  1  0.247609  0.976699  0.437875  1
  F  F18  1  0.258500  0.382134  0.500039  1
  F  F19  1  0.617866  0.741500  0.999961  1
  F  F20  1  0.741500  0.617866  0.499961  1
  F  F21  1  0.382134  0.258500  0.000039  1
  F  F22  1  0.285211  0.156654  0.749293  1
  F  F23  1  0.843346  0.714789  0.750707  1
  F  F24  1  0.714789  0.843346  0.250707  1
  F  F25  1  0.156654  0.285211  0.249293  1
