# generated using pymatgen
data_Nd4Y4Tc(B8Ru)3
_symmetry_space_group_name_H-M   'P 1'
_cell_length_a   3.72802900
_cell_length_b   9.24348486
_cell_length_c   11.67162504
_cell_angle_alpha   89.90320044
_cell_angle_beta   90.00000000
_cell_angle_gamma   90.00000000
_symmetry_Int_Tables_number   1
_chemical_formula_structural   Nd4Y4Tc(B8Ru)3
_chemical_formula_sum   'Nd4 Y4 Tc1 B24 Ru3'
_cell_volume   402.20338720
_cell_formula_units_Z   1
loop_
 _symmetry_equiv_pos_site_id
 _symmetry_equiv_pos_as_xyz
  1  'x, y, z'
loop_
 _atom_site_type_symbol
 _atom_site_label
 _atom_site_symmetry_multiplicity
 _atom_site_fract_x
 _atom_site_fract_y
 _atom_site_fract_z
 _atom_site_occupancy
  Nd  Nd0  1  0.000000  0.324461  0.413244  1
  Nd  Nd1  1  0.000000  0.676361  0.584097  1
  Nd  Nd2  1  0.000000  0.821753  0.087610  1
  Nd  Nd3  1  0.000000  0.176225  0.914844  1
  Y  Y4  1  0.000000  0.943291  0.372060  1
  Y  Y5  1  0.000000  0.057054  0.628698  1
  Y  Y6  1  0.000000  0.444519  0.128519  1
  Y  Y7  1  0.000000  0.556629  0.870874  1
  Tc  Tc8  1  0.000000  0.639041  0.319803  1
  B  B9  1  0.500000  0.554903  0.430533  1
  B  B10  1  0.500000  0.444363  0.569735  1
  B  B11  1  0.500000  0.055677  0.069732  1
  B  B12  1  0.500000  0.943984  0.930648  1
  B  B13  1  0.500000  0.748679  0.417371  1
  B  B14  1  0.500000  0.251352  0.582606  1
  B  B15  1  0.500000  0.248664  0.082286  1
  B  B16  1  0.500000  0.751103  0.917570  1
  B  B17  1  0.500000  0.790334  0.267037  1
  B  B18  1  0.500000  0.210299  0.733122  1
  B  B19  1  0.500000  0.289928  0.232397  1
  B  B20  1  0.500000  0.710769  0.766863  1
  B  B21  1  0.500000  0.630956  0.186312  1
  B  B22  1  0.500000  0.368817  0.814239  1
  B  B23  1  0.500000  0.130996  0.313638  1
  B  B24  1  0.500000  0.869455  0.685864  1
  B  B25  1  0.500000  0.985532  0.213618  1
  B  B26  1  0.500000  0.014254  0.786974  1
  B  B27  1  0.500000  0.484866  0.286359  1
  B  B28  1  0.500000  0.514024  0.713429  1
  B  B29  1  0.500000  0.603784  0.027817  1
  B  B30  1  0.500000  0.395850  0.970902  1
  B  B31  1  0.500000  0.104383  0.471753  1
  B  B32  1  0.500000  0.896985  0.529145  1
  Ru  Ru33  1  0.000000  0.360641  0.680694  1
  Ru  Ru34  1  0.000000  0.139055  0.179778  1
  Ru  Ru35  1  0.000000  0.861015  0.819828  1
