# generated using pymatgen
data_NdDy2Ni9
_symmetry_space_group_name_H-M   'P 1'
_cell_length_a   8.63917161
_cell_length_b   8.63917143
_cell_length_c   8.63917024
_cell_angle_alpha   33.56157675
_cell_angle_beta   33.56158003
_cell_angle_gamma   33.56157180
_symmetry_Int_Tables_number   1
_chemical_formula_structural   NdDy2Ni9
_chemical_formula_sum   'Nd1 Dy2 Ni9'
_cell_volume   175.52940713
_cell_formula_units_Z   1
loop_
 _symmetry_equiv_pos_site_id
 _symmetry_equiv_pos_as_xyz
  1  'x, y, z'
loop_
 _atom_site_type_symbol
 _atom_site_label
 _atom_site_symmetry_multiplicity
 _atom_site_fract_x
 _atom_site_fract_y
 _atom_site_fract_z
 _atom_site_occupancy
  Nd  Nd0  1  0.000000  0.000000  0.000000  1
  Dy  Dy1  1  0.860455  0.860455  0.860455  1
  Dy  Dy2  1  0.139545  0.139545  0.139545  1
  Ni  Ni3  1  0.416856  0.917595  0.416856  1
  Ni  Ni4  1  0.583144  0.583144  0.082405  1
  Ni  Ni5  1  0.667047  0.667047  0.667047  1
  Ni  Ni6  1  0.917595  0.416856  0.416856  1
  Ni  Ni7  1  0.082405  0.583144  0.583144  1
  Ni  Ni8  1  0.332953  0.332953  0.332953  1
  Ni  Ni9  1  0.500000  0.500000  0.500000  1
  Ni  Ni10  1  0.416856  0.416856  0.917595  1
  Ni  Ni11  1  0.583144  0.082405  0.583144  1
