# generated using pymatgen
data_Er3(TmRu)2
_symmetry_space_group_name_H-M   'P 1'
_cell_length_a   6.26401758
_cell_length_b   7.25657243
_cell_length_c   8.37486351
_cell_angle_alpha   96.81282606
_cell_angle_beta   111.96112372
_cell_angle_gamma   90.00000197
_symmetry_Int_Tables_number   1
_chemical_formula_structural   Er3(TmRu)2
_chemical_formula_sum   'Er6 Tm4 Ru4'
_cell_volume   350.15881090
_cell_formula_units_Z   2
loop_
 _symmetry_equiv_pos_site_id
 _symmetry_equiv_pos_as_xyz
  1  'x, y, z'
loop_
 _atom_site_type_symbol
 _atom_site_label
 _atom_site_symmetry_multiplicity
 _atom_site_fract_x
 _atom_site_fract_y
 _atom_site_fract_z
 _atom_site_occupancy
  Er  Er0  1  0.790947  0.083930  0.813482  1
  Er  Er1  1  0.977464  0.416070  0.186518  1
  Er  Er2  1  0.209092  0.915756  0.186505  1
  Er  Er3  1  0.022587  0.584244  0.813495  1
  Er  Er4  1  0.205797  0.184454  0.565239  1
  Er  Er5  1  0.640558  0.315546  0.434761  1
  Tm  Tm6  1  0.794223  0.815534  0.434682  1
  Tm  Tm7  1  0.359541  0.684466  0.565318  1
  Tm  Tm8  1  0.418753  0.250000  0.000000  1
  Tm  Tm9  1  0.581294  0.750000  0.000000  1
  Ru  Ru10  1  0.602441  0.423948  0.780204  1
  Ru  Ru11  1  0.822236  0.076052  0.219796  1
  Ru  Ru12  1  0.397537  0.576535  0.220008  1
  Ru  Ru13  1  0.177530  0.923465  0.779992  1
