# generated using pymatgen
data_Zr3Sc4TaRu8
_symmetry_space_group_name_H-M   'P 1'
_cell_length_a   6.43834000
_cell_length_b   4.57375200
_cell_length_c   9.16719600
_cell_angle_alpha   90.00000000
_cell_angle_beta   90.00148322
_cell_angle_gamma   90.00000000
_symmetry_Int_Tables_number   1
_chemical_formula_structural   Zr3Sc4TaRu8
_chemical_formula_sum   'Zr3 Sc4 Ta1 Ru8'
_cell_volume   269.94981658
_cell_formula_units_Z   1
loop_
 _symmetry_equiv_pos_site_id
 _symmetry_equiv_pos_as_xyz
  1  'x, y, z'
loop_
 _atom_site_type_symbol
 _atom_site_label
 _atom_site_symmetry_multiplicity
 _atom_site_fract_x
 _atom_site_fract_y
 _atom_site_fract_z
 _atom_site_occupancy
  Zr  Zr0  1  0.250035  0.250000  0.123975  1
  Zr  Zr1  1  0.750037  0.750000  0.374979  1
  Zr  Zr2  1  0.249964  0.250000  0.626023  1
  Sc  Sc3  1  0.750044  0.250000  0.123130  1
  Sc  Sc4  1  0.250046  0.750000  0.375008  1
  Sc  Sc5  1  0.749950  0.250000  0.626804  1
  Sc  Sc6  1  0.249946  0.750000  0.875006  1
  Ta  Ta7  1  0.749960  0.750000  0.874963  1
  Ru  Ru8  1  0.504226  0.750000  0.118998  1
  Ru  Ru9  1  0.995831  0.750000  0.119000  1
  Ru  Ru10  1  0.499709  0.250000  0.375050  1
  Ru  Ru11  1  0.000351  0.250000  0.375048  1
  Ru  Ru12  1  0.995829  0.750000  0.631023  1
  Ru  Ru13  1  0.504125  0.750000  0.631022  1
  Ru  Ru14  1  0.991824  0.250000  0.874984  1
  Ru  Ru15  1  0.508124  0.250000  0.874987  1
