# generated using pymatgen
data_Na3FeB4O9
_symmetry_space_group_name_H-M   'P 1'
_cell_length_a   8.88734800
_cell_length_b   6.31564581
_cell_length_c   6.95092881
_cell_angle_alpha   80.78136273
_cell_angle_beta   90.00000000
_cell_angle_gamma   90.00000000
_symmetry_Int_Tables_number   1
_chemical_formula_structural   Na3FeB4O9
_chemical_formula_sum   'Na6 Fe2 B8 O18'
_cell_volume   385.11195096
_cell_formula_units_Z   2
loop_
 _symmetry_equiv_pos_site_id
 _symmetry_equiv_pos_as_xyz
  1  'x, y, z'
loop_
 _atom_site_type_symbol
 _atom_site_label
 _atom_site_symmetry_multiplicity
 _atom_site_fract_x
 _atom_site_fract_y
 _atom_site_fract_z
 _atom_site_occupancy
  Na  Na0  1  0.465187  0.749817  0.174972  1
  Na  Na1  1  0.034813  0.749817  0.174972  1
  Na  Na2  1  0.750000  0.579025  0.493249  1
  Na  Na3  1  0.250000  0.420975  0.506751  1
  Na  Na4  1  0.965187  0.250183  0.825028  1
  Na  Na5  1  0.534813  0.250183  0.825028  1
  Fe  Fe6  1  0.750000  0.790617  0.863257  1
  Fe  Fe7  1  0.250000  0.209383  0.136743  1
  B  B8  1  0.750000  0.987357  0.220934  1
  B  B9  1  0.250000  0.875399  0.475880  1
  B  B10  1  0.452353  0.752829  0.718714  1
  B  B11  1  0.047647  0.752829  0.718714  1
  B  B12  1  0.952353  0.247171  0.281286  1
  B  B13  1  0.547647  0.247171  0.281286  1
  B  B14  1  0.750000  0.124601  0.524120  1
  B  B15  1  0.250000  0.012643  0.779066  1
  O  O16  1  0.389860  0.881004  0.842884  1
  O  O17  1  0.110140  0.881004  0.842884  1
  O  O18  1  0.750000  0.936006  0.431933  1
  O  O19  1  0.250000  0.923300  0.265103  1
  O  O20  1  0.387112  0.734650  0.541466  1
  O  O21  1  0.112888  0.734650  0.541466  1
  O  O22  1  0.750000  0.790397  0.135092  1
  O  O23  1  0.918514  0.636863  0.777834  1
  O  O24  1  0.581486  0.636863  0.777834  1
  O  O25  1  0.081486  0.363137  0.222166  1
  O  O26  1  0.418514  0.363137  0.222166  1
  O  O27  1  0.250000  0.209603  0.864908  1
  O  O28  1  0.887112  0.265350  0.458534  1
  O  O29  1  0.612888  0.265350  0.458534  1
  O  O30  1  0.750000  0.076700  0.734897  1
  O  O31  1  0.250000  0.063994  0.568067  1
  O  O32  1  0.889860  0.118996  0.157116  1
  O  O33  1  0.610140  0.118996  0.157116  1
