# generated using pymatgen
data_YbTh(Al4Co)2
_symmetry_space_group_name_H-M   'P 1'
_cell_length_a   4.04640500
_cell_length_b   6.84158500
_cell_length_c   7.64400900
_cell_angle_alpha   90.00000000
_cell_angle_beta   90.00000000
_cell_angle_gamma   90.00000000
_symmetry_Int_Tables_number   1
_chemical_formula_structural   YbTh(Al4Co)2
_chemical_formula_sum   'Yb1 Th1 Al8 Co2'
_cell_volume   211.61539791
_cell_formula_units_Z   1
loop_
 _symmetry_equiv_pos_site_id
 _symmetry_equiv_pos_as_xyz
  1  'x, y, z'
loop_
 _atom_site_type_symbol
 _atom_site_label
 _atom_site_symmetry_multiplicity
 _atom_site_fract_x
 _atom_site_fract_y
 _atom_site_fract_z
 _atom_site_occupancy
  Yb  Yb0  1  0.000000  0.610206  0.750000  1
  Th  Th1  1  0.000000  0.392995  0.250000  1
  Al  Al2  1  0.500000  0.298156  0.569709  1
  Al  Al3  1  0.500000  0.704293  0.434698  1
  Al  Al4  1  0.500000  0.298156  0.930291  1
  Al  Al5  1  0.500000  0.704293  0.065302  1
  Al  Al6  1  0.000000  0.999644  0.999512  1
  Al  Al7  1  0.000000  0.999644  0.500488  1
  Al  Al8  1  0.500000  0.043778  0.250000  1
  Al  Al9  1  0.500000  0.950969  0.750000  1
  Co  Co10  1  0.000000  0.190221  0.750000  1
  Co  Co11  1  0.000000  0.807647  0.250000  1
