# generated using pymatgen
data_K8Fe2O7
_symmetry_space_group_name_H-M   'P 1'
_cell_length_a   17.25065000
_cell_length_b   6.75314935
_cell_length_c   6.73276936
_cell_angle_alpha   61.09963064
_cell_angle_beta   90.00000000
_cell_angle_gamma   90.00000000
_symmetry_Int_Tables_number   1
_chemical_formula_structural   K8Fe2O7
_chemical_formula_sum   'K16 Fe4 O14'
_cell_volume   686.66128876
_cell_formula_units_Z   2
loop_
 _symmetry_equiv_pos_site_id
 _symmetry_equiv_pos_as_xyz
  1  'x, y, z'
loop_
 _atom_site_type_symbol
 _atom_site_label
 _atom_site_symmetry_multiplicity
 _atom_site_fract_x
 _atom_site_fract_y
 _atom_site_fract_z
 _atom_site_occupancy
  K  K0  1  0.503656  0.043384  0.228965  1
  K  K1  1  0.003656  0.456616  0.771035  1
  K  K2  1  0.496344  0.956616  0.771035  1
  K  K3  1  0.996344  0.543384  0.228965  1
  K  K4  1  0.705962  0.052566  0.224687  1
  K  K5  1  0.205962  0.447434  0.775313  1
  K  K6  1  0.294038  0.947434  0.775313  1
  K  K7  1  0.794038  0.552566  0.224687  1
  K  K8  1  0.083396  0.996707  0.359141  1
  K  K9  1  0.583396  0.503293  0.640859  1
  K  K10  1  0.916604  0.003293  0.640859  1
  K  K11  1  0.416604  0.496707  0.359141  1
  K  K12  1  0.810114  0.448985  0.785874  1
  K  K13  1  0.310114  0.051015  0.214126  1
  K  K14  1  0.189886  0.551015  0.214126  1
  K  K15  1  0.689886  0.948985  0.785874  1
  Fe  Fe16  1  0.598619  0.497935  0.149978  1
  Fe  Fe17  1  0.098619  0.002065  0.850022  1
  Fe  Fe18  1  0.401381  0.502065  0.850022  1
  Fe  Fe19  1  0.901381  0.997935  0.149978  1
  O  O20  1  0.500000  0.500000  0.000000  1
  O  O21  1  0.000000  0.000000  0.000000  1
  O  O22  1  0.179777  0.001452  0.045901  1
  O  O23  1  0.679777  0.498548  0.954099  1
  O  O24  1  0.820223  0.998548  0.954099  1
  O  O25  1  0.320223  0.501452  0.045901  1
  O  O26  1  0.896105  0.267811  0.175866  1
  O  O27  1  0.396105  0.232189  0.824134  1
  O  O28  1  0.103895  0.732189  0.824134  1
  O  O29  1  0.603895  0.767811  0.175866  1
  O  O30  1  0.601698  0.228653  0.437702  1
  O  O31  1  0.101698  0.271347  0.562298  1
  O  O32  1  0.398302  0.771347  0.562298  1
  O  O33  1  0.898302  0.728653  0.437702  1
