# generated using pymatgen
data_TmZn4Ru
_symmetry_space_group_name_H-M   'P 1'
_cell_length_a   5.12634800
_cell_length_b   5.12634748
_cell_length_c   8.22301200
_cell_angle_alpha   90.00000000
_cell_angle_beta   90.00000000
_cell_angle_gamma   120.00000333
_symmetry_Int_Tables_number   1
_chemical_formula_structural   TmZn4Ru
_chemical_formula_sum   'Tm2 Zn8 Ru2'
_cell_volume   187.14475800
_cell_formula_units_Z   2
loop_
 _symmetry_equiv_pos_site_id
 _symmetry_equiv_pos_as_xyz
  1  'x, y, z'
loop_
 _atom_site_type_symbol
 _atom_site_label
 _atom_site_symmetry_multiplicity
 _atom_site_fract_x
 _atom_site_fract_y
 _atom_site_fract_z
 _atom_site_occupancy
  Tm  Tm0  1  0.666667  0.333333  0.432362  1
  Tm  Tm1  1  0.333333  0.666667  0.932362  1
  Zn  Zn2  1  0.000000  0.000000  0.003091  1
  Zn  Zn3  1  0.000000  0.000000  0.503091  1
  Zn  Zn4  1  0.171413  0.342823  0.249840  1
  Zn  Zn5  1  0.828587  0.171413  0.749840  1
  Zn  Zn6  1  0.342823  0.171413  0.749840  1
  Zn  Zn7  1  0.657177  0.828587  0.249840  1
  Zn  Zn8  1  0.171413  0.828587  0.249840  1
  Zn  Zn9  1  0.828587  0.657177  0.749840  1
  Ru  Ru10  1  0.333333  0.666667  0.565027  1
  Ru  Ru11  1  0.666667  0.333333  0.065027  1
