# generated using pymatgen
data_Hf18Cu2Mo5W3
_symmetry_space_group_name_H-M   'P 1'
_cell_length_a   8.70850400
_cell_length_b   8.71843550
_cell_length_c   8.50023900
_cell_angle_alpha   90.00000000
_cell_angle_beta   90.00000000
_cell_angle_gamma   119.96231719
_symmetry_Int_Tables_number   1
_chemical_formula_structural   Hf18Cu2Mo5W3
_chemical_formula_sum   'Hf18 Cu2 Mo5 W3'
_cell_volume   559.12468550
_cell_formula_units_Z   1
loop_
 _symmetry_equiv_pos_site_id
 _symmetry_equiv_pos_as_xyz
  1  'x, y, z'
loop_
 _atom_site_type_symbol
 _atom_site_label
 _atom_site_symmetry_multiplicity
 _atom_site_fract_x
 _atom_site_fract_y
 _atom_site_fract_z
 _atom_site_occupancy
  Hf  Hf0  1  0.197225  0.802042  0.054524  1
  Hf  Hf1  1  0.604817  0.802042  0.054524  1
  Hf  Hf2  1  0.802062  0.604123  0.554130  1
  Hf  Hf3  1  0.197947  0.395895  0.054040  1
  Hf  Hf4  1  0.801947  0.197658  0.554180  1
  Hf  Hf5  1  0.395711  0.197658  0.554180  1
  Hf  Hf6  1  0.802062  0.604123  0.945870  1
  Hf  Hf7  1  0.801947  0.197658  0.945820  1
  Hf  Hf8  1  0.395711  0.197658  0.945820  1
  Hf  Hf9  1  0.604817  0.802042  0.445476  1
  Hf  Hf10  1  0.197225  0.802042  0.445476  1
  Hf  Hf11  1  0.197947  0.395895  0.445960  1
  Hf  Hf12  1  0.541760  0.083520  0.250000  1
  Hf  Hf13  1  0.458057  0.916114  0.750000  1
  Hf  Hf14  1  0.916552  0.458824  0.250000  1
  Hf  Hf15  1  0.542271  0.458824  0.250000  1
  Hf  Hf16  1  0.458230  0.542049  0.750000  1
  Hf  Hf17  1  0.083820  0.542049  0.750000  1
  Cu  Cu18  1  0.666631  0.333262  0.750000  1
  Cu  Cu19  1  0.333230  0.666461  0.250000  1
  Mo  Mo20  1  0.112002  0.224004  0.750000  1
  Mo  Mo21  1  0.223339  0.111477  0.250000  1
  Mo  Mo22  1  0.888138  0.111477  0.250000  1
  Mo  Mo23  1  0.111837  0.888158  0.750000  1
  Mo  Mo24  1  0.776322  0.888158  0.750000  1
  W  W25  1  0.000069  0.000139  0.999489  1
  W  W26  1  0.000069  0.000139  0.500511  1
  W  W27  1  0.888254  0.776508  0.250000  1
