# generated using pymatgen
data_Er3TmGa4Ir3Pt
_symmetry_space_group_name_H-M   'P 1'
_cell_length_a   4.34298700
_cell_length_b   6.75596424
_cell_length_c   7.75072336
_cell_angle_alpha   89.75612721
_cell_angle_beta   90.00000000
_cell_angle_gamma   90.00000000
_symmetry_Int_Tables_number   1
_chemical_formula_structural   Er3TmGa4Ir3Pt
_chemical_formula_sum   'Er3 Tm1 Ga4 Ir3 Pt1'
_cell_volume   227.41241661
_cell_formula_units_Z   1
loop_
 _symmetry_equiv_pos_site_id
 _symmetry_equiv_pos_as_xyz
  1  'x, y, z'
loop_
 _atom_site_type_symbol
 _atom_site_label
 _atom_site_symmetry_multiplicity
 _atom_site_fract_x
 _atom_site_fract_y
 _atom_site_fract_z
 _atom_site_occupancy
  Er  Er0  1  0.250000  0.973016  0.310391  1
  Er  Er1  1  0.250000  0.478403  0.186136  1
  Er  Er2  1  0.750000  0.021070  0.692493  1
  Tm  Tm3  1  0.750000  0.522253  0.811810  1
  Ga  Ga4  1  0.250000  0.345777  0.570311  1
  Ga  Ga5  1  0.250000  0.843053  0.930608  1
  Ga  Ga6  1  0.750000  0.660547  0.431511  1
  Ga  Ga7  1  0.750000  0.154805  0.066730  1
  Ir  Ir8  1  0.250000  0.234464  0.889489  1
  Ir  Ir9  1  0.250000  0.734420  0.610507  1
  Ir  Ir10  1  0.750000  0.765333  0.110520  1
  Pt  Pt11  1  0.750000  0.266857  0.389494  1
