# generated using pymatgen
data_Zr5Ga17Ir7
_symmetry_space_group_name_H-M   'P 1'
_cell_length_a   8.68961231
_cell_length_b   8.85689258
_cell_length_c   8.85689357
_cell_angle_alpha   58.75433488
_cell_angle_beta   60.62283400
_cell_angle_gamma   60.62283485
_symmetry_Int_Tables_number   1
_chemical_formula_structural   Zr5Ga17Ir7
_chemical_formula_sum   'Zr5 Ga17 Ir7'
_cell_volume   481.66377950
_cell_formula_units_Z   1
loop_
 _symmetry_equiv_pos_site_id
 _symmetry_equiv_pos_as_xyz
  1  'x, y, z'
loop_
 _atom_site_type_symbol
 _atom_site_label
 _atom_site_symmetry_multiplicity
 _atom_site_fract_x
 _atom_site_fract_y
 _atom_site_fract_z
 _atom_site_occupancy
  Zr  Zr0  1  0.806392  0.193608  0.193608  1
  Zr  Zr1  1  0.778031  0.221969  0.774943  1
  Zr  Zr2  1  0.778031  0.774943  0.221969  1
  Zr  Zr3  1  0.225057  0.774943  0.221969  1
  Zr  Zr4  1  0.225057  0.221969  0.774943  1
  Ga  Ga5  1  0.892919  0.842009  0.842009  1
  Ga  Ga6  1  0.855857  0.831916  0.456373  1
  Ga  Ga7  1  0.423064  0.842009  0.842009  1
  Ga  Ga8  1  0.855857  0.456373  0.831916  1
  Ga  Ga9  1  0.168084  0.144143  0.144143  1
  Ga  Ga10  1  0.157991  0.107081  0.576936  1
  Ga  Ga11  1  0.157991  0.576936  0.107081  1
  Ga  Ga12  1  0.543627  0.144143  0.144143  1
  Ga  Ga13  1  0.606468  0.625920  0.625920  1
  Ga  Ga14  1  0.636054  0.616461  0.111428  1
  Ga  Ga15  1  0.141692  0.625920  0.625920  1
  Ga  Ga16  1  0.636054  0.111428  0.616461  1
  Ga  Ga17  1  0.383539  0.363946  0.363946  1
  Ga  Ga18  1  0.374080  0.393532  0.858308  1
  Ga  Ga19  1  0.374080  0.858308  0.393532  1
  Ga  Ga20  1  0.888572  0.363946  0.363946  1
  Ga  Ga21  1  0.026556  0.973444  0.973444  1
  Ir  Ir22  1  0.516653  0.483347  0.483347  1
  Ir  Ir23  1  0.011372  0.488628  0.488628  1
  Ir  Ir24  1  0.511372  0.988628  0.988628  1
  Ir  Ir25  1  0.508315  0.995541  0.491685  1
  Ir  Ir26  1  0.508315  0.491685  0.995541  1
  Ir  Ir27  1  0.004459  0.491685  0.995541  1
  Ir  Ir28  1  0.004459  0.995541  0.491685  1
