# generated using pymatgen
data_Tm6Th4Sn7Sb
_symmetry_space_group_name_H-M   'P 1'
_cell_length_a   8.09934400
_cell_length_b   8.15586109
_cell_length_c   15.38816506
_cell_angle_alpha   90.05926413
_cell_angle_beta   90.00000000
_cell_angle_gamma   90.00000000
_symmetry_Int_Tables_number   1
_chemical_formula_structural   Tm6Th4Sn7Sb
_chemical_formula_sum   'Tm12 Th8 Sn14 Sb2'
_cell_volume   1016.49739268
_cell_formula_units_Z   2
loop_
 _symmetry_equiv_pos_site_id
 _symmetry_equiv_pos_as_xyz
  1  'x, y, z'
loop_
 _atom_site_type_symbol
 _atom_site_label
 _atom_site_symmetry_multiplicity
 _atom_site_fract_x
 _atom_site_fract_y
 _atom_site_fract_z
 _atom_site_occupancy
  Tm  Tm0  1  0.361641  0.837740  0.876037  1
  Tm  Tm1  1  0.861641  0.662260  0.623963  1
  Tm  Tm2  1  0.637970  0.161389  0.375590  1
  Tm  Tm3  1  0.137970  0.338611  0.124410  1
  Tm  Tm4  1  0.639297  0.162506  0.123880  1
  Tm  Tm5  1  0.139297  0.337494  0.376120  1
  Tm  Tm6  1  0.361527  0.837751  0.624160  1
  Tm  Tm7  1  0.861527  0.662249  0.875840  1
  Tm  Tm8  1  0.191198  0.498359  0.749716  1
  Tm  Tm9  1  0.691198  0.001641  0.750284  1
  Tm  Tm10  1  0.808745  0.502343  0.249367  1
  Tm  Tm11  1  0.308745  0.997657  0.250633  1
  Th  Th12  1  0.519229  0.322137  0.904499  1
  Th  Th13  1  0.019229  0.177863  0.595501  1
  Th  Th14  1  0.479846  0.678956  0.404282  1
  Th  Th15  1  0.979846  0.821044  0.095718  1
  Th  Th16  1  0.481342  0.678514  0.095226  1
  Th  Th17  1  0.981342  0.821486  0.404774  1
  Th  Th18  1  0.518540  0.321159  0.595660  1
  Th  Th19  1  0.018540  0.178841  0.904340  1
  Sn  Sn20  1  0.700486  0.959251  0.542395  1
  Sn  Sn21  1  0.200486  0.540749  0.957605  1
  Sn  Sn22  1  0.701951  0.959442  0.957146  1
  Sn  Sn23  1  0.201951  0.540558  0.542854  1
  Sn  Sn24  1  0.299784  0.040660  0.457289  1
  Sn  Sn25  1  0.799784  0.459340  0.042711  1
  Sn  Sn26  1  0.556978  0.623637  0.749996  1
  Sn  Sn27  1  0.056978  0.876363  0.750004  1
  Sn  Sn28  1  0.443351  0.376197  0.249994  1
  Sn  Sn29  1  0.943351  0.123803  0.250006  1
  Sn  Sn30  1  0.326245  0.142804  0.750085  1
  Sn  Sn31  1  0.826245  0.357196  0.749915  1
  Sn  Sn32  1  0.673428  0.856915  0.250012  1
  Sn  Sn33  1  0.173428  0.643085  0.249988  1
  Sb  Sb34  1  0.298439  0.041010  0.043005  1
  Sb  Sb35  1  0.798439  0.458990  0.456995  1
