# generated using pymatgen
data_Yb4Si3Ir3Pd
_symmetry_space_group_name_H-M   'P 1'
_cell_length_a   10.68560934
_cell_length_b   10.68560911
_cell_length_c   7.55961934
_cell_angle_alpha   72.51637155
_cell_angle_beta   72.51636487
_cell_angle_gamma   30.95832972
_symmetry_Int_Tables_number   1
_chemical_formula_structural   Yb4Si3Ir3Pd
_chemical_formula_sum   'Yb8 Si6 Ir6 Pd2'
_cell_volume   421.90215288
_cell_formula_units_Z   2
loop_
 _symmetry_equiv_pos_site_id
 _symmetry_equiv_pos_as_xyz
  1  'x, y, z'
loop_
 _atom_site_type_symbol
 _atom_site_label
 _atom_site_symmetry_multiplicity
 _atom_site_fract_x
 _atom_site_fract_y
 _atom_site_fract_z
 _atom_site_occupancy
  Yb  Yb0  1  0.929571  0.202309  0.334018  1
  Yb  Yb1  1  0.074347  0.791530  0.666651  1
  Yb  Yb2  1  0.791530  0.074347  0.166651  1
  Yb  Yb3  1  0.448723  0.210177  0.908727  1
  Yb  Yb4  1  0.792725  0.549545  0.586724  1
  Yb  Yb5  1  0.210177  0.448723  0.408727  1
  Yb  Yb6  1  0.202309  0.929571  0.834018  1
  Yb  Yb7  1  0.549545  0.792725  0.086724  1
  Si  Si8  1  0.320637  0.022550  0.432444  1
  Si  Si9  1  0.407473  0.591171  0.251381  1
  Si  Si10  1  0.022550  0.320637  0.932444  1
  Si  Si11  1  0.699677  0.958702  0.563084  1
  Si  Si12  1  0.958702  0.699677  0.063084  1
  Si  Si13  1  0.591171  0.407473  0.751381  1
  Ir  Ir14  1  0.582000  0.292352  0.530548  1
  Ir  Ir15  1  0.701910  0.422954  0.970018  1
  Ir  Ir16  1  0.292352  0.582000  0.030548  1
  Ir  Ir17  1  0.422954  0.701910  0.470018  1
  Ir  Ir18  1  0.641552  0.917907  0.318498  1
  Ir  Ir19  1  0.917907  0.641552  0.818498  1
  Pd  Pd20  1  0.358688  0.083502  0.687908  1
  Pd  Pd21  1  0.083502  0.358688  0.187908  1
