# generated using pymatgen
data_YbThGa12Pd
_symmetry_space_group_name_H-M   'P 1'
_cell_length_a   6.10785400
_cell_length_b   6.10785400
_cell_length_c   15.72226500
_cell_angle_alpha   90.00000000
_cell_angle_beta   90.00000000
_cell_angle_gamma   90.00000000
_symmetry_Int_Tables_number   1
_chemical_formula_structural   YbThGa12Pd
_chemical_formula_sum   'Yb2 Th2 Ga24 Pd2'
_cell_volume   586.53293905
_cell_formula_units_Z   2
loop_
 _symmetry_equiv_pos_site_id
 _symmetry_equiv_pos_as_xyz
  1  'x, y, z'
loop_
 _atom_site_type_symbol
 _atom_site_label
 _atom_site_symmetry_multiplicity
 _atom_site_fract_x
 _atom_site_fract_y
 _atom_site_fract_z
 _atom_site_occupancy
  Yb  Yb0  1  0.750000  0.250000  0.246928  1
  Yb  Yb1  1  0.250000  0.750000  0.246928  1
  Th  Th2  1  0.250000  0.750000  0.753723  1
  Th  Th3  1  0.750000  0.250000  0.753723  1
  Ga  Ga4  1  0.250000  0.250000  0.186597  1
  Ga  Ga5  1  0.750000  0.750000  0.186597  1
  Ga  Ga6  1  0.750000  0.750000  0.812305  1
  Ga  Ga7  1  0.250000  0.250000  0.812305  1
  Ga  Ga8  1  0.250000  0.250000  0.343005  1
  Ga  Ga9  1  0.750000  0.750000  0.343005  1
  Ga  Ga10  1  0.750000  0.750000  0.656295  1
  Ga  Ga11  1  0.250000  0.250000  0.656295  1
  Ga  Ga12  1  0.500486  0.000486  0.909938  1
  Ga  Ga13  1  0.000486  0.999514  0.909938  1
  Ga  Ga14  1  0.499514  0.500486  0.909938  1
  Ga  Ga15  1  0.999514  0.499514  0.909938  1
  Ga  Ga16  1  0.500332  0.000332  0.088841  1
  Ga  Ga17  1  0.000332  0.999668  0.088841  1
  Ga  Ga18  1  0.499668  0.500332  0.088841  1
  Ga  Ga19  1  0.999668  0.499668  0.088841  1
  Ga  Ga20  1  0.567262  0.067262  0.431924  1
  Ga  Ga21  1  0.067262  0.932738  0.431924  1
  Ga  Ga22  1  0.432738  0.567262  0.431924  1
  Ga  Ga23  1  0.932738  0.432738  0.431924  1
  Ga  Ga24  1  0.414772  0.914772  0.571545  1
  Ga  Ga25  1  0.914772  0.085228  0.571545  1
  Ga  Ga26  1  0.585228  0.414772  0.571545  1
  Ga  Ga27  1  0.085228  0.585228  0.571545  1
  Pd  Pd28  1  0.750000  0.250000  0.996652  1
  Pd  Pd29  1  0.250000  0.750000  0.996652  1
