# generated using pymatgen
data_Hf8In4Pt5Au3
_symmetry_space_group_name_H-M   'P 1'
_cell_length_a   7.53137771
_cell_length_b   7.54176042
_cell_length_c   6.95593604
_cell_angle_alpha   90.03511033
_cell_angle_beta   90.04713907
_cell_angle_gamma   90.15676522
_symmetry_Int_Tables_number   1
_chemical_formula_structural   Hf8In4Pt5Au3
_chemical_formula_sum   'Hf8 In4 Pt5 Au3'
_cell_volume   395.09441072
_cell_formula_units_Z   1
loop_
 _symmetry_equiv_pos_site_id
 _symmetry_equiv_pos_as_xyz
  1  'x, y, z'
loop_
 _atom_site_type_symbol
 _atom_site_label
 _atom_site_symmetry_multiplicity
 _atom_site_fract_x
 _atom_site_fract_y
 _atom_site_fract_z
 _atom_site_occupancy
  Hf  Hf0  1  0.132798  0.155417  0.005321  1
  Hf  Hf1  1  0.838611  0.859735  0.998033  1
  Hf  Hf2  1  0.656061  0.352753  0.495253  1
  Hf  Hf3  1  0.366795  0.642870  0.493924  1
  Hf  Hf4  1  0.693021  0.312600  0.004197  1
  Hf  Hf5  1  0.325188  0.682812  0.004056  1
  Hf  Hf6  1  0.801682  0.813388  0.499900  1
  Hf  Hf7  1  0.180593  0.194958  0.494932  1
  In  In8  1  0.500327  0.003942  0.249442  1
  In  In9  1  0.500840  0.998778  0.749741  1
  In  In10  1  0.000787  0.501220  0.249346  1
  In  In11  1  0.996205  0.500331  0.748942  1
  Pt  Pt12  1  0.369215  0.367291  0.214764  1
  Pt  Pt13  1  0.630836  0.628436  0.785983  1
  Pt  Pt14  1  0.634156  0.630270  0.210048  1
  Pt  Pt15  1  0.869573  0.129497  0.712732  1
  Pt  Pt16  1  0.869571  0.128696  0.289143  1
  Au  Au17  1  0.368849  0.364468  0.792062  1
  Au  Au18  1  0.131406  0.865904  0.289215  1
  Au  Au19  1  0.133486  0.866635  0.712967  1
