# generated using pymatgen
data_Ce7Er(Si3Pd)4
_symmetry_space_group_name_H-M   'P 1'
_cell_length_a   8.25261400
_cell_length_b   8.25261454
_cell_length_c   8.31651000
_cell_angle_alpha   90.00000000
_cell_angle_beta   90.00000000
_cell_angle_gamma   119.99999782
_symmetry_Int_Tables_number   1
_chemical_formula_structural   Ce7Er(Si3Pd)4
_chemical_formula_sum   'Ce7 Er1 Si12 Pd4'
_cell_volume   490.51788673
_cell_formula_units_Z   1
loop_
 _symmetry_equiv_pos_site_id
 _symmetry_equiv_pos_as_xyz
  1  'x, y, z'
loop_
 _atom_site_type_symbol
 _atom_site_label
 _atom_site_symmetry_multiplicity
 _atom_site_fract_x
 _atom_site_fract_y
 _atom_site_fract_z
 _atom_site_occupancy
  Ce  Ce0  1  0.501127  0.002255  0.250000  1
  Ce  Ce1  1  0.498756  0.997512  0.750000  1
  Ce  Ce2  1  0.997745  0.498873  0.250000  1
  Ce  Ce3  1  0.002488  0.501244  0.750000  1
  Ce  Ce4  1  0.501127  0.498873  0.250000  1
  Ce  Ce5  1  0.498756  0.501244  0.750000  1
  Ce  Ce6  1  0.000000  0.000000  0.250000  1
  Er  Er7  1  0.000000  0.000000  0.750000  1
  Si  Si8  1  0.164289  0.328578  0.998828  1
  Si  Si9  1  0.835710  0.671420  0.996866  1
  Si  Si10  1  0.671422  0.835711  0.998828  1
  Si  Si11  1  0.835710  0.671420  0.503134  1
  Si  Si12  1  0.328580  0.164290  0.996866  1
  Si  Si13  1  0.164289  0.328578  0.501172  1
  Si  Si14  1  0.164289  0.835711  0.998828  1
  Si  Si15  1  0.328580  0.164290  0.503134  1
  Si  Si16  1  0.835710  0.164290  0.996866  1
  Si  Si17  1  0.671422  0.835711  0.501172  1
  Si  Si18  1  0.835710  0.164290  0.503134  1
  Si  Si19  1  0.164289  0.835711  0.501172  1
  Pd  Pd20  1  0.333333  0.666667  0.004295  1
  Pd  Pd21  1  0.666667  0.333333  0.997390  1
  Pd  Pd22  1  0.666667  0.333333  0.502610  1
  Pd  Pd23  1  0.333333  0.666667  0.495705  1
