# generated using pymatgen
data_Li4Ca3LuSi7Ge
_symmetry_space_group_name_H-M   'P 1'
_cell_length_a   3.79877000
_cell_length_b   7.86536740
_cell_length_c   10.47300237
_cell_angle_alpha   89.88132324
_cell_angle_beta   90.00000000
_cell_angle_gamma   90.00000000
_symmetry_Int_Tables_number   1
_chemical_formula_structural   Li4Ca3LuSi7Ge
_chemical_formula_sum   'Li4 Ca3 Lu1 Si7 Ge1'
_cell_volume   312.91925215
_cell_formula_units_Z   1
loop_
 _symmetry_equiv_pos_site_id
 _symmetry_equiv_pos_as_xyz
  1  'x, y, z'
loop_
 _atom_site_type_symbol
 _atom_site_label
 _atom_site_symmetry_multiplicity
 _atom_site_fract_x
 _atom_site_fract_y
 _atom_site_fract_z
 _atom_site_occupancy
  Li  Li0  1  0.250000  0.997360  0.388387  1
  Li  Li1  1  0.750000  0.001038  0.609805  1
  Li  Li2  1  0.250000  0.496099  0.108223  1
  Li  Li3  1  0.750000  0.510986  0.888497  1
  Ca  Ca4  1  0.750000  0.867607  0.135926  1
  Ca  Ca5  1  0.250000  0.634454  0.637916  1
  Ca  Ca6  1  0.750000  0.361888  0.365285  1
  Lu  Lu7  1  0.250000  0.127442  0.865229  1
  Si  Si8  1  0.750000  0.265901  0.056799  1
  Si  Si9  1  0.750000  0.766465  0.432336  1
  Si  Si10  1  0.250000  0.225155  0.576643  1
  Si  Si11  1  0.750000  0.850764  0.821292  1
  Si  Si12  1  0.250000  0.163225  0.167418  1
  Si  Si13  1  0.750000  0.329577  0.685976  1
  Si  Si14  1  0.250000  0.662728  0.324482  1
  Ge  Ge15  1  0.250000  0.739312  0.935785  1
