# generated using pymatgen
data_Zr12Al5Re7N4
_symmetry_space_group_name_H-M   'P 1'
_cell_length_a   8.69187953
_cell_length_b   8.69188083
_cell_length_c   8.67184075
_cell_angle_alpha   59.92352092
_cell_angle_beta   59.92351856
_cell_angle_gamma   59.99999713
_symmetry_Int_Tables_number   1
_chemical_formula_structural   Zr12Al5Re7N4
_chemical_formula_sum   'Zr12 Al5 Re7 N4'
_cell_volume   462.72262593
_cell_formula_units_Z   1
loop_
 _symmetry_equiv_pos_site_id
 _symmetry_equiv_pos_as_xyz
  1  'x, y, z'
loop_
 _atom_site_type_symbol
 _atom_site_label
 _atom_site_symmetry_multiplicity
 _atom_site_fract_x
 _atom_site_fract_y
 _atom_site_fract_z
 _atom_site_occupancy
  Zr  Zr0  1  0.807651  0.195813  0.188885  1
  Zr  Zr1  1  0.195813  0.807651  0.188885  1
  Zr  Zr2  1  0.807651  0.807651  0.188885  1
  Zr  Zr3  1  0.187092  0.812063  0.813752  1
  Zr  Zr4  1  0.812063  0.187092  0.813752  1
  Zr  Zr5  1  0.187092  0.187092  0.813752  1
  Zr  Zr6  1  0.439688  0.061055  0.059570  1
  Zr  Zr7  1  0.061055  0.439688  0.059570  1
  Zr  Zr8  1  0.439688  0.439688  0.059570  1
  Zr  Zr9  1  0.058859  0.439995  0.442285  1
  Zr  Zr10  1  0.439995  0.058859  0.442285  1
  Zr  Zr11  1  0.058859  0.058859  0.442285  1
  Al  Al12  1  0.418151  0.418151  0.745544  1
  Al  Al13  1  0.419237  0.419237  0.418788  1
  Al  Al14  1  0.742738  0.419237  0.418788  1
  Al  Al15  1  0.419237  0.742738  0.418788  1
  Al  Al16  1  0.835263  0.835263  0.494212  1
  Re  Re17  1  0.831970  0.831970  0.820431  1
  Re  Re18  1  0.515631  0.831970  0.820431  1
  Re  Re19  1  0.831970  0.515631  0.820431  1
  Re  Re20  1  0.628232  0.628232  0.115302  1
  Re  Re21  1  0.623569  0.623569  0.635392  1
  Re  Re22  1  0.117470  0.623569  0.635392  1
  Re  Re23  1  0.623569  0.117470  0.635392  1
  N  N24  1  0.125538  0.125538  0.623384  1
  N  N25  1  0.124566  0.124566  0.128082  1
  N  N26  1  0.622786  0.124566  0.128082  1
  N  N27  1  0.124566  0.622786  0.128082  1
