# generated using pymatgen
data_Hf2GaB2Ru5
_symmetry_space_group_name_H-M   'P 1'
_cell_length_a   9.36849300
_cell_length_b   9.36849300
_cell_length_c   3.06617400
_cell_angle_alpha   90.00000000
_cell_angle_beta   90.00000000
_cell_angle_gamma   90.00000000
_symmetry_Int_Tables_number   1
_chemical_formula_structural   Hf2GaB2Ru5
_chemical_formula_sum   'Hf4 Ga2 B4 Ru10'
_cell_volume   269.11398665
_cell_formula_units_Z   2
loop_
 _symmetry_equiv_pos_site_id
 _symmetry_equiv_pos_as_xyz
  1  'x, y, z'
loop_
 _atom_site_type_symbol
 _atom_site_label
 _atom_site_symmetry_multiplicity
 _atom_site_fract_x
 _atom_site_fract_y
 _atom_site_fract_z
 _atom_site_occupancy
  Hf  Hf0  1  0.824690  0.675310  0.000000  1
  Hf  Hf1  1  0.175310  0.324690  0.000000  1
  Hf  Hf2  1  0.324690  0.824690  0.000000  1
  Hf  Hf3  1  0.675310  0.175310  0.000000  1
  Ga  Ga4  1  0.500000  0.500000  0.000000  1
  Ga  Ga5  1  0.000000  0.000000  0.000000  1
  B  B6  1  0.624022  0.875978  0.000000  1
  B  B7  1  0.375978  0.124022  0.000000  1
  B  B8  1  0.124022  0.624022  0.000000  1
  B  B9  1  0.875978  0.375978  0.000000  1
  Ru  Ru10  1  0.569830  0.714986  0.500000  1
  Ru  Ru11  1  0.430170  0.285014  0.500000  1
  Ru  Ru12  1  0.069830  0.785014  0.500000  1
  Ru  Ru13  1  0.930170  0.214986  0.500000  1
  Ru  Ru14  1  0.285014  0.569830  0.500000  1
  Ru  Ru15  1  0.714986  0.430170  0.500000  1
  Ru  Ru16  1  0.214986  0.069830  0.500000  1
  Ru  Ru17  1  0.785014  0.930170  0.500000  1
  Ru  Ru18  1  0.500000  0.000000  0.500000  1
  Ru  Ru19  1  0.000000  0.500000  0.500000  1
