# generated using pymatgen
data_Tb7Dy3Y6(CdPt)4
_symmetry_space_group_name_H-M   'P 1'
_cell_length_a   9.72305234
_cell_length_b   9.72239908
_cell_length_c   9.71649148
_cell_angle_alpha   60.02455245
_cell_angle_beta   59.99015430
_cell_angle_gamma   59.95758041
_symmetry_Int_Tables_number   1
_chemical_formula_structural   Tb7Dy3Y6(CdPt)4
_chemical_formula_sum   'Tb7 Dy3 Y6 Cd4 Pt4'
_cell_volume   649.35064121
_cell_formula_units_Z   1
loop_
 _symmetry_equiv_pos_site_id
 _symmetry_equiv_pos_as_xyz
  1  'x, y, z'
loop_
 _atom_site_type_symbol
 _atom_site_label
 _atom_site_symmetry_multiplicity
 _atom_site_fract_x
 _atom_site_fract_y
 _atom_site_fract_z
 _atom_site_occupancy
  Tb  Tb0  1  0.352237  0.350460  0.352608  1
  Tb  Tb1  1  0.354492  0.352284  0.940702  1
  Tb  Tb2  1  0.352608  0.944696  0.352237  1
  Tb  Tb3  1  0.940702  0.352523  0.354492  1
  Tb  Tb4  1  0.810932  0.190173  0.188810  1
  Tb  Tb5  1  0.188810  0.810085  0.810932  1
  Tb  Tb6  1  0.190412  0.809588  0.190412  1
  Dy  Dy7  1  0.811226  0.188774  0.811226  1
  Dy  Dy8  1  0.189004  0.190363  0.810790  1
  Dy  Dy9  1  0.810790  0.809843  0.189004  1
  Y  Y10  1  0.935804  0.564496  0.564370  1
  Y  Y11  1  0.564370  0.935330  0.935804  1
  Y  Y12  1  0.565192  0.934808  0.565192  1
  Y  Y13  1  0.936350  0.563650  0.936350  1
  Y  Y14  1  0.564431  0.564450  0.935799  1
  Y  Y15  1  0.935799  0.935320  0.564431  1
  Cd  Cd16  1  0.581492  0.582464  0.581378  1
  Cd  Cd17  1  0.581328  0.582439  0.253941  1
  Cd  Cd18  1  0.581378  0.254667  0.581492  1
  Cd  Cd19  1  0.253941  0.582293  0.581328  1
  Pt  Pt20  1  0.143369  0.145054  0.142586  1
  Pt  Pt21  1  0.141651  0.144047  0.571101  1
  Pt  Pt22  1  0.142586  0.568991  0.143369  1
  Pt  Pt23  1  0.571101  0.143201  0.141651  1
