# generated using pymatgen
data_Ho4ReOs6Ru
_symmetry_space_group_name_H-M   'P 1'
_cell_length_a   5.26413298
_cell_length_b   5.38929474
_cell_length_c   8.95377907
_cell_angle_alpha   89.99999750
_cell_angle_beta   89.98787114
_cell_angle_gamma   120.78969263
_symmetry_Int_Tables_number   1
_chemical_formula_structural   Ho4ReOs6Ru
_chemical_formula_sum   'Ho4 Re1 Os6 Ru1'
_cell_volume   218.21500002
_cell_formula_units_Z   1
loop_
 _symmetry_equiv_pos_site_id
 _symmetry_equiv_pos_as_xyz
  1  'x, y, z'
loop_
 _atom_site_type_symbol
 _atom_site_label
 _atom_site_symmetry_multiplicity
 _atom_site_fract_x
 _atom_site_fract_y
 _atom_site_fract_z
 _atom_site_occupancy
  Ho  Ho0  1  0.328137  0.664069  0.434428  1
  Ho  Ho1  1  0.655977  0.327988  0.564808  1
  Ho  Ho2  1  0.657038  0.328519  0.935024  1
  Ho  Ho3  1  0.329416  0.664708  0.065856  1
  Re  Re4  1  0.682874  0.841437  0.749107  1
  Os  Os5  1  0.976757  0.988379  0.499931  1
  Os  Os6  1  0.837393  0.169533  0.250544  1
  Os  Os7  1  0.837393  0.667861  0.250544  1
  Os  Os8  1  0.355975  0.177988  0.250690  1
  Os  Os9  1  0.180919  0.825895  0.749625  1
  Os  Os10  1  0.180919  0.355023  0.749625  1
  Ru  Ru11  1  0.977200  0.988600  0.999818  1
