# generated using pymatgen
data_Th4Ni3B16Ir
_symmetry_space_group_name_H-M   'P 1'
_cell_length_a   7.01464008
_cell_length_b   7.01463999
_cell_length_c   7.01464108
_cell_angle_alpha   112.91704737
_cell_angle_beta   112.04628210
_cell_angle_gamma   103.60615625
_symmetry_Int_Tables_number   1
_chemical_formula_structural   Th4Ni3B16Ir
_chemical_formula_sum   'Th4 Ni3 B16 Ir1'
_cell_volume   263.62557907
_cell_formula_units_Z   1
loop_
 _symmetry_equiv_pos_site_id
 _symmetry_equiv_pos_as_xyz
  1  'x, y, z'
loop_
 _atom_site_type_symbol
 _atom_site_label
 _atom_site_symmetry_multiplicity
 _atom_site_fract_x
 _atom_site_fract_y
 _atom_site_fract_z
 _atom_site_occupancy
  Th  Th0  1  0.250987  0.751187  0.500200  1
  Th  Th1  1  0.749013  0.249213  0.500200  1
  Th  Th2  1  0.794236  0.794997  0.000762  1
  Th  Th3  1  0.205764  0.206526  0.000762  1
  Ni  Ni4  1  0.736438  0.497495  0.233935  1
  Ni  Ni5  1  0.263562  0.497495  0.761057  1
  Ni  Ni6  1  0.500000  0.271905  0.771905  1
  B  B7  1  0.115107  0.115000  0.531937  1
  B  B8  1  0.586514  0.580450  0.473009  1
  B  B9  1  0.892559  0.886494  0.473009  1
  B  B10  1  0.583062  0.115000  0.999892  1
  B  B11  1  0.107441  0.580450  0.993935  1
  B  B12  1  0.884893  0.416830  0.999892  1
  B  B13  1  0.413486  0.886494  0.993935  1
  B  B14  1  0.416938  0.416830  0.531937  1
  B  B15  1  0.110335  0.271794  0.382131  1
  B  B16  1  0.268085  0.890734  0.158818  1
  B  B17  1  0.727386  0.112475  0.839861  1
  B  B18  1  0.109223  0.728768  0.837991  1
  B  B19  1  0.889665  0.271794  0.161459  1
  B  B20  1  0.890777  0.728768  0.619545  1
  B  B21  1  0.731915  0.890734  0.622649  1
  B  B22  1  0.272614  0.112475  0.385090  1
  Ir  Ir23  1  0.500000  0.726088  0.226088  1
