# generated using pymatgen
data_Ca9ThSi6O
_symmetry_space_group_name_H-M   'P 1'
_cell_length_a   9.11155933
_cell_length_b   9.09049058
_cell_length_c   9.10392145
_cell_angle_alpha   130.08307744
_cell_angle_beta   130.14471588
_cell_angle_gamma   73.20020390
_symmetry_Int_Tables_number   1
_chemical_formula_structural   Ca9ThSi6O
_chemical_formula_sum   'Ca9 Th1 Si6 O1'
_cell_volume   430.65271597
_cell_formula_units_Z   1
loop_
 _symmetry_equiv_pos_site_id
 _symmetry_equiv_pos_as_xyz
  1  'x, y, z'
loop_
 _atom_site_type_symbol
 _atom_site_label
 _atom_site_symmetry_multiplicity
 _atom_site_fract_x
 _atom_site_fract_y
 _atom_site_fract_z
 _atom_site_occupancy
  Ca  Ca0  1  0.432085  0.766896  0.000000  1
  Ca  Ca1  1  0.930745  0.931686  0.644465  1
  Ca  Ca2  1  0.286279  0.287220  0.355535  1
  Ca  Ca3  1  0.710772  0.064299  0.000000  1
  Ca  Ca4  1  0.068726  0.711711  0.000000  1
  Ca  Ca5  1  0.562748  0.563151  0.324674  1
  Ca  Ca6  1  0.238073  0.238476  0.675326  1
  Ca  Ca7  1  0.254744  0.754204  0.506851  1
  Ca  Ca8  1  0.747893  0.247353  0.493149  1
  Th  Th9  1  0.760921  0.435837  0.000000  1
  Si  Si10  1  0.995272  0.499023  0.488507  1
  Si  Si11  1  0.506765  0.010517  0.511493  1
  Si  Si12  1  0.127003  0.359498  0.000000  1
  Si  Si13  1  0.357892  0.135049  0.000000  1
  Si  Si14  1  0.867941  0.861941  0.227089  1
  Si  Si15  1  0.640852  0.634851  0.772911  1
  O  O16  1  0.511289  0.498287  0.000000  1
