# generated using pymatgen
data_Tb7Ho8Th(InIr)4
_symmetry_space_group_name_H-M   'P 1'
_cell_length_a   9.68987068
_cell_length_b   9.68664858
_cell_length_c   9.69283870
_cell_angle_alpha   60.08365121
_cell_angle_beta   60.11872100
_cell_angle_gamma   60.07205520
_symmetry_Int_Tables_number   1
_chemical_formula_structural   Tb7Ho8Th(InIr)4
_chemical_formula_sum   'Tb7 Ho8 Th1 In4 Ir4'
_cell_volume   644.65391640
_cell_formula_units_Z   1
loop_
 _symmetry_equiv_pos_site_id
 _symmetry_equiv_pos_as_xyz
  1  'x, y, z'
loop_
 _atom_site_type_symbol
 _atom_site_label
 _atom_site_symmetry_multiplicity
 _atom_site_fract_x
 _atom_site_fract_y
 _atom_site_fract_z
 _atom_site_occupancy
  Tb  Tb0  1  0.690916  0.308553  0.690757  1
  Tb  Tb1  1  0.689622  0.688597  0.311141  1
  Tb  Tb2  1  0.690074  0.309807  0.311388  1
  Tb  Tb3  1  0.310540  0.688628  0.689438  1
  Tb  Tb4  1  0.559246  0.939756  0.559381  1
  Tb  Tb5  1  0.699744  0.102124  0.099756  1
  Tb  Tb6  1  0.559140  0.939907  0.940949  1
  Ho  Ho7  1  0.942089  0.939684  0.558728  1
  Ho  Ho8  1  0.939886  0.557668  0.938554  1
  Ho  Ho9  1  0.310812  0.688961  0.311807  1
  Ho  Ho10  1  0.939884  0.558843  0.561670  1
  Ho  Ho11  1  0.309769  0.309345  0.690956  1
  Ho  Ho12  1  0.098244  0.099211  0.098951  1
  Ho  Ho13  1  0.561871  0.559047  0.939162  1
  Ho  Ho14  1  0.099651  0.101543  0.700306  1
  Th  Th15  1  0.097626  0.709414  0.097306  1
  In  In16  1  0.332750  0.333297  0.333776  1
  In  In17  1  0.001611  0.332514  0.332691  1
  In  In18  1  0.332569  0.000876  0.333220  1
  In  In19  1  0.332267  0.332828  0.001026  1
  Ir  Ir20  1  0.892353  0.891843  0.890511  1
  Ir  Ir21  1  0.893356  0.890907  0.324909  1
  Ir  Ir22  1  0.323557  0.891696  0.892688  1
  Ir  Ir23  1  0.892425  0.324952  0.890935  1
