# generated using pymatgen
data_LuSc3Cu14
_symmetry_space_group_name_H-M   'P 1'
_cell_length_a   4.84651443
_cell_length_b   4.84651548
_cell_length_c   12.59317460
_cell_angle_alpha   86.71272058
_cell_angle_beta   86.71271626
_cell_angle_gamma   119.45567880
_symmetry_Int_Tables_number   1
_chemical_formula_structural   LuSc3Cu14
_chemical_formula_sum   'Lu1 Sc3 Cu14'
_cell_volume   255.88980571
_cell_formula_units_Z   1
loop_
 _symmetry_equiv_pos_site_id
 _symmetry_equiv_pos_as_xyz
  1  'x, y, z'
loop_
 _atom_site_type_symbol
 _atom_site_label
 _atom_site_symmetry_multiplicity
 _atom_site_fract_x
 _atom_site_fract_y
 _atom_site_fract_z
 _atom_site_occupancy
  Lu  Lu0  1  0.282005  0.282005  0.115421  1
  Sc  Sc1  1  0.720761  0.720761  0.882565  1
  Sc  Sc2  1  0.784233  0.784233  0.615189  1
  Sc  Sc3  1  0.214650  0.214650  0.388955  1
  Cu  Cu4  1  0.365359  0.032177  0.921655  1
  Cu  Cu5  1  0.032177  0.365359  0.921655  1
  Cu  Cu6  1  0.253428  0.753335  0.748211  1
  Cu  Cu7  1  0.753335  0.253428  0.748211  1
  Cu  Cu8  1  0.252748  0.252748  0.749831  1
  Cu  Cu9  1  0.139226  0.467530  0.576045  1
  Cu  Cu10  1  0.467530  0.139226  0.576045  1
  Cu  Cu11  1  0.861440  0.534120  0.424796  1
  Cu  Cu12  1  0.534120  0.861440  0.424796  1
  Cu  Cu13  1  0.747364  0.747364  0.251181  1
  Cu  Cu14  1  0.746685  0.246309  0.252451  1
  Cu  Cu15  1  0.246309  0.746685  0.252451  1
  Cu  Cu16  1  0.635003  0.963627  0.075269  1
  Cu  Cu17  1  0.963627  0.635003  0.075269  1
