# generated using pymatgen
data_BaIrO5
_symmetry_space_group_name_H-M   'P 1'
_cell_length_a   14.63252739
_cell_length_b   14.53680421
_cell_length_c   5.47386513
_cell_angle_alpha   80.16966198
_cell_angle_beta   78.20126120
_cell_angle_gamma   21.62907186
_symmetry_Int_Tables_number   1
_chemical_formula_structural   BaIrO5
_chemical_formula_sum   'Ba4 Ir4 O20'
_cell_volume   419.50195045
_cell_formula_units_Z   4
loop_
 _symmetry_equiv_pos_site_id
 _symmetry_equiv_pos_as_xyz
  1  'x, y, z'
loop_
 _atom_site_type_symbol
 _atom_site_label
 _atom_site_symmetry_multiplicity
 _atom_site_fract_x
 _atom_site_fract_y
 _atom_site_fract_z
 _atom_site_occupancy
  Ba  Ba0  1  0.183929  0.703900  0.269862  1
  Ba  Ba1  1  0.842308  0.269862  0.703900  1
  Ba  Ba2  1  0.980138  0.407692  0.066071  1
  Ba  Ba3  1  0.546100  0.066071  0.407692  1
  Ir  Ir4  1  0.413282  0.927358  0.561099  1
  Ir  Ir5  1  0.322642  0.836718  0.151741  1
  Ir  Ir6  1  0.098259  0.561099  0.927358  1
  Ir  Ir7  1  0.688901  0.151741  0.836718  1
  O  O8  1  0.458645  0.444406  0.703421  1
  O  O9  1  0.393526  0.703421  0.444406  1
  O  O10  1  0.805594  0.791355  0.856474  1
  O  O11  1  0.546579  0.856474  0.791355  1
  O  O12  1  0.566724  0.867930  0.289102  1
  O  O13  1  0.920801  0.840352  0.019773  1
  O  O14  1  0.124570  0.266582  0.558443  1
  O  O15  1  0.960898  0.973756  0.683276  1
  O  O16  1  0.050406  0.558443  0.266582  1
  O  O17  1  0.382070  0.683276  0.973756  1
  O  O18  1  0.691557  0.199594  0.125430  1
  O  O19  1  0.208843  0.521376  0.617542  1
  O  O20  1  0.983418  0.125430  0.199594  1
  O  O21  1  0.652238  0.617542  0.521376  1
  O  O22  1  0.409648  0.329199  0.030926  1
  O  O23  1  0.728624  0.041157  0.597762  1
  O  O24  1  0.230227  0.030926  0.329199  1
  O  O25  1  0.219074  0.019773  0.840352  1
  O  O26  1  0.632458  0.597762  0.041157  1
  O  O27  1  0.276244  0.289102  0.867930  1
