# generated using pymatgen
data_DyHo7(BeB14)2
_symmetry_space_group_name_H-M   'P 1'
_cell_length_a   7.19771127
_cell_length_b   7.19832727
_cell_length_c   7.37415200
_cell_angle_alpha   90.00000000
_cell_angle_beta   90.00000000
_cell_angle_gamma   89.96884481
_symmetry_Int_Tables_number   1
_chemical_formula_structural   DyHo7(BeB14)2
_chemical_formula_sum   'Dy1 Ho7 Be2 B28'
_cell_volume   382.06568167
_cell_formula_units_Z   1
loop_
 _symmetry_equiv_pos_site_id
 _symmetry_equiv_pos_as_xyz
  1  'x, y, z'
loop_
 _atom_site_type_symbol
 _atom_site_label
 _atom_site_symmetry_multiplicity
 _atom_site_fract_x
 _atom_site_fract_y
 _atom_site_fract_z
 _atom_site_occupancy
  Dy  Dy0  1  0.194873  0.329104  0.000000  1
  Ho  Ho1  1  0.670933  0.194830  0.000000  1
  Ho  Ho2  1  0.329139  0.805209  0.000000  1
  Ho  Ho3  1  0.694857  0.170878  0.500000  1
  Ho  Ho4  1  0.305155  0.829106  0.500000  1
  Ho  Ho5  1  0.805128  0.670911  0.000000  1
  Ho  Ho6  1  0.829121  0.694845  0.500000  1
  Ho  Ho7  1  0.170874  0.305147  0.500000  1
  Be  Be8  1  0.999925  0.999865  0.000000  1
  Be  Be9  1  0.499996  0.500002  0.500000  1
  B  B10  1  0.173992  0.038691  0.228041  1
  B  B11  1  0.960957  0.173900  0.228086  1
  B  B12  1  0.038872  0.825920  0.227947  1
  B  B13  1  0.674083  0.461136  0.272110  1
  B  B14  1  0.326042  0.539007  0.272219  1
  B  B15  1  0.825919  0.961115  0.227937  1
  B  B16  1  0.538901  0.674080  0.272110  1
  B  B17  1  0.461217  0.325966  0.272159  1
  B  B18  1  0.825919  0.961115  0.772063  1
  B  B19  1  0.038872  0.825920  0.772053  1
  B  B20  1  0.960957  0.173900  0.771914  1
  B  B21  1  0.326042  0.539007  0.727781  1
  B  B22  1  0.674083  0.461136  0.727890  1
  B  B23  1  0.173992  0.038691  0.771959  1
  B  B24  1  0.461217  0.325966  0.727841  1
  B  B25  1  0.538901  0.674080  0.727890  1
  B  B26  1  0.088220  0.588439  0.250142  1
  B  B27  1  0.411736  0.088259  0.250031  1
  B  B28  1  0.588298  0.911704  0.250018  1
  B  B29  1  0.911612  0.411752  0.250081  1
  B  B30  1  0.911612  0.411752  0.749919  1
  B  B31  1  0.588298  0.911704  0.749982  1
  B  B32  1  0.411736  0.088259  0.749969  1
  B  B33  1  0.088220  0.588439  0.749858  1
  B  B34  1  0.999980  0.999986  0.387876  1
  B  B35  1  0.500171  0.500098  0.112247  1
  B  B36  1  0.999980  0.999986  0.612124  1
  B  B37  1  0.500171  0.500098  0.887753  1
