# generated using pymatgen
data_Tb5Yb3(TmRu2)2
_symmetry_space_group_name_H-M   'P 1'
_cell_length_a   6.40756822
_cell_length_b   7.23468718
_cell_length_c   8.52067103
_cell_angle_alpha   96.52421942
_cell_angle_beta   112.46222757
_cell_angle_gamma   90.30251722
_symmetry_Int_Tables_number   1
_chemical_formula_structural   Tb5Yb3(TmRu2)2
_chemical_formula_sum   'Tb5 Yb3 Tm2 Ru4'
_cell_volume   362.14905304
_cell_formula_units_Z   1
loop_
 _symmetry_equiv_pos_site_id
 _symmetry_equiv_pos_as_xyz
  1  'x, y, z'
loop_
 _atom_site_type_symbol
 _atom_site_label
 _atom_site_symmetry_multiplicity
 _atom_site_fract_x
 _atom_site_fract_y
 _atom_site_fract_z
 _atom_site_occupancy
  Tb  Tb0  1  0.023443  0.583510  0.818376  1
  Tb  Tb1  1  0.200942  0.185428  0.566204  1
  Tb  Tb2  1  0.638623  0.317664  0.432305  1
  Tb  Tb3  1  0.794789  0.815923  0.433198  1
  Tb  Tb4  1  0.362352  0.684140  0.567989  1
  Yb  Yb5  1  0.797779  0.082720  0.819667  1
  Yb  Yb6  1  0.977496  0.418408  0.183503  1
  Yb  Yb7  1  0.206757  0.919446  0.183700  1
  Tm  Tm8  1  0.430644  0.250470  0.001038  1
  Tm  Tm9  1  0.574150  0.749729  0.001039  1
  Ru  Ru10  1  0.593472  0.429344  0.773949  1
  Ru  Ru11  1  0.813702  0.070970  0.227367  1
  Ru  Ru12  1  0.403621  0.569409  0.215883  1
  Ru  Ru13  1  0.182232  0.922839  0.775782  1
