# generated using pymatgen
data_Pr3SiBr3
_symmetry_space_group_name_H-M   'P 1'
_cell_length_a   10.52779659
_cell_length_b   10.52779571
_cell_length_c   10.52779600
_cell_angle_alpha   109.47121928
_cell_angle_beta   109.47121758
_cell_angle_gamma   109.47122539
_symmetry_Int_Tables_number   1
_chemical_formula_structural   Pr3SiBr3
_chemical_formula_sum   'Pr12 Si4 Br12'
_cell_volume   898.23609381
_cell_formula_units_Z   4
loop_
 _symmetry_equiv_pos_site_id
 _symmetry_equiv_pos_as_xyz
  1  'x, y, z'
loop_
 _atom_site_type_symbol
 _atom_site_label
 _atom_site_symmetry_multiplicity
 _atom_site_fract_x
 _atom_site_fract_y
 _atom_site_fract_z
 _atom_site_occupancy
  Pr  Pr0  1  0.476692  0.488346  0.238346  1
  Pr  Pr1  1  0.750000  0.238346  0.261654  1
  Pr  Pr2  1  0.750000  0.011654  0.488346  1
  Pr  Pr3  1  0.238346  0.476692  0.488346  1
  Pr  Pr4  1  0.261654  0.750000  0.238346  1
  Pr  Pr5  1  0.023308  0.261654  0.011654  1
  Pr  Pr6  1  0.011654  0.023308  0.261654  1
  Pr  Pr7  1  0.488346  0.750000  0.011654  1
  Pr  Pr8  1  0.488346  0.238346  0.476692  1
  Pr  Pr9  1  0.011654  0.488346  0.750000  1
  Pr  Pr10  1  0.261654  0.011654  0.023308  1
  Pr  Pr11  1  0.238346  0.261654  0.750000  1
  Si  Si12  1  0.250000  0.250000  0.250000  1
  Si  Si13  1  0.500000  0.000000  0.250000  1
  Si  Si14  1  0.000000  0.250000  0.500000  1
  Si  Si15  1  0.250000  0.500000  0.000000  1
  Br  Br16  1  0.250000  0.754217  0.745783  1
  Br  Br17  1  0.508433  0.504217  0.754217  1
  Br  Br18  1  0.991566  0.745783  0.995783  1
  Br  Br19  1  0.745783  0.250000  0.754217  1
  Br  Br20  1  0.995783  0.991566  0.745783  1
  Br  Br21  1  0.250000  0.995783  0.504217  1
  Br  Br22  1  0.754217  0.508433  0.504217  1
  Br  Br23  1  0.504217  0.250000  0.995783  1
  Br  Br24  1  0.754217  0.745783  0.250000  1
  Br  Br25  1  0.745783  0.995783  0.991567  1
  Br  Br26  1  0.995783  0.504217  0.250000  1
  Br  Br27  1  0.504217  0.754217  0.508433  1
