# generated using pymatgen
data_Cs4PtO4
_symmetry_space_group_name_H-M   'P 1'
_cell_length_a   6.27292945
_cell_length_b   6.27292967
_cell_length_c   6.77605364
_cell_angle_alpha   74.40281135
_cell_angle_beta   74.40281250
_cell_angle_gamma   65.92381620
_symmetry_Int_Tables_number   1
_chemical_formula_structural   Cs4PtO4
_chemical_formula_sum   'Cs4 Pt1 O4'
_cell_volume   230.60095174
_cell_formula_units_Z   1
loop_
 _symmetry_equiv_pos_site_id
 _symmetry_equiv_pos_as_xyz
  1  'x, y, z'
loop_
 _atom_site_type_symbol
 _atom_site_label
 _atom_site_symmetry_multiplicity
 _atom_site_fract_x
 _atom_site_fract_y
 _atom_site_fract_z
 _atom_site_occupancy
  Cs  Cs0  1  0.189886  0.189886  0.410630  1
  Cs  Cs1  1  0.384356  0.384356  0.843340  1
  Cs  Cs2  1  0.615644  0.615644  0.156660  1
  Cs  Cs3  1  0.810114  0.810114  0.589370  1
  Pt  Pt4  1  0.000000  0.000000  0.000000  1
  O  O5  1  0.687692  0.097039  0.185474  1
  O  O6  1  0.312308  0.902961  0.814526  1
  O  O7  1  0.097039  0.687692  0.185474  1
  O  O8  1  0.902961  0.312308  0.814526  1
