# generated using pymatgen
data_Tc3RuF20
_symmetry_space_group_name_H-M   'P 1'
_cell_length_a   10.28983033
_cell_length_b   5.78902112
_cell_length_c   7.64955282
_cell_angle_alpha   90.00117880
_cell_angle_beta   90.01217134
_cell_angle_gamma   90.00380146
_symmetry_Int_Tables_number   1
_chemical_formula_structural   Tc3RuF20
_chemical_formula_sum   'Tc3 Ru1 F20'
_cell_volume   455.66889590
_cell_formula_units_Z   1
loop_
 _symmetry_equiv_pos_site_id
 _symmetry_equiv_pos_as_xyz
  1  'x, y, z'
loop_
 _atom_site_type_symbol
 _atom_site_label
 _atom_site_symmetry_multiplicity
 _atom_site_fract_x
 _atom_site_fract_y
 _atom_site_fract_z
 _atom_site_occupancy
  Tc  Tc0  1  0.780321  0.515105  0.115566  1
  Tc  Tc1  1  0.280538  0.484879  0.884753  1
  Tc  Tc2  1  0.889189  0.015676  0.423248  1
  Ru  Ru3  1  0.384714  0.983854  0.582483  1
  F  F4  1  0.264977  0.989834  0.398702  1
  F  F5  1  0.485271  0.976375  0.786406  1
  F  F6  1  0.771060  0.776648  0.299209  1
  F  F7  1  0.484689  0.759780  0.473806  1
  F  F8  1  0.987711  0.782479  0.522341  1
  F  F9  1  0.785198  0.729966  0.936804  1
  F  F10  1  0.287523  0.718796  0.048406  1
  F  F11  1  0.272472  0.730038  0.689618  1
  F  F12  1  0.955252  0.522209  0.173948  1
  F  F13  1  0.603086  0.512000  0.153413  1
  F  F14  1  0.103365  0.486166  0.845789  1
  F  F15  1  0.454056  0.477393  0.823061  1
  F  F16  1  0.775974  0.275769  0.315852  1
  F  F17  1  0.787093  0.281246  0.950828  1
  F  F18  1  0.285341  0.271394  0.063688  1
  F  F19  1  0.479760  0.224494  0.486515  1
  F  F20  1  0.992671  0.232424  0.533224  1
  F  F21  1  0.268746  0.219464  0.705044  1
  F  F22  1  0.967545  0.023257  0.205116  1
  F  F23  1  0.754261  0.010752  0.582177  1
