# generated using pymatgen
data_Np2Si4Ir3Os
_symmetry_space_group_name_H-M   'P 1'
_cell_length_a   4.17040100
_cell_length_b   4.17089500
_cell_length_c   9.74551000
_cell_angle_alpha   90.00000000
_cell_angle_beta   90.00000000
_cell_angle_gamma   90.00000000
_symmetry_Int_Tables_number   1
_chemical_formula_structural   Np2Si4Ir3Os
_chemical_formula_sum   'Np2 Si4 Ir3 Os1'
_cell_volume   169.51637019
_cell_formula_units_Z   1
loop_
 _symmetry_equiv_pos_site_id
 _symmetry_equiv_pos_as_xyz
  1  'x, y, z'
loop_
 _atom_site_type_symbol
 _atom_site_label
 _atom_site_symmetry_multiplicity
 _atom_site_fract_x
 _atom_site_fract_y
 _atom_site_fract_z
 _atom_site_occupancy
  Np  Np0  1  0.000000  0.500000  0.252121  1
  Np  Np1  1  0.500000  0.000000  0.747859  1
  Si  Si2  1  0.000000  0.000000  0.499992  1
  Si  Si3  1  0.500000  0.500000  0.500002  1
  Si  Si4  1  0.000000  0.500000  0.872617  1
  Si  Si5  1  0.500000  0.000000  0.127406  1
  Ir  Ir6  1  0.000000  0.000000  0.999973  1
  Ir  Ir7  1  0.000000  0.500000  0.627323  1
  Ir  Ir8  1  0.500000  0.000000  0.372742  1
  Os  Os9  1  0.500000  0.500000  0.999966  1
