# generated using pymatgen
data_Y3Pa(Ga3Ir)6
_symmetry_space_group_name_H-M   'P 1'
_cell_length_a   7.62538489
_cell_length_b   7.61534753
_cell_length_c   9.46390600
_cell_angle_alpha   90.00000000
_cell_angle_beta   90.00000000
_cell_angle_gamma   119.89904303
_symmetry_Int_Tables_number   1
_chemical_formula_structural   Y3Pa(Ga3Ir)6
_chemical_formula_sum   'Y3 Pa1 Ga18 Ir6'
_cell_volume   476.42381256
_cell_formula_units_Z   1
loop_
 _symmetry_equiv_pos_site_id
 _symmetry_equiv_pos_as_xyz
  1  'x, y, z'
loop_
 _atom_site_type_symbol
 _atom_site_label
 _atom_site_symmetry_multiplicity
 _atom_site_fract_x
 _atom_site_fract_y
 _atom_site_fract_z
 _atom_site_occupancy
  Y  Y0  1  0.004041  0.331329  0.750000  1
  Y  Y1  1  0.669478  0.996400  0.250000  1
  Y  Y2  1  0.331132  0.003173  0.750000  1
  Pa  Pa3  1  0.997553  0.669094  0.250000  1
  Ga  Ga4  1  0.130447  0.130215  0.250000  1
  Ga  Ga5  1  0.872913  0.873830  0.750000  1
  Ga  Ga6  1  0.998687  0.330862  0.079995  1
  Ga  Ga7  1  0.001063  0.665534  0.917068  1
  Ga  Ga8  1  0.001063  0.665534  0.582932  1
  Ga  Ga9  1  0.338173  0.002499  0.419871  1
  Ga  Ga10  1  0.998687  0.330862  0.420005  1
  Ga  Ga11  1  0.665686  0.001574  0.581013  1
  Ga  Ga12  1  0.665686  0.001574  0.918987  1
  Ga  Ga13  1  0.338173  0.002499  0.080129  1
  Ga  Ga14  1  0.331668  0.331649  0.567172  1
  Ga  Ga15  1  0.664103  0.667591  0.434608  1
  Ga  Ga16  1  0.664103  0.667591  0.065392  1
  Ga  Ga17  1  0.331668  0.331649  0.932828  1
  Ga  Ga18  1  0.339249  0.544396  0.250000  1
  Ga  Ga19  1  0.660370  0.452685  0.750000  1
  Ga  Ga20  1  0.544024  0.339964  0.250000  1
  Ga  Ga21  1  0.452917  0.661192  0.750000  1
  Ir  Ir22  1  0.673926  0.331664  0.001974  1
  Ir  Ir23  1  0.326238  0.671147  0.001982  1
  Ir  Ir24  1  0.326238  0.671147  0.498018  1
  Ir  Ir25  1  0.673926  0.331664  0.498026  1
  Ir  Ir26  1  0.999392  0.996342  0.002448  1
  Ir  Ir27  1  0.999392  0.996342  0.497552  1
