# generated using pymatgen
data_LiTb3SiS7
_symmetry_space_group_name_H-M   'P 1'
_cell_length_a   9.93202200
_cell_length_b   9.93199184
_cell_length_c   5.66692600
_cell_angle_alpha   90.00000000
_cell_angle_beta   90.00000000
_cell_angle_gamma   119.99990470
_symmetry_Int_Tables_number   1
_chemical_formula_structural   LiTb3SiS7
_chemical_formula_sum   'Li2 Tb6 Si2 S14'
_cell_volume   484.11954576
_cell_formula_units_Z   2
loop_
 _symmetry_equiv_pos_site_id
 _symmetry_equiv_pos_as_xyz
  1  'x, y, z'
loop_
 _atom_site_type_symbol
 _atom_site_label
 _atom_site_symmetry_multiplicity
 _atom_site_fract_x
 _atom_site_fract_y
 _atom_site_fract_z
 _atom_site_occupancy
  Li  Li0  1  0.000000  0.000000  0.010383  1
  Li  Li1  1  0.000000  0.000000  0.510384  1
  Tb  Tb2  1  0.357059  0.126238  0.267439  1
  Tb  Tb3  1  0.873762  0.230821  0.267439  1
  Tb  Tb4  1  0.769178  0.642941  0.267440  1
  Tb  Tb5  1  0.230821  0.357059  0.767441  1
  Tb  Tb6  1  0.126237  0.769178  0.767440  1
  Tb  Tb7  1  0.642941  0.873762  0.767440  1
  Si  Si8  1  0.333332  0.666665  0.353426  1
  Si  Si9  1  0.666668  0.333335  0.853425  1
  S  S10  1  0.159663  0.247901  0.243705  1
  S  S11  1  0.088235  0.840335  0.243709  1
  S  S12  1  0.752099  0.911765  0.243710  1
  S  S13  1  0.666667  0.333334  0.481705  1
  S  S14  1  0.413306  0.892516  0.503113  1
  S  S15  1  0.107485  0.520789  0.503113  1
  S  S16  1  0.479211  0.586693  0.503114  1
  S  S17  1  0.247901  0.088235  0.743710  1
  S  S18  1  0.911766  0.159665  0.743710  1
  S  S19  1  0.840336  0.752099  0.743706  1
  S  S20  1  0.333334  0.666666  0.981705  1
  S  S21  1  0.586694  0.107484  0.003114  1
  S  S22  1  0.892515  0.479211  0.003114  1
  S  S23  1  0.520789  0.413307  0.003114  1
