# generated using pymatgen
data_HoHf(Sn2Rh5)2
_symmetry_space_group_name_H-M   'P 1'
_cell_length_a   4.24886400
_cell_length_b   5.65639459
_cell_length_c   11.08885256
_cell_angle_alpha   90.13161457
_cell_angle_beta   90.00000000
_cell_angle_gamma   90.00000000
_symmetry_Int_Tables_number   1
_chemical_formula_structural   HoHf(Sn2Rh5)2
_chemical_formula_sum   'Ho1 Hf1 Sn4 Rh10'
_cell_volume   266.50047747
_cell_formula_units_Z   1
loop_
 _symmetry_equiv_pos_site_id
 _symmetry_equiv_pos_as_xyz
  1  'x, y, z'
loop_
 _atom_site_type_symbol
 _atom_site_label
 _atom_site_symmetry_multiplicity
 _atom_site_fract_x
 _atom_site_fract_y
 _atom_site_fract_z
 _atom_site_occupancy
  Ho  Ho0  1  0.500000  0.162192  0.641363  1
  Hf  Hf1  1  0.500000  0.340165  0.140958  1
  Sn  Sn2  1  0.500000  0.833006  0.354155  1
  Sn  Sn3  1  0.500000  0.669447  0.853220  1
  Sn  Sn4  1  0.000000  0.474117  0.502964  1
  Sn  Sn5  1  0.000000  0.019628  0.004837  1
  Rh  Rh6  1  0.500000  0.199583  0.894967  1
  Rh  Rh7  1  0.500000  0.814283  0.110791  1
  Rh  Rh8  1  0.500000  0.678212  0.608294  1
  Rh  Rh9  1  0.500000  0.309902  0.381092  1
  Rh  Rh10  1  0.000000  0.424338  0.748815  1
  Rh  Rh11  1  0.000000  0.576653  0.256727  1
  Rh  Rh12  1  0.000000  0.967763  0.492793  1
  Rh  Rh13  1  0.000000  0.519329  0.002251  1
  Rh  Rh14  1  0.000000  0.086767  0.242636  1
  Rh  Rh15  1  0.000000  0.924615  0.764138  1
