# generated using pymatgen
data_Nd3Er3(BiO7)2
_symmetry_space_group_name_H-M   'P 1'
_cell_length_a   6.64026784
_cell_length_b   6.64435643
_cell_length_c   7.77713832
_cell_angle_alpha   106.93423509
_cell_angle_beta   89.89235496
_cell_angle_gamma   99.18965086
_symmetry_Int_Tables_number   1
_chemical_formula_structural   Nd3Er3(BiO7)2
_chemical_formula_sum   'Nd3 Er3 Bi2 O14'
_cell_volume   323.67625200
_cell_formula_units_Z   1
loop_
 _symmetry_equiv_pos_site_id
 _symmetry_equiv_pos_as_xyz
  1  'x, y, z'
loop_
 _atom_site_type_symbol
 _atom_site_label
 _atom_site_symmetry_multiplicity
 _atom_site_fract_x
 _atom_site_fract_y
 _atom_site_fract_z
 _atom_site_occupancy
  Nd  Nd0  1  0.728517  0.460616  0.114302  1
  Nd  Nd1  1  0.737756  0.480112  0.619585  1
  Nd  Nd2  1  0.259919  0.521284  0.384237  1
  Er  Er3  1  0.462452  0.004536  0.251672  1
  Er  Er4  1  0.534639  0.993324  0.747629  1
  Er  Er5  1  0.273102  0.539926  0.883939  1
  Bi  Bi6  1  0.001876  0.003177  0.502517  1
  Bi  Bi7  1  0.003759  0.000314  0.998069  1
  O  O8  1  0.440792  0.655090  0.160613  1
  O  O9  1  0.539461  0.342466  0.831199  1
  O  O10  1  0.304964  0.927373  0.953565  1
  O  O11  1  0.699211  0.066295  0.047319  1
  O  O12  1  0.301966  0.932630  0.513781  1
  O  O13  1  0.700714  0.066906  0.484617  1
  O  O14  1  0.543029  0.354909  0.343196  1
  O  O15  1  0.450982  0.644797  0.664798  1
  O  O16  1  0.934957  0.665300  0.948845  1
  O  O17  1  0.080535  0.332310  0.038417  1
  O  O18  1  0.076547  0.345382  0.625284  1
  O  O19  1  0.927789  0.658918  0.385365  1
  O  O20  1  0.872062  0.912880  0.727513  1
  O  O21  1  0.124972  0.091456  0.273539  1
