# generated using pymatgen
data_NdPa(Al3Co)3
_symmetry_space_group_name_H-M   'P 1'
_cell_length_a   7.48149254
_cell_length_b   7.48149244
_cell_length_c   9.34212900
_cell_angle_alpha   90.00000000
_cell_angle_beta   90.00000000
_cell_angle_gamma   119.22157307
_symmetry_Int_Tables_number   1
_chemical_formula_structural   NdPa(Al3Co)3
_chemical_formula_sum   'Nd2 Pa2 Al18 Co6'
_cell_volume   456.35876580
_cell_formula_units_Z   2
loop_
 _symmetry_equiv_pos_site_id
 _symmetry_equiv_pos_as_xyz
  1  'x, y, z'
loop_
 _atom_site_type_symbol
 _atom_site_label
 _atom_site_symmetry_multiplicity
 _atom_site_fract_x
 _atom_site_fract_y
 _atom_site_fract_z
 _atom_site_occupancy
  Nd  Nd0  1  0.993761  0.671410  0.250000  1
  Nd  Nd1  1  0.671410  0.993761  0.250000  1
  Pa  Pa2  1  0.006088  0.324442  0.750000  1
  Pa  Pa3  1  0.324442  0.006088  0.750000  1
  Al  Al4  1  0.662873  0.998653  0.926391  1
  Al  Al5  1  0.998653  0.662873  0.573609  1
  Al  Al6  1  0.127541  0.127541  0.250000  1
  Al  Al7  1  0.667275  0.667275  0.041596  1
  Al  Al8  1  0.336557  0.336557  0.544433  1
  Al  Al9  1  0.336557  0.336557  0.955567  1
  Al  Al10  1  0.667275  0.667275  0.458404  1
  Al  Al11  1  0.335108  0.000175  0.070170  1
  Al  Al12  1  0.000175  0.335108  0.429830  1
  Al  Al13  1  0.340594  0.552901  0.250000  1
  Al  Al14  1  0.000175  0.335108  0.070170  1
  Al  Al15  1  0.552901  0.340594  0.250000  1
  Al  Al16  1  0.659021  0.447136  0.750000  1
  Al  Al17  1  0.868799  0.868799  0.750000  1
  Al  Al18  1  0.998653  0.662873  0.926391  1
  Al  Al19  1  0.662873  0.998653  0.573609  1
  Al  Al20  1  0.335108  0.000175  0.429830  1
  Al  Al21  1  0.447136  0.659021  0.750000  1
  Co  Co22  1  0.670071  0.325794  0.507565  1
  Co  Co23  1  0.670071  0.325794  0.992435  1
  Co  Co24  1  0.325794  0.670071  0.507565  1
  Co  Co25  1  0.007649  0.007649  0.988130  1
  Co  Co26  1  0.007649  0.007649  0.511870  1
  Co  Co27  1  0.325794  0.670071  0.992435  1
