# generated using pymatgen
data_Ca2Y2LuW3O14
_symmetry_space_group_name_H-M   'P 1'
_cell_length_a   7.41583481
_cell_length_b   7.41583499
_cell_length_c   7.36373912
_cell_angle_alpha   60.96777264
_cell_angle_beta   60.96777901
_cell_angle_gamma   60.61176160
_symmetry_Int_Tables_number   1
_chemical_formula_structural   Ca2Y2LuW3O14
_chemical_formula_sum   'Ca2 Y2 Lu1 W3 O14'
_cell_volume   291.82922501
_cell_formula_units_Z   1
loop_
 _symmetry_equiv_pos_site_id
 _symmetry_equiv_pos_as_xyz
  1  'x, y, z'
loop_
 _atom_site_type_symbol
 _atom_site_label
 _atom_site_symmetry_multiplicity
 _atom_site_fract_x
 _atom_site_fract_y
 _atom_site_fract_z
 _atom_site_occupancy
  Ca  Ca0  1  0.500000  0.500000  0.500000  1
  Ca  Ca1  1  0.500000  0.500000  0.000000  1
  Y  Y2  1  0.000000  0.500000  0.500000  1
  Y  Y3  1  0.500000  0.000000  0.500000  1
  Lu  Lu4  1  0.000000  0.000000  0.000000  1
  W  W5  1  0.500000  0.000000  0.000000  1
  W  W6  1  0.000000  0.500000  0.000000  1
  W  W7  1  0.000000  0.000000  0.500000  1
  O  O8  1  0.366535  0.366535  0.384788  1
  O  O9  1  0.633465  0.633465  0.615212  1
  O  O10  1  0.080894  0.678266  0.674596  1
  O  O11  1  0.351113  0.919924  0.906849  1
  O  O12  1  0.678266  0.080894  0.674596  1
  O  O13  1  0.090048  0.090048  0.646606  1
  O  O14  1  0.676936  0.676936  0.084500  1
  O  O15  1  0.080076  0.648887  0.093151  1
  O  O16  1  0.648887  0.080076  0.093151  1
  O  O17  1  0.323064  0.323064  0.915500  1
  O  O18  1  0.909952  0.909952  0.353394  1
  O  O19  1  0.919106  0.321734  0.325404  1
  O  O20  1  0.919924  0.351113  0.906849  1
  O  O21  1  0.321734  0.919106  0.325404  1
