# generated using pymatgen
data_Zr10TlCuSn3GeBi2
_symmetry_space_group_name_H-M   'P 1'
_cell_length_a   8.79106700
_cell_length_b   8.79106645
_cell_length_c   5.91191300
_cell_angle_alpha   90.00000000
_cell_angle_beta   90.00000000
_cell_angle_gamma   119.99999831
_symmetry_Int_Tables_number   1
_chemical_formula_structural   Zr10TlCuSn3GeBi2
_chemical_formula_sum   'Zr10 Tl1 Cu1 Sn3 Ge1 Bi2'
_cell_volume   395.67792921
_cell_formula_units_Z   1
loop_
 _symmetry_equiv_pos_site_id
 _symmetry_equiv_pos_as_xyz
  1  'x, y, z'
loop_
 _atom_site_type_symbol
 _atom_site_label
 _atom_site_symmetry_multiplicity
 _atom_site_fract_x
 _atom_site_fract_y
 _atom_site_fract_z
 _atom_site_occupancy
  Zr  Zr0  1  0.734098  0.000000  0.251067  1
  Zr  Zr1  1  0.000895  0.735389  0.247780  1
  Zr  Zr2  1  0.265507  0.264611  0.247780  1
  Zr  Zr3  1  0.258084  0.000000  0.749805  1
  Zr  Zr4  1  0.997406  0.256806  0.750300  1
  Zr  Zr5  1  0.740600  0.743194  0.750300  1
  Zr  Zr6  1  0.334471  0.667374  0.495804  1
  Zr  Zr7  1  0.667098  0.332626  0.495804  1
  Zr  Zr8  1  0.666430  0.332685  0.004642  1
  Zr  Zr9  1  0.333744  0.667315  0.004642  1
  Tl  Tl10  1  0.609306  0.000000  0.751835  1
  Cu  Cu11  1  0.998741  0.000000  0.011074  1
  Sn  Sn12  1  0.388231  0.000000  0.246944  1
  Sn  Sn13  1  0.000276  0.385447  0.248588  1
  Sn  Sn14  1  0.614829  0.614553  0.248588  1
  Ge  Ge15  1  0.999353  0.000000  0.491860  1
  Bi  Bi16  1  0.999726  0.608520  0.751593  1
  Bi  Bi17  1  0.391206  0.391480  0.751593  1
