# generated using pymatgen
data_Dy4MoOs6Ru
_symmetry_space_group_name_H-M   'P 1'
_cell_length_a   5.44081244
_cell_length_b   5.24058572
_cell_length_c   9.04390442
_cell_angle_alpha   89.97234489
_cell_angle_beta   89.99645632
_cell_angle_gamma   121.21588739
_symmetry_Int_Tables_number   1
_chemical_formula_structural   Dy4MoOs6Ru
_chemical_formula_sum   'Dy4 Mo1 Os6 Ru1'
_cell_volume   220.53504559
_cell_formula_units_Z   1
loop_
 _symmetry_equiv_pos_site_id
 _symmetry_equiv_pos_as_xyz
  1  'x, y, z'
loop_
 _atom_site_type_symbol
 _atom_site_label
 _atom_site_symmetry_multiplicity
 _atom_site_fract_x
 _atom_site_fract_y
 _atom_site_fract_z
 _atom_site_occupancy
  Dy  Dy0  1  0.671151  0.342723  0.563135  1
  Dy  Dy1  1  0.334858  0.669604  0.433838  1
  Dy  Dy2  1  0.334525  0.669046  0.066521  1
  Dy  Dy3  1  0.671405  0.343146  0.936887  1
  Mo  Mo4  1  0.160655  0.321617  0.749760  1
  Os  Os5  1  0.007033  0.014224  0.497414  1
  Os  Os6  1  0.172562  0.824549  0.749397  1
  Os  Os7  1  0.651793  0.824928  0.749218  1
  Os  Os8  1  0.823544  0.646325  0.250741  1
  Os  Os9  1  0.830285  0.164497  0.250442  1
  Os  Os10  1  0.334739  0.164752  0.250506  1
  Ru  Ru11  1  0.007449  0.014589  0.002141  1
