# generated using pymatgen
data_YHoGa4CuPd
_symmetry_space_group_name_H-M   'P 1'
_cell_length_a   5.52047222
_cell_length_b   5.52047107
_cell_length_c   6.56862200
_cell_angle_alpha   90.00000000
_cell_angle_beta   90.00000000
_cell_angle_gamma   133.17492463
_symmetry_Int_Tables_number   1
_chemical_formula_structural   YHoGa4CuPd
_chemical_formula_sum   'Y1 Ho1 Ga4 Cu1 Pd1'
_cell_volume   145.98689902
_cell_formula_units_Z   1
loop_
 _symmetry_equiv_pos_site_id
 _symmetry_equiv_pos_as_xyz
  1  'x, y, z'
loop_
 _atom_site_type_symbol
 _atom_site_label
 _atom_site_symmetry_multiplicity
 _atom_site_fract_x
 _atom_site_fract_y
 _atom_site_fract_z
 _atom_site_occupancy
  Y  Y0  1  0.088488  0.911512  0.250000  1
  Ho  Ho1  1  0.911688  0.088312  0.750000  1
  Ga  Ga2  1  0.372830  0.627170  0.054538  1
  Ga  Ga3  1  0.627620  0.372380  0.549082  1
  Ga  Ga4  1  0.627620  0.372380  0.950918  1
  Ga  Ga5  1  0.372830  0.627170  0.445462  1
  Cu  Cu6  1  0.798575  0.201425  0.250000  1
  Pd  Pd7  1  0.200348  0.799652  0.750000  1
