# generated using pymatgen
data_Ce3Sm3V2(Co4P3)4
_symmetry_space_group_name_H-M   'P 1'
_cell_length_a   3.74212400
_cell_length_b   10.65798814
_cell_length_c   12.29704535
_cell_angle_alpha   90.18050618
_cell_angle_beta   90.00000000
_cell_angle_gamma   90.00000000
_symmetry_Int_Tables_number   1
_chemical_formula_structural   Ce3Sm3V2(Co4P3)4
_chemical_formula_sum   'Ce3 Sm3 V2 Co16 P12'
_cell_volume   490.44693685
_cell_formula_units_Z   1
loop_
 _symmetry_equiv_pos_site_id
 _symmetry_equiv_pos_as_xyz
  1  'x, y, z'
loop_
 _atom_site_type_symbol
 _atom_site_label
 _atom_site_symmetry_multiplicity
 _atom_site_fract_x
 _atom_site_fract_y
 _atom_site_fract_z
 _atom_site_occupancy
  Ce  Ce0  1  0.000000  0.499657  0.526255  1
  Ce  Ce1  1  0.500000  0.000314  0.474459  1
  Ce  Ce2  1  0.500000  0.820792  0.206238  1
  Sm  Sm3  1  0.500000  0.183653  0.203589  1
  Sm  Sm4  1  0.000000  0.682582  0.796492  1
  Sm  Sm5  1  0.000000  0.316995  0.796044  1
  V  V6  1  0.500000  0.500284  0.153025  1
  V  V7  1  0.000000  0.999588  0.846989  1
  Co  Co8  1  0.500000  0.499638  0.697813  1
  Co  Co9  1  0.000000  0.995258  0.299827  1
  Co  Co10  1  0.000000  0.499962  0.986782  1
  Co  Co11  1  0.500000  0.000076  0.012584  1
  Co  Co12  1  0.500000  0.333438  0.993242  1
  Co  Co13  1  0.500000  0.667432  0.994446  1
  Co  Co14  1  0.000000  0.167509  0.006261  1
  Co  Co15  1  0.000000  0.833579  0.007533  1
  Co  Co16  1  0.500000  0.296606  0.431557  1
  Co  Co17  1  0.500000  0.702437  0.431643  1
  Co  Co18  1  0.000000  0.202113  0.567973  1
  Co  Co19  1  0.000000  0.797578  0.569056  1
  Co  Co20  1  0.500000  0.880678  0.709131  1
  Co  Co21  1  0.500000  0.118831  0.708567  1
  Co  Co22  1  0.000000  0.621225  0.289556  1
  Co  Co23  1  0.000000  0.381148  0.291290  1
  P  P24  1  0.500000  0.500063  0.883196  1
  P  P25  1  0.000000  0.001234  0.115183  1
  P  P26  1  0.500000  0.499533  0.343457  1
  P  P27  1  0.000000  0.999844  0.656988  1
  P  P28  1  0.500000  0.306238  0.614888  1
  P  P29  1  0.500000  0.692974  0.615395  1
  P  P30  1  0.000000  0.192390  0.384371  1
  P  P31  1  0.000000  0.805191  0.386923  1
  P  P32  1  0.500000  0.847259  0.894036  1
  P  P33  1  0.500000  0.152704  0.893688  1
  P  P34  1  0.000000  0.653236  0.105542  1
  P  P35  1  0.000000  0.347961  0.105980  1
