# generated using pymatgen
data_KNp2MnSe5
_symmetry_space_group_name_H-M   'P 1'
_cell_length_a   7.95681300
_cell_length_b   7.95681364
_cell_length_c   17.87192400
_cell_angle_alpha   90.00000000
_cell_angle_beta   90.00000000
_cell_angle_gamma   149.38481211
_symmetry_Int_Tables_number   1
_chemical_formula_structural   KNp2MnSe5
_chemical_formula_sum   'K2 Np4 Mn2 Se10'
_cell_volume   576.23199303
_cell_formula_units_Z   2
loop_
 _symmetry_equiv_pos_site_id
 _symmetry_equiv_pos_as_xyz
  1  'x, y, z'
loop_
 _atom_site_type_symbol
 _atom_site_label
 _atom_site_symmetry_multiplicity
 _atom_site_fract_x
 _atom_site_fract_y
 _atom_site_fract_z
 _atom_site_occupancy
  K  K0  1  0.042467  0.957533  0.250000  1
  K  K1  1  0.957533  0.042467  0.750000  1
  Np  Np2  1  0.210027  0.789973  0.907422  1
  Np  Np3  1  0.789973  0.210027  0.407422  1
  Np  Np4  1  0.210027  0.789973  0.592578  1
  Np  Np5  1  0.789973  0.210027  0.092578  1
  Mn  Mn6  1  0.319561  0.680439  0.250000  1
  Mn  Mn7  1  0.680439  0.319561  0.750000  1
  Se  Se8  1  0.169552  0.830448  0.437426  1
  Se  Se9  1  0.830448  0.169552  0.937426  1
  Se  Se10  1  0.275575  0.724425  0.750000  1
  Se  Se11  1  0.410433  0.589567  0.362728  1
  Se  Se12  1  0.169552  0.830448  0.062574  1
  Se  Se13  1  0.589567  0.410433  0.862728  1
  Se  Se14  1  0.589567  0.410433  0.637272  1
  Se  Se15  1  0.410433  0.589567  0.137272  1
  Se  Se16  1  0.830448  0.169552  0.562574  1
  Se  Se17  1  0.724425  0.275575  0.250000  1
