# generated using pymatgen
data_Ho12Cu2Ru5
_symmetry_space_group_name_H-M   'P 1'
_cell_length_a   11.35435300
_cell_length_b   8.36507921
_cell_length_c   11.21859795
_cell_angle_alpha   56.08092778
_cell_angle_beta   90.00000000
_cell_angle_gamma   90.00000000
_symmetry_Int_Tables_number   1
_chemical_formula_structural   Ho12Cu2Ru5
_chemical_formula_sum   'Ho24 Cu4 Ru10'
_cell_volume   884.21601348
_cell_formula_units_Z   2
loop_
 _symmetry_equiv_pos_site_id
 _symmetry_equiv_pos_as_xyz
  1  'x, y, z'
loop_
 _atom_site_type_symbol
 _atom_site_label
 _atom_site_symmetry_multiplicity
 _atom_site_fract_x
 _atom_site_fract_y
 _atom_site_fract_z
 _atom_site_occupancy
  Ho  Ho0  1  0.703666  0.245198  0.530626  1
  Ho  Ho1  1  0.203666  0.754802  0.969374  1
  Ho  Ho2  1  0.848003  0.496813  0.660455  1
  Ho  Ho3  1  0.348003  0.503187  0.839545  1
  Ho  Ho4  1  0.151997  0.503187  0.339545  1
  Ho  Ho5  1  0.651997  0.496813  0.160455  1
  Ho  Ho6  1  0.005201  0.845158  0.357471  1
  Ho  Ho7  1  0.505201  0.154842  0.142529  1
  Ho  Ho8  1  0.994799  0.154842  0.642529  1
  Ho  Ho9  1  0.494799  0.845158  0.857471  1
  Ho  Ho10  1  0.796334  0.245198  0.030626  1
  Ho  Ho11  1  0.296334  0.754802  0.469374  1
  Ho  Ho12  1  0.932858  0.776984  0.088927  1
  Ho  Ho13  1  0.432858  0.223016  0.411073  1
  Ho  Ho14  1  0.067142  0.223016  0.911073  1
  Ho  Ho15  1  0.567142  0.776984  0.588927  1
  Ho  Ho16  1  0.303602  0.246961  0.665806  1
  Ho  Ho17  1  0.803602  0.753039  0.834194  1
  Ho  Ho18  1  0.696398  0.753039  0.334194  1
  Ho  Ho19  1  0.196398  0.246961  0.165806  1
  Ho  Ho20  1  0.920711  0.284241  0.289407  1
  Ho  Ho21  1  0.420711  0.715759  0.210593  1
  Ho  Ho22  1  0.079289  0.715759  0.710593  1
  Ho  Ho23  1  0.579289  0.284241  0.789407  1
  Cu  Cu24  1  0.656466  0.916528  0.036469  1
  Cu  Cu25  1  0.156466  0.083472  0.463531  1
  Cu  Cu26  1  0.343534  0.083472  0.963531  1
  Cu  Cu27  1  0.843534  0.916528  0.536469  1
  Ru  Ru28  1  0.500000  0.500000  0.500000  1
  Ru  Ru29  1  0.000000  0.500000  0.000000  1
  Ru  Ru30  1  0.396244  0.484985  0.105468  1
  Ru  Ru31  1  0.896244  0.515015  0.394532  1
  Ru  Ru32  1  0.603756  0.515015  0.894532  1
  Ru  Ru33  1  0.103756  0.484985  0.605468  1
  Ru  Ru34  1  0.814322  0.097640  0.844614  1
  Ru  Ru35  1  0.314322  0.902360  0.655386  1
  Ru  Ru36  1  0.185678  0.902360  0.155386  1
  Ru  Ru37  1  0.685678  0.097640  0.344614  1
