# generated using pymatgen
data_Y2Mg3PaPt3
_symmetry_space_group_name_H-M   'P 1'
_cell_length_a   7.59021700
_cell_length_b   7.44546407
_cell_length_c   3.95955000
_cell_angle_alpha   90.00000000
_cell_angle_beta   90.00000000
_cell_angle_gamma   120.64524398
_symmetry_Int_Tables_number   1
_chemical_formula_structural   Y2Mg3PaPt3
_chemical_formula_sum   'Y2 Mg3 Pa1 Pt3'
_cell_volume   192.51377291
_cell_formula_units_Z   1
loop_
 _symmetry_equiv_pos_site_id
 _symmetry_equiv_pos_as_xyz
  1  'x, y, z'
loop_
 _atom_site_type_symbol
 _atom_site_label
 _atom_site_symmetry_multiplicity
 _atom_site_fract_x
 _atom_site_fract_y
 _atom_site_fract_z
 _atom_site_occupancy
  Y  Y0  1  0.994890  0.407845  0.500000  1
  Y  Y1  1  0.587045  0.592155  0.500000  1
  Mg  Mg2  1  0.765942  0.000000  0.000000  1
  Mg  Mg3  1  0.247432  0.255904  0.000000  1
  Mg  Mg4  1  0.991529  0.744096  0.000000  1
  Pa  Pa5  1  0.415305  0.000000  0.500000  1
  Pt  Pt6  1  0.013860  0.000000  0.500000  1
  Pt  Pt7  1  0.646926  0.309852  0.000000  1
  Pt  Pt8  1  0.337073  0.690148  0.000000  1
