# generated using pymatgen
data_SrEu6HoSb6
_symmetry_space_group_name_H-M   'P 1'
_cell_length_a   8.40979075
_cell_length_b   8.40434642
_cell_length_c   8.32640784
_cell_angle_alpha   109.25716820
_cell_angle_beta   109.36338852
_cell_angle_gamma   109.61848279
_symmetry_Int_Tables_number   1
_chemical_formula_structural   SrEu6HoSb6
_chemical_formula_sum   'Sr1 Eu6 Ho1 Sb6'
_cell_volume   453.99797727
_cell_formula_units_Z   1
loop_
 _symmetry_equiv_pos_site_id
 _symmetry_equiv_pos_as_xyz
  1  'x, y, z'
loop_
 _atom_site_type_symbol
 _atom_site_label
 _atom_site_symmetry_multiplicity
 _atom_site_fract_x
 _atom_site_fract_y
 _atom_site_fract_z
 _atom_site_occupancy
  Sr  Sr0  1  0.645994  0.498707  0.998377  1
  Eu  Eu1  1  0.139028  0.495860  0.999092  1
  Eu  Eu2  1  0.499328  0.998772  0.643730  1
  Eu  Eu3  1  0.357102  0.361377  0.359900  1
  Eu  Eu4  1  0.004867  0.143489  0.503239  1
  Eu  Eu5  1  0.852921  0.855119  0.852795  1
  Eu  Eu6  1  0.001532  0.647149  0.501397  1
  Ho  Ho7  1  0.500017  0.000296  0.141312  1
  Sb  Sb8  1  0.867567  0.240434  0.128181  1
  Sb  Sb9  1  0.136718  0.880230  0.247595  1
  Sb  Sb10  1  0.373703  0.635325  0.759085  1
  Sb  Sb11  1  0.254080  0.118973  0.883541  1
  Sb  Sb12  1  0.744611  0.365292  0.609505  1
  Sb  Sb13  1  0.622533  0.758977  0.372251  1
