# generated using pymatgen
data_Pm4SiPt3
_symmetry_space_group_name_H-M   'P 1'
_cell_length_a   7.56128746
_cell_length_b   5.81991901
_cell_length_c   4.37734800
_cell_angle_alpha   90.00000000
_cell_angle_beta   90.00000000
_cell_angle_gamma   89.96777156
_symmetry_Int_Tables_number   1
_chemical_formula_structural   Pm4SiPt3
_chemical_formula_sum   'Pm4 Si1 Pt3'
_cell_volume   192.62989842
_cell_formula_units_Z   1
loop_
 _symmetry_equiv_pos_site_id
 _symmetry_equiv_pos_as_xyz
  1  'x, y, z'
loop_
 _atom_site_type_symbol
 _atom_site_label
 _atom_site_symmetry_multiplicity
 _atom_site_fract_x
 _atom_site_fract_y
 _atom_site_fract_z
 _atom_site_occupancy
  Pm  Pm0  1  0.102869  0.504358  0.000000  1
  Pm  Pm1  1  0.594027  0.745218  0.000000  1
  Pm  Pm2  1  0.233069  0.013124  0.499999  1
  Pm  Pm3  1  0.737847  0.239423  0.499999  1
  Si  Si4  1  0.879724  0.740165  0.499999  1
  Pt  Pt5  1  0.460365  0.225214  0.000000  1
  Pt  Pt6  1  0.952627  0.002224  0.000000  1
  Pt  Pt7  1  0.372805  0.530275  0.499999  1
