# generated using pymatgen
data_Tm5Si2SnH
_symmetry_space_group_name_H-M   'P 1'
_cell_length_a   8.65386884
_cell_length_b   8.65386908
_cell_length_c   8.65386800
_cell_angle_alpha   128.02358969
_cell_angle_beta   128.02357415
_cell_angle_gamma   76.58682585
_symmetry_Int_Tables_number   1
_chemical_formula_structural   Tm5Si2SnH
_chemical_formula_sum   'Tm10 Si4 Sn2 H2'
_cell_volume   390.65516631
_cell_formula_units_Z   2
loop_
 _symmetry_equiv_pos_site_id
 _symmetry_equiv_pos_as_xyz
  1  'x, y, z'
loop_
 _atom_site_type_symbol
 _atom_site_label
 _atom_site_symmetry_multiplicity
 _atom_site_fract_x
 _atom_site_fract_y
 _atom_site_fract_z
 _atom_site_occupancy
  Tm  Tm0  1  0.500000  0.500000  0.000000  1
  Tm  Tm1  1  0.000000  0.000000  0.000000  1
  Tm  Tm2  1  0.519278  0.019278  0.820054  1
  Tm  Tm3  1  0.199226  0.699226  0.179946  1
  Tm  Tm4  1  0.019278  0.199226  0.500000  1
  Tm  Tm5  1  0.699226  0.519278  0.500000  1
  Tm  Tm6  1  0.480722  0.980722  0.179946  1
  Tm  Tm7  1  0.800774  0.300774  0.820054  1
  Tm  Tm8  1  0.980722  0.800774  0.500000  1
  Tm  Tm9  1  0.300774  0.480722  0.500000  1
  Si  Si10  1  0.865054  0.365054  0.230107  1
  Si  Si11  1  0.134946  0.634946  0.769893  1
  Si  Si12  1  0.365054  0.134946  0.500000  1
  Si  Si13  1  0.634946  0.865054  0.500000  1
  Sn  Sn14  1  0.250000  0.250000  0.000000  1
  Sn  Sn15  1  0.750000  0.750000  0.000000  1
  H  H16  1  0.250000  0.750000  0.500000  1
  H  H17  1  0.750000  0.250000  0.500000  1
