# generated using pymatgen
data_Er3BePd5
_symmetry_space_group_name_H-M   'P 1'
_cell_length_a   8.11334148
_cell_length_b   8.11334285
_cell_length_c   8.11334300
_cell_angle_alpha   127.65913742
_cell_angle_beta   124.87803887
_cell_angle_gamma   79.46745857
_symmetry_Int_Tables_number   1
_chemical_formula_structural   Er3BePd5
_chemical_formula_sum   'Er6 Be2 Pd10'
_cell_volume   335.25249182
_cell_formula_units_Z   2
loop_
 _symmetry_equiv_pos_site_id
 _symmetry_equiv_pos_as_xyz
  1  'x, y, z'
loop_
 _atom_site_type_symbol
 _atom_site_label
 _atom_site_symmetry_multiplicity
 _atom_site_fract_x
 _atom_site_fract_y
 _atom_site_fract_z
 _atom_site_occupancy
  Er  Er0  1  0.594638  0.750000  0.844638  1
  Er  Er1  1  0.828000  0.052846  0.775153  1
  Er  Er2  1  0.222308  0.447154  0.775153  1
  Er  Er3  1  0.171514  0.946029  0.225486  1
  Er  Er4  1  0.406787  0.250000  0.156787  1
  Er  Er5  1  0.779458  0.553971  0.225486  1
  Be  Be6  1  0.205068  0.750000  0.455068  1
  Be  Be7  1  0.789953  0.250000  0.539953  1
  Pd  Pd8  1  0.830839  0.595247  0.644304  1
  Pd  Pd9  1  0.549057  0.313465  0.644304  1
  Pd  Pd10  1  0.448657  0.094085  0.765695  1
  Pd  Pd11  1  0.830839  0.186535  0.235592  1
  Pd  Pd12  1  0.171609  0.405915  0.354571  1
  Pd  Pd13  1  0.448657  0.682962  0.354571  1
  Pd  Pd14  1  0.549057  0.904753  0.235592  1
  Pd  Pd15  1  0.171609  0.817038  0.765695  1
  Pd  Pd16  1  0.000974  0.005374  0.506348  1
  Pd  Pd17  1  0.000974  0.494626  0.995600  1
