# generated using pymatgen
data_NaLuB12
_symmetry_space_group_name_H-M   'P 1'
_cell_length_a   5.82440861
_cell_length_b   5.82440789
_cell_length_c   5.82440800
_cell_angle_alpha   59.99999938
_cell_angle_beta   60.00000349
_cell_angle_gamma   59.99999821
_symmetry_Int_Tables_number   1
_chemical_formula_structural   NaLuB12
_chemical_formula_sum   'Na1 Lu1 B12'
_cell_volume   139.71415632
_cell_formula_units_Z   1
loop_
 _symmetry_equiv_pos_site_id
 _symmetry_equiv_pos_as_xyz
  1  'x, y, z'
loop_
 _atom_site_type_symbol
 _atom_site_label
 _atom_site_symmetry_multiplicity
 _atom_site_fract_x
 _atom_site_fract_y
 _atom_site_fract_z
 _atom_site_occupancy
  Na  Na0  1  0.500000  0.500000  0.500000  1
  Lu  Lu1  1  0.000000  0.000000  0.000000  1
  B  B2  1  0.899454  0.600546  0.600546  1
  B  B3  1  0.399454  0.100546  0.100546  1
  B  B4  1  0.899454  0.899454  0.600546  1
  B  B5  1  0.399454  0.399454  0.100546  1
  B  B6  1  0.600546  0.899454  0.600546  1
  B  B7  1  0.100546  0.399454  0.100546  1
  B  B8  1  0.600546  0.600546  0.899454  1
  B  B9  1  0.100546  0.100546  0.399454  1
  B  B10  1  0.899454  0.600546  0.899454  1
  B  B11  1  0.399454  0.100546  0.399454  1
  B  B12  1  0.600546  0.899454  0.899454  1
  B  B13  1  0.100546  0.399454  0.399454  1
