# generated using pymatgen
data_Dy12Tc2IrRu
_symmetry_space_group_name_H-M   'P 1'
_cell_length_a   6.31474203
_cell_length_b   7.36404687
_cell_length_c   9.15587400
_cell_angle_alpha   90.00000000
_cell_angle_beta   90.00000000
_cell_angle_gamma   89.95326003
_symmetry_Int_Tables_number   1
_chemical_formula_structural   Dy12Tc2IrRu
_chemical_formula_sum   'Dy12 Tc2 Ir1 Ru1'
_cell_volume   425.76682659
_cell_formula_units_Z   1
loop_
 _symmetry_equiv_pos_site_id
 _symmetry_equiv_pos_as_xyz
  1  'x, y, z'
loop_
 _atom_site_type_symbol
 _atom_site_label
 _atom_site_symmetry_multiplicity
 _atom_site_fract_x
 _atom_site_fract_y
 _atom_site_fract_z
 _atom_site_occupancy
  Dy  Dy0  1  0.332444  0.675938  0.063760  1
  Dy  Dy1  1  0.165785  0.177901  0.437927  1
  Dy  Dy2  1  0.663977  0.323560  0.563793  1
  Dy  Dy3  1  0.831935  0.823592  0.935364  1
  Dy  Dy4  1  0.663977  0.323560  0.936207  1
  Dy  Dy5  1  0.831935  0.823592  0.564636  1
  Dy  Dy6  1  0.332444  0.675938  0.436240  1
  Dy  Dy7  1  0.165785  0.177901  0.062073  1
  Dy  Dy8  1  0.869913  0.540637  0.250000  1
  Dy  Dy9  1  0.632020  0.041464  0.250000  1
  Dy  Dy10  1  0.130901  0.460128  0.750000  1
  Dy  Dy11  1  0.371796  0.955982  0.750000  1
  Tc  Tc12  1  0.461965  0.386417  0.250000  1
  Tc  Tc13  1  0.963667  0.112837  0.750000  1
  Ir  Ir14  1  0.041862  0.884550  0.250000  1
  Ru  Ru15  1  0.539599  0.616000  0.750000  1
