# generated using pymatgen
data_Hf3Zr7GaCuSb6
_symmetry_space_group_name_H-M   'P 1'
_cell_length_a   8.65138900
_cell_length_b   8.65139128
_cell_length_c   5.83829000
_cell_angle_alpha   90.00000000
_cell_angle_beta   90.00000000
_cell_angle_gamma   119.99999509
_symmetry_Int_Tables_number   1
_chemical_formula_structural   Hf3Zr7GaCuSb6
_chemical_formula_sum   'Hf3 Zr7 Ga1 Cu1 Sb6'
_cell_volume   378.43222512
_cell_formula_units_Z   1
loop_
 _symmetry_equiv_pos_site_id
 _symmetry_equiv_pos_as_xyz
  1  'x, y, z'
loop_
 _atom_site_type_symbol
 _atom_site_label
 _atom_site_symmetry_multiplicity
 _atom_site_fract_x
 _atom_site_fract_y
 _atom_site_fract_z
 _atom_site_occupancy
  Hf  Hf0  1  0.666667  0.333333  0.000000  1
  Hf  Hf1  1  0.333333  0.666667  0.000000  1
  Hf  Hf2  1  0.333333  0.666667  0.500000  1
  Zr  Zr3  1  0.666667  0.333333  0.500000  1
  Zr  Zr4  1  0.732556  0.732869  0.751456  1
  Zr  Zr5  1  0.267131  0.999687  0.751456  1
  Zr  Zr6  1  0.000313  0.267444  0.751456  1
  Zr  Zr7  1  0.267131  0.267444  0.248544  1
  Zr  Zr8  1  0.732556  0.999687  0.248544  1
  Zr  Zr9  1  0.000313  0.732869  0.248544  1
  Ga  Ga10  1  0.000000  0.000000  0.500000  1
  Cu  Cu11  1  0.000000  0.000000  0.000000  1
  Sb  Sb12  1  0.386818  0.387208  0.750926  1
  Sb  Sb13  1  0.612792  0.999610  0.750926  1
  Sb  Sb14  1  0.000390  0.613182  0.750926  1
  Sb  Sb15  1  0.612792  0.613182  0.249074  1
  Sb  Sb16  1  0.386818  0.999610  0.249074  1
  Sb  Sb17  1  0.000390  0.387208  0.249074  1
