# generated using pymatgen
data_Cs8Li4Tb3InSb8
_symmetry_space_group_name_H-M   'P 1'
_cell_length_a   11.54126755
_cell_length_b   11.54126801
_cell_length_c   7.30778214
_cell_angle_alpha   89.94742271
_cell_angle_beta   90.05258368
_cell_angle_gamma   101.75370904
_symmetry_Int_Tables_number   1
_chemical_formula_structural   Cs8Li4Tb3InSb8
_chemical_formula_sum   'Cs8 Li4 Tb3 In1 Sb8'
_cell_volume   952.99218180
_cell_formula_units_Z   1
loop_
 _symmetry_equiv_pos_site_id
 _symmetry_equiv_pos_as_xyz
  1  'x, y, z'
loop_
 _atom_site_type_symbol
 _atom_site_label
 _atom_site_symmetry_multiplicity
 _atom_site_fract_x
 _atom_site_fract_y
 _atom_site_fract_z
 _atom_site_occupancy
  Cs  Cs0  1  0.571495  0.927206  0.747976  1
  Cs  Cs1  1  0.927206  0.571495  0.252024  1
  Cs  Cs2  1  0.428243  0.079018  0.255453  1
  Cs  Cs3  1  0.079018  0.428243  0.744547  1
  Cs  Cs4  1  0.669682  0.322988  0.774102  1
  Cs  Cs5  1  0.825398  0.175468  0.280415  1
  Cs  Cs6  1  0.322988  0.669682  0.225898  1
  Cs  Cs7  1  0.175468  0.825398  0.719585  1
  Li  Li8  1  0.618997  0.618997  0.000000  1
  Li  Li9  1  0.878110  0.878110  0.500000  1
  Li  Li10  1  0.378261  0.378261  0.000000  1
  Li  Li11  1  0.123614  0.123614  0.500000  1
  Tb  Tb12  1  0.869019  0.869019  0.000000  1
  Tb  Tb13  1  0.625366  0.625366  0.500000  1
  Tb  Tb14  1  0.131916  0.131916  0.000000  1
  In  In15  1  0.374901  0.374901  0.500000  1
  Sb  Sb16  1  0.342708  0.165167  0.743399  1
  Sb  Sb17  1  0.165167  0.342708  0.256601  1
  Sb  Sb18  1  0.657617  0.838891  0.250169  1
  Sb  Sb19  1  0.838891  0.657617  0.749831  1
  Sb  Sb20  1  0.911457  0.090315  0.761071  1
  Sb  Sb21  1  0.586659  0.407502  0.261150  1
  Sb  Sb22  1  0.090315  0.911457  0.238929  1
  Sb  Sb23  1  0.407502  0.586659  0.738850  1
