# generated using pymatgen
data_Tb4Y12Cd2Hg2Ir3Pd
_symmetry_space_group_name_H-M   'P 1'
_cell_length_a   9.66955869
_cell_length_b   9.66955733
_cell_length_c   9.66955600
_cell_angle_alpha   60.21464025
_cell_angle_beta   60.21464486
_cell_angle_gamma   60.21464458
_symmetry_Int_Tables_number   1
_chemical_formula_structural   Tb4Y12Cd2Hg2Ir3Pd
_chemical_formula_sum   'Tb4 Y12 Cd2 Hg2 Ir3 Pd1'
_cell_volume   642.40702903
_cell_formula_units_Z   1
loop_
 _symmetry_equiv_pos_site_id
 _symmetry_equiv_pos_as_xyz
  1  'x, y, z'
loop_
 _atom_site_type_symbol
 _atom_site_label
 _atom_site_symmetry_multiplicity
 _atom_site_fract_x
 _atom_site_fract_y
 _atom_site_fract_z
 _atom_site_occupancy
  Tb  Tb0  1  0.347474  0.347474  0.347002  1
  Tb  Tb1  1  0.354419  0.354419  0.945343  1
  Tb  Tb2  1  0.355327  0.943363  0.354624  1
  Tb  Tb3  1  0.943363  0.355327  0.354624  1
  Y  Y4  1  0.804041  0.190292  0.191052  1
  Y  Y5  1  0.188528  0.810592  0.810410  1
  Y  Y6  1  0.190292  0.804041  0.191052  1
  Y  Y7  1  0.810592  0.188528  0.810410  1
  Y  Y8  1  0.190030  0.190030  0.804709  1
  Y  Y9  1  0.809827  0.809827  0.189720  1
  Y  Y10  1  0.938060  0.562568  0.563263  1
  Y  Y11  1  0.564735  0.936465  0.938894  1
  Y  Y12  1  0.562568  0.938060  0.563263  1
  Y  Y13  1  0.936465  0.564735  0.938894  1
  Y  Y14  1  0.562534  0.562534  0.939334  1
  Y  Y15  1  0.937399  0.937399  0.565238  1
  Cd  Cd16  1  0.579769  0.257414  0.580526  1
  Cd  Cd17  1  0.257414  0.579769  0.580526  1
  Hg  Hg18  1  0.584032  0.584032  0.585956  1
  Hg  Hg19  1  0.583829  0.583829  0.245065  1
  Ir  Ir20  1  0.141928  0.141928  0.572148  1
  Ir  Ir21  1  0.141711  0.572261  0.142086  1
  Ir  Ir22  1  0.572261  0.141711  0.142086  1
  Pd  Pd23  1  0.143404  0.143404  0.143782  1
