# generated using pymatgen
data_SrNdTm2(AsPt)4
_symmetry_space_group_name_H-M   'P 1'
_cell_length_a   4.30129700
_cell_length_b   4.30129598
_cell_length_c   16.16115000
_cell_angle_alpha   90.00000000
_cell_angle_beta   90.00000000
_cell_angle_gamma   120.00001557
_symmetry_Int_Tables_number   1
_chemical_formula_structural   SrNdTm2(AsPt)4
_chemical_formula_sum   'Sr1 Nd1 Tm2 As4 Pt4'
_cell_volume   258.94145482
_cell_formula_units_Z   1
loop_
 _symmetry_equiv_pos_site_id
 _symmetry_equiv_pos_as_xyz
  1  'x, y, z'
loop_
 _atom_site_type_symbol
 _atom_site_label
 _atom_site_symmetry_multiplicity
 _atom_site_fract_x
 _atom_site_fract_y
 _atom_site_fract_z
 _atom_site_occupancy
  Sr  Sr0  1  0.000000  0.000000  0.500000  1
  Nd  Nd1  1  0.000000  0.000000  0.000000  1
  Tm  Tm2  1  0.000000  0.000000  0.244769  1
  Tm  Tm3  1  0.000000  0.000000  0.755231  1
  As  As4  1  0.333333  0.666667  0.883516  1
  As  As5  1  0.666667  0.333333  0.116484  1
  As  As6  1  0.666667  0.333333  0.368906  1
  As  As7  1  0.333333  0.666667  0.631094  1
  Pt  Pt8  1  0.333333  0.666667  0.348155  1
  Pt  Pt9  1  0.666667  0.333333  0.651845  1
  Pt  Pt10  1  0.666667  0.333333  0.862275  1
  Pt  Pt11  1  0.333333  0.666667  0.137725  1
