# generated using pymatgen
data_CeY7TiPd24
_symmetry_space_group_name_H-M   'P 1'
_cell_length_a   8.40469056
_cell_length_b   8.40469027
_cell_length_c   8.40469085
_cell_angle_alpha   89.96867056
_cell_angle_beta   90.03132360
_cell_angle_gamma   90.03132652
_symmetry_Int_Tables_number   1
_chemical_formula_structural   CeY7TiPd24
_chemical_formula_sum   'Ce1 Y7 Ti1 Pd24'
_cell_volume   593.69718535
_cell_formula_units_Z   1
loop_
 _symmetry_equiv_pos_site_id
 _symmetry_equiv_pos_as_xyz
  1  'x, y, z'
loop_
 _atom_site_type_symbol
 _atom_site_label
 _atom_site_symmetry_multiplicity
 _atom_site_fract_x
 _atom_site_fract_y
 _atom_site_fract_z
 _atom_site_occupancy
  Ce  Ce0  1  0.745125  0.254875  0.254875  1
  Y  Y1  1  0.251817  0.252730  0.252730  1
  Y  Y2  1  0.747029  0.747024  0.747024  1
  Y  Y3  1  0.747270  0.748183  0.252730  1
  Y  Y4  1  0.747270  0.252730  0.748183  1
  Y  Y5  1  0.252976  0.252971  0.747024  1
  Y  Y6  1  0.252976  0.747024  0.252971  1
  Y  Y7  1  0.253212  0.746788  0.746788  1
  Ti  Ti8  1  0.001370  0.998630  0.998630  1
  Pd  Pd9  1  0.261417  0.499870  0.999843  1
  Pd  Pd10  1  0.738628  0.499665  0.000976  1
  Pd  Pd11  1  0.999024  0.261372  0.499665  1
  Pd  Pd12  1  0.500335  0.261372  0.000976  1
  Pd  Pd13  1  0.000157  0.738583  0.499870  1
  Pd  Pd14  1  0.500130  0.738583  0.999843  1
  Pd  Pd15  1  0.500335  0.000976  0.261372  1
  Pd  Pd16  1  0.261417  0.999843  0.499870  1
  Pd  Pd17  1  0.500130  0.999843  0.738583  1
  Pd  Pd18  1  0.738628  0.000976  0.499665  1
  Pd  Pd19  1  0.999024  0.499665  0.261372  1
  Pd  Pd20  1  0.000157  0.499870  0.738583  1
  Pd  Pd21  1  0.252774  0.499926  0.499926  1
  Pd  Pd22  1  0.746783  0.499943  0.499943  1
  Pd  Pd23  1  0.500057  0.253217  0.499943  1
  Pd  Pd24  1  0.500074  0.747226  0.499926  1
  Pd  Pd25  1  0.500057  0.499943  0.253217  1
  Pd  Pd26  1  0.500074  0.499926  0.747226  1
  Pd  Pd27  1  0.295442  0.999852  0.999852  1
  Pd  Pd28  1  0.705608  0.999793  0.999793  1
  Pd  Pd29  1  0.000207  0.294392  0.999793  1
  Pd  Pd30  1  0.000148  0.704558  0.999852  1
  Pd  Pd31  1  0.000207  0.999793  0.294392  1
  Pd  Pd32  1  0.000148  0.999852  0.704558  1
