# generated using pymatgen
data_YTm7Ga3Fe
_symmetry_space_group_name_H-M   'P 1'
_cell_length_a   9.84626800
_cell_length_b   9.84626781
_cell_length_c   6.91457700
_cell_angle_alpha   90.00000000
_cell_angle_beta   90.00000000
_cell_angle_gamma   120.00000064
_symmetry_Int_Tables_number   1
_chemical_formula_structural   YTm7Ga3Fe
_chemical_formula_sum   'Y2 Tm14 Ga6 Fe2'
_cell_volume   580.54988389
_cell_formula_units_Z   2
loop_
 _symmetry_equiv_pos_site_id
 _symmetry_equiv_pos_as_xyz
  1  'x, y, z'
loop_
 _atom_site_type_symbol
 _atom_site_label
 _atom_site_symmetry_multiplicity
 _atom_site_fract_x
 _atom_site_fract_y
 _atom_site_fract_z
 _atom_site_occupancy
  Y  Y0  1  0.000000  0.000000  0.767475  1
  Y  Y1  1  0.000000  0.000000  0.267475  1
  Tm  Tm2  1  0.825391  0.650782  0.488047  1
  Tm  Tm3  1  0.349218  0.174609  0.488047  1
  Tm  Tm4  1  0.825391  0.174609  0.488047  1
  Tm  Tm5  1  0.174609  0.349218  0.988047  1
  Tm  Tm6  1  0.650782  0.825391  0.988047  1
  Tm  Tm7  1  0.174609  0.825391  0.988047  1
  Tm  Tm8  1  0.666667  0.333333  0.170621  1
  Tm  Tm9  1  0.333333  0.666667  0.670621  1
  Tm  Tm10  1  0.536823  0.073646  0.792533  1
  Tm  Tm11  1  0.926354  0.463177  0.792533  1
  Tm  Tm12  1  0.536823  0.463177  0.792533  1
  Tm  Tm13  1  0.463177  0.926354  0.292533  1
  Tm  Tm14  1  0.073646  0.536823  0.292533  1
  Tm  Tm15  1  0.463177  0.536823  0.292533  1
  Ga  Ga16  1  0.835683  0.671367  0.042862  1
  Ga  Ga17  1  0.328633  0.164317  0.042862  1
  Ga  Ga18  1  0.835683  0.164317  0.042862  1
  Ga  Ga19  1  0.164317  0.328633  0.542862  1
  Ga  Ga20  1  0.671367  0.835683  0.542862  1
  Ga  Ga21  1  0.164317  0.835683  0.542862  1
  Fe  Fe22  1  0.666667  0.333333  0.554611  1
  Fe  Fe23  1  0.333333  0.666667  0.054611  1
