# generated using pymatgen
data_Dy5Bi3P
_symmetry_space_group_name_H-M   'P 1'
_cell_length_a   9.23788500
_cell_length_b   9.23788554
_cell_length_c   6.65092500
_cell_angle_alpha   90.00000000
_cell_angle_beta   90.00000000
_cell_angle_gamma   119.99999448
_symmetry_Int_Tables_number   1
_chemical_formula_structural   Dy5Bi3P
_chemical_formula_sum   'Dy10 Bi6 P2'
_cell_volume   491.53883383
_cell_formula_units_Z   2
loop_
 _symmetry_equiv_pos_site_id
 _symmetry_equiv_pos_as_xyz
  1  'x, y, z'
loop_
 _atom_site_type_symbol
 _atom_site_label
 _atom_site_symmetry_multiplicity
 _atom_site_fract_x
 _atom_site_fract_y
 _atom_site_fract_z
 _atom_site_occupancy
  Dy  Dy0  1  0.666667  0.333333  0.000000  1
  Dy  Dy1  1  0.333333  0.666667  0.000000  1
  Dy  Dy2  1  0.333333  0.666667  0.500000  1
  Dy  Dy3  1  0.666667  0.333333  0.500000  1
  Dy  Dy4  1  0.762153  0.762153  0.750000  1
  Dy  Dy5  1  0.237847  0.000000  0.750000  1
  Dy  Dy6  1  0.000000  0.237847  0.750000  1
  Dy  Dy7  1  0.237847  0.237847  0.250000  1
  Dy  Dy8  1  0.762153  0.000000  0.250000  1
  Dy  Dy9  1  0.000000  0.762153  0.250000  1
  Bi  Bi10  1  0.398731  0.398731  0.750000  1
  Bi  Bi11  1  0.601269  0.000000  0.750000  1
  Bi  Bi12  1  0.000000  0.601269  0.750000  1
  Bi  Bi13  1  0.601269  0.601269  0.250000  1
  Bi  Bi14  1  0.398731  0.000000  0.250000  1
  Bi  Bi15  1  0.000000  0.398731  0.250000  1
  P  P16  1  0.000000  0.000000  0.000000  1
  P  P17  1  0.000000  0.000000  0.500000  1
