# generated using pymatgen
data_Pr2(SbRh3)3
_symmetry_space_group_name_H-M   'P 1'
_cell_length_a   7.97106803
_cell_length_b   7.97106874
_cell_length_c   9.24020600
_cell_angle_alpha   90.00000000
_cell_angle_beta   90.00000000
_cell_angle_gamma   120.06814004
_symmetry_Int_Tables_number   1
_chemical_formula_structural   Pr2(SbRh3)3
_chemical_formula_sum   'Pr4 Sb6 Rh18'
_cell_volume   508.09713785
_cell_formula_units_Z   2
loop_
 _symmetry_equiv_pos_site_id
 _symmetry_equiv_pos_as_xyz
  1  'x, y, z'
loop_
 _atom_site_type_symbol
 _atom_site_label
 _atom_site_symmetry_multiplicity
 _atom_site_fract_x
 _atom_site_fract_y
 _atom_site_fract_z
 _atom_site_occupancy
  Pr  Pr0  1  0.330191  0.020230  0.750000  1
  Pr  Pr1  1  0.669809  0.979770  0.250000  1
  Pr  Pr2  1  0.020230  0.330191  0.750000  1
  Pr  Pr3  1  0.979770  0.669809  0.250000  1
  Sb  Sb4  1  0.000000  0.000000  0.500000  1
  Sb  Sb5  1  0.680152  0.319848  0.000000  1
  Sb  Sb6  1  0.319848  0.680152  0.500000  1
  Sb  Sb7  1  0.319848  0.680152  0.000000  1
  Sb  Sb8  1  0.000000  0.000000  0.000000  1
  Sb  Sb9  1  0.680152  0.319848  0.500000  1
  Rh  Rh10  1  0.334854  0.334854  0.963590  1
  Rh  Rh11  1  0.460236  0.653151  0.750000  1
  Rh  Rh12  1  0.539764  0.346849  0.250000  1
  Rh  Rh13  1  0.653151  0.460236  0.750000  1
  Rh  Rh14  1  0.006740  0.336913  0.088390  1
  Rh  Rh15  1  0.993260  0.663087  0.588390  1
  Rh  Rh16  1  0.336913  0.006740  0.411610  1
  Rh  Rh17  1  0.663087  0.993260  0.911610  1
  Rh  Rh18  1  0.993260  0.663087  0.911610  1
  Rh  Rh19  1  0.006740  0.336913  0.411610  1
  Rh  Rh20  1  0.663087  0.993260  0.588390  1
  Rh  Rh21  1  0.855108  0.855108  0.750000  1
  Rh  Rh22  1  0.334854  0.334854  0.536410  1
  Rh  Rh23  1  0.665146  0.665146  0.036410  1
  Rh  Rh24  1  0.336913  0.006740  0.088390  1
  Rh  Rh25  1  0.665146  0.665146  0.463590  1
  Rh  Rh26  1  0.144892  0.144892  0.250000  1
  Rh  Rh27  1  0.346849  0.539764  0.250000  1
