# generated using pymatgen
data_Mg2MnFe(AuO2)4
_symmetry_space_group_name_H-M   'P 1'
_cell_length_a   5.30488328
_cell_length_b   6.19162555
_cell_length_c   7.08932635
_cell_angle_alpha   64.08437825
_cell_angle_beta   75.74499427
_cell_angle_gamma   89.97976083
_symmetry_Int_Tables_number   1
_chemical_formula_structural   Mg2MnFe(AuO2)4
_chemical_formula_sum   'Mg2 Mn1 Fe1 Au4 O8'
_cell_volume   201.44748473
_cell_formula_units_Z   1
loop_
 _symmetry_equiv_pos_site_id
 _symmetry_equiv_pos_as_xyz
  1  'x, y, z'
loop_
 _atom_site_type_symbol
 _atom_site_label
 _atom_site_symmetry_multiplicity
 _atom_site_fract_x
 _atom_site_fract_y
 _atom_site_fract_z
 _atom_site_occupancy
  Mg  Mg0  1  0.500030  0.749161  0.999968  1
  Mg  Mg1  1  0.999971  0.500194  0.000021  1
  Mn  Mn2  1  0.500028  0.252042  0.000013  1
  Fe  Fe3  1  0.000009  0.995859  0.999964  1
  Au  Au4  1  0.010325  0.001399  0.499675  1
  Au  Au5  1  0.989697  0.501165  0.500311  1
  Au  Au6  1  0.503531  0.747836  0.501213  1
  Au  Au7  1  0.496500  0.249113  0.498805  1
  O  O8  1  0.896191  0.841320  0.831939  1
  O  O9  1  0.872822  0.325807  0.836623  1
  O  O10  1  0.398315  0.567103  0.834756  1
  O  O11  1  0.389307  0.098769  0.834326  1
  O  O12  1  0.127073  0.162300  0.163424  1
  O  O13  1  0.103864  0.673197  0.168036  1
  O  O14  1  0.610697  0.932959  0.165696  1
  O  O15  1  0.601639  0.401775  0.165230  1
