# generated using pymatgen
data_Sc8Al3Zn4Os
_symmetry_space_group_name_H-M   'P 1'
_cell_length_a   9.45347024
_cell_length_b   6.59208113
_cell_length_c   9.44102625
_cell_angle_alpha   134.26340668
_cell_angle_beta   119.09728844
_cell_angle_gamma   45.79876196
_symmetry_Int_Tables_number   1
_chemical_formula_structural   Sc8Al3Zn4Os
_chemical_formula_sum   'Sc8 Al3 Zn4 Os1'
_cell_volume   302.05492677
_cell_formula_units_Z   1
loop_
 _symmetry_equiv_pos_site_id
 _symmetry_equiv_pos_as_xyz
  1  'x, y, z'
loop_
 _atom_site_type_symbol
 _atom_site_label
 _atom_site_symmetry_multiplicity
 _atom_site_fract_x
 _atom_site_fract_y
 _atom_site_fract_z
 _atom_site_occupancy
  Sc  Sc0  1  0.243090  0.005553  0.242050  1
  Sc  Sc1  1  0.757023  0.491738  0.242528  1
  Sc  Sc2  1  0.757788  0.978970  0.242977  1
  Sc  Sc3  1  0.241695  0.494792  0.243063  1
  Sc  Sc4  1  0.758006  0.492587  0.757262  1
  Sc  Sc5  1  0.242143  0.008242  0.757062  1
  Sc  Sc6  1  0.243088  0.520961  0.757432  1
  Sc  Sc7  1  0.757151  0.007138  0.757668  1
  Al  Al8  1  0.500094  0.250103  0.499849  1
  Al  Al9  1  0.499880  0.749937  0.500156  1
  Al  Al10  1  0.000122  0.750071  0.999834  1
  Zn  Zn11  1  0.500172  0.751384  0.000237  1
  Zn  Zn12  1  0.999825  0.748633  0.499781  1
  Zn  Zn13  1  0.000171  0.251376  0.500228  1
  Zn  Zn14  1  0.499830  0.248581  0.999772  1
  Os  Os15  1  0.999926  0.249933  0.000101  1
