# generated using pymatgen
data_Y6AlGa(SiIr3)4
_symmetry_space_group_name_H-M   'P 1'
_cell_length_a   5.57483101
_cell_length_b   5.57389449
_cell_length_c   15.45073900
_cell_angle_alpha   90.00064548
_cell_angle_beta   89.99817220
_cell_angle_gamma   119.99758964
_symmetry_Int_Tables_number   1
_chemical_formula_structural   Y6AlGa(SiIr3)4
_chemical_formula_sum   'Y6 Al1 Ga1 Si4 Ir12'
_cell_volume   415.79655489
_cell_formula_units_Z   1
loop_
 _symmetry_equiv_pos_site_id
 _symmetry_equiv_pos_as_xyz
  1  'x, y, z'
loop_
 _atom_site_type_symbol
 _atom_site_label
 _atom_site_symmetry_multiplicity
 _atom_site_fract_x
 _atom_site_fract_y
 _atom_site_fract_z
 _atom_site_occupancy
  Y  Y0  1  0.333374  0.666661  0.539947  1
  Y  Y1  1  0.666626  0.333339  0.460053  1
  Y  Y2  1  0.666652  0.333337  0.039935  1
  Y  Y3  1  0.333348  0.666663  0.960065  1
  Y  Y4  1  0.333335  0.666666  0.750146  1
  Y  Y5  1  0.666665  0.333334  0.249854  1
  Al  Al6  1  0.000000  0.000000  0.000000  1
  Ga  Ga7  1  0.000000  0.000000  0.500000  1
  Si  Si8  1  0.000026  0.999995  0.249555  1
  Si  Si9  1  0.999974  0.000005  0.750445  1
  Si  Si10  1  0.333328  0.666668  0.249895  1
  Si  Si11  1  0.666672  0.333332  0.750105  1
  Ir  Ir12  1  0.168051  0.336172  0.132455  1
  Ir  Ir13  1  0.831949  0.663828  0.867545  1
  Ir  Ir14  1  0.663812  0.831927  0.132452  1
  Ir  Ir15  1  0.831988  0.663866  0.633315  1
  Ir  Ir16  1  0.336188  0.168073  0.867548  1
  Ir  Ir17  1  0.168012  0.336134  0.366685  1
  Ir  Ir18  1  0.168064  0.831915  0.132454  1
  Ir  Ir19  1  0.336134  0.168029  0.633321  1
  Ir  Ir20  1  0.831936  0.168085  0.867546  1
  Ir  Ir21  1  0.663866  0.831971  0.366679  1
  Ir  Ir22  1  0.831960  0.168087  0.633302  1
  Ir  Ir23  1  0.168040  0.831913  0.366698  1
