# generated using pymatgen
data_Sr8Zn3Si12Pd
_symmetry_space_group_name_H-M   'P 1'
_cell_length_a   8.32236536
_cell_length_b   8.32223146
_cell_length_c   9.37468900
_cell_angle_alpha   89.99991293
_cell_angle_beta   90.00009095
_cell_angle_gamma   120.00109560
_symmetry_Int_Tables_number   1
_chemical_formula_structural   Sr8Zn3Si12Pd
_chemical_formula_sum   'Sr8 Zn3 Si12 Pd1'
_cell_volume   562.30154225
_cell_formula_units_Z   1
loop_
 _symmetry_equiv_pos_site_id
 _symmetry_equiv_pos_as_xyz
  1  'x, y, z'
loop_
 _atom_site_type_symbol
 _atom_site_label
 _atom_site_symmetry_multiplicity
 _atom_site_fract_x
 _atom_site_fract_y
 _atom_site_fract_z
 _atom_site_occupancy
  Sr  Sr0  1  0.501294  0.498703  0.744713  1
  Sr  Sr1  1  0.501670  0.498328  0.255195  1
  Sr  Sr2  1  0.997411  0.498703  0.744729  1
  Sr  Sr3  1  0.996659  0.498327  0.255179  1
  Sr  Sr4  1  0.501300  0.002595  0.744728  1
  Sr  Sr5  1  0.501676  0.003347  0.255182  1
  Sr  Sr6  1  0.000000  0.000000  0.747674  1
  Sr  Sr7  1  0.000000  0.000000  0.252310  1
  Zn  Zn8  1  0.666657  0.333330  0.997365  1
  Zn  Zn9  1  0.333343  0.666666  0.001902  1
  Zn  Zn10  1  0.333331  0.666681  0.499454  1
  Si  Si11  1  0.834992  0.165010  0.001470  1
  Si  Si12  1  0.165183  0.834811  0.998922  1
  Si  Si13  1  0.330011  0.165006  0.001472  1
  Si  Si14  1  0.161828  0.838164  0.499995  1
  Si  Si15  1  0.669639  0.834812  0.998922  1
  Si  Si16  1  0.832424  0.167590  0.499911  1
  Si  Si17  1  0.834993  0.669987  0.001471  1
  Si  Si18  1  0.676330  0.838164  0.500000  1
  Si  Si19  1  0.165183  0.330357  0.998920  1
  Si  Si20  1  0.335164  0.167592  0.499910  1
  Si  Si21  1  0.161837  0.323677  0.499993  1
  Si  Si22  1  0.832412  0.664830  0.499908  1
  Pd  Pd23  1  0.666665  0.333320  0.500679  1
