# generated using pymatgen
data_Th(TaC)4
_symmetry_space_group_name_H-M   'P 1'
_cell_length_a   6.35672662
_cell_length_b   6.35672659
_cell_length_c   6.35672603
_cell_angle_alpha   93.91976660
_cell_angle_beta   93.91976753
_cell_angle_gamma   149.68698755
_symmetry_Int_Tables_number   1
_chemical_formula_structural   Th(TaC)4
_chemical_formula_sum   'Th1 Ta4 C4'
_cell_volume   125.13489917
_cell_formula_units_Z   1
loop_
 _symmetry_equiv_pos_site_id
 _symmetry_equiv_pos_as_xyz
  1  'x, y, z'
loop_
 _atom_site_type_symbol
 _atom_site_label
 _atom_site_symmetry_multiplicity
 _atom_site_fract_x
 _atom_site_fract_y
 _atom_site_fract_z
 _atom_site_occupancy
  Th  Th0  1  0.000000  0.000000  0.000000  1
  Ta  Ta1  1  0.627298  0.827635  0.454933  1
  Ta  Ta2  1  0.372702  0.172365  0.545067  1
  Ta  Ta3  1  0.827635  0.372702  0.200336  1
  Ta  Ta4  1  0.172365  0.627298  0.799664  1
  C  C5  1  0.275435  0.398983  0.674418  1
  C  C6  1  0.724565  0.601017  0.325582  1
  C  C7  1  0.398983  0.724565  0.123549  1
  C  C8  1  0.601017  0.275435  0.876451  1
