# generated using pymatgen
data_Yb3ZrIn2Pt3
_symmetry_space_group_name_H-M   'P 1'
_cell_length_a   7.15674800
_cell_length_b   7.40986947
_cell_length_c   4.38184900
_cell_angle_alpha   90.00000000
_cell_angle_beta   90.00000000
_cell_angle_gamma   118.87629351
_symmetry_Int_Tables_number   1
_chemical_formula_structural   Yb3ZrIn2Pt3
_chemical_formula_sum   'Yb3 Zr1 In2 Pt3'
_cell_volume   203.47984159
_cell_formula_units_Z   1
loop_
 _symmetry_equiv_pos_site_id
 _symmetry_equiv_pos_as_xyz
  1  'x, y, z'
loop_
 _atom_site_type_symbol
 _atom_site_label
 _atom_site_symmetry_multiplicity
 _atom_site_fract_x
 _atom_site_fract_y
 _atom_site_fract_z
 _atom_site_occupancy
  Yb  Yb0  1  0.397793  0.000000  0.000000  1
  Yb  Yb1  1  0.010142  0.422475  0.000000  1
  Yb  Yb2  1  0.587668  0.577525  0.000000  1
  Zr  Zr3  1  0.753592  0.000000  0.500000  1
  In  In4  1  0.002086  0.749872  0.500000  1
  In  In5  1  0.252214  0.250128  0.500000  1
  Pt  Pt6  1  0.349545  0.676822  0.500000  1
  Pt  Pt7  1  0.672722  0.323178  0.500000  1
  Pt  Pt8  1  0.974238  0.000000  0.000000  1
