# generated using pymatgen
data_Sr9Yb4Ce7Sn16
_symmetry_space_group_name_H-M   'P 1'
_cell_length_a   8.12277407
_cell_length_b   8.55856392
_cell_length_c   16.52274700
_cell_angle_alpha   90.06177737
_cell_angle_beta   89.97052955
_cell_angle_gamma   90.15411383
_symmetry_Int_Tables_number   1
_chemical_formula_structural   Sr9Yb4Ce7Sn16
_chemical_formula_sum   'Sr9 Yb4 Ce7 Sn16'
_cell_volume   1148.64452085
_cell_formula_units_Z   1
loop_
 _symmetry_equiv_pos_site_id
 _symmetry_equiv_pos_as_xyz
  1  'x, y, z'
loop_
 _atom_site_type_symbol
 _atom_site_label
 _atom_site_symmetry_multiplicity
 _atom_site_fract_x
 _atom_site_fract_y
 _atom_site_fract_z
 _atom_site_occupancy
  Sr  Sr0  1  0.172912  0.330807  0.620139  1
  Sr  Sr1  1  0.502964  0.678978  0.595794  1
  Sr  Sr2  1  0.002325  0.822661  0.905735  1
  Sr  Sr3  1  0.495857  0.321220  0.093646  1
  Sr  Sr4  1  0.996574  0.179375  0.404649  1
  Sr  Sr5  1  0.494813  0.321451  0.405183  1
  Sr  Sr6  1  0.994225  0.178838  0.094407  1
  Sr  Sr7  1  0.506345  0.679209  0.905248  1
  Sr  Sr8  1  0.005930  0.819844  0.594538  1
  Yb  Yb9  1  0.838513  0.507442  0.749548  1
  Yb  Yb10  1  0.337060  0.993157  0.750371  1
  Yb  Yb11  1  0.163960  0.491300  0.249738  1
  Yb  Yb12  1  0.664363  0.008767  0.250600  1
  Ce  Ce13  1  0.671577  0.169233  0.623992  1
  Ce  Ce14  1  0.171072  0.330657  0.877330  1
  Ce  Ce15  1  0.328206  0.831779  0.122047  1
  Ce  Ce16  1  0.826840  0.669091  0.377507  1
  Ce  Ce17  1  0.329104  0.832889  0.377361  1
  Ce  Ce18  1  0.827733  0.668949  0.120814  1
  Ce  Ce19  1  0.671632  0.167568  0.879182  1
  Sn  Sn20  1  0.664552  0.958049  0.459874  1
  Sn  Sn21  1  0.159410  0.539198  0.039837  1
  Sn  Sn22  1  0.340652  0.041874  0.959100  1
  Sn  Sn23  1  0.831346  0.460380  0.536791  1
  Sn  Sn24  1  0.345014  0.032482  0.538166  1
  Sn  Sn25  1  0.835525  0.456374  0.959210  1
  Sn  Sn26  1  0.663645  0.960573  0.038878  1
  Sn  Sn27  1  0.157698  0.547050  0.455573  1
  Sn  Sn28  1  0.473359  0.379210  0.755797  1
  Sn  Sn29  1  0.964593  0.119075  0.754566  1
  Sn  Sn30  1  0.529993  0.623472  0.249360  1
  Sn  Sn31  1  0.032726  0.876915  0.249737  1
  Sn  Sn32  1  0.710872  0.875488  0.752082  1
  Sn  Sn33  1  0.219285  0.626611  0.754170  1
  Sn  Sn34  1  0.285440  0.122941  0.250172  1
  Sn  Sn35  1  0.783884  0.377095  0.248853  1
