# generated using pymatgen
data_Yb8Mn3Si16Tc9
_symmetry_space_group_name_H-M   'P 1'
_cell_length_a   6.75933147
_cell_length_b   6.75933193
_cell_length_c   12.59965700
_cell_angle_alpha   89.96227090
_cell_angle_beta   90.03772911
_cell_angle_gamma   89.96233813
_symmetry_Int_Tables_number   1
_chemical_formula_structural   Yb8Mn3Si16Tc9
_chemical_formula_sum   'Yb8 Mn3 Si16 Tc9'
_cell_volume   575.65987348
_cell_formula_units_Z   1
loop_
 _symmetry_equiv_pos_site_id
 _symmetry_equiv_pos_as_xyz
  1  'x, y, z'
loop_
 _atom_site_type_symbol
 _atom_site_label
 _atom_site_symmetry_multiplicity
 _atom_site_fract_x
 _atom_site_fract_y
 _atom_site_fract_z
 _atom_site_occupancy
  Yb  Yb0  1  0.995085  0.671377  0.026271  1
  Yb  Yb1  1  0.006433  0.331026  0.525161  1
  Yb  Yb2  1  0.331026  0.006433  0.474839  1
  Yb  Yb3  1  0.175604  0.507551  0.779239  1
  Yb  Yb4  1  0.823234  0.495427  0.278468  1
  Yb  Yb5  1  0.507551  0.175604  0.220761  1
  Yb  Yb6  1  0.495427  0.823234  0.721532  1
  Yb  Yb7  1  0.671377  0.995085  0.973729  1
  Mn  Mn8  1  0.161107  0.836250  0.251862  1
  Mn  Mn9  1  0.333032  0.333032  0.000000  1
  Mn  Mn10  1  0.836250  0.161107  0.748138  1
  Si  Si11  1  0.021052  0.718332  0.437494  1
  Si  Si12  1  0.615360  0.312138  0.440672  1
  Si  Si13  1  0.395997  0.678921  0.945113  1
  Si  Si14  1  0.198832  0.123787  0.689630  1
  Si  Si15  1  0.312138  0.615360  0.559328  1
  Si  Si16  1  0.678921  0.395997  0.054887  1
  Si  Si17  1  0.798410  0.877617  0.189043  1
  Si  Si18  1  0.123787  0.198832  0.310370  1
  Si  Si19  1  0.976015  0.288200  0.935921  1
  Si  Si20  1  0.718332  0.021052  0.562506  1
  Si  Si21  1  0.201875  0.471156  0.184297  1
  Si  Si22  1  0.794220  0.529432  0.678630  1
  Si  Si23  1  0.471156  0.201875  0.815703  1
  Si  Si24  1  0.529432  0.794220  0.321370  1
  Si  Si25  1  0.288200  0.976015  0.064079  1
  Si  Si26  1  0.877617  0.798410  0.810957  1
  Tc  Tc27  1  0.667229  0.667229  0.500000  1
  Tc  Tc28  1  0.010421  0.832257  0.631030  1
  Tc  Tc29  1  0.998705  0.167674  0.126162  1
  Tc  Tc30  1  0.832257  0.010421  0.368970  1
  Tc  Tc31  1  0.318798  0.503499  0.369999  1
  Tc  Tc32  1  0.682881  0.481070  0.863988  1
  Tc  Tc33  1  0.503499  0.318798  0.630001  1
  Tc  Tc34  1  0.481070  0.682881  0.136012  1
  Tc  Tc35  1  0.167674  0.998705  0.873838  1
