# generated using pymatgen
data_AlGa3Tc3Ge2
_symmetry_space_group_name_H-M   'P 1'
_cell_length_a   4.78201427
_cell_length_b   4.78201569
_cell_length_c   6.65075070
_cell_angle_alpha   89.70056750
_cell_angle_beta   89.70056669
_cell_angle_gamma   119.87888776
_symmetry_Int_Tables_number   1
_chemical_formula_structural   AlGa3Tc3Ge2
_chemical_formula_sum   'Al1 Ga3 Tc3 Ge2'
_cell_volume   131.86460899
_cell_formula_units_Z   1
loop_
 _symmetry_equiv_pos_site_id
 _symmetry_equiv_pos_as_xyz
  1  'x, y, z'
loop_
 _atom_site_type_symbol
 _atom_site_label
 _atom_site_symmetry_multiplicity
 _atom_site_fract_x
 _atom_site_fract_y
 _atom_site_fract_z
 _atom_site_occupancy
  Al  Al0  1  0.829557  0.170443  0.500000  1
  Ga  Ga1  1  0.168345  0.831655  0.500000  1
  Ga  Ga2  1  0.333550  0.165913  0.169749  1
  Ga  Ga3  1  0.834087  0.666450  0.830251  1
  Tc  Tc4  1  0.998660  0.496891  0.161791  1
  Tc  Tc5  1  0.503109  0.001340  0.838209  1
  Tc  Tc6  1  0.498381  0.501619  0.500000  1
  Ge  Ge7  1  0.669533  0.834836  0.170127  1
  Ge  Ge8  1  0.165164  0.330467  0.829873  1
