# generated using pymatgen
data_Hf12Zn5Ni2Pd5N4
_symmetry_space_group_name_H-M   'P 1'
_cell_length_a   8.48950144
_cell_length_b   8.49539565
_cell_length_c   8.47296400
_cell_angle_alpha   60.08729138
_cell_angle_beta   60.06437126
_cell_angle_gamma   60.08797793
_symmetry_Int_Tables_number   1
_chemical_formula_structural   Hf12Zn5Ni2Pd5N4
_chemical_formula_sum   'Hf12 Zn5 Ni2 Pd5 N4'
_cell_volume   432.88401351
_cell_formula_units_Z   1
loop_
 _symmetry_equiv_pos_site_id
 _symmetry_equiv_pos_as_xyz
  1  'x, y, z'
loop_
 _atom_site_type_symbol
 _atom_site_label
 _atom_site_symmetry_multiplicity
 _atom_site_fract_x
 _atom_site_fract_y
 _atom_site_fract_z
 _atom_site_occupancy
  Hf  Hf0  1  0.810796  0.192130  0.186632  1
  Hf  Hf1  1  0.190354  0.810622  0.188866  1
  Hf  Hf2  1  0.811279  0.810445  0.189138  1
  Hf  Hf3  1  0.190354  0.810623  0.810157  1
  Hf  Hf4  1  0.810797  0.192130  0.810441  1
  Hf  Hf5  1  0.186728  0.191637  0.810817  1
  Hf  Hf6  1  0.440745  0.063950  0.056398  1
  Hf  Hf7  1  0.070894  0.435846  0.057287  1
  Hf  Hf8  1  0.437463  0.435336  0.063601  1
  Hf  Hf9  1  0.070894  0.435845  0.435973  1
  Hf  Hf10  1  0.440744  0.063950  0.438908  1
  Hf  Hf11  1  0.061703  0.059568  0.439365  1
  Zn  Zn12  1  0.831470  0.510053  0.829238  1
  Zn  Zn13  1  0.618924  0.616409  0.132486  1
  Zn  Zn14  1  0.618924  0.616410  0.632182  1
  Zn  Zn15  1  0.140016  0.609871  0.625056  1
  Zn  Zn16  1  0.611701  0.137520  0.625389  1
  Ni  Ni17  1  0.408540  0.409983  0.773308  1
  Ni  Ni18  1  0.408541  0.409983  0.408170  1
  Pd  Pd19  1  0.763304  0.412312  0.412192  1
  Pd  Pd20  1  0.411841  0.762218  0.412970  1
  Pd  Pd21  1  0.837491  0.837051  0.489138  1
  Pd  Pd22  1  0.837492  0.837052  0.836321  1
  Pd  Pd23  1  0.487824  0.838319  0.836928  1
  N  N24  1  0.125736  0.124809  0.623436  1
  N  N25  1  0.125736  0.124809  0.126019  1
  N  N26  1  0.625344  0.124246  0.125205  1
  N  N27  1  0.124362  0.626874  0.124382  1
