# generated using pymatgen
data_NaLiDy(P3Pd10)2
_symmetry_space_group_name_H-M   'P 1'
_cell_length_a   8.60778657
_cell_length_b   8.60778619
_cell_length_c   8.60778700
_cell_angle_alpha   60.00000075
_cell_angle_beta   60.00000218
_cell_angle_gamma   60.00000002
_symmetry_Int_Tables_number   1
_chemical_formula_structural   NaLiDy(P3Pd10)2
_chemical_formula_sum   'Na1 Li1 Dy1 P6 Pd20'
_cell_volume   450.98228715
_cell_formula_units_Z   1
loop_
 _symmetry_equiv_pos_site_id
 _symmetry_equiv_pos_as_xyz
  1  'x, y, z'
loop_
 _atom_site_type_symbol
 _atom_site_label
 _atom_site_symmetry_multiplicity
 _atom_site_fract_x
 _atom_site_fract_y
 _atom_site_fract_z
 _atom_site_occupancy
  Na  Na0  1  0.250000  0.250000  0.250000  1
  Li  Li1  1  0.000000  0.000000  0.000000  1
  Dy  Dy2  1  0.750000  0.750000  0.750000  1
  P  P3  1  0.737909  0.262091  0.262091  1
  P  P4  1  0.262091  0.737909  0.737909  1
  P  P5  1  0.262091  0.737909  0.262091  1
  P  P6  1  0.737909  0.262091  0.737909  1
  P  P7  1  0.262091  0.262091  0.737909  1
  P  P8  1  0.737909  0.737909  0.262091  1
  Pd  Pd9  1  0.384061  0.384061  0.384061  1
  Pd  Pd10  1  0.614353  0.614353  0.614353  1
  Pd  Pd11  1  0.384061  0.384061  0.847818  1
  Pd  Pd12  1  0.384061  0.847818  0.384061  1
  Pd  Pd13  1  0.614353  0.614353  0.156940  1
  Pd  Pd14  1  0.614353  0.156940  0.614353  1
  Pd  Pd15  1  0.847818  0.384061  0.384061  1
  Pd  Pd16  1  0.156940  0.614353  0.614353  1
  Pd  Pd17  1  0.346121  0.997714  0.997714  1
  Pd  Pd18  1  0.658452  0.997714  0.997714  1
  Pd  Pd19  1  0.997714  0.346121  0.658452  1
  Pd  Pd20  1  0.997714  0.658452  0.346121  1
  Pd  Pd21  1  0.997714  0.346121  0.997714  1
  Pd  Pd22  1  0.658452  0.997714  0.346121  1
  Pd  Pd23  1  0.997714  0.658452  0.997714  1
  Pd  Pd24  1  0.346121  0.997714  0.658452  1
  Pd  Pd25  1  0.997714  0.997714  0.346121  1
  Pd  Pd26  1  0.997714  0.997714  0.658452  1
  Pd  Pd27  1  0.658452  0.346121  0.997714  1
  Pd  Pd28  1  0.346121  0.658452  0.997714  1
