# generated using pymatgen
data_GdHo2Lu(WO6)2
_symmetry_space_group_name_H-M   'P 1'
_cell_length_a   5.39020900
_cell_length_b   7.69384655
_cell_length_c   11.42933561
_cell_angle_alpha   75.48959982
_cell_angle_beta   90.00000000
_cell_angle_gamma   90.00000000
_symmetry_Int_Tables_number   1
_chemical_formula_structural   GdHo2Lu(WO6)2
_chemical_formula_sum   'Gd2 Ho4 Lu2 W4 O24'
_cell_volume   458.87173448
_cell_formula_units_Z   2
loop_
 _symmetry_equiv_pos_site_id
 _symmetry_equiv_pos_as_xyz
  1  'x, y, z'
loop_
 _atom_site_type_symbol
 _atom_site_label
 _atom_site_symmetry_multiplicity
 _atom_site_fract_x
 _atom_site_fract_y
 _atom_site_fract_z
 _atom_site_occupancy
  Gd  Gd0  1  0.315545  0.500000  0.750000  1
  Gd  Gd1  1  0.685343  0.500000  0.250000  1
  Ho  Ho2  1  0.257457  0.000000  0.750000  1
  Ho  Ho3  1  0.183806  0.795938  0.077552  1
  Ho  Ho4  1  0.183806  0.204062  0.422448  1
  Ho  Ho5  1  0.742949  0.000000  0.250000  1
  Lu  Lu6  1  0.815975  0.205819  0.921393  1
  Lu  Lu7  1  0.815975  0.794181  0.578607  1
  W  W8  1  0.744895  0.725774  0.884113  1
  W  W9  1  0.255979  0.726289  0.385736  1
  W  W10  1  0.744895  0.274226  0.615887  1
  W  W11  1  0.255979  0.273711  0.114264  1
  O  O12  1  0.539476  0.155782  0.066960  1
  O  O13  1  0.043172  0.059967  0.103037  1
  O  O14  1  0.017911  0.716721  0.768992  1
  O  O15  1  0.462316  0.155486  0.570446  1
  O  O16  1  0.354795  0.491178  0.386513  1
  O  O17  1  0.952841  0.056486  0.603895  1
  O  O18  1  0.545633  0.794223  0.724414  1
  O  O19  1  0.457077  0.794768  0.226841  1
  O  O20  1  0.144748  0.638405  0.548443  1
  O  O21  1  0.043172  0.940033  0.396963  1
  O  O22  1  0.462316  0.844514  0.929554  1
  O  O23  1  0.457077  0.205232  0.273159  1
  O  O24  1  0.851001  0.362726  0.452676  1
  O  O25  1  0.647227  0.489302  0.885845  1
  O  O26  1  0.354795  0.508822  0.113487  1
  O  O27  1  0.952841  0.943514  0.896105  1
  O  O28  1  0.539476  0.844218  0.433040  1
  O  O29  1  0.982500  0.284558  0.229684  1
  O  O30  1  0.545633  0.205777  0.775586  1
  O  O31  1  0.851001  0.637274  0.047324  1
  O  O32  1  0.017911  0.283279  0.731008  1
  O  O33  1  0.144748  0.361595  0.951557  1
  O  O34  1  0.982500  0.715442  0.270316  1
  O  O35  1  0.647227  0.510698  0.614155  1
