# generated using pymatgen
data_La2Y4CuRh17
_symmetry_space_group_name_H-M   'P 1'
_cell_length_a   5.32464114
_cell_length_b   5.32425728
_cell_length_c   17.40619400
_cell_angle_alpha   90.00000000
_cell_angle_beta   90.00000000
_cell_angle_gamma   120.00223680
_symmetry_Int_Tables_number   1
_chemical_formula_structural   La2Y4CuRh17
_chemical_formula_sum   'La2 Y4 Cu1 Rh17'
_cell_volume   427.34048529
_cell_formula_units_Z   1
loop_
 _symmetry_equiv_pos_site_id
 _symmetry_equiv_pos_as_xyz
  1  'x, y, z'
loop_
 _atom_site_type_symbol
 _atom_site_label
 _atom_site_symmetry_multiplicity
 _atom_site_fract_x
 _atom_site_fract_y
 _atom_site_fract_z
 _atom_site_occupancy
  La  La0  1  0.333332  0.666666  0.750000  1
  La  La1  1  0.666676  0.333333  0.250000  1
  Y  Y2  1  0.333332  0.666681  0.958547  1
  Y  Y3  1  0.666667  0.333332  0.041717  1
  Y  Y4  1  0.666667  0.333332  0.458283  1
  Y  Y5  1  0.333332  0.666681  0.541453  1
  Cu  Cu6  1  0.333334  0.666650  0.250000  1
  Rh  Rh7  1  0.168634  0.831366  0.374238  1
  Rh  Rh8  1  0.168624  0.337245  0.374226  1
  Rh  Rh9  1  0.662741  0.831364  0.374236  1
  Rh  Rh10  1  0.832983  0.167025  0.623722  1
  Rh  Rh11  1  0.832993  0.665999  0.623729  1
  Rh  Rh12  1  0.334028  0.167025  0.623727  1
  Rh  Rh13  1  0.832983  0.167025  0.876278  1
  Rh  Rh14  1  0.832993  0.665999  0.876271  1
  Rh  Rh15  1  0.334028  0.167025  0.876273  1
  Rh  Rh16  1  0.168634  0.831366  0.125762  1
  Rh  Rh17  1  0.168624  0.337245  0.125774  1
  Rh  Rh18  1  0.662741  0.831364  0.125764  1
  Rh  Rh19  1  0.666714  0.333417  0.750000  1
  Rh  Rh20  1  0.999993  0.999954  0.250000  1
  Rh  Rh21  1  0.999959  0.999944  0.750000  1
  Rh  Rh22  1  0.999993  0.999981  0.497723  1
  Rh  Rh23  1  0.999993  0.999981  0.002277  1
