# generated using pymatgen
data_TbCdIr2O7
_symmetry_space_group_name_H-M   'P 1'
_cell_length_a   7.26107168
_cell_length_b   7.26107320
_cell_length_c   7.38264300
_cell_angle_alpha   59.44458008
_cell_angle_beta   59.44457301
_cell_angle_gamma   59.23282491
_symmetry_Int_Tables_number   1
_chemical_formula_structural   TbCdIr2O7
_chemical_formula_sum   'Tb2 Cd2 Ir4 O14'
_cell_volume   271.30767865
_cell_formula_units_Z   2
loop_
 _symmetry_equiv_pos_site_id
 _symmetry_equiv_pos_as_xyz
  1  'x, y, z'
loop_
 _atom_site_type_symbol
 _atom_site_label
 _atom_site_symmetry_multiplicity
 _atom_site_fract_x
 _atom_site_fract_y
 _atom_site_fract_z
 _atom_site_occupancy
  Tb  Tb0  1  0.125000  0.125000  0.625000  1
  Tb  Tb1  1  0.125000  0.125000  0.125000  1
  Cd  Cd2  1  0.625000  0.125000  0.125000  1
  Cd  Cd3  1  0.125000  0.625000  0.125000  1
  Ir  Ir4  1  0.125000  0.625000  0.625000  1
  Ir  Ir5  1  0.625000  0.125000  0.625000  1
  Ir  Ir6  1  0.625000  0.625000  0.125000  1
  Ir  Ir7  1  0.625000  0.625000  0.625000  1
  O  O8  1  0.698835  0.698835  0.301165  1
  O  O9  1  0.288982  0.288982  0.711018  1
  O  O10  1  0.710686  0.294683  0.696804  1
  O  O11  1  0.294683  0.710686  0.297827  1
  O  O12  1  0.294683  0.710686  0.696804  1
  O  O13  1  0.710686  0.294683  0.297827  1
  O  O14  1  0.551165  0.551165  0.948835  1
  O  O15  1  0.961018  0.961018  0.538982  1
  O  O16  1  0.539314  0.955317  0.553196  1
  O  O17  1  0.955317  0.539314  0.952173  1
  O  O18  1  0.955317  0.539314  0.553196  1
  O  O19  1  0.539314  0.955317  0.952173  1
  O  O20  1  0.250442  0.250442  0.249558  1
  O  O21  1  0.999558  0.999558  0.000442  1
