# generated using pymatgen
data_GaCu(PO3)4
_symmetry_space_group_name_H-M   'P 1'
_cell_length_a   8.38356600
_cell_length_b   9.20569800
_cell_length_c   12.69074700
_cell_angle_alpha   90.00000000
_cell_angle_beta   90.00000000
_cell_angle_gamma   90.00000000
_symmetry_Int_Tables_number   1
_chemical_formula_structural   GaCu(PO3)4
_chemical_formula_sum   'Ga4 Cu4 P16 O48'
_cell_volume   979.42840998
_cell_formula_units_Z   4
loop_
 _symmetry_equiv_pos_site_id
 _symmetry_equiv_pos_as_xyz
  1  'x, y, z'
loop_
 _atom_site_type_symbol
 _atom_site_label
 _atom_site_symmetry_multiplicity
 _atom_site_fract_x
 _atom_site_fract_y
 _atom_site_fract_z
 _atom_site_occupancy
  Ga  Ga0  1  0.366870  0.250000  0.000000  1
  Ga  Ga1  1  0.633130  0.750000  0.000000  1
  Ga  Ga2  1  0.133130  0.750000  0.500000  1
  Ga  Ga3  1  0.866870  0.250000  0.500000  1
  Cu  Cu4  1  0.919528  0.250000  0.000000  1
  Cu  Cu5  1  0.080472  0.750000  0.000000  1
  Cu  Cu6  1  0.580472  0.750000  0.500000  1
  Cu  Cu7  1  0.419528  0.250000  0.500000  1
  P  P8  1  0.184908  0.008970  0.141633  1
  P  P9  1  0.815092  0.991030  0.858367  1
  P  P10  1  0.315092  0.508970  0.358367  1
  P  P11  1  0.184908  0.491030  0.858367  1
  P  P12  1  0.684908  0.491030  0.641633  1
  P  P13  1  0.815092  0.508970  0.141633  1
  P  P14  1  0.315092  0.991030  0.641633  1
  P  P15  1  0.684908  0.008970  0.358367  1
  P  P16  1  0.038295  0.011209  0.351148  1
  P  P17  1  0.961705  0.988791  0.648852  1
  P  P18  1  0.461705  0.511209  0.148852  1
  P  P19  1  0.038295  0.488791  0.648852  1
  P  P20  1  0.538295  0.488791  0.851148  1
  P  P21  1  0.961705  0.511209  0.351148  1
  P  P22  1  0.461705  0.988791  0.851148  1
  P  P23  1  0.538295  0.011209  0.148852  1
  O  O24  1  0.367092  0.376189  0.125461  1
  O  O25  1  0.632908  0.623811  0.874539  1
  O  O26  1  0.132908  0.876189  0.374539  1
  O  O27  1  0.367092  0.123811  0.874539  1
  O  O28  1  0.867092  0.123811  0.625461  1
  O  O29  1  0.632908  0.876189  0.125461  1
  O  O30  1  0.132908  0.623811  0.625461  1
  O  O31  1  0.867092  0.376189  0.374539  1
  O  O32  1  0.036200  0.129548  0.433129  1
  O  O33  1  0.963800  0.870452  0.566871  1
  O  O34  1  0.463800  0.629548  0.066871  1
  O  O35  1  0.036200  0.370452  0.566871  1
  O  O36  1  0.536200  0.370452  0.933129  1
  O  O37  1  0.963800  0.629548  0.433129  1
  O  O38  1  0.463800  0.870452  0.933129  1
  O  O39  1  0.536200  0.129548  0.066871  1
  O  O40  1  0.108176  0.081655  0.245533  1
  O  O41  1  0.891824  0.918345  0.754467  1
  O  O42  1  0.391824  0.581655  0.254467  1
  O  O43  1  0.108176  0.418345  0.754467  1
  O  O44  1  0.608176  0.418345  0.745533  1
  O  O45  1  0.891824  0.581655  0.245533  1
  O  O46  1  0.391824  0.918345  0.745533  1
  O  O47  1  0.608176  0.081655  0.254467  1
  O  O48  1  0.408471  0.375796  0.384846  1
  O  O49  1  0.591529  0.624204  0.615154  1
  O  O50  1  0.091529  0.875796  0.115154  1
  O  O51  1  0.408471  0.124204  0.615154  1
  O  O52  1  0.908471  0.124204  0.884846  1
  O  O53  1  0.591529  0.875796  0.384846  1
  O  O54  1  0.091529  0.624204  0.884846  1
  O  O55  1  0.908471  0.375796  0.115154  1
  O  O56  1  0.196804  0.129942  0.062078  1
  O  O57  1  0.803196  0.870058  0.937922  1
  O  O58  1  0.303196  0.629942  0.437922  1
  O  O59  1  0.196804  0.370058  0.937922  1
  O  O60  1  0.696804  0.370058  0.562078  1
  O  O61  1  0.803196  0.629942  0.062078  1
  O  O62  1  0.303196  0.870058  0.562078  1
  O  O63  1  0.696804  0.129942  0.437922  1
  O  O64  1  0.139307  0.464507  0.317997  1
  O  O65  1  0.860693  0.535493  0.682003  1
  O  O66  1  0.360693  0.964507  0.182003  1
  O  O67  1  0.139307  0.035493  0.682003  1
  O  O68  1  0.639307  0.035493  0.817997  1
  O  O69  1  0.860693  0.964507  0.317997  1
  O  O70  1  0.360693  0.535493  0.817997  1
  O  O71  1  0.639307  0.464507  0.182003  1
