# generated using pymatgen
data_Y6AlCo2
_symmetry_space_group_name_H-M   'P 1'
_cell_length_a   8.35871874
_cell_length_b   8.35871898
_cell_length_c   8.35871828
_cell_angle_alpha   111.88206106
_cell_angle_beta   109.62262324
_cell_angle_gamma   106.94653585
_symmetry_Int_Tables_number   1
_chemical_formula_structural   Y6AlCo2
_chemical_formula_sum   'Y12 Al2 Co4'
_cell_volume   448.73583734
_cell_formula_units_Z   2
loop_
 _symmetry_equiv_pos_site_id
 _symmetry_equiv_pos_as_xyz
  1  'x, y, z'
loop_
 _atom_site_type_symbol
 _atom_site_label
 _atom_site_symmetry_multiplicity
 _atom_site_fract_x
 _atom_site_fract_y
 _atom_site_fract_z
 _atom_site_occupancy
  Y  Y0  1  0.038448  0.737270  0.301178  1
  Y  Y1  1  0.961552  0.262730  0.698822  1
  Y  Y2  1  0.563907  0.262730  0.301178  1
  Y  Y3  1  0.436093  0.737270  0.698822  1
  Y  Y4  1  0.675075  0.864142  0.189067  1
  Y  Y5  1  0.324925  0.513991  0.189067  1
  Y  Y6  1  0.324925  0.135858  0.810933  1
  Y  Y7  1  0.675075  0.486009  0.810933  1
  Y  Y8  1  0.181637  0.217966  0.399603  1
  Y  Y9  1  0.818363  0.217966  0.036329  1
  Y  Y10  1  0.181637  0.782034  0.963671  1
  Y  Y11  1  0.818363  0.782034  0.600397  1
  Al  Al12  1  0.000000  0.500000  0.500000  1
  Al  Al13  1  0.500000  0.000000  0.500000  1
  Co  Co14  1  0.664601  0.500000  0.164601  1
  Co  Co15  1  0.335399  0.500000  0.835399  1
  Co  Co16  1  0.887091  0.887091  0.000000  1
  Co  Co17  1  0.112909  0.112909  0.000000  1
