# generated using pymatgen
data_Ce9Sm(Si2Ru3)2
_symmetry_space_group_name_H-M   'P 1'
_cell_length_a   8.28130402
_cell_length_b   8.28130388
_cell_length_c   8.28130401
_cell_angle_alpha   109.52751502
_cell_angle_beta   109.52751854
_cell_angle_gamma   109.52752087
_symmetry_Int_Tables_number   1
_chemical_formula_structural   Ce9Sm(Si2Ru3)2
_chemical_formula_sum   'Ce9 Sm1 Si4 Ru6'
_cell_volume   436.28044500
_cell_formula_units_Z   1
loop_
 _symmetry_equiv_pos_site_id
 _symmetry_equiv_pos_as_xyz
  1  'x, y, z'
loop_
 _atom_site_type_symbol
 _atom_site_label
 _atom_site_symmetry_multiplicity
 _atom_site_fract_x
 _atom_site_fract_y
 _atom_site_fract_z
 _atom_site_occupancy
  Ce  Ce0  1  0.296140  0.545971  0.751010  1
  Ce  Ce1  1  0.751010  0.296140  0.545971  1
  Ce  Ce2  1  0.545971  0.751010  0.296140  1
  Ce  Ce3  1  0.727745  0.499103  0.005540  1
  Ce  Ce4  1  0.005540  0.727745  0.499103  1
  Ce  Ce5  1  0.499103  0.005540  0.727745  1
  Ce  Ce6  1  0.246538  0.199177  0.950289  1
  Ce  Ce7  1  0.950289  0.246538  0.199177  1
  Ce  Ce8  1  0.199177  0.950289  0.246538  1
  Sm  Sm9  1  0.758672  0.758672  0.758672  1
  Si  Si10  1  0.390215  0.390215  0.390215  1
  Si  Si11  1  0.104604  0.501395  0.001795  1
  Si  Si12  1  0.001795  0.104604  0.501395  1
  Si  Si13  1  0.501395  0.001795  0.104604  1
  Ru  Ru14  1  0.887735  0.140549  0.751153  1
  Ru  Ru15  1  0.751153  0.887735  0.140549  1
  Ru  Ru16  1  0.140549  0.751153  0.887735  1
  Ru  Ru17  1  0.254437  0.618738  0.369195  1
  Ru  Ru18  1  0.369195  0.254437  0.618738  1
  Ru  Ru19  1  0.618738  0.369195  0.254437  1
