# generated using pymatgen
data_Np4AlCr3B16
_symmetry_space_group_name_H-M   'P 1'
_cell_length_a   3.45966900
_cell_length_b   5.91353597
_cell_length_c   11.46302461
_cell_angle_alpha   89.83356357
_cell_angle_beta   90.00000000
_cell_angle_gamma   90.00000000
_symmetry_Int_Tables_number   1
_chemical_formula_structural   Np4AlCr3B16
_chemical_formula_sum   'Np4 Al1 Cr3 B16'
_cell_volume   234.51962216
_cell_formula_units_Z   1
loop_
 _symmetry_equiv_pos_site_id
 _symmetry_equiv_pos_as_xyz
  1  'x, y, z'
loop_
 _atom_site_type_symbol
 _atom_site_label
 _atom_site_symmetry_multiplicity
 _atom_site_fract_x
 _atom_site_fract_y
 _atom_site_fract_z
 _atom_site_occupancy
  Np  Np0  1  0.000000  0.623993  0.348526  1
  Np  Np1  1  0.000000  0.373676  0.652180  1
  Np  Np2  1  0.000000  0.126636  0.151030  1
  Np  Np3  1  0.000000  0.876044  0.849383  1
  Al  Al4  1  0.000000  0.634716  0.088397  1
  Cr  Cr5  1  0.000000  0.371280  0.912775  1
  Cr  Cr6  1  0.000000  0.127478  0.417360  1
  Cr  Cr7  1  0.000000  0.872167  0.583915  1
  B  B8  1  0.500000  0.788783  0.188899  1
  B  B9  1  0.500000  0.216577  0.814032  1
  B  B10  1  0.500000  0.280884  0.314702  1
  B  B11  1  0.500000  0.717460  0.685439  1
  B  B12  1  0.500000  0.868804  0.030713  1
  B  B13  1  0.500000  0.135780  0.965971  1
  B  B14  1  0.500000  0.363622  0.467095  1
  B  B15  1  0.500000  0.635240  0.533095  1
  B  B16  1  0.500000  0.885145  0.453440  1
  B  B17  1  0.500000  0.114263  0.546570  1
  B  B18  1  0.500000  0.381644  0.044361  1
  B  B19  1  0.500000  0.612766  0.950722  1
  B  B20  1  0.500000  0.974215  0.308786  1
  B  B21  1  0.500000  0.025191  0.691508  1
  B  B22  1  0.500000  0.467408  0.193483  1
  B  B23  1  0.500000  0.526226  0.807616  1
