# generated using pymatgen
data_Y8Er2Si6N
_symmetry_space_group_name_H-M   'P 1'
_cell_length_a   8.41593000
_cell_length_b   8.41592935
_cell_length_c   6.33183400
_cell_angle_alpha   90.00000000
_cell_angle_beta   90.00000000
_cell_angle_gamma   119.99999470
_symmetry_Int_Tables_number   1
_chemical_formula_structural   Y8Er2Si6N
_chemical_formula_sum   'Y8 Er2 Si6 N1'
_cell_volume   388.38671917
_cell_formula_units_Z   1
loop_
 _symmetry_equiv_pos_site_id
 _symmetry_equiv_pos_as_xyz
  1  'x, y, z'
loop_
 _atom_site_type_symbol
 _atom_site_label
 _atom_site_symmetry_multiplicity
 _atom_site_fract_x
 _atom_site_fract_y
 _atom_site_fract_z
 _atom_site_occupancy
  Y  Y0  1  0.666667  0.333333  0.000000  1
  Y  Y1  1  0.333333  0.666667  0.000000  1
  Y  Y2  1  0.000000  0.766311  0.267062  1
  Y  Y3  1  0.233689  0.233689  0.267062  1
  Y  Y4  1  0.766311  0.000000  0.267062  1
  Y  Y5  1  0.000000  0.233689  0.732938  1
  Y  Y6  1  0.766311  0.766311  0.732938  1
  Y  Y7  1  0.233689  0.000000  0.732938  1
  Er  Er8  1  0.333333  0.666667  0.500000  1
  Er  Er9  1  0.666667  0.333333  0.500000  1
  Si  Si10  1  0.000000  0.400309  0.253704  1
  Si  Si11  1  0.599691  0.599691  0.253704  1
  Si  Si12  1  0.400309  0.000000  0.253704  1
  Si  Si13  1  0.000000  0.599691  0.746296  1
  Si  Si14  1  0.400309  0.400309  0.746296  1
  Si  Si15  1  0.599691  0.000000  0.746296  1
  N  N16  1  0.000000  0.000000  0.500000  1
