# generated using pymatgen
data_TmGeF7
_symmetry_space_group_name_H-M   'P 1'
_cell_length_a   5.44200200
_cell_length_b   5.77056060
_cell_length_c   7.90799990
_cell_angle_alpha   102.55047931
_cell_angle_beta   90.00000000
_cell_angle_gamma   90.00000000
_symmetry_Int_Tables_number   1
_chemical_formula_structural   TmGeF7
_chemical_formula_sum   'Tm2 Ge2 F14'
_cell_volume   242.40404825
_cell_formula_units_Z   2
loop_
 _symmetry_equiv_pos_site_id
 _symmetry_equiv_pos_as_xyz
  1  'x, y, z'
loop_
 _atom_site_type_symbol
 _atom_site_label
 _atom_site_symmetry_multiplicity
 _atom_site_fract_x
 _atom_site_fract_y
 _atom_site_fract_z
 _atom_site_occupancy
  Tm  Tm0  1  0.697785  0.658785  0.690565  1
  Tm  Tm1  1  0.197785  0.341215  0.309435  1
  Ge  Ge2  1  0.709884  0.812355  0.224224  1
  Ge  Ge3  1  0.209884  0.187645  0.775776  1
  F  F4  1  0.887271  0.448191  0.477852  1
  F  F5  1  0.387271  0.551809  0.522148  1
  F  F6  1  0.419801  0.939142  0.774283  1
  F  F7  1  0.919801  0.060858  0.225717  1
  F  F8  1  0.952096  0.976221  0.763212  1
  F  F9  1  0.452096  0.023779  0.236788  1
  F  F10  1  0.005449  0.442086  0.792540  1
  F  F11  1  0.505449  0.557914  0.207460  1
  F  F12  1  0.704366  0.763469  0.989174  1
  F  F13  1  0.204366  0.236531  0.010826  1
  F  F14  1  0.714907  0.871772  0.459804  1
  F  F15  1  0.214907  0.128228  0.540196  1
  F  F16  1  0.484801  0.378298  0.789503  1
  F  F17  1  0.984801  0.621702  0.210497  1
