# generated using pymatgen
data_NdFeRe2C
_symmetry_space_group_name_H-M   'P 1'
_cell_length_a   5.77865216
_cell_length_b   5.77865268
_cell_length_c   7.47097200
_cell_angle_alpha   90.00000000
_cell_angle_beta   90.00000000
_cell_angle_gamma   140.17565225
_symmetry_Int_Tables_number   1
_chemical_formula_structural   NdFeRe2C
_chemical_formula_sum   'Nd2 Fe2 Re4 C2'
_cell_volume   159.77398745
_cell_formula_units_Z   2
loop_
 _symmetry_equiv_pos_site_id
 _symmetry_equiv_pos_as_xyz
  1  'x, y, z'
loop_
 _atom_site_type_symbol
 _atom_site_label
 _atom_site_symmetry_multiplicity
 _atom_site_fract_x
 _atom_site_fract_y
 _atom_site_fract_z
 _atom_site_occupancy
  Nd  Nd0  1  0.536975  0.463025  0.250000  1
  Nd  Nd1  1  0.463025  0.536975  0.750000  1
  Fe  Fe2  1  0.264218  0.735782  0.250000  1
  Fe  Fe3  1  0.735782  0.264218  0.750000  1
  Re  Re4  1  0.824066  0.175934  0.063683  1
  Re  Re5  1  0.175934  0.824066  0.936317  1
  Re  Re6  1  0.175934  0.824066  0.563683  1
  Re  Re7  1  0.824066  0.175934  0.436317  1
  C  C8  1  0.000000  0.000000  0.000000  1
  C  C9  1  0.000000  0.000000  0.500000  1
