# generated using pymatgen
data_TbNdErSi2Ni
_symmetry_space_group_name_H-M   'P 1'
_cell_length_a   4.13561700
_cell_length_b   11.50323300
_cell_length_c   11.42752600
_cell_angle_alpha   90.00000000
_cell_angle_beta   90.00000000
_cell_angle_gamma   90.00000000
_symmetry_Int_Tables_number   1
_chemical_formula_structural   TbNdErSi2Ni
_chemical_formula_sum   'Tb4 Nd4 Er4 Si8 Ni4'
_cell_volume   543.64130529
_cell_formula_units_Z   4
loop_
 _symmetry_equiv_pos_site_id
 _symmetry_equiv_pos_as_xyz
  1  'x, y, z'
loop_
 _atom_site_type_symbol
 _atom_site_label
 _atom_site_symmetry_multiplicity
 _atom_site_fract_x
 _atom_site_fract_y
 _atom_site_fract_z
 _atom_site_occupancy
  Tb  Tb0  1  0.250000  0.804496  0.717754  1
  Tb  Tb1  1  0.250000  0.695504  0.217754  1
  Tb  Tb2  1  0.750000  0.195504  0.282246  1
  Tb  Tb3  1  0.750000  0.304496  0.782246  1
  Nd  Nd4  1  0.250000  0.126595  0.556262  1
  Nd  Nd5  1  0.250000  0.373405  0.056262  1
  Nd  Nd6  1  0.750000  0.873405  0.443738  1
  Nd  Nd7  1  0.750000  0.626595  0.943738  1
  Er  Er8  1  0.250000  0.057215  0.884449  1
  Er  Er9  1  0.250000  0.442785  0.384449  1
  Er  Er10  1  0.750000  0.942785  0.115551  1
  Er  Er11  1  0.750000  0.557215  0.615551  1
  Si  Si12  1  0.250000  0.819057  0.976319  1
  Si  Si13  1  0.250000  0.680943  0.476319  1
  Si  Si14  1  0.750000  0.180943  0.023681  1
  Si  Si15  1  0.750000  0.319057  0.523681  1
  Si  Si16  1  0.250000  0.495324  0.796836  1
  Si  Si17  1  0.250000  0.004676  0.296836  1
  Si  Si18  1  0.750000  0.504676  0.203164  1
  Si  Si19  1  0.750000  0.995324  0.703164  1
  Ni  Ni20  1  0.250000  0.371538  0.626080  1
  Ni  Ni21  1  0.250000  0.128462  0.126080  1
  Ni  Ni22  1  0.750000  0.628462  0.373920  1
  Ni  Ni23  1  0.750000  0.871538  0.873920  1
