# generated using pymatgen
data_Tm8Sc12(Si3Sb)3
_symmetry_space_group_name_H-M   'P 1'
_cell_length_a   5.94887200
_cell_length_b   8.16661739
_cell_length_c   14.33549603
_cell_angle_alpha   90.03712960
_cell_angle_beta   90.00000000
_cell_angle_gamma   90.00000000
_symmetry_Int_Tables_number   1
_chemical_formula_structural   Tm8Sc12(Si3Sb)3
_chemical_formula_sum   'Tm8 Sc12 Si9 Sb3'
_cell_volume   696.44923754
_cell_formula_units_Z   1
loop_
 _symmetry_equiv_pos_site_id
 _symmetry_equiv_pos_as_xyz
  1  'x, y, z'
loop_
 _atom_site_type_symbol
 _atom_site_label
 _atom_site_symmetry_multiplicity
 _atom_site_fract_x
 _atom_site_fract_y
 _atom_site_fract_z
 _atom_site_occupancy
  Tm  Tm0  1  0.000000  0.267151  0.501350  1
  Tm  Tm1  1  0.000000  0.766903  0.992322  1
  Tm  Tm2  1  0.500000  0.739675  0.500053  1
  Tm  Tm3  1  0.500000  0.238795  0.999407  1
  Tm  Tm4  1  0.500000  0.876700  0.121319  1
  Tm  Tm5  1  0.500000  0.378324  0.622897  1
  Tm  Tm6  1  0.500000  0.377563  0.377853  1
  Tm  Tm7  1  0.500000  0.876746  0.876248  1
  Sc  Sc8  1  0.743629  0.009494  0.333828  1
  Sc  Sc9  1  0.747802  0.502264  0.826574  1
  Sc  Sc10  1  0.744303  0.491040  0.171096  1
  Sc  Sc11  1  0.747579  0.003505  0.671690  1
  Sc  Sc12  1  0.255697  0.491040  0.171096  1
  Sc  Sc13  1  0.252421  0.003505  0.671690  1
  Sc  Sc14  1  0.256371  0.009494  0.333828  1
  Sc  Sc15  1  0.252198  0.502264  0.826574  1
  Sc  Sc16  1  0.000000  0.610032  0.377671  1
  Sc  Sc17  1  0.000000  0.116257  0.869843  1
  Sc  Sc18  1  0.000000  0.127579  0.127115  1
  Sc  Sc19  1  0.000000  0.614849  0.628280  1
  Si  Si20  1  0.000000  0.304011  0.699667  1
  Si  Si21  1  0.000000  0.303035  0.301557  1
  Si  Si22  1  0.000000  0.804038  0.797945  1
  Si  Si23  1  0.500000  0.602788  0.999399  1
  Si  Si24  1  0.500000  0.104212  0.501509  1
  Si  Si25  1  0.500000  0.699103  0.302749  1
  Si  Si26  1  0.500000  0.200582  0.801946  1
  Si  Si27  1  0.500000  0.196670  0.198374  1
  Si  Si28  1  0.500000  0.700768  0.697431  1
  Sb  Sb29  1  0.000000  0.888296  0.501225  1
  Sb  Sb30  1  0.000000  0.390729  0.997756  1
  Sb  Sb31  1  0.000000  0.802518  0.199693  1
