# generated using pymatgen
data_TbNdPaGa6(Co2Cu)3
_symmetry_space_group_name_H-M   'P 1'
_cell_length_a   4.18531900
_cell_length_b   8.64500273
_cell_length_c   8.64488200
_cell_angle_alpha   59.99518899
_cell_angle_beta   90.00000000
_cell_angle_gamma   90.00000000
_symmetry_Int_Tables_number   1
_chemical_formula_structural   TbNdPaGa6(Co2Cu)3
_chemical_formula_sum   'Tb1 Nd1 Pa1 Ga6 Co6 Cu3'
_cell_volume   270.87089631
_cell_formula_units_Z   1
loop_
 _symmetry_equiv_pos_site_id
 _symmetry_equiv_pos_as_xyz
  1  'x, y, z'
loop_
 _atom_site_type_symbol
 _atom_site_label
 _atom_site_symmetry_multiplicity
 _atom_site_fract_x
 _atom_site_fract_y
 _atom_site_fract_z
 _atom_site_occupancy
  Tb  Tb0  1  0.500000  0.666624  0.666694  1
  Nd  Nd1  1  0.500000  0.333461  0.333277  1
  Pa  Pa2  1  0.000000  0.999776  0.000008  1
  Ga  Ga3  1  0.000000  0.494887  0.506969  1
  Ga  Ga4  1  0.000000  0.507108  0.998158  1
  Ga  Ga5  1  0.000000  0.998069  0.494947  1
  Ga  Ga6  1  0.500000  0.717698  0.282982  1
  Ga  Ga7  1  0.500000  0.283099  0.999170  1
  Ga  Ga8  1  0.500000  0.999234  0.717719  1
  Co  Co9  1  0.000000  0.174143  0.170124  1
  Co  Co10  1  0.000000  0.170113  0.655779  1
  Co  Co11  1  0.000000  0.655537  0.174321  1
  Co  Co12  1  0.000000  0.828620  0.823921  1
  Co  Co13  1  0.000000  0.347612  0.828572  1
  Co  Co14  1  0.000000  0.823928  0.347408  1
  Cu  Cu15  1  0.500000  0.300550  0.700942  1
  Cu  Cu16  1  0.500000  0.700958  0.998545  1
  Cu  Cu17  1  0.500000  0.998486  0.300563  1
