# generated using pymatgen
data_Er2TmThMgRh
_symmetry_space_group_name_H-M   'P 1'
_cell_length_a   9.71957944
_cell_length_b   9.71958001
_cell_length_c   9.72165600
_cell_angle_alpha   59.99293430
_cell_angle_beta   59.99293235
_cell_angle_gamma   60.01414069
_symmetry_Int_Tables_number   1
_chemical_formula_structural   Er2TmThMgRh
_chemical_formula_sum   'Er8 Tm4 Th4 Mg4 Rh4'
_cell_volume   649.41184972
_cell_formula_units_Z   4
loop_
 _symmetry_equiv_pos_site_id
 _symmetry_equiv_pos_as_xyz
  1  'x, y, z'
loop_
 _atom_site_type_symbol
 _atom_site_label
 _atom_site_symmetry_multiplicity
 _atom_site_fract_x
 _atom_site_fract_y
 _atom_site_fract_z
 _atom_site_occupancy
  Er  Er0  1  0.186457  0.186457  0.813543  1
  Er  Er1  1  0.813543  0.813543  0.186457  1
  Er  Er2  1  0.933380  0.566620  0.566620  1
  Er  Er3  1  0.566620  0.933380  0.933380  1
  Er  Er4  1  0.566620  0.933380  0.566620  1
  Er  Er5  1  0.933380  0.566620  0.933380  1
  Er  Er6  1  0.566560  0.566560  0.933440  1
  Er  Er7  1  0.933440  0.933440  0.566560  1
  Tm  Tm8  1  0.813375  0.186625  0.186625  1
  Tm  Tm9  1  0.186625  0.813375  0.813375  1
  Tm  Tm10  1  0.186625  0.813375  0.186625  1
  Tm  Tm11  1  0.813375  0.186625  0.813375  1
  Th  Th12  1  0.349206  0.349206  0.348903  1
  Th  Th13  1  0.349206  0.349206  0.952682  1
  Th  Th14  1  0.348903  0.952682  0.349206  1
  Th  Th15  1  0.952682  0.348903  0.349206  1
  Mg  Mg16  1  0.580820  0.580820  0.580894  1
  Mg  Mg17  1  0.580820  0.580820  0.257464  1
  Mg  Mg18  1  0.580894  0.257464  0.580820  1
  Mg  Mg19  1  0.257464  0.580894  0.580820  1
  Rh  Rh20  1  0.143249  0.143249  0.143768  1
  Rh  Rh21  1  0.143249  0.143249  0.569732  1
  Rh  Rh22  1  0.143768  0.569732  0.143249  1
  Rh  Rh23  1  0.569732  0.143768  0.143249  1
