# generated using pymatgen
data_Hf2ZnRh4Au
_symmetry_space_group_name_H-M   'P 1'
_cell_length_a   5.87511500
_cell_length_b   5.87500100
_cell_length_c   7.33340800
_cell_angle_alpha   90.00000000
_cell_angle_beta   90.00000000
_cell_angle_gamma   90.00000000
_symmetry_Int_Tables_number   1
_chemical_formula_structural   Hf2ZnRh4Au
_chemical_formula_sum   'Hf4 Zn2 Rh8 Au2'
_cell_volume   253.12215822
_cell_formula_units_Z   2
loop_
 _symmetry_equiv_pos_site_id
 _symmetry_equiv_pos_as_xyz
  1  'x, y, z'
loop_
 _atom_site_type_symbol
 _atom_site_label
 _atom_site_symmetry_multiplicity
 _atom_site_fract_x
 _atom_site_fract_y
 _atom_site_fract_z
 _atom_site_occupancy
  Hf  Hf0  1  0.749942  0.250000  0.000000  1
  Hf  Hf1  1  0.250058  0.750001  0.000000  1
  Hf  Hf2  1  0.750012  0.250000  0.500000  1
  Hf  Hf3  1  0.249989  0.750001  0.500000  1
  Zn  Zn4  1  0.750024  0.750001  0.499996  1
  Zn  Zn5  1  0.249977  0.250000  0.500003  1
  Rh  Rh6  1  0.000000  0.000000  0.261401  1
  Rh  Rh7  1  0.000000  0.500001  0.261401  1
  Rh  Rh8  1  0.499999  0.000000  0.261424  1
  Rh  Rh9  1  0.499999  0.499999  0.261424  1
  Rh  Rh10  1  0.500002  0.000000  0.738575  1
  Rh  Rh11  1  0.500002  0.500001  0.738575  1
  Rh  Rh12  1  0.000000  0.000000  0.738599  1
  Rh  Rh13  1  0.000000  0.499999  0.738599  1
  Au  Au14  1  0.249910  0.250000  0.000000  1
  Au  Au15  1  0.750091  0.750001  0.000000  1
