# generated using pymatgen
data_Pr2Nd(GaCo)4
_symmetry_space_group_name_H-M   'P 1'
_cell_length_a   6.43071643
_cell_length_b   6.43071713
_cell_length_c   6.43071699
_cell_angle_alpha   109.39306398
_cell_angle_beta   109.39306641
_cell_angle_gamma   109.62763894
_symmetry_Int_Tables_number   1
_chemical_formula_structural   Pr2Nd(GaCo)4
_chemical_formula_sum   'Pr2 Nd1 Ga4 Co4'
_cell_volume   204.71698426
_cell_formula_units_Z   1
loop_
 _symmetry_equiv_pos_site_id
 _symmetry_equiv_pos_as_xyz
  1  'x, y, z'
loop_
 _atom_site_type_symbol
 _atom_site_label
 _atom_site_symmetry_multiplicity
 _atom_site_fract_x
 _atom_site_fract_y
 _atom_site_fract_z
 _atom_site_occupancy
  Pr  Pr0  1  0.499999  0.000000  0.499999  1
  Pr  Pr1  1  0.000000  0.499999  0.499999  1
  Nd  Nd2  1  0.499999  0.499999  0.000000  1
  Ga  Ga3  1  0.399275  0.000555  0.000000  1
  Ga  Ga4  1  0.000555  0.399275  0.000000  1
  Ga  Ga5  1  0.999445  0.999445  0.398720  1
  Ga  Ga6  1  0.600724  0.600724  0.601279  1
  Co  Co7  1  0.765852  0.999123  0.000000  1
  Co  Co8  1  0.999123  0.765852  0.000000  1
  Co  Co9  1  0.234147  0.234147  0.233271  1
  Co  Co10  1  0.000877  0.000877  0.766728  1
