# generated using pymatgen
data_Mn4NbRu
_symmetry_space_group_name_H-M   'P 1'
_cell_length_a   4.72500200
_cell_length_b   4.72500184
_cell_length_c   7.76290900
_cell_angle_alpha   90.00000000
_cell_angle_beta   90.00000000
_cell_angle_gamma   120.00001514
_symmetry_Int_Tables_number   1
_chemical_formula_structural   Mn4NbRu
_chemical_formula_sum   'Mn8 Nb2 Ru2'
_cell_volume   150.09251646
_cell_formula_units_Z   2
loop_
 _symmetry_equiv_pos_site_id
 _symmetry_equiv_pos_as_xyz
  1  'x, y, z'
loop_
 _atom_site_type_symbol
 _atom_site_label
 _atom_site_symmetry_multiplicity
 _atom_site_fract_x
 _atom_site_fract_y
 _atom_site_fract_z
 _atom_site_occupancy
  Mn  Mn0  1  0.654085  0.827043  0.749273  1
  Mn  Mn1  1  0.345915  0.172957  0.249273  1
  Mn  Mn2  1  0.827043  0.172957  0.249273  1
  Mn  Mn3  1  0.172957  0.345915  0.749273  1
  Mn  Mn4  1  0.172957  0.827043  0.749273  1
  Mn  Mn5  1  0.827043  0.654085  0.249273  1
  Mn  Mn6  1  0.000000  0.000000  0.497071  1
  Mn  Mn7  1  0.000000  0.000000  0.997071  1
  Nb  Nb8  1  0.333333  0.666667  0.436191  1
  Nb  Nb9  1  0.666667  0.333333  0.936191  1
  Ru  Ru10  1  0.666667  0.333333  0.568919  1
  Ru  Ru11  1  0.333333  0.666667  0.068919  1
