# generated using pymatgen
data_Sm3Er(Rh2O7)2
_symmetry_space_group_name_H-M   'P 1'
_cell_length_a   7.28183168
_cell_length_b   7.30690516
_cell_length_c   7.30690500
_cell_angle_alpha   60.00000527
_cell_angle_beta   59.88603656
_cell_angle_gamma   59.88604303
_symmetry_Int_Tables_number   1
_chemical_formula_structural   Sm3Er(Rh2O7)2
_chemical_formula_sum   'Sm3 Er1 Rh4 O14'
_cell_volume   274.43680843
_cell_formula_units_Z   1
loop_
 _symmetry_equiv_pos_site_id
 _symmetry_equiv_pos_as_xyz
  1  'x, y, z'
loop_
 _atom_site_type_symbol
 _atom_site_label
 _atom_site_symmetry_multiplicity
 _atom_site_fract_x
 _atom_site_fract_y
 _atom_site_fract_z
 _atom_site_occupancy
  Sm  Sm0  1  0.125000  0.125000  0.125000  1
  Sm  Sm1  1  0.125000  0.625000  0.125000  1
  Sm  Sm2  1  0.125000  0.125000  0.625000  1
  Er  Er3  1  0.625000  0.125000  0.125000  1
  Rh  Rh4  1  0.625000  0.625000  0.625000  1
  Rh  Rh5  1  0.625000  0.625000  0.125000  1
  Rh  Rh6  1  0.125000  0.625000  0.625000  1
  Rh  Rh7  1  0.625000  0.125000  0.625000  1
  O  O8  1  0.259654  0.246782  0.246782  1
  O  O9  1  0.290646  0.709676  0.290002  1
  O  O10  1  0.959354  0.959998  0.540324  1
  O  O11  1  0.544626  0.960279  0.534814  1
  O  O12  1  0.705374  0.715186  0.289721  1
  O  O13  1  0.959354  0.540324  0.540324  1
  O  O14  1  0.705374  0.289721  0.715186  1
  O  O15  1  0.290646  0.290002  0.709676  1
  O  O16  1  0.705374  0.289721  0.289721  1
  O  O17  1  0.290646  0.709676  0.709676  1
  O  O18  1  0.959354  0.540324  0.959998  1
  O  O19  1  0.544626  0.534814  0.960279  1
  O  O20  1  0.990346  0.003218  0.003218  1
  O  O21  1  0.544626  0.960279  0.960279  1
