# generated using pymatgen
data_Er3ZrZn2Rh3
_symmetry_space_group_name_H-M   'P 1'
_cell_length_a   7.08760500
_cell_length_b   7.18120411
_cell_length_c   4.05411500
_cell_angle_alpha   90.00000000
_cell_angle_beta   90.00000000
_cell_angle_gamma   119.56975679
_symmetry_Int_Tables_number   1
_chemical_formula_structural   Er3ZrZn2Rh3
_chemical_formula_sum   'Er3 Zr1 Zn2 Rh3'
_cell_volume   179.46924677
_cell_formula_units_Z   1
loop_
 _symmetry_equiv_pos_site_id
 _symmetry_equiv_pos_as_xyz
  1  'x, y, z'
loop_
 _atom_site_type_symbol
 _atom_site_label
 _atom_site_symmetry_multiplicity
 _atom_site_fract_x
 _atom_site_fract_y
 _atom_site_fract_z
 _atom_site_occupancy
  Er  Er0  1  0.982288  0.564776  0.500000  1
  Er  Er1  1  0.417513  0.435224  0.500000  1
  Er  Er2  1  0.615102  0.000000  0.500000  1
  Zr  Zr3  1  0.238658  0.000000  0.000000  1
  Zn  Zn4  1  0.751683  0.749183  0.000000  1
  Zn  Zn5  1  0.002500  0.250817  0.000000  1
  Rh  Rh6  1  0.655348  0.326777  0.000000  1
  Rh  Rh7  1  0.328570  0.673223  0.000000  1
  Rh  Rh8  1  0.008338  0.000000  0.500000  1
