# generated using pymatgen
data_Sc8Ti9Si8Ge8Mo3
_symmetry_space_group_name_H-M   'P 1'
_cell_length_a   6.68673714
_cell_length_b   6.82583434
_cell_length_c   13.14627600
_cell_angle_alpha   90.00000000
_cell_angle_beta   90.00000000
_cell_angle_gamma   90.10631793
_symmetry_Int_Tables_number   1
_chemical_formula_structural   Sc8Ti9Si8Ge8Mo3
_chemical_formula_sum   'Sc8 Ti9 Si8 Ge8 Mo3'
_cell_volume   600.02865760
_cell_formula_units_Z   1
loop_
 _symmetry_equiv_pos_site_id
 _symmetry_equiv_pos_as_xyz
  1  'x, y, z'
loop_
 _atom_site_type_symbol
 _atom_site_label
 _atom_site_symmetry_multiplicity
 _atom_site_fract_x
 _atom_site_fract_y
 _atom_site_fract_z
 _atom_site_occupancy
  Sc  Sc0  1  0.498532  0.322816  0.099225  1
  Sc  Sc1  1  0.997859  0.177376  0.401338  1
  Sc  Sc2  1  0.499888  0.674353  0.597510  1
  Sc  Sc3  1  0.002343  0.822225  0.902341  1
  Sc  Sc4  1  0.499888  0.674353  0.902490  1
  Sc  Sc5  1  0.002343  0.822225  0.597659  1
  Sc  Sc6  1  0.498532  0.322816  0.400775  1
  Sc  Sc7  1  0.997859  0.177376  0.098662  1
  Ti  Ti8  1  0.840519  0.331694  0.629795  1
  Ti  Ti9  1  0.334824  0.171260  0.870613  1
  Ti  Ti10  1  0.164362  0.670045  0.129384  1
  Ti  Ti11  1  0.663596  0.831588  0.370892  1
  Ti  Ti12  1  0.164362  0.670045  0.370616  1
  Ti  Ti13  1  0.663596  0.831588  0.129108  1
  Ti  Ti14  1  0.840519  0.331694  0.870205  1
  Ti  Ti15  1  0.334824  0.171260  0.629387  1
  Ti  Ti16  1  0.660530  0.008078  0.750000  1
  Si  Si17  1  0.536557  0.384914  0.750000  1
  Si  Si18  1  0.036180  0.114656  0.750000  1
  Si  Si19  1  0.464381  0.614794  0.250000  1
  Si  Si20  1  0.963899  0.884765  0.250000  1
  Si  Si21  1  0.795862  0.640076  0.750000  1
  Si  Si22  1  0.295819  0.861643  0.750000  1
  Si  Si23  1  0.203223  0.360620  0.250000  1
  Si  Si24  1  0.704085  0.138645  0.250000  1
  Ge  Ge25  1  0.676216  0.036567  0.540997  1
  Ge  Ge26  1  0.176334  0.461330  0.960289  1
  Ge  Ge27  1  0.323976  0.963145  0.040075  1
  Ge  Ge28  1  0.822383  0.538073  0.459626  1
  Ge  Ge29  1  0.323976  0.963145  0.459925  1
  Ge  Ge30  1  0.822383  0.538073  0.040374  1
  Ge  Ge31  1  0.676216  0.036567  0.959003  1
  Ge  Ge32  1  0.176334  0.461330  0.539711  1
  Mo  Mo33  1  0.160439  0.491739  0.750000  1
  Mo  Mo34  1  0.338301  0.990389  0.250000  1
  Mo  Mo35  1  0.839055  0.508736  0.250000  1
