# generated using pymatgen
data_Tm4Th(Sn3Os)6
_symmetry_space_group_name_H-M   'P 1'
_cell_length_a   9.87293567
_cell_length_b   9.87293556
_cell_length_c   9.87293600
_cell_angle_alpha   59.99999854
_cell_angle_beta   59.99999888
_cell_angle_gamma   59.99999891
_symmetry_Int_Tables_number   1
_chemical_formula_structural   Tm4Th(Sn3Os)6
_chemical_formula_sum   'Tm4 Th1 Sn18 Os6'
_cell_volume   680.49340656
_cell_formula_units_Z   1
loop_
 _symmetry_equiv_pos_site_id
 _symmetry_equiv_pos_as_xyz
  1  'x, y, z'
loop_
 _atom_site_type_symbol
 _atom_site_label
 _atom_site_symmetry_multiplicity
 _atom_site_fract_x
 _atom_site_fract_y
 _atom_site_fract_z
 _atom_site_occupancy
  Tm  Tm0  1  0.372475  0.372476  0.882572  1
  Tm  Tm1  1  0.372476  0.882571  0.372475  1
  Tm  Tm2  1  0.882571  0.372476  0.372475  1
  Tm  Tm3  1  0.372476  0.372475  0.372475  1
  Th  Th4  1  0.000000  0.000000  0.000000  1
  Sn  Sn5  1  0.591711  0.591711  0.224869  1
  Sn  Sn6  1  0.591711  0.224869  0.591711  1
  Sn  Sn7  1  0.224869  0.591711  0.591711  1
  Sn  Sn8  1  0.591711  0.591711  0.591711  1
  Sn  Sn9  1  0.750000  0.750000  0.750000  1
  Sn  Sn10  1  0.996904  0.355132  0.651061  1
  Sn  Sn11  1  0.996904  0.996904  0.651061  1
  Sn  Sn12  1  0.355132  0.996904  0.651061  1
  Sn  Sn13  1  0.996904  0.651061  0.355132  1
  Sn  Sn14  1  0.355132  0.651061  0.996904  1
  Sn  Sn15  1  0.996904  0.651061  0.996904  1
  Sn  Sn16  1  0.651061  0.996904  0.996904  1
  Sn  Sn17  1  0.651061  0.355132  0.996904  1
  Sn  Sn18  1  0.651061  0.996904  0.355132  1
  Sn  Sn19  1  0.355132  0.996904  0.996904  1
  Sn  Sn20  1  0.996904  0.996904  0.355132  1
  Sn  Sn21  1  0.996904  0.355132  0.996904  1
  Sn  Sn22  1  0.250000  0.250000  0.250000  1
  Os  Os23  1  0.253681  0.253681  0.746319  1
  Os  Os24  1  0.746319  0.253681  0.746319  1
  Os  Os25  1  0.253681  0.746319  0.746319  1
  Os  Os26  1  0.746319  0.746319  0.253681  1
  Os  Os27  1  0.253681  0.746319  0.253681  1
  Os  Os28  1  0.746319  0.253681  0.253681  1
