# generated using pymatgen
data_K3BiSbAu3
_symmetry_space_group_name_H-M   'P 1'
_cell_length_a   8.22271748
_cell_length_b   8.22271711
_cell_length_c   8.22271651
_cell_angle_alpha   45.70641809
_cell_angle_beta   45.70642021
_cell_angle_gamma   45.70641162
_symmetry_Int_Tables_number   1
_chemical_formula_structural   K3BiSbAu3
_chemical_formula_sum   'K3 Bi1 Sb1 Au3'
_cell_volume   259.64198284
_cell_formula_units_Z   1
loop_
 _symmetry_equiv_pos_site_id
 _symmetry_equiv_pos_as_xyz
  1  'x, y, z'
loop_
 _atom_site_type_symbol
 _atom_site_label
 _atom_site_symmetry_multiplicity
 _atom_site_fract_x
 _atom_site_fract_y
 _atom_site_fract_z
 _atom_site_occupancy
  K  K0  1  0.499180  0.499180  0.499180  1
  K  K1  1  0.919716  0.919716  0.919716  1
  K  K2  1  0.078776  0.078776  0.078776  1
  Bi  Bi3  1  0.239139  0.239139  0.239139  1
  Sb  Sb4  1  0.757880  0.757880  0.757880  1
  Au  Au5  1  0.002612  0.501348  0.501348  1
  Au  Au6  1  0.501348  0.002612  0.501348  1
  Au  Au7  1  0.501348  0.501348  0.002612  1
