# generated using pymatgen
data_Er18Lu2(IrPt3)3
_symmetry_space_group_name_H-M   'P 1'
_cell_length_a   10.96690304
_cell_length_b   10.96798804
_cell_length_c   6.30564500
_cell_angle_alpha   90.00000000
_cell_angle_beta   90.00000000
_cell_angle_gamma   90.00943485
_symmetry_Int_Tables_number   1
_chemical_formula_structural   Er18Lu2(IrPt3)3
_chemical_formula_sum   'Er18 Lu2 Ir3 Pt9'
_cell_volume   758.47362405
_cell_formula_units_Z   1
loop_
 _symmetry_equiv_pos_site_id
 _symmetry_equiv_pos_as_xyz
  1  'x, y, z'
loop_
 _atom_site_type_symbol
 _atom_site_label
 _atom_site_symmetry_multiplicity
 _atom_site_fract_x
 _atom_site_fract_y
 _atom_site_fract_z
 _atom_site_occupancy
  Er  Er0  1  0.292914  0.087512  0.377792  1
  Er  Er1  1  0.292366  0.912464  0.871520  1
  Er  Er2  1  0.707634  0.087536  0.871520  1
  Er  Er3  1  0.707086  0.912488  0.377792  1
  Er  Er4  1  0.587703  0.792988  0.871250  1
  Er  Er5  1  0.587590  0.206424  0.377485  1
  Er  Er6  1  0.412410  0.793576  0.377485  1
  Er  Er7  1  0.412297  0.207012  0.871250  1
  Er  Er8  1  0.205050  0.413097  0.625496  1
  Er  Er9  1  0.205003  0.587596  0.126135  1
  Er  Er10  1  0.794997  0.412404  0.126135  1
  Er  Er11  1  0.794950  0.586903  0.625496  1
  Er  Er12  1  0.912478  0.705625  0.125806  1
  Er  Er13  1  0.913218  0.294361  0.625158  1
  Er  Er14  1  0.086782  0.705639  0.625158  1
  Er  Er15  1  0.087522  0.294375  0.125806  1
  Er  Er16  1  0.500000  0.500000  0.000840  1
  Er  Er17  1  0.500000  0.500000  0.500401  1
  Lu  Lu18  1  0.000000  0.000000  0.500514  1
  Lu  Lu19  1  0.000000  0.000000  0.000826  1
  Ir  Ir20  1  0.500000  0.000000  0.618308  1
  Ir  Ir21  1  0.000000  0.500000  0.880280  1
  Ir  Ir22  1  0.000000  0.500000  0.380019  1
  Pt  Pt23  1  0.847012  0.151964  0.249874  1
  Pt  Pt24  1  0.847554  0.847574  0.750131  1
  Pt  Pt25  1  0.152446  0.152426  0.750131  1
  Pt  Pt26  1  0.152988  0.848036  0.249874  1
  Pt  Pt27  1  0.653685  0.346333  0.750144  1
  Pt  Pt28  1  0.653182  0.654199  0.249905  1
  Pt  Pt29  1  0.346818  0.345801  0.249905  1
  Pt  Pt30  1  0.346315  0.653667  0.750144  1
  Pt  Pt31  1  0.500000  0.000000  0.117417  1
