# generated using pymatgen
data_Cs4ErSbCl12
_symmetry_space_group_name_H-M   'P 1'
_cell_length_a   7.66565600
_cell_length_b   7.66565600
_cell_length_c   11.04938600
_cell_angle_alpha   90.00000000
_cell_angle_beta   90.00000000
_cell_angle_gamma   90.00000000
_symmetry_Int_Tables_number   1
_chemical_formula_structural   Cs4ErSbCl12
_chemical_formula_sum   'Cs4 Er1 Sb1 Cl12'
_cell_volume   649.28713507
_cell_formula_units_Z   1
loop_
 _symmetry_equiv_pos_site_id
 _symmetry_equiv_pos_as_xyz
  1  'x, y, z'
loop_
 _atom_site_type_symbol
 _atom_site_label
 _atom_site_symmetry_multiplicity
 _atom_site_fract_x
 _atom_site_fract_y
 _atom_site_fract_z
 _atom_site_occupancy
  Cs  Cs0  1  0.500000  0.000000  0.787338  1
  Cs  Cs1  1  0.000000  0.500000  0.212662  1
  Cs  Cs2  1  0.500000  0.000000  0.212662  1
  Cs  Cs3  1  0.000000  0.500000  0.787338  1
  Er  Er4  1  0.000000  0.000000  0.000000  1
  Sb  Sb5  1  0.500000  0.500000  0.500000  1
  Cl  Cl6  1  0.000000  0.000000  0.762670  1
  Cl  Cl7  1  0.500000  0.500000  0.280493  1
  Cl  Cl8  1  0.722641  0.722641  0.500000  1
  Cl  Cl9  1  0.242362  0.242362  0.000000  1
  Cl  Cl10  1  0.722641  0.277359  0.500000  1
  Cl  Cl11  1  0.242362  0.757638  0.000000  1
  Cl  Cl12  1  0.000000  0.000000  0.237330  1
  Cl  Cl13  1  0.500000  0.500000  0.719507  1
  Cl  Cl14  1  0.277359  0.277359  0.500000  1
  Cl  Cl15  1  0.757638  0.757638  0.000000  1
  Cl  Cl16  1  0.277359  0.722641  0.500000  1
  Cl  Cl17  1  0.757638  0.242362  0.000000  1
