# generated using pymatgen
data_Sc20Ga(Si3Se2)3
_symmetry_space_group_name_H-M   'P 1'
_cell_length_a   7.12083758
_cell_length_b   7.14637490
_cell_length_c   13.75992392
_cell_angle_alpha   89.64609671
_cell_angle_beta   89.64854127
_cell_angle_gamma   89.85826473
_symmetry_Int_Tables_number   1
_chemical_formula_structural   Sc20Ga(Si3Se2)3
_chemical_formula_sum   'Sc20 Ga1 Si9 Se6'
_cell_volume   700.18880758
_cell_formula_units_Z   1
loop_
 _symmetry_equiv_pos_site_id
 _symmetry_equiv_pos_as_xyz
  1  'x, y, z'
loop_
 _atom_site_type_symbol
 _atom_site_label
 _atom_site_symmetry_multiplicity
 _atom_site_fract_x
 _atom_site_fract_y
 _atom_site_fract_z
 _atom_site_occupancy
  Sc  Sc0  1  0.233023  0.996078  0.747358  1
  Sc  Sc1  1  0.766730  0.003519  0.248895  1
  Sc  Sc2  1  0.267259  0.500337  0.245925  1
  Sc  Sc3  1  0.733071  0.499025  0.750210  1
  Sc  Sc4  1  0.068298  0.670373  0.616442  1
  Sc  Sc5  1  0.940822  0.324356  0.386929  1
  Sc  Sc6  1  0.429304  0.166703  0.383388  1
  Sc  Sc7  1  0.941293  0.339539  0.112890  1
  Sc  Sc8  1  0.567716  0.834662  0.615754  1
  Sc  Sc9  1  0.070249  0.662935  0.887004  1
  Sc  Sc10  1  0.555700  0.821705  0.888558  1
  Sc  Sc11  1  0.431361  0.179170  0.115012  1
  Sc  Sc12  1  0.405329  0.329137  0.620078  1
  Sc  Sc13  1  0.588830  0.672034  0.381124  1
  Sc  Sc14  1  0.095691  0.836905  0.380231  1
  Sc  Sc15  1  0.596319  0.664746  0.120073  1
  Sc  Sc16  1  0.905007  0.161293  0.621130  1
  Sc  Sc17  1  0.401025  0.335187  0.882809  1
  Sc  Sc18  1  0.903196  0.165923  0.880715  1
  Sc  Sc19  1  0.100008  0.829761  0.119610  1
  Ga  Ga20  1  0.240622  0.008869  0.543501  1
  Si  Si21  1  0.107961  0.374128  0.749768  1
  Si  Si22  1  0.890789  0.623807  0.252375  1
  Si  Si23  1  0.392614  0.879852  0.248635  1
  Si  Si24  1  0.607495  0.119797  0.753199  1
  Si  Si25  1  0.362164  0.626932  0.748884  1
  Si  Si26  1  0.642248  0.372968  0.251782  1
  Si  Si27  1  0.137097  0.130246  0.248152  1
  Si  Si28  1  0.858339  0.868141  0.753353  1
  Si  Si29  1  0.265853  0.515139  0.045555  1
  Se  Se30  1  0.757486  0.994215  0.452251  1
  Se  Se31  1  0.259075  0.506328  0.451170  1
  Se  Se32  1  0.755235  0.993203  0.045995  1
  Se  Se33  1  0.744031  0.493179  0.546021  1
  Se  Se34  1  0.236350  0.009078  0.952354  1
  Se  Se35  1  0.742408  0.490732  0.952870  1
