# generated using pymatgen
data_DyTm5(ThSn2)4
_symmetry_space_group_name_H-M   'P 1'
_cell_length_a   8.09132100
_cell_length_b   8.18839137
_cell_length_c   15.43972269
_cell_angle_alpha   89.96559425
_cell_angle_beta   90.00000000
_cell_angle_gamma   90.00000000
_symmetry_Int_Tables_number   1
_chemical_formula_structural   DyTm5(ThSn2)4
_chemical_formula_sum   'Dy2 Tm10 Th8 Sn16'
_cell_volume   1022.95714576
_cell_formula_units_Z   2
loop_
 _symmetry_equiv_pos_site_id
 _symmetry_equiv_pos_as_xyz
  1  'x, y, z'
loop_
 _atom_site_type_symbol
 _atom_site_label
 _atom_site_symmetry_multiplicity
 _atom_site_fract_x
 _atom_site_fract_y
 _atom_site_fract_z
 _atom_site_occupancy
  Dy  Dy0  1  0.357311  0.837043  0.876789  1
  Dy  Dy1  1  0.857311  0.662957  0.623211  1
  Tm  Tm2  1  0.642972  0.162153  0.374272  1
  Tm  Tm3  1  0.142972  0.337847  0.125728  1
  Tm  Tm4  1  0.643793  0.162084  0.124837  1
  Tm  Tm5  1  0.143793  0.337916  0.375163  1
  Tm  Tm6  1  0.355392  0.837709  0.624621  1
  Tm  Tm7  1  0.855392  0.662291  0.875379  1
  Tm  Tm8  1  0.185775  0.498533  0.750000  1
  Tm  Tm9  1  0.685775  0.001467  0.750000  1
  Tm  Tm10  1  0.813489  0.501296  0.249509  1
  Tm  Tm11  1  0.313489  0.998704  0.250491  1
  Th  Th12  1  0.515392  0.321632  0.905290  1
  Th  Th13  1  0.015392  0.178368  0.594710  1
  Th  Th14  1  0.484546  0.677609  0.404405  1
  Th  Th15  1  0.984546  0.822391  0.095595  1
  Th  Th16  1  0.483723  0.676773  0.096113  1
  Th  Th17  1  0.983723  0.823227  0.403887  1
  Th  Th18  1  0.516966  0.322148  0.594595  1
  Th  Th19  1  0.016966  0.177852  0.905405  1
  Sn  Sn20  1  0.303186  0.041979  0.044259  1
  Sn  Sn21  1  0.803186  0.458021  0.455741  1
  Sn  Sn22  1  0.695310  0.960811  0.541628  1
  Sn  Sn23  1  0.195310  0.539189  0.958372  1
  Sn  Sn24  1  0.699695  0.959522  0.958214  1
  Sn  Sn25  1  0.199695  0.540478  0.541786  1
  Sn  Sn26  1  0.303070  0.041096  0.457402  1
  Sn  Sn27  1  0.803070  0.458904  0.042598  1
  Sn  Sn28  1  0.551628  0.622499  0.749562  1
  Sn  Sn29  1  0.051628  0.877501  0.750438  1
  Sn  Sn30  1  0.447784  0.376302  0.249864  1
  Sn  Sn31  1  0.947784  0.123698  0.250136  1
  Sn  Sn32  1  0.322677  0.144797  0.749536  1
  Sn  Sn33  1  0.822677  0.355203  0.750464  1
  Sn  Sn34  1  0.677291  0.855680  0.249871  1
  Sn  Sn35  1  0.177291  0.644320  0.250129  1
