# generated using pymatgen
data_LaNdZn5Sn
_symmetry_space_group_name_H-M   'P 1'
_cell_length_a   8.62410747
_cell_length_b   8.62410782
_cell_length_c   9.13258600
_cell_angle_alpha   90.00000000
_cell_angle_beta   90.00000000
_cell_angle_gamma   149.54510784
_symmetry_Int_Tables_number   1
_chemical_formula_structural   LaNdZn5Sn
_chemical_formula_sum   'La2 Nd2 Zn10 Sn2'
_cell_volume   344.27858445
_cell_formula_units_Z   2
loop_
 _symmetry_equiv_pos_site_id
 _symmetry_equiv_pos_as_xyz
  1  'x, y, z'
loop_
 _atom_site_type_symbol
 _atom_site_label
 _atom_site_symmetry_multiplicity
 _atom_site_fract_x
 _atom_site_fract_y
 _atom_site_fract_z
 _atom_site_occupancy
  La  La0  1  0.000000  0.000000  0.500000  1
  La  La1  1  0.000000  0.000000  0.000000  1
  Nd  Nd2  1  0.205412  0.794588  0.250000  1
  Nd  Nd3  1  0.794588  0.205412  0.750000  1
  Zn  Zn4  1  0.813320  0.186680  0.391021  1
  Zn  Zn5  1  0.186680  0.813320  0.608979  1
  Zn  Zn6  1  0.813320  0.186680  0.108979  1
  Zn  Zn7  1  0.186680  0.813320  0.891021  1
  Zn  Zn8  1  0.656714  0.343286  0.483441  1
  Zn  Zn9  1  0.343286  0.656714  0.516559  1
  Zn  Zn10  1  0.656714  0.343286  0.016559  1
  Zn  Zn11  1  0.343286  0.656714  0.983441  1
  Zn  Zn12  1  0.394622  0.605378  0.250000  1
  Zn  Zn13  1  0.605378  0.394622  0.750000  1
  Sn  Sn14  1  0.556576  0.443424  0.250000  1
  Sn  Sn15  1  0.443424  0.556576  0.750000  1
