# generated using pymatgen
data_Zr10ZnGaSb4
_symmetry_space_group_name_H-M   'P 1'
_cell_length_a   5.52769503
_cell_length_b   8.35581988
_cell_length_c   8.35581984
_cell_angle_alpha   83.71880104
_cell_angle_beta   70.68453853
_cell_angle_gamma   70.68453427
_symmetry_Int_Tables_number   1
_chemical_formula_structural   Zr10ZnGaSb4
_chemical_formula_sum   'Zr10 Zn1 Ga1 Sb4'
_cell_volume   343.71691345
_cell_formula_units_Z   1
loop_
 _symmetry_equiv_pos_site_id
 _symmetry_equiv_pos_as_xyz
  1  'x, y, z'
loop_
 _atom_site_type_symbol
 _atom_site_label
 _atom_site_symmetry_multiplicity
 _atom_site_fract_x
 _atom_site_fract_y
 _atom_site_fract_z
 _atom_site_occupancy
  Zr  Zr0  1  0.250000  0.500000  0.500000  1
  Zr  Zr1  1  0.750000  0.500000  0.500000  1
  Zr  Zr2  1  0.075491  0.137990  0.710366  1
  Zr  Zr3  1  0.923848  0.862010  0.289634  1
  Zr  Zr4  1  0.785859  0.289634  0.137990  1
  Zr  Zr5  1  0.424509  0.289634  0.862010  1
  Zr  Zr6  1  0.213482  0.710366  0.862010  1
  Zr  Zr7  1  0.576152  0.710366  0.137990  1
  Zr  Zr8  1  0.714141  0.862010  0.710366  1
  Zr  Zr9  1  0.286518  0.137990  0.289634  1
  Zn  Zn10  1  0.750000  0.000000  0.000000  1
  Ga  Ga11  1  0.250000  0.000000  0.000000  1
  Sb  Sb12  1  0.164052  0.500000  0.171896  1
  Sb  Sb13  1  0.835948  0.500000  0.828104  1
  Sb  Sb14  1  0.335948  0.828104  0.500000  1
  Sb  Sb15  1  0.664052  0.171896  0.500000  1
