# generated using pymatgen
data_Ho3Er2(In2Rh)2
_symmetry_space_group_name_H-M   'P 1'
_cell_length_a   3.60947700
_cell_length_b   7.99381000
_cell_length_c   18.23052600
_cell_angle_alpha   90.00000000
_cell_angle_beta   90.00000000
_cell_angle_gamma   90.00000000
_symmetry_Int_Tables_number   1
_chemical_formula_structural   Ho3Er2(In2Rh)2
_chemical_formula_sum   'Ho6 Er4 In8 Rh4'
_cell_volume   526.01399587
_cell_formula_units_Z   2
loop_
 _symmetry_equiv_pos_site_id
 _symmetry_equiv_pos_as_xyz
  1  'x, y, z'
loop_
 _atom_site_type_symbol
 _atom_site_label
 _atom_site_symmetry_multiplicity
 _atom_site_fract_x
 _atom_site_fract_y
 _atom_site_fract_z
 _atom_site_occupancy
  Ho  Ho0  1  0.000000  0.244507  0.220824  1
  Ho  Ho1  1  0.000000  0.755493  0.779176  1
  Ho  Ho2  1  0.000000  0.255493  0.720824  1
  Ho  Ho3  1  0.000000  0.744507  0.279176  1
  Ho  Ho4  1  0.000000  0.000000  0.000000  1
  Ho  Ho5  1  0.000000  0.500000  0.500000  1
  Er  Er6  1  0.000000  0.116073  0.411589  1
  Er  Er7  1  0.000000  0.883927  0.588411  1
  Er  Er8  1  0.000000  0.383927  0.911589  1
  Er  Er9  1  0.000000  0.616073  0.088411  1
  In  In10  1  0.500000  0.425104  0.349998  1
  In  In11  1  0.500000  0.574896  0.650002  1
  In  In12  1  0.500000  0.074896  0.849998  1
  In  In13  1  0.500000  0.925104  0.150002  1
  In  In14  1  0.500000  0.293857  0.067362  1
  In  In15  1  0.500000  0.706143  0.932638  1
  In  In16  1  0.500000  0.206143  0.567362  1
  In  In17  1  0.500000  0.793857  0.432638  1
  Rh  Rh18  1  0.500000  0.023827  0.304802  1
  Rh  Rh19  1  0.500000  0.976173  0.695198  1
  Rh  Rh20  1  0.500000  0.476173  0.804802  1
  Rh  Rh21  1  0.500000  0.523827  0.195198  1
