# generated using pymatgen
data_Ho6IrO12
_symmetry_space_group_name_H-M   'P 1'
_cell_length_a   6.44905445
_cell_length_b   6.44905299
_cell_length_c   6.44905300
_cell_angle_alpha   98.70470448
_cell_angle_beta   98.70471053
_cell_angle_gamma   98.70470891
_symmetry_Int_Tables_number   1
_chemical_formula_structural   Ho6IrO12
_chemical_formula_sum   'Ho6 Ir1 O12'
_cell_volume   257.87372110
_cell_formula_units_Z   1
loop_
 _symmetry_equiv_pos_site_id
 _symmetry_equiv_pos_as_xyz
  1  'x, y, z'
loop_
 _atom_site_type_symbol
 _atom_site_label
 _atom_site_symmetry_multiplicity
 _atom_site_fract_x
 _atom_site_fract_y
 _atom_site_fract_z
 _atom_site_occupancy
  Ho  Ho0  1  0.144096  0.314878  0.611258  1
  Ho  Ho1  1  0.388742  0.855904  0.685122  1
  Ho  Ho2  1  0.685122  0.388742  0.855904  1
  Ho  Ho3  1  0.314878  0.611258  0.144096  1
  Ho  Ho4  1  0.611258  0.144096  0.314878  1
  Ho  Ho5  1  0.855904  0.685122  0.388742  1
  Ir  Ir6  1  0.000000  0.000000  0.000000  1
  O  O7  1  0.072381  0.299382  0.964430  1
  O  O8  1  0.035570  0.927619  0.700618  1
  O  O9  1  0.409242  0.567131  0.822673  1
  O  O10  1  0.177327  0.590758  0.432869  1
  O  O11  1  0.700618  0.035570  0.927619  1
  O  O12  1  0.432869  0.177327  0.590758  1
  O  O13  1  0.567131  0.822673  0.409242  1
  O  O14  1  0.299382  0.964430  0.072381  1
  O  O15  1  0.822673  0.409242  0.567131  1
  O  O16  1  0.590758  0.432869  0.177327  1
  O  O17  1  0.964430  0.072381  0.299382  1
  O  O18  1  0.927619  0.700618  0.035570  1
