# generated using pymatgen
data_Zr4TlIn(SbPt2)2
_symmetry_space_group_name_H-M   'P 1'
_cell_length_a   6.42733834
_cell_length_b   6.42726644
_cell_length_c   7.88850271
_cell_angle_alpha   65.96782367
_cell_angle_beta   65.96809037
_cell_angle_gamma   90.01387430
_symmetry_Int_Tables_number   1
_chemical_formula_structural   Zr4TlIn(SbPt2)2
_chemical_formula_sum   'Zr4 Tl1 In1 Sb2 Pt4'
_cell_volume   266.38595435
_cell_formula_units_Z   1
loop_
 _symmetry_equiv_pos_site_id
 _symmetry_equiv_pos_as_xyz
  1  'x, y, z'
loop_
 _atom_site_type_symbol
 _atom_site_label
 _atom_site_symmetry_multiplicity
 _atom_site_fract_x
 _atom_site_fract_y
 _atom_site_fract_z
 _atom_site_occupancy
  Zr  Zr0  1  0.495317  0.995322  0.009341  1
  Zr  Zr1  1  0.755005  0.755003  0.489991  1
  Zr  Zr2  1  0.245009  0.245021  0.509957  1
  Zr  Zr3  1  0.004678  0.504685  0.990630  1
  Tl  Tl4  1  0.999989  0.999996  0.000014  1
  In  In5  1  0.249948  0.749946  0.500120  1
  Sb  Sb6  1  0.500008  0.500003  0.999997  1
  Sb  Sb7  1  0.749996  0.250005  0.499999  1
  Pt  Pt8  1  0.619613  0.132345  0.253065  1
  Pt  Pt9  1  0.127321  0.614576  0.253061  1
  Pt  Pt10  1  0.867688  0.872696  0.746894  1
  Pt  Pt11  1  0.385432  0.380396  0.746928  1
