# generated using pymatgen
data_PrDyMnIr3
_symmetry_space_group_name_H-M   'P 1'
_cell_length_a   5.25075402
_cell_length_b   5.25075432
_cell_length_c   5.25075300
_cell_angle_alpha   63.63047278
_cell_angle_beta   63.63046688
_cell_angle_gamma   63.63047980
_symmetry_Int_Tables_number   1
_chemical_formula_structural   PrDyMnIr3
_chemical_formula_sum   'Pr1 Dy1 Mn1 Ir3'
_cell_volume   110.57406029
_cell_formula_units_Z   1
loop_
 _symmetry_equiv_pos_site_id
 _symmetry_equiv_pos_as_xyz
  1  'x, y, z'
loop_
 _atom_site_type_symbol
 _atom_site_label
 _atom_site_symmetry_multiplicity
 _atom_site_fract_x
 _atom_site_fract_y
 _atom_site_fract_z
 _atom_site_occupancy
  Pr  Pr0  1  0.999873  0.999873  0.999873  1
  Dy  Dy1  1  0.251464  0.251464  0.251464  1
  Mn  Mn2  1  0.624680  0.624680  0.624680  1
  Ir  Ir3  1  0.624098  0.624098  0.125785  1
  Ir  Ir4  1  0.624098  0.125785  0.624098  1
  Ir  Ir5  1  0.125785  0.624098  0.624098  1
