# generated using pymatgen
data_Ho8MgSi4B16Mo
_symmetry_space_group_name_H-M   'P 1'
_cell_length_a   7.13436600
_cell_length_b   7.13436600
_cell_length_c   7.69970900
_cell_angle_alpha   90.00000000
_cell_angle_beta   90.00000000
_cell_angle_gamma   90.00000000
_symmetry_Int_Tables_number   1
_chemical_formula_structural   Ho8MgSi4B16Mo
_chemical_formula_sum   'Ho8 Mg1 Si4 B16 Mo1'
_cell_volume   391.90886065
_cell_formula_units_Z   1
loop_
 _symmetry_equiv_pos_site_id
 _symmetry_equiv_pos_as_xyz
  1  'x, y, z'
loop_
 _atom_site_type_symbol
 _atom_site_label
 _atom_site_symmetry_multiplicity
 _atom_site_fract_x
 _atom_site_fract_y
 _atom_site_fract_z
 _atom_site_occupancy
  Ho  Ho0  1  0.681642  0.181654  0.235133  1
  Ho  Ho1  1  0.318358  0.818346  0.764867  1
  Ho  Ho2  1  0.318358  0.818346  0.235133  1
  Ho  Ho3  1  0.818346  0.681642  0.235133  1
  Ho  Ho4  1  0.818346  0.681642  0.764867  1
  Ho  Ho5  1  0.681642  0.181654  0.764867  1
  Ho  Ho6  1  0.181654  0.318358  0.764867  1
  Ho  Ho7  1  0.181654  0.318358  0.235133  1
  Mg  Mg8  1  0.500000  0.500000  0.500000  1
  Si  Si9  1  0.106847  0.631110  0.500000  1
  Si  Si10  1  0.893153  0.368890  0.500000  1
  Si  Si11  1  0.368890  0.106847  0.500000  1
  Si  Si12  1  0.631110  0.893153  0.500000  1
  B  B13  1  0.172116  0.040014  0.000000  1
  B  B14  1  0.827884  0.959986  0.000000  1
  B  B15  1  0.959986  0.172116  0.000000  1
  B  B16  1  0.326724  0.539330  0.000000  1
  B  B17  1  0.040014  0.827884  0.000000  1
  B  B18  1  0.673276  0.460670  0.000000  1
  B  B19  1  0.539330  0.673276  0.000000  1
  B  B20  1  0.460670  0.326724  0.000000  1
  B  B21  1  0.089702  0.589765  0.000000  1
  B  B22  1  0.910298  0.410235  0.000000  1
  B  B23  1  0.410235  0.089702  0.000000  1
  B  B24  1  0.589765  0.910298  0.000000  1
  B  B25  1  0.000000  0.000000  0.174256  1
  B  B26  1  0.000000  0.000000  0.825744  1
  B  B27  1  0.500000  0.500000  0.833880  1
  B  B28  1  0.500000  0.500000  0.166120  1
  Mo  Mo29  1  0.000000  0.000000  0.500000  1
