# generated using pymatgen
data_Tb6Ho10Cd4IrRu3
_symmetry_space_group_name_H-M   'P 1'
_cell_length_a   9.59268959
_cell_length_b   9.63310554
_cell_length_c   9.63310500
_cell_angle_alpha   59.99999843
_cell_angle_beta   59.86052862
_cell_angle_gamma   59.86052479
_symmetry_Int_Tables_number   1
_chemical_formula_structural   Tb6Ho10Cd4IrRu3
_chemical_formula_sum   'Tb6 Ho10 Cd4 Ir1 Ru3'
_cell_volume   628.11508552
_cell_formula_units_Z   1
loop_
 _symmetry_equiv_pos_site_id
 _symmetry_equiv_pos_as_xyz
  1  'x, y, z'
loop_
 _atom_site_type_symbol
 _atom_site_label
 _atom_site_symmetry_multiplicity
 _atom_site_fract_x
 _atom_site_fract_y
 _atom_site_fract_z
 _atom_site_occupancy
  Tb  Tb0  1  0.187699  0.811563  0.811563  1
  Tb  Tb1  1  0.810551  0.189061  0.189061  1
  Tb  Tb2  1  0.810551  0.189061  0.811328  1
  Tb  Tb3  1  0.187699  0.811563  0.189175  1
  Tb  Tb4  1  0.810551  0.811328  0.189061  1
  Tb  Tb5  1  0.187699  0.189175  0.811563  1
  Ho  Ho6  1  0.596040  0.597806  0.597806  1
  Ho  Ho7  1  0.596040  0.597806  0.208348  1
  Ho  Ho8  1  0.596040  0.208348  0.597806  1
  Ho  Ho9  1  0.213904  0.595366  0.595366  1
  Ho  Ho10  1  0.061628  0.438819  0.438819  1
  Ho  Ho11  1  0.438126  0.061453  0.061453  1
  Ho  Ho12  1  0.438126  0.061453  0.438969  1
  Ho  Ho13  1  0.061628  0.438819  0.060734  1
  Ho  Ho14  1  0.438126  0.438969  0.061453  1
  Ho  Ho15  1  0.061628  0.060734  0.438819  1
  Cd  Cd16  1  0.830337  0.829561  0.829561  1
  Cd  Cd17  1  0.830337  0.829561  0.510543  1
  Cd  Cd18  1  0.830337  0.510543  0.829561  1
  Cd  Cd19  1  0.508673  0.830442  0.830442  1
  Ir  Ir20  1  0.827010  0.390997  0.390997  1
  Ru  Ru21  1  0.392425  0.388409  0.388409  1
  Ru  Ru22  1  0.392425  0.388409  0.830758  1
  Ru  Ru23  1  0.392425  0.830758  0.388409  1
