# generated using pymatgen
data_Li6Ce2YIn3
_symmetry_space_group_name_H-M   'P 1'
_cell_length_a   4.94810000
_cell_length_b   6.99397100
_cell_length_c   14.83252400
_cell_angle_alpha   90.00000000
_cell_angle_beta   90.00000000
_cell_angle_gamma   90.00000000
_symmetry_Int_Tables_number   1
_chemical_formula_structural   Li6Ce2YIn3
_chemical_formula_sum   'Li12 Ce4 Y2 In6'
_cell_volume   513.30719877
_cell_formula_units_Z   2
loop_
 _symmetry_equiv_pos_site_id
 _symmetry_equiv_pos_as_xyz
  1  'x, y, z'
loop_
 _atom_site_type_symbol
 _atom_site_label
 _atom_site_symmetry_multiplicity
 _atom_site_fract_x
 _atom_site_fract_y
 _atom_site_fract_z
 _atom_site_occupancy
  Li  Li0  1  0.499973  0.250839  0.999338  1
  Li  Li1  1  0.499973  0.749161  0.999338  1
  Li  Li2  1  0.000536  0.252455  0.163278  1
  Li  Li3  1  0.000536  0.747544  0.163278  1
  Li  Li4  1  0.500443  0.255351  0.331546  1
  Li  Li5  1  0.500443  0.744648  0.331546  1
  Li  Li6  1  0.999908  0.250823  0.502380  1
  Li  Li7  1  0.999908  0.749176  0.502380  1
  Li  Li8  1  0.499480  0.249859  0.669083  1
  Li  Li9  1  0.499480  0.750140  0.669083  1
  Li  Li10  1  0.999385  0.249618  0.834009  1
  Li  Li11  1  0.999385  0.750381  0.834009  1
  Ce  Ce12  1  0.000306  0.000000  0.000155  1
  Ce  Ce13  1  0.500753  0.500000  0.158016  1
  Ce  Ce14  1  0.000785  0.000000  0.326327  1
  Ce  Ce15  1  0.500304  0.500000  0.500760  1
  Y  Y16  1  0.999315  0.000000  0.673777  1
  Y  Y17  1  0.499506  0.500000  0.840732  1
  In  In18  1  0.000242  0.500000  0.001736  1
  In  In19  1  0.499916  0.000000  0.152328  1
  In  In20  1  0.000928  0.500000  0.322542  1
  In  In21  1  0.499933  0.000000  0.507818  1
  In  In22  1  0.999064  0.500000  0.675838  1
  In  In23  1  0.499499  0.000000  0.840700  1
