# generated using pymatgen
data_Sr10AlSi9O
_symmetry_space_group_name_H-M   'P 1'
_cell_length_a   11.37387403
_cell_length_b   11.37605883
_cell_length_c   11.37605837
_cell_angle_alpha   155.31151606
_cell_angle_beta   110.30943382
_cell_angle_gamma   75.18702425
_symmetry_Int_Tables_number   1
_chemical_formula_structural   Sr10AlSi9O
_chemical_formula_sum   'Sr10 Al1 Si9 O1'
_cell_volume   569.85227364
_cell_formula_units_Z   1
loop_
 _symmetry_equiv_pos_site_id
 _symmetry_equiv_pos_as_xyz
  1  'x, y, z'
loop_
 _atom_site_type_symbol
 _atom_site_label
 _atom_site_symmetry_multiplicity
 _atom_site_fract_x
 _atom_site_fract_y
 _atom_site_fract_z
 _atom_site_occupancy
  Sr  Sr0  1  0.846366  0.846066  0.000300  1
  Sr  Sr1  1  0.192276  0.998651  0.193624  1
  Sr  Sr2  1  0.475077  0.811134  0.663942  1
  Sr  Sr3  1  0.853403  0.188821  0.664583  1
  Sr  Sr4  1  0.802299  0.000069  0.802230  1
  Sr  Sr5  1  0.000354  0.500745  0.499609  1
  Sr  Sr6  1  0.155005  0.154319  0.000686  1
  Sr  Sr7  1  0.526540  0.191870  0.334671  1
  Sr  Sr8  1  0.502553  0.997947  0.504606  1
  Sr  Sr9  1  0.145807  0.810308  0.335499  1
  Al  Al10  1  0.411827  0.567825  0.844002  1
  Si  Si11  1  0.276356  0.430906  0.845450  1
  Si  Si12  1  0.588269  0.433057  0.155212  1
  Si  Si13  1  0.724837  0.568381  0.156455  1
  Si  Si14  1  0.685819  0.369434  0.316384  1
  Si  Si15  1  0.645771  0.642014  0.003758  1
  Si  Si16  1  0.310885  0.633091  0.677794  1
  Si  Si17  1  0.358395  0.358075  0.000320  1
  Si  Si18  1  0.050851  0.367582  0.683269  1
  Si  Si19  1  0.948205  0.630541  0.317664  1
  O  O20  1  0.999105  0.999163  0.999942  1
