# generated using pymatgen
data_La2Y4IrI10
_symmetry_space_group_name_H-M   'P 1'
_cell_length_a   7.87280630
_cell_length_b   9.92936067
_cell_length_c   9.90984965
_cell_angle_alpha   106.76148350
_cell_angle_beta   95.81125983
_cell_angle_gamma   105.46002541
_symmetry_Int_Tables_number   1
_chemical_formula_structural   La2Y4IrI10
_chemical_formula_sum   'La2 Y4 Ir1 I10'
_cell_volume   701.47640615
_cell_formula_units_Z   1
loop_
 _symmetry_equiv_pos_site_id
 _symmetry_equiv_pos_as_xyz
  1  'x, y, z'
loop_
 _atom_site_type_symbol
 _atom_site_label
 _atom_site_symmetry_multiplicity
 _atom_site_fract_x
 _atom_site_fract_y
 _atom_site_fract_z
 _atom_site_occupancy
  La  La0  1  0.117617  0.044221  0.763297  1
  La  La1  1  0.882383  0.955779  0.236703  1
  Y  Y2  1  0.971187  0.287688  0.087379  1
  Y  Y3  1  0.028813  0.712312  0.912621  1
  Y  Y4  1  0.349905  0.126976  0.164937  1
  Y  Y5  1  0.650095  0.873024  0.835063  1
  Ir  Ir6  1  0.000000  0.000000  0.000000  1
  I  I7  1  0.347431  0.446892  0.269706  1
  I  I8  1  0.652569  0.553108  0.730294  1
  I  I9  1  0.270589  0.090233  0.457005  1
  I  I10  1  0.729411  0.909767  0.542995  1
  I  I11  1  0.082303  0.380401  0.825716  1
  I  I12  1  0.917697  0.619599  0.174284  1
  I  I13  1  0.444835  0.817960  0.087119  1
  I  I14  1  0.555165  0.182040  0.912881  1
  I  I15  1  0.772841  0.262851  0.341492  1
  I  I16  1  0.227159  0.737149  0.658508  1
