# generated using pymatgen
data_PrSm3Ga18(PdRu)3
_symmetry_space_group_name_H-M   'P 1'
_cell_length_a   7.65739498
_cell_length_b   7.66170036
_cell_length_c   9.68290153
_cell_angle_alpha   89.98289907
_cell_angle_beta   89.91911836
_cell_angle_gamma   119.70500927
_symmetry_Int_Tables_number   1
_chemical_formula_structural   PrSm3Ga18(PdRu)3
_chemical_formula_sum   'Pr1 Sm3 Ga18 Pd3 Ru3'
_cell_volume   493.42929573
_cell_formula_units_Z   1
loop_
 _symmetry_equiv_pos_site_id
 _symmetry_equiv_pos_as_xyz
  1  'x, y, z'
loop_
 _atom_site_type_symbol
 _atom_site_label
 _atom_site_symmetry_multiplicity
 _atom_site_fract_x
 _atom_site_fract_y
 _atom_site_fract_z
 _atom_site_occupancy
  Pr  Pr0  1  0.995000  0.669169  0.250754  1
  Sm  Sm1  1  0.002014  0.328729  0.748574  1
  Sm  Sm2  1  0.671245  0.997922  0.251368  1
  Sm  Sm3  1  0.330766  0.004454  0.749090  1
  Ga  Ga4  1  0.133222  0.131565  0.250088  1
  Ga  Ga5  1  0.869820  0.867213  0.749894  1
  Ga  Ga6  1  0.007883  0.338132  0.078993  1
  Ga  Ga7  1  0.002287  0.664734  0.919344  1
  Ga  Ga8  1  0.998782  0.660678  0.578311  1
  Ga  Ga9  1  0.340746  0.002027  0.423700  1
  Ga  Ga10  1  0.002972  0.338516  0.422393  1
  Ga  Ga11  1  0.659970  0.997402  0.578277  1
  Ga  Ga12  1  0.660717  0.992311  0.920246  1
  Ga  Ga13  1  0.336626  0.998916  0.078730  1
  Ga  Ga14  1  0.341085  0.340854  0.561386  1
  Ga  Ga15  1  0.658021  0.658860  0.439792  1
  Ga  Ga16  1  0.657744  0.664488  0.064185  1
  Ga  Ga17  1  0.335425  0.341312  0.934744  1
  Ga  Ga18  1  0.337708  0.550512  0.250842  1
  Ga  Ga19  1  0.665295  0.455449  0.746014  1
  Ga  Ga20  1  0.543209  0.333692  0.253999  1
  Ga  Ga21  1  0.449244  0.663160  0.749207  1
  Pd  Pd22  1  0.671243  0.328429  0.999621  1
  Pd  Pd23  1  0.000791  0.999621  0.999655  1
  Pd  Pd24  1  0.999772  0.000614  0.500341  1
  Ru  Ru25  1  0.328242  0.671970  0.999588  1
  Ru  Ru26  1  0.327745  0.672194  0.500499  1
  Ru  Ru27  1  0.672428  0.327075  0.500367  1
