# generated using pymatgen
data_Y12ZnCo3NiBi
_symmetry_space_group_name_H-M   'P 1'
_cell_length_a   8.41395403
_cell_length_b   8.41395474
_cell_length_c   8.41395429
_cell_angle_alpha   109.03848749
_cell_angle_beta   111.78286049
_cell_angle_gamma   107.62023686
_symmetry_Int_Tables_number   1
_chemical_formula_structural   Y12ZnCo3NiBi
_chemical_formula_sum   'Y12 Zn1 Co3 Ni1 Bi1'
_cell_volume   457.91191160
_cell_formula_units_Z   1
loop_
 _symmetry_equiv_pos_site_id
 _symmetry_equiv_pos_as_xyz
  1  'x, y, z'
loop_
 _atom_site_type_symbol
 _atom_site_label
 _atom_site_symmetry_multiplicity
 _atom_site_fract_x
 _atom_site_fract_y
 _atom_site_fract_z
 _atom_site_occupancy
  Y  Y0  1  0.285211  0.177646  0.462857  1
  Y  Y1  1  0.717835  0.819424  0.537260  1
  Y  Y2  1  0.282165  0.819424  0.101591  1
  Y  Y3  1  0.714789  0.177646  0.892434  1
  Y  Y4  1  0.631282  0.321928  0.313841  1
  Y  Y5  1  0.368718  0.682559  0.690646  1
  Y  Y6  1  0.008087  0.321928  0.690646  1
  Y  Y7  1  0.991913  0.682559  0.313841  1
  Y  Y8  1  0.224939  0.428115  0.203176  1
  Y  Y9  1  0.776760  0.574304  0.797543  1
  Y  Y10  1  0.223240  0.020784  0.797543  1
  Y  Y11  1  0.775061  0.978236  0.203176  1
  Zn  Zn12  1  0.000000  0.000118  0.000118  1
  Co  Co13  1  0.000000  0.642897  0.642897  1
  Co  Co14  1  0.387466  0.885304  0.497838  1
  Co  Co15  1  0.612534  0.110371  0.497838  1
  Ni  Ni16  1  0.000000  0.357724  0.357724  1
  Bi  Bi17  1  0.500000  0.499032  0.999032  1
