# generated using pymatgen
data_Tb2Mn2Fe9NiP7
_symmetry_space_group_name_H-M   'P 1'
_cell_length_a   9.04708052
_cell_length_b   9.03641320
_cell_length_c   3.63391100
_cell_angle_alpha   90.00000000
_cell_angle_beta   90.00000000
_cell_angle_gamma   119.97588536
_symmetry_Int_Tables_number   1
_chemical_formula_structural   Tb2Mn2Fe9NiP7
_chemical_formula_sum   'Tb2 Mn2 Fe9 Ni1 P7'
_cell_volume   257.34452614
_cell_formula_units_Z   1
loop_
 _symmetry_equiv_pos_site_id
 _symmetry_equiv_pos_as_xyz
  1  'x, y, z'
loop_
 _atom_site_type_symbol
 _atom_site_label
 _atom_site_symmetry_multiplicity
 _atom_site_fract_x
 _atom_site_fract_y
 _atom_site_fract_z
 _atom_site_occupancy
  Tb  Tb0  1  0.668471  0.335325  0.000000  1
  Tb  Tb1  1  0.333344  0.666997  0.500000  1
  Mn  Mn2  1  0.781788  0.896868  0.500000  1
  Mn  Mn3  1  0.114974  0.215095  0.500000  1
  Fe  Fe4  1  0.573981  0.943400  0.000000  1
  Fe  Fe5  1  0.367881  0.425752  0.000000  1
  Fe  Fe6  1  0.273928  0.120788  0.000000  1
  Fe  Fe7  1  0.844339  0.725720  0.000000  1
  Fe  Fe8  1  0.880289  0.152896  0.000000  1
  Fe  Fe9  1  0.433854  0.050519  0.500000  1
  Fe  Fe10  1  0.612584  0.565402  0.500000  1
  Fe  Fe11  1  0.951212  0.387342  0.500000  1
  Fe  Fe12  1  0.099752  0.876549  0.500000  1
  Ni  Ni13  1  0.061359  0.633002  0.000000  1
  P  P14  1  0.304953  0.895815  0.000000  1
  P  P15  1  0.587465  0.697483  0.000000  1
  P  P16  1  0.110317  0.407604  0.000000  1
  P  P17  1  0.406388  0.290393  0.500000  1
  P  P18  1  0.881835  0.600036  0.500000  1
  P  P19  1  0.710099  0.116517  0.500000  1
  P  P20  1  0.001188  0.996498  0.000000  1
