# generated using pymatgen
data_LaFe3Sb12Rh
_symmetry_space_group_name_H-M   'P 1'
_cell_length_a   7.99351376
_cell_length_b   7.99351438
_cell_length_c   7.99351471
_cell_angle_alpha   109.50862324
_cell_angle_beta   109.50862719
_cell_angle_gamma   109.50861858
_symmetry_Int_Tables_number   1
_chemical_formula_structural   LaFe3Sb12Rh
_chemical_formula_sum   'La1 Fe3 Sb12 Rh1'
_cell_volume   392.63454683
_cell_formula_units_Z   1
loop_
 _symmetry_equiv_pos_site_id
 _symmetry_equiv_pos_as_xyz
  1  'x, y, z'
loop_
 _atom_site_type_symbol
 _atom_site_label
 _atom_site_symmetry_multiplicity
 _atom_site_fract_x
 _atom_site_fract_y
 _atom_site_fract_z
 _atom_site_occupancy
  La  La0  1  0.000000  0.000000  0.000000  1
  Fe  Fe1  1  0.500000  0.000000  0.000000  1
  Fe  Fe2  1  0.000000  0.500000  0.000000  1
  Fe  Fe3  1  0.000000  0.000000  0.500000  1
  Sb  Sb4  1  0.170508  0.836410  0.333311  1
  Sb  Sb5  1  0.151983  0.332171  0.498469  1
  Sb  Sb6  1  0.666689  0.829492  0.163590  1
  Sb  Sb7  1  0.667829  0.501531  0.848017  1
  Sb  Sb8  1  0.501531  0.848017  0.667829  1
  Sb  Sb9  1  0.829492  0.163590  0.666689  1
  Sb  Sb10  1  0.333311  0.170508  0.836410  1
  Sb  Sb11  1  0.836410  0.333311  0.170508  1
  Sb  Sb12  1  0.498469  0.151983  0.332171  1
  Sb  Sb13  1  0.332171  0.498469  0.151983  1
  Sb  Sb14  1  0.163590  0.666689  0.829492  1
  Sb  Sb15  1  0.848017  0.667829  0.501531  1
  Rh  Rh16  1  0.500000  0.500000  0.500000  1
