# generated using pymatgen
data_Ta12Cr3Co8OsN4
_symmetry_space_group_name_H-M   'P 1'
_cell_length_a   8.03379983
_cell_length_b   8.03380046
_cell_length_c   8.03380066
_cell_angle_alpha   59.74173824
_cell_angle_beta   59.74172928
_cell_angle_gamma   59.74173569
_symmetry_Int_Tables_number   1
_chemical_formula_structural   Ta12Cr3Co8OsN4
_chemical_formula_sum   'Ta12 Cr3 Co8 Os1 N4'
_cell_volume   364.49659887
_cell_formula_units_Z   1
loop_
 _symmetry_equiv_pos_site_id
 _symmetry_equiv_pos_as_xyz
  1  'x, y, z'
loop_
 _atom_site_type_symbol
 _atom_site_label
 _atom_site_symmetry_multiplicity
 _atom_site_fract_x
 _atom_site_fract_y
 _atom_site_fract_z
 _atom_site_occupancy
  Ta  Ta0  1  0.803746  0.803746  0.196845  1
  Ta  Ta1  1  0.194800  0.194800  0.804502  1
  Ta  Ta2  1  0.803746  0.196845  0.803746  1
  Ta  Ta3  1  0.194800  0.804502  0.194800  1
  Ta  Ta4  1  0.196845  0.803746  0.803746  1
  Ta  Ta5  1  0.804502  0.194800  0.194800  1
  Ta  Ta6  1  0.446254  0.446254  0.053155  1
  Ta  Ta7  1  0.055200  0.055200  0.445498  1
  Ta  Ta8  1  0.446254  0.053155  0.446254  1
  Ta  Ta9  1  0.055200  0.445498  0.055200  1
  Ta  Ta10  1  0.053155  0.446254  0.446254  1
  Ta  Ta11  1  0.445498  0.055200  0.055200  1
  Cr  Cr12  1  0.125000  0.625000  0.625000  1
  Cr  Cr13  1  0.625000  0.125000  0.625000  1
  Cr  Cr14  1  0.625000  0.625000  0.125000  1
  Co  Co15  1  0.731519  0.418137  0.418137  1
  Co  Co16  1  0.418137  0.731519  0.418137  1
  Co  Co17  1  0.418137  0.418137  0.731519  1
  Co  Co18  1  0.421998  0.421998  0.421998  1
  Co  Co19  1  0.518481  0.831863  0.831863  1
  Co  Co20  1  0.831863  0.518481  0.831863  1
  Co  Co21  1  0.831863  0.831863  0.518481  1
  Co  Co22  1  0.828002  0.828002  0.828002  1
  Os  Os23  1  0.625000  0.625000  0.625000  1
  N  N24  1  0.625000  0.125000  0.125000  1
  N  N25  1  0.125000  0.625000  0.125000  1
  N  N26  1  0.125000  0.125000  0.625000  1
  N  N27  1  0.125000  0.125000  0.125000  1
