# generated using pymatgen
data_Tm12Fe2TcAg2
_symmetry_space_group_name_H-M   'P 1'
_cell_length_a   8.14902766
_cell_length_b   8.14861607
_cell_length_c   8.14902877
_cell_angle_alpha   108.55359671
_cell_angle_beta   108.60057344
_cell_angle_gamma   111.27680815
_symmetry_Int_Tables_number   1
_chemical_formula_structural   Tm12Fe2TcAg2
_chemical_formula_sum   'Tm12 Fe2 Tc1 Ag2'
_cell_volume   416.23424617
_cell_formula_units_Z   1
loop_
 _symmetry_equiv_pos_site_id
 _symmetry_equiv_pos_as_xyz
  1  'x, y, z'
loop_
 _atom_site_type_symbol
 _atom_site_label
 _atom_site_symmetry_multiplicity
 _atom_site_fract_x
 _atom_site_fract_y
 _atom_site_fract_z
 _atom_site_occupancy
  Tm  Tm0  1  0.192168  0.435426  0.243258  1
  Tm  Tm1  1  0.807832  0.564574  0.756742  1
  Tm  Tm2  1  0.192149  0.948877  0.756727  1
  Tm  Tm3  1  0.948823  0.192164  0.756680  1
  Tm  Tm4  1  0.807851  0.051123  0.243273  1
  Tm  Tm5  1  0.051177  0.807836  0.243320  1
  Tm  Tm6  1  0.435484  0.192164  0.243343  1
  Tm  Tm7  1  0.564516  0.807836  0.756657  1
  Tm  Tm8  1  0.309395  0.309415  0.618809  1
  Tm  Tm9  1  0.690605  0.690585  0.381191  1
  Tm  Tm10  1  0.690606  0.309415  0.000019  1
  Tm  Tm11  1  0.309394  0.690585  0.999981  1
  Fe  Fe12  1  0.380706  0.380718  0.000012  1
  Fe  Fe13  1  0.619294  0.619282  0.999988  1
  Tc  Tc14  1  0.000000  0.000000  0.000000  1
  Ag  Ag15  1  0.000000  0.500000  0.500000  1
  Ag  Ag16  1  0.500000  0.000000  0.500000  1
