# generated using pymatgen
data_Tm6Co14Si11PRh4
_symmetry_space_group_name_H-M   'P 1'
_cell_length_a   3.75727600
_cell_length_b   10.78925899
_cell_length_c   12.37432417
_cell_angle_alpha   89.95054252
_cell_angle_beta   90.00000000
_cell_angle_gamma   90.00000000
_symmetry_Int_Tables_number   1
_chemical_formula_structural   Tm6Co14Si11PRh4
_chemical_formula_sum   'Tm6 Co14 Si11 P1 Rh4'
_cell_volume   501.63293643
_cell_formula_units_Z   1
loop_
 _symmetry_equiv_pos_site_id
 _symmetry_equiv_pos_as_xyz
  1  'x, y, z'
loop_
 _atom_site_type_symbol
 _atom_site_label
 _atom_site_symmetry_multiplicity
 _atom_site_fract_x
 _atom_site_fract_y
 _atom_site_fract_z
 _atom_site_occupancy
  Tm  Tm0  1  0.000000  0.499093  0.522911  1
  Tm  Tm1  1  0.500000  0.000620  0.476230  1
  Tm  Tm2  1  0.500000  0.814844  0.204230  1
  Tm  Tm3  1  0.500000  0.187011  0.203015  1
  Tm  Tm4  1  0.000000  0.684909  0.797065  1
  Tm  Tm5  1  0.000000  0.314479  0.794250  1
  Co  Co6  1  0.000000  0.494739  0.987226  1
  Co  Co7  1  0.500000  0.001030  0.017568  1
  Co  Co8  1  0.500000  0.330148  0.997005  1
  Co  Co9  1  0.500000  0.668776  0.991270  1
  Co  Co10  1  0.000000  0.170724  0.008926  1
  Co  Co11  1  0.000000  0.830603  0.008308  1
  Co  Co12  1  0.500000  0.304305  0.429207  1
  Co  Co13  1  0.500000  0.695845  0.431426  1
  Co  Co14  1  0.000000  0.196942  0.567817  1
  Co  Co15  1  0.000000  0.803771  0.569349  1
  Co  Co16  1  0.500000  0.883001  0.708597  1
  Co  Co17  1  0.500000  0.118198  0.708392  1
  Co  Co18  1  0.000000  0.617347  0.291799  1
  Co  Co19  1  0.000000  0.381739  0.284371  1
  Si  Si20  1  0.500000  0.498491  0.887943  1
  Si  Si21  1  0.000000  0.999974  0.114045  1
  Si  Si22  1  0.500000  0.499777  0.344232  1
  Si  Si23  1  0.000000  0.000464  0.655618  1
  Si  Si24  1  0.500000  0.298923  0.612707  1
  Si  Si25  1  0.500000  0.701304  0.614488  1
  Si  Si26  1  0.000000  0.202685  0.384538  1
  Si  Si27  1  0.000000  0.798479  0.386256  1
  Si  Si28  1  0.500000  0.849857  0.895889  1
  Si  Si29  1  0.500000  0.151540  0.895624  1
  Si  Si30  1  0.000000  0.650966  0.104281  1
  P  P31  1  0.000000  0.343930  0.102906  1
  Rh  Rh32  1  0.500000  0.504198  0.153812  1
  Rh  Rh33  1  0.000000  0.001069  0.847215  1
  Rh  Rh34  1  0.500000  0.499748  0.697233  1
  Rh  Rh35  1  0.000000  0.000473  0.304249  1
