# generated using pymatgen
data_La2Nd2Cd2NiAu3
_symmetry_space_group_name_H-M   'P 1'
_cell_length_a   8.05237155
_cell_length_b   8.05237226
_cell_length_c   3.89089000
_cell_angle_alpha   90.00000000
_cell_angle_beta   90.00000000
_cell_angle_gamma   88.66199612
_symmetry_Int_Tables_number   1
_chemical_formula_structural   La2Nd2Cd2NiAu3
_chemical_formula_sum   'La2 Nd2 Cd2 Ni1 Au3'
_cell_volume   252.21921675
_cell_formula_units_Z   1
loop_
 _symmetry_equiv_pos_site_id
 _symmetry_equiv_pos_as_xyz
  1  'x, y, z'
loop_
 _atom_site_type_symbol
 _atom_site_label
 _atom_site_symmetry_multiplicity
 _atom_site_fract_x
 _atom_site_fract_y
 _atom_site_fract_z
 _atom_site_occupancy
  La  La0  1  0.808757  0.691243  0.500000  1
  La  La1  1  0.171665  0.328335  0.500000  1
  Nd  Nd2  1  0.344177  0.821533  0.500000  1
  Nd  Nd3  1  0.678467  0.155823  0.500000  1
  Cd  Cd4  1  0.997941  0.997914  0.000000  1
  Cd  Cd5  1  0.502086  0.502059  0.000000  1
  Ni  Ni6  1  0.624343  0.875657  0.000000  1
  Au  Au7  1  0.381794  0.118206  0.000000  1
  Au  Au8  1  0.867073  0.376304  0.000000  1
  Au  Au9  1  0.123696  0.632927  0.000000  1
