# generated using pymatgen
data_Tb16MgTl(Ni2Ag)2
_symmetry_space_group_name_H-M   'P 1'
_cell_length_a   9.55985675
_cell_length_b   9.55254544
_cell_length_c   9.55254533
_cell_angle_alpha   60.10178539
_cell_angle_beta   60.09611906
_cell_angle_gamma   60.09611087
_symmetry_Int_Tables_number   1
_chemical_formula_structural   Tb16MgTl(Ni2Ag)2
_chemical_formula_sum   'Tb16 Mg1 Tl1 Ni4 Ag2'
_cell_volume   618.21273572
_cell_formula_units_Z   1
loop_
 _symmetry_equiv_pos_site_id
 _symmetry_equiv_pos_as_xyz
  1  'x, y, z'
loop_
 _atom_site_type_symbol
 _atom_site_label
 _atom_site_symmetry_multiplicity
 _atom_site_fract_x
 _atom_site_fract_y
 _atom_site_fract_z
 _atom_site_occupancy
  Tb  Tb0  1  0.188860  0.814701  0.814701  1
  Tb  Tb1  1  0.810352  0.187480  0.187480  1
  Tb  Tb2  1  0.812255  0.194031  0.814350  1
  Tb  Tb3  1  0.184739  0.812879  0.187802  1
  Tb  Tb4  1  0.812255  0.814350  0.194031  1
  Tb  Tb5  1  0.184739  0.187802  0.812879  1
  Tb  Tb6  1  0.060288  0.440466  0.440466  1
  Tb  Tb7  1  0.438441  0.061187  0.061187  1
  Tb  Tb8  1  0.436668  0.063482  0.438638  1
  Tb  Tb9  1  0.058608  0.440439  0.060159  1
  Tb  Tb10  1  0.436668  0.438638  0.063482  1
  Tb  Tb11  1  0.058608  0.060159  0.440439  1
  Tb  Tb12  1  0.594848  0.595867  0.595867  1
  Tb  Tb13  1  0.600309  0.598983  0.203268  1
  Tb  Tb14  1  0.600309  0.203268  0.598983  1
  Tb  Tb15  1  0.195637  0.602032  0.602032  1
  Mg  Mg16  1  0.532567  0.819064  0.819064  1
  Tl  Tl17  1  0.834354  0.831729  0.831729  1
  Ni  Ni18  1  0.391848  0.394843  0.394843  1
  Ni  Ni19  1  0.389860  0.393037  0.822996  1
  Ni  Ni20  1  0.389860  0.822996  0.393037  1
  Ni  Ni21  1  0.822349  0.392458  0.392458  1
  Ag  Ag22  1  0.832788  0.833120  0.496990  1
  Ag  Ag23  1  0.832788  0.496990  0.833120  1
