# generated using pymatgen
data_LiAl2(Co10B3)2
_symmetry_space_group_name_H-M   'P 1'
_cell_length_a   7.38418629
_cell_length_b   7.38418634
_cell_length_c   7.38418700
_cell_angle_alpha   60.00000153
_cell_angle_beta   60.00000131
_cell_angle_gamma   60.00000109
_symmetry_Int_Tables_number   1
_chemical_formula_structural   LiAl2(Co10B3)2
_chemical_formula_sum   'Li1 Al2 Co20 B6'
_cell_volume   284.70362307
_cell_formula_units_Z   1
loop_
 _symmetry_equiv_pos_site_id
 _symmetry_equiv_pos_as_xyz
  1  'x, y, z'
loop_
 _atom_site_type_symbol
 _atom_site_label
 _atom_site_symmetry_multiplicity
 _atom_site_fract_x
 _atom_site_fract_y
 _atom_site_fract_z
 _atom_site_occupancy
  Li  Li0  1  0.000000  0.000000  0.000000  1
  Al  Al1  1  0.750000  0.750000  0.750000  1
  Al  Al2  1  0.250000  0.250000  0.250000  1
  Co  Co3  1  0.617465  0.617465  0.147606  1
  Co  Co4  1  0.617465  0.147606  0.617465  1
  Co  Co5  1  0.147606  0.617465  0.617465  1
  Co  Co6  1  0.617465  0.617465  0.617465  1
  Co  Co7  1  0.382535  0.382535  0.852394  1
  Co  Co8  1  0.382535  0.852394  0.382535  1
  Co  Co9  1  0.852394  0.382535  0.382535  1
  Co  Co10  1  0.382535  0.382535  0.382535  1
  Co  Co11  1  0.000000  0.000000  0.340346  1
  Co  Co12  1  0.659654  0.000000  0.340346  1
  Co  Co13  1  0.000000  0.659654  0.340346  1
  Co  Co14  1  0.659654  0.340346  0.000000  1
  Co  Co15  1  0.000000  0.340346  0.000000  1
  Co  Co16  1  0.000000  0.340346  0.659654  1
  Co  Co17  1  0.340346  0.659654  0.000000  1
  Co  Co18  1  0.340346  0.000000  0.659654  1
  Co  Co19  1  0.340346  0.000000  0.000000  1
  Co  Co20  1  0.000000  0.000000  0.659654  1
  Co  Co21  1  0.000000  0.659654  0.000000  1
  Co  Co22  1  0.659654  0.000000  0.000000  1
  B  B23  1  0.725657  0.725657  0.274343  1
  B  B24  1  0.274343  0.725657  0.274343  1
  B  B25  1  0.725657  0.274343  0.274343  1
  B  B26  1  0.274343  0.274343  0.725657  1
  B  B27  1  0.725657  0.274343  0.725657  1
  B  B28  1  0.274343  0.725657  0.725657  1
