# generated using pymatgen
data_NdGd(RhO3)2
_symmetry_space_group_name_H-M   'P 1'
_cell_length_a   5.37202100
_cell_length_b   5.87642500
_cell_length_c   7.80180100
_cell_angle_alpha   90.00000000
_cell_angle_beta   90.00000000
_cell_angle_gamma   90.00000000
_symmetry_Int_Tables_number   1
_chemical_formula_structural   NdGd(RhO3)2
_chemical_formula_sum   'Nd2 Gd2 Rh4 O12'
_cell_volume   246.28942681
_cell_formula_units_Z   2
loop_
 _symmetry_equiv_pos_site_id
 _symmetry_equiv_pos_as_xyz
  1  'x, y, z'
loop_
 _atom_site_type_symbol
 _atom_site_label
 _atom_site_symmetry_multiplicity
 _atom_site_fract_x
 _atom_site_fract_y
 _atom_site_fract_z
 _atom_site_occupancy
  Nd  Nd0  1  0.027700  0.079897  0.750000  1
  Nd  Nd1  1  0.527700  0.420103  0.250000  1
  Gd  Gd2  1  0.472556  0.581427  0.750000  1
  Gd  Gd3  1  0.972556  0.918573  0.250000  1
  Rh  Rh4  1  0.499877  0.999968  0.499574  1
  Rh  Rh5  1  0.999877  0.500032  0.500426  1
  Rh  Rh6  1  0.999877  0.500032  0.999574  1
  Rh  Rh7  1  0.499877  0.999968  0.000426  1
  O  O8  1  0.821863  0.190039  0.442241  1
  O  O9  1  0.321863  0.309961  0.557759  1
  O  O10  1  0.683035  0.695942  0.056704  1
  O  O11  1  0.183035  0.804058  0.943296  1
  O  O12  1  0.183035  0.804058  0.556704  1
  O  O13  1  0.683035  0.695942  0.443296  1
  O  O14  1  0.321863  0.309961  0.942241  1
  O  O15  1  0.821863  0.190039  0.057759  1
  O  O16  1  0.374022  0.037202  0.250000  1
  O  O17  1  0.874022  0.462798  0.750000  1
  O  O18  1  0.116172  0.545897  0.250000  1
  O  O19  1  0.616172  0.954103  0.750000  1
