# generated using pymatgen
data_TbYbErZn11
_symmetry_space_group_name_H-M   'P 1'
_cell_length_a   8.18177094
_cell_length_b   8.18177055
_cell_length_c   8.18177035
_cell_angle_alpha   148.20388608
_cell_angle_beta   115.90362752
_cell_angle_gamma   73.33429218
_symmetry_Int_Tables_number   1
_chemical_formula_structural   TbYbErZn11
_chemical_formula_sum   'Tb1 Yb1 Er1 Zn11'
_cell_volume   255.42779059
_cell_formula_units_Z   1
loop_
 _symmetry_equiv_pos_site_id
 _symmetry_equiv_pos_as_xyz
  1  'x, y, z'
loop_
 _atom_site_type_symbol
 _atom_site_label
 _atom_site_symmetry_multiplicity
 _atom_site_fract_x
 _atom_site_fract_y
 _atom_site_fract_z
 _atom_site_occupancy
  Tb  Tb0  1  0.701996  0.701996  0.000000  1
  Yb  Yb1  1  0.000022  0.000022  0.000000  1
  Er  Er2  1  0.298123  0.298123  0.000000  1
  Zn  Zn3  1  0.500043  0.000043  0.500000  1
  Zn  Zn4  1  0.678448  0.499740  0.178708  1
  Zn  Zn5  1  0.321032  0.499740  0.821292  1
  Zn  Zn6  1  0.694598  0.338590  0.356009  1
  Zn  Zn7  1  0.304908  0.661738  0.643170  1
  Zn  Zn8  1  0.982581  0.338590  0.643991  1
  Zn  Zn9  1  0.018569  0.661738  0.356830  1
  Zn  Zn10  1  0.419903  0.136876  0.283026  1
  Zn  Zn11  1  0.579165  0.862964  0.716202  1
  Zn  Zn12  1  0.853850  0.136876  0.716974  1
  Zn  Zn13  1  0.146762  0.862964  0.283798  1
