# generated using pymatgen
data_Yb4Cu3P4Pd
_symmetry_space_group_name_H-M   'P 1'
_cell_length_a   4.00375300
_cell_length_b   7.79838229
_cell_length_c   7.01732710
_cell_angle_alpha   90.09719555
_cell_angle_beta   90.00000000
_cell_angle_gamma   90.00000000
_symmetry_Int_Tables_number   1
_chemical_formula_structural   Yb4Cu3P4Pd
_chemical_formula_sum   'Yb4 Cu3 P4 Pd1'
_cell_volume   219.10026074
_cell_formula_units_Z   1
loop_
 _symmetry_equiv_pos_site_id
 _symmetry_equiv_pos_as_xyz
  1  'x, y, z'
loop_
 _atom_site_type_symbol
 _atom_site_label
 _atom_site_symmetry_multiplicity
 _atom_site_fract_x
 _atom_site_fract_y
 _atom_site_fract_z
 _atom_site_occupancy
  Yb  Yb0  1  0.250000  0.502881  0.247483  1
  Yb  Yb1  1  0.750000  0.502033  0.749256  1
  Yb  Yb2  1  0.750000  0.999800  0.750747  1
  Yb  Yb3  1  0.250000  0.995007  0.249405  1
  Cu  Cu4  1  0.250000  0.749900  0.584036  1
  Cu  Cu5  1  0.750000  0.251281  0.418087  1
  Cu  Cu6  1  0.750000  0.750415  0.083912  1
  P  P7  1  0.250000  0.749188  0.915562  1
  P  P8  1  0.750000  0.248151  0.095983  1
  P  P9  1  0.750000  0.750353  0.416346  1
  P  P10  1  0.250000  0.250576  0.573821  1
  Pd  Pd11  1  0.250000  0.250415  0.915363  1
