# generated using pymatgen
data_KRb2Er(AsS2)6
_symmetry_space_group_name_H-M   'P 1'
_cell_length_a   9.62595700
_cell_length_b   9.62595699
_cell_length_c   8.02718500
_cell_angle_alpha   90.00000000
_cell_angle_beta   90.00000000
_cell_angle_gamma   120.00000346
_symmetry_Int_Tables_number   1
_chemical_formula_structural   KRb2Er(AsS2)6
_chemical_formula_sum   'K1 Rb2 Er1 As6 S12'
_cell_volume   644.14215657
_cell_formula_units_Z   1
loop_
 _symmetry_equiv_pos_site_id
 _symmetry_equiv_pos_as_xyz
  1  'x, y, z'
loop_
 _atom_site_type_symbol
 _atom_site_label
 _atom_site_symmetry_multiplicity
 _atom_site_fract_x
 _atom_site_fract_y
 _atom_site_fract_z
 _atom_site_occupancy
  K  K0  1  0.000000  0.000000  0.000000  1
  Rb  Rb1  1  0.333333  0.666667  0.851943  1
  Rb  Rb2  1  0.666667  0.333333  0.148057  1
  Er  Er3  1  0.000000  0.000000  0.500000  1
  As  As4  1  0.282996  0.833583  0.391542  1
  As  As5  1  0.166417  0.449413  0.391542  1
  As  As6  1  0.550587  0.717004  0.391542  1
  As  As7  1  0.717004  0.166417  0.608458  1
  As  As8  1  0.833583  0.550587  0.608458  1
  As  As9  1  0.449413  0.282996  0.608458  1
  S  S10  1  0.242470  0.028062  0.297506  1
  S  S11  1  0.971938  0.214409  0.297506  1
  S  S12  1  0.785591  0.757530  0.297506  1
  S  S13  1  0.757530  0.971938  0.702494  1
  S  S14  1  0.028062  0.785591  0.702494  1
  S  S15  1  0.214409  0.242470  0.702494  1
  S  S16  1  0.515423  0.902210  0.238015  1
  S  S17  1  0.097790  0.613212  0.238015  1
  S  S18  1  0.386788  0.484577  0.238015  1
  S  S19  1  0.484577  0.097790  0.761985  1
  S  S20  1  0.902210  0.386788  0.761985  1
  S  S21  1  0.613212  0.515423  0.761985  1
