# generated using pymatgen
data_Hf4Zr2CoTe2
_symmetry_space_group_name_H-M   'P 1'
_cell_length_a   3.60861400
_cell_length_b   7.75490101
_cell_length_c   7.75490102
_cell_angle_alpha   120.11670303
_cell_angle_beta   90.00000000
_cell_angle_gamma   90.00000000
_symmetry_Int_Tables_number   1
_chemical_formula_structural   Hf4Zr2CoTe2
_chemical_formula_sum   'Hf4 Zr2 Co1 Te2'
_cell_volume   187.72048010
_cell_formula_units_Z   1
loop_
 _symmetry_equiv_pos_site_id
 _symmetry_equiv_pos_as_xyz
  1  'x, y, z'
loop_
 _atom_site_type_symbol
 _atom_site_label
 _atom_site_symmetry_multiplicity
 _atom_site_fract_x
 _atom_site_fract_y
 _atom_site_fract_z
 _atom_site_occupancy
  Hf  Hf0  1  0.500000  0.763488  0.763488  1
  Hf  Hf1  1  0.500000  0.001377  0.237113  1
  Hf  Hf2  1  0.500000  0.237113  0.001377  1
  Hf  Hf3  1  0.000000  0.400295  0.400295  1
  Zr  Zr4  1  0.000000  0.000540  0.595760  1
  Zr  Zr5  1  0.000000  0.595760  0.000540  1
  Co  Co6  1  0.000000  0.001076  0.001076  1
  Te  Te7  1  0.500000  0.666270  0.334082  1
  Te  Te8  1  0.500000  0.334082  0.666270  1
