# generated using pymatgen
data_YbPr3DyIr3
_symmetry_space_group_name_H-M   'P 1'
_cell_length_a   11.15494600
_cell_length_b   11.27988500
_cell_length_c   6.49484000
_cell_angle_alpha   90.00000000
_cell_angle_beta   90.00000000
_cell_angle_gamma   90.00000000
_symmetry_Int_Tables_number   1
_chemical_formula_structural   YbPr3DyIr3
_chemical_formula_sum   'Yb4 Pr12 Dy4 Ir12'
_cell_volume   817.22303762
_cell_formula_units_Z   4
loop_
 _symmetry_equiv_pos_site_id
 _symmetry_equiv_pos_as_xyz
  1  'x, y, z'
loop_
 _atom_site_type_symbol
 _atom_site_label
 _atom_site_symmetry_multiplicity
 _atom_site_fract_x
 _atom_site_fract_y
 _atom_site_fract_z
 _atom_site_occupancy
  Yb  Yb0  1  0.291129  0.083784  0.383997  1
  Yb  Yb1  1  0.291129  0.916216  0.883997  1
  Yb  Yb2  1  0.708871  0.083784  0.883997  1
  Yb  Yb3  1  0.708871  0.916216  0.383997  1
  Pr  Pr4  1  0.587773  0.795981  0.883945  1
  Pr  Pr5  1  0.587773  0.204019  0.383945  1
  Pr  Pr6  1  0.412227  0.795981  0.383945  1
  Pr  Pr7  1  0.412227  0.204019  0.883945  1
  Pr  Pr8  1  0.211362  0.411063  0.618675  1
  Pr  Pr9  1  0.211362  0.588937  0.118675  1
  Pr  Pr10  1  0.788638  0.411063  0.118675  1
  Pr  Pr11  1  0.788638  0.588937  0.618675  1
  Pr  Pr12  1  0.909402  0.713958  0.122990  1
  Pr  Pr13  1  0.909402  0.286042  0.622990  1
  Pr  Pr14  1  0.090598  0.713958  0.622990  1
  Pr  Pr15  1  0.090598  0.286042  0.122990  1
  Dy  Dy16  1  0.000000  0.000000  0.492054  1
  Dy  Dy17  1  0.000000  0.000000  0.992054  1
  Dy  Dy18  1  0.500000  0.500000  0.990821  1
  Dy  Dy19  1  0.500000  0.500000  0.490821  1
  Ir  Ir20  1  0.856160  0.151733  0.247912  1
  Ir  Ir21  1  0.856160  0.848267  0.747912  1
  Ir  Ir22  1  0.143840  0.151733  0.747912  1
  Ir  Ir23  1  0.143840  0.848267  0.247912  1
  Ir  Ir24  1  0.647649  0.352145  0.745140  1
  Ir  Ir25  1  0.647649  0.647855  0.245140  1
  Ir  Ir26  1  0.352351  0.352145  0.245140  1
  Ir  Ir27  1  0.352351  0.647855  0.745140  1
  Ir  Ir28  1  0.500000  0.000000  0.127660  1
  Ir  Ir29  1  0.500000  0.000000  0.627660  1
  Ir  Ir30  1  0.000000  0.500000  0.884148  1
  Ir  Ir31  1  0.000000  0.500000  0.384148  1
