# generated using pymatgen
data_Ho3Al3GaGePt
_symmetry_space_group_name_H-M   'P 1'
_cell_length_a   6.96872700
_cell_length_b   6.96872622
_cell_length_c   4.23652300
_cell_angle_alpha   90.00000000
_cell_angle_beta   90.00000000
_cell_angle_gamma   119.99999896
_symmetry_Int_Tables_number   1
_chemical_formula_structural   Ho3Al3GaGePt
_chemical_formula_sum   'Ho3 Al3 Ga1 Ge1 Pt1'
_cell_volume   178.17511950
_cell_formula_units_Z   1
loop_
 _symmetry_equiv_pos_site_id
 _symmetry_equiv_pos_as_xyz
  1  'x, y, z'
loop_
 _atom_site_type_symbol
 _atom_site_label
 _atom_site_symmetry_multiplicity
 _atom_site_fract_x
 _atom_site_fract_y
 _atom_site_fract_z
 _atom_site_occupancy
  Ho  Ho0  1  0.416343  0.000374  0.000000  1
  Ho  Ho1  1  0.999626  0.415969  0.000000  1
  Ho  Ho2  1  0.584031  0.583656  0.000000  1
  Al  Al3  1  0.768660  0.006893  0.500001  1
  Al  Al4  1  0.238232  0.231340  0.500001  1
  Al  Al5  1  0.993107  0.761767  0.500001  1
  Ga  Ga6  1  0.666666  0.333333  0.500001  1
  Ge  Ge7  1  0.333333  0.666666  0.500001  1
  Pt  Pt8  1  0.000000  0.000000  0.000000  1
