# generated using pymatgen
data_Sm2GePd14
_symmetry_space_group_name_H-M   'P 1'
_cell_length_a   8.97936516
_cell_length_b   8.97935316
_cell_length_c   7.20885701
_cell_angle_alpha   90.00451597
_cell_angle_beta   90.00070024
_cell_angle_gamma   90.02132473
_symmetry_Int_Tables_number   1
_chemical_formula_structural   Sm2GePd14
_chemical_formula_sum   'Sm4 Ge2 Pd28'
_cell_volume   581.24210297
_cell_formula_units_Z   2
loop_
 _symmetry_equiv_pos_site_id
 _symmetry_equiv_pos_as_xyz
  1  'x, y, z'
loop_
 _atom_site_type_symbol
 _atom_site_label
 _atom_site_symmetry_multiplicity
 _atom_site_fract_x
 _atom_site_fract_y
 _atom_site_fract_z
 _atom_site_occupancy
  Sm  Sm0  1  0.500002  0.999991  0.935993  1
  Sm  Sm1  1  0.999998  0.500009  0.064007  1
  Sm  Sm2  1  0.000000  0.000000  0.500013  1
  Sm  Sm3  1  0.500000  0.500000  0.499987  1
  Ge  Ge4  1  0.500000  0.000004  0.449354  1
  Ge  Ge5  1  0.000000  0.499996  0.550646  1
  Pd  Pd6  1  0.330582  0.830594  0.621867  1
  Pd  Pd7  1  0.330583  0.169411  0.621848  1
  Pd  Pd8  1  0.669428  0.830583  0.621818  1
  Pd  Pd9  1  0.669406  0.169401  0.621894  1
  Pd  Pd10  1  0.169418  0.669406  0.378133  1
  Pd  Pd11  1  0.169417  0.330589  0.378152  1
  Pd  Pd12  1  0.830572  0.669417  0.378182  1
  Pd  Pd13  1  0.830594  0.330599  0.378106  1
  Pd  Pd14  1  0.499999  0.766318  0.253073  1
  Pd  Pd15  1  0.500003  0.233682  0.253067  1
  Pd  Pd16  1  0.266314  0.999989  0.253084  1
  Pd  Pd17  1  0.733685  0.999994  0.253085  1
  Pd  Pd18  1  0.000001  0.733682  0.746927  1
  Pd  Pd19  1  0.999997  0.266318  0.746933  1
  Pd  Pd20  1  0.233686  0.500011  0.746916  1
  Pd  Pd21  1  0.766315  0.500006  0.746915  1
  Pd  Pd22  1  0.500020  0.348806  0.856097  1
  Pd  Pd23  1  0.499991  0.651187  0.856064  1
  Pd  Pd24  1  0.848793  0.999991  0.856056  1
  Pd  Pd25  1  0.151208  0.999963  0.856065  1
  Pd  Pd26  1  0.999980  0.151194  0.143903  1
  Pd  Pd27  1  0.000009  0.848813  0.143936  1
  Pd  Pd28  1  0.651207  0.500009  0.143944  1
  Pd  Pd29  1  0.348792  0.500037  0.143935  1
  Pd  Pd30  1  0.250000  0.750000  0.000000  1
  Pd  Pd31  1  0.250000  0.250000  0.000000  1
  Pd  Pd32  1  0.750000  0.750000  0.000000  1
  Pd  Pd33  1  0.750000  0.250000  0.000000  1
