# generated using pymatgen
data_Ho3Lu7(In2Bi)2
_symmetry_space_group_name_H-M   'P 1'
_cell_length_a   8.91556273
_cell_length_b   8.87457494
_cell_length_c   6.52870900
_cell_angle_alpha   90.00000000
_cell_angle_beta   90.00000000
_cell_angle_gamma   119.84803223
_symmetry_Int_Tables_number   1
_chemical_formula_structural   Ho3Lu7(In2Bi)2
_chemical_formula_sum   'Ho3 Lu7 In4 Bi2'
_cell_volume   448.04050395
_cell_formula_units_Z   1
loop_
 _symmetry_equiv_pos_site_id
 _symmetry_equiv_pos_as_xyz
  1  'x, y, z'
loop_
 _atom_site_type_symbol
 _atom_site_label
 _atom_site_symmetry_multiplicity
 _atom_site_fract_x
 _atom_site_fract_y
 _atom_site_fract_z
 _atom_site_occupancy
  Ho  Ho0  1  0.770525  0.761468  0.750000  1
  Ho  Ho1  1  0.229475  0.990945  0.750000  1
  Ho  Ho2  1  0.000000  0.238448  0.750000  1
  Lu  Lu3  1  0.671265  0.338445  0.007844  1
  Lu  Lu4  1  0.328735  0.667181  0.007844  1
  Lu  Lu5  1  0.328735  0.667181  0.492156  1
  Lu  Lu6  1  0.671265  0.338445  0.492156  1
  Lu  Lu7  1  0.235353  0.236073  0.250000  1
  Lu  Lu8  1  0.764647  0.000720  0.250000  1
  Lu  Lu9  1  0.000000  0.762357  0.250000  1
  In  In10  1  0.000000  0.595701  0.750000  1
  In  In11  1  0.602890  0.606001  0.250000  1
  In  In12  1  0.397110  0.003111  0.250000  1
  In  In13  1  0.000000  0.396496  0.250000  1
  Bi  Bi14  1  0.397500  0.397465  0.750000  1
  Bi  Bi15  1  0.602500  0.999963  0.750000  1
