# generated using pymatgen
data_Er4Th6SiGe5C2
_symmetry_space_group_name_H-M   'P 1'
_cell_length_a   8.78762415
_cell_length_b   8.78480003
_cell_length_c   6.38043000
_cell_angle_alpha   90.00000000
_cell_angle_beta   90.00000000
_cell_angle_gamma   119.98936569
_symmetry_Int_Tables_number   1
_chemical_formula_structural   Er4Th6SiGe5C2
_chemical_formula_sum   'Er4 Th6 Si1 Ge5 C2'
_cell_volume   426.60944082
_cell_formula_units_Z   1
loop_
 _symmetry_equiv_pos_site_id
 _symmetry_equiv_pos_as_xyz
  1  'x, y, z'
loop_
 _atom_site_type_symbol
 _atom_site_label
 _atom_site_symmetry_multiplicity
 _atom_site_fract_x
 _atom_site_fract_y
 _atom_site_fract_z
 _atom_site_occupancy
  Er  Er0  1  0.667322  0.333467  0.000618  1
  Er  Er1  1  0.332678  0.666147  0.000618  1
  Er  Er2  1  0.332678  0.666147  0.499382  1
  Er  Er3  1  0.667322  0.333467  0.499382  1
  Th  Th4  1  0.767594  0.767676  0.750000  1
  Th  Th5  1  0.232406  0.000082  0.750000  1
  Th  Th6  1  0.000000  0.232926  0.750000  1
  Th  Th7  1  0.231652  0.232901  0.250000  1
  Th  Th8  1  0.768348  0.001249  0.250000  1
  Th  Th9  1  0.000000  0.766921  0.250000  1
  Si  Si10  1  0.000000  0.402381  0.250000  1
  Ge  Ge11  1  0.402779  0.402711  0.750000  1
  Ge  Ge12  1  0.597221  0.999932  0.750000  1
  Ge  Ge13  1  0.000000  0.597128  0.750000  1
  Ge  Ge14  1  0.597281  0.597257  0.250000  1
  Ge  Ge15  1  0.402719  0.999976  0.250000  1
  C  C16  1  0.000000  0.999816  0.999898  1
  C  C17  1  0.000000  0.999816  0.500102  1
