# generated using pymatgen
data_Nd2LuAlPt2
_symmetry_space_group_name_H-M   'P 1'
_cell_length_a   4.55193200
_cell_length_b   7.56076000
_cell_length_c   8.18194000
_cell_angle_alpha   90.00000000
_cell_angle_beta   90.00000000
_cell_angle_gamma   90.00000000
_symmetry_Int_Tables_number   1
_chemical_formula_structural   Nd2LuAlPt2
_chemical_formula_sum   'Nd4 Lu2 Al2 Pt4'
_cell_volume   281.59018204
_cell_formula_units_Z   2
loop_
 _symmetry_equiv_pos_site_id
 _symmetry_equiv_pos_as_xyz
  1  'x, y, z'
loop_
 _atom_site_type_symbol
 _atom_site_label
 _atom_site_symmetry_multiplicity
 _atom_site_fract_x
 _atom_site_fract_y
 _atom_site_fract_z
 _atom_site_occupancy
  Nd  Nd0  1  0.750000  0.440320  0.176249  1
  Nd  Nd1  1  0.250000  0.059680  0.676249  1
  Nd  Nd2  1  0.750000  0.986375  0.329138  1
  Nd  Nd3  1  0.250000  0.513625  0.829138  1
  Lu  Lu4  1  0.750000  0.869757  0.932334  1
  Lu  Lu5  1  0.250000  0.630243  0.432334  1
  Al  Al6  1  0.750000  0.357733  0.567993  1
  Al  Al7  1  0.250000  0.142267  0.067993  1
  Pt  Pt8  1  0.750000  0.715508  0.613808  1
  Pt  Pt9  1  0.750000  0.232085  0.880478  1
  Pt  Pt10  1  0.250000  0.267915  0.380478  1
  Pt  Pt11  1  0.250000  0.784492  0.113808  1
