# generated using pymatgen
data_YTm(AgTe2)2
_symmetry_space_group_name_H-M   'P 1'
_cell_length_a   7.11312755
_cell_length_b   7.11312755
_cell_length_c   4.69979000
_cell_angle_alpha   90.00000000
_cell_angle_beta   90.00000000
_cell_angle_gamma   89.95476348
_symmetry_Int_Tables_number   1
_chemical_formula_structural   YTm(AgTe2)2
_chemical_formula_sum   'Y1 Tm1 Ag2 Te4'
_cell_volume   237.79324354
_cell_formula_units_Z   1
loop_
 _symmetry_equiv_pos_site_id
 _symmetry_equiv_pos_as_xyz
  1  'x, y, z'
loop_
 _atom_site_type_symbol
 _atom_site_label
 _atom_site_symmetry_multiplicity
 _atom_site_fract_x
 _atom_site_fract_y
 _atom_site_fract_z
 _atom_site_occupancy
  Y  Y0  1  0.000000  0.500000  0.805264  1
  Tm  Tm1  1  0.500000  0.000000  0.194786  1
  Ag  Ag2  1  0.500000  0.500000  0.999799  1
  Ag  Ag3  1  0.000000  0.000000  0.999799  1
  Te  Te4  1  0.204269  0.295731  0.289996  1
  Te  Te5  1  0.299973  0.799973  0.710180  1
  Te  Te6  1  0.795731  0.704269  0.289996  1
  Te  Te7  1  0.700027  0.200027  0.710180  1
