# generated using pymatgen
data_SrZnPt3O8
_symmetry_space_group_name_H-M   'P 1'
_cell_length_a   6.19156100
_cell_length_b   6.92444266
_cell_length_c   10.72447501
_cell_angle_alpha   104.95713791
_cell_angle_beta   89.99914482
_cell_angle_gamma   63.44303453
_symmetry_Int_Tables_number   1
_chemical_formula_structural   SrZnPt3O8
_chemical_formula_sum   'Sr2 Zn2 Pt6 O16'
_cell_volume   393.78557870
_cell_formula_units_Z   2
loop_
 _symmetry_equiv_pos_site_id
 _symmetry_equiv_pos_as_xyz
  1  'x, y, z'
loop_
 _atom_site_type_symbol
 _atom_site_label
 _atom_site_symmetry_multiplicity
 _atom_site_fract_x
 _atom_site_fract_y
 _atom_site_fract_z
 _atom_site_occupancy
  Sr  Sr0  1  0.750015  0.499972  0.749993  1
  Sr  Sr1  1  0.250010  0.499984  0.249998  1
  Zn  Zn2  1  0.500040  0.999920  0.499985  1
  Zn  Zn3  1  0.000039  0.999923  0.999986  1
  Pt  Pt4  1  0.250036  0.000002  0.749987  1
  Pt  Pt5  1  0.750061  0.000001  0.250052  1
  Pt  Pt6  1  0.000006  0.000004  0.499963  1
  Pt  Pt7  1  0.500005  0.000003  0.999964  1
  Pt  Pt8  1  0.749960  0.000001  0.749988  1
  Pt  Pt9  1  0.249947  0.000006  0.250057  1
  O  O10  1  0.084091  0.831818  0.638643  1
  O  O11  1  0.584095  0.831812  0.138624  1
  O  O12  1  0.415897  0.168199  0.861380  1
  O  O13  1  0.915900  0.168193  0.361362  1
  O  O14  1  0.829437  0.821292  0.883579  1
  O  O15  1  0.329434  0.821304  0.383564  1
  O  O16  1  0.910621  0.178727  0.856553  1
  O  O17  1  0.410621  0.178725  0.356537  1
  O  O18  1  0.670519  0.178724  0.616432  1
  O  O19  1  0.170515  0.178739  0.116416  1
  O  O20  1  0.150819  0.178704  0.616418  1
  O  O21  1  0.650809  0.178716  0.116403  1
  O  O22  1  0.589362  0.821302  0.643484  1
  O  O23  1  0.089362  0.821298  0.143469  1
  O  O24  1  0.349206  0.821308  0.883590  1
  O  O25  1  0.849197  0.821321  0.383575  1
