# generated using pymatgen
data_Lu8Si16Mo5W7
_symmetry_space_group_name_H-M   'P 1'
_cell_length_a   6.69894083
_cell_length_b   6.88939808
_cell_length_c   12.81176880
_cell_angle_alpha   89.96476315
_cell_angle_beta   89.97981282
_cell_angle_gamma   90.05363001
_symmetry_Int_Tables_number   1
_chemical_formula_structural   Lu8Si16Mo5W7
_chemical_formula_sum   'Lu8 Si16 Mo5 W7'
_cell_volume   591.28412024
_cell_formula_units_Z   1
loop_
 _symmetry_equiv_pos_site_id
 _symmetry_equiv_pos_as_xyz
  1  'x, y, z'
loop_
 _atom_site_type_symbol
 _atom_site_label
 _atom_site_symmetry_multiplicity
 _atom_site_fract_x
 _atom_site_fract_y
 _atom_site_fract_z
 _atom_site_occupancy
  Lu  Lu0  1  0.495091  0.331654  0.093365  1
  Lu  Lu1  1  0.995960  0.168576  0.406679  1
  Lu  Lu2  1  0.504802  0.668394  0.593539  1
  Lu  Lu3  1  0.004812  0.831239  0.906860  1
  Lu  Lu4  1  0.504038  0.668755  0.906882  1
  Lu  Lu5  1  0.004230  0.831246  0.593409  1
  Lu  Lu6  1  0.496270  0.331139  0.406607  1
  Lu  Lu7  1  0.995485  0.168879  0.093501  1
  Si  Si8  1  0.661648  0.039750  0.546745  1
  Si  Si9  1  0.162266  0.459515  0.953720  1
  Si  Si10  1  0.337119  0.959971  0.046262  1
  Si  Si11  1  0.838517  0.540611  0.453159  1
  Si  Si12  1  0.337829  0.959165  0.452632  1
  Si  Si13  1  0.836720  0.541059  0.046564  1
  Si  Si14  1  0.663335  0.040717  0.953455  1
  Si  Si15  1  0.162990  0.459300  0.546653  1
  Si  Si16  1  0.533831  0.372209  0.749120  1
  Si  Si17  1  0.034087  0.128058  0.750734  1
  Si  Si18  1  0.466604  0.628554  0.249961  1
  Si  Si19  1  0.965329  0.871513  0.250702  1
  Si  Si20  1  0.801648  0.636405  0.750525  1
  Si  Si21  1  0.301631  0.863819  0.749574  1
  Si  Si22  1  0.198611  0.363787  0.250199  1
  Si  Si23  1  0.698038  0.135674  0.249762  1
  Mo  Mo24  1  0.669679  0.835940  0.374782  1
  Mo  Mo25  1  0.171288  0.662691  0.375474  1
  Mo  Mo26  1  0.669855  0.836758  0.124963  1
  Mo  Mo27  1  0.828616  0.337733  0.875756  1
  Mo  Mo28  1  0.328779  0.162731  0.623881  1
  W  W29  1  0.830673  0.336033  0.625738  1
  W  W30  1  0.331159  0.164142  0.873963  1
  W  W31  1  0.169407  0.663391  0.125521  1
  W  W32  1  0.666164  0.997808  0.750359  1
  W  W33  1  0.165957  0.502357  0.750170  1
  W  W34  1  0.333146  0.002941  0.249075  1
  W  W35  1  0.834387  0.497483  0.249708  1
