# generated using pymatgen
data_CeCuP2Ir
_symmetry_space_group_name_H-M   'P 1'
_cell_length_a   4.21589300
_cell_length_b   4.21589300
_cell_length_c   9.36677300
_cell_angle_alpha   90.00000000
_cell_angle_beta   90.00000000
_cell_angle_gamma   90.00000000
_symmetry_Int_Tables_number   1
_chemical_formula_structural   CeCuP2Ir
_chemical_formula_sum   'Ce2 Cu2 P4 Ir2'
_cell_volume   166.48271708
_cell_formula_units_Z   2
loop_
 _symmetry_equiv_pos_site_id
 _symmetry_equiv_pos_as_xyz
  1  'x, y, z'
loop_
 _atom_site_type_symbol
 _atom_site_label
 _atom_site_symmetry_multiplicity
 _atom_site_fract_x
 _atom_site_fract_y
 _atom_site_fract_z
 _atom_site_occupancy
  Ce  Ce0  1  0.000000  0.500000  0.245194  1
  Ce  Ce1  1  0.500000  0.000000  0.754806  1
  Cu  Cu2  1  0.000000  0.000000  0.500000  1
  Cu  Cu3  1  0.500000  0.500000  0.500000  1
  P  P4  1  0.000000  0.000000  0.000000  1
  P  P5  1  0.500000  0.500000  0.000000  1
  P  P6  1  0.000000  0.500000  0.633215  1
  P  P7  1  0.500000  0.000000  0.366785  1
  Ir  Ir8  1  0.000000  0.500000  0.888328  1
  Ir  Ir9  1  0.500000  0.000000  0.111672  1
