# generated using pymatgen
data_Cs6Fe2O7
_symmetry_space_group_name_H-M   'P 1'
_cell_length_a   9.87882500
_cell_length_b   7.41880909
_cell_length_c   12.40021008
_cell_angle_alpha   54.51578450
_cell_angle_beta   90.00000000
_cell_angle_gamma   90.00000000
_symmetry_Int_Tables_number   1
_chemical_formula_structural   Cs6Fe2O7
_chemical_formula_sum   'Cs12 Fe4 O14'
_cell_volume   740.01390502
_cell_formula_units_Z   2
loop_
 _symmetry_equiv_pos_site_id
 _symmetry_equiv_pos_as_xyz
  1  'x, y, z'
loop_
 _atom_site_type_symbol
 _atom_site_label
 _atom_site_symmetry_multiplicity
 _atom_site_fract_x
 _atom_site_fract_y
 _atom_site_fract_z
 _atom_site_occupancy
  Cs  Cs0  1  0.791490  0.590627  0.284264  1
  Cs  Cs1  1  0.643197  0.943247  0.923835  1
  Cs  Cs2  1  0.525795  0.198694  0.557044  1
  Cs  Cs3  1  0.025795  0.801306  0.942956  1
  Cs  Cs4  1  0.291490  0.409373  0.215736  1
  Cs  Cs5  1  0.143197  0.056753  0.576165  1
  Cs  Cs6  1  0.856803  0.943247  0.423835  1
  Cs  Cs7  1  0.708510  0.590627  0.784264  1
  Cs  Cs8  1  0.974205  0.198694  0.057044  1
  Cs  Cs9  1  0.474205  0.801306  0.442956  1
  Cs  Cs10  1  0.356803  0.056753  0.076165  1
  Cs  Cs11  1  0.208510  0.409373  0.715736  1
  Fe  Fe12  1  0.863128  0.322713  0.633628  1
  Fe  Fe13  1  0.363128  0.677287  0.866372  1
  Fe  Fe14  1  0.636872  0.322713  0.133628  1
  Fe  Fe15  1  0.136872  0.677287  0.366372  1
  O  O16  1  0.000000  0.500000  0.500000  1
  O  O17  1  0.100052  0.747051  0.203582  1
  O  O18  1  0.283591  0.495283  0.425470  1
  O  O19  1  0.353387  0.941526  0.844869  1
  O  O20  1  0.853387  0.058474  0.655131  1
  O  O21  1  0.783591  0.504717  0.074530  1
  O  O22  1  0.600052  0.252949  0.296418  1
  O  O23  1  0.500000  0.500000  0.000000  1
  O  O24  1  0.399948  0.747051  0.703582  1
  O  O25  1  0.216409  0.495283  0.925470  1
  O  O26  1  0.146613  0.941526  0.344869  1
  O  O27  1  0.646613  0.058474  0.155131  1
  O  O28  1  0.716409  0.504717  0.574530  1
  O  O29  1  0.899948  0.252949  0.796418  1
