# generated using pymatgen
data_Lu6HfNi17P12
_symmetry_space_group_name_H-M   'P 1'
_cell_length_a   3.73130500
_cell_length_b   10.54128700
_cell_length_c   12.26389000
_cell_angle_alpha   90.00000000
_cell_angle_beta   90.00000000
_cell_angle_gamma   90.00000000
_symmetry_Int_Tables_number   1
_chemical_formula_structural   Lu6HfNi17P12
_chemical_formula_sum   'Lu6 Hf1 Ni17 P12'
_cell_volume   482.37260389
_cell_formula_units_Z   1
loop_
 _symmetry_equiv_pos_site_id
 _symmetry_equiv_pos_as_xyz
  1  'x, y, z'
loop_
 _atom_site_type_symbol
 _atom_site_label
 _atom_site_symmetry_multiplicity
 _atom_site_fract_x
 _atom_site_fract_y
 _atom_site_fract_z
 _atom_site_occupancy
  Lu  Lu0  1  0.000000  0.500000  0.529921  1
  Lu  Lu1  1  0.500000  0.000000  0.478212  1
  Lu  Lu2  1  0.500000  0.822397  0.207700  1
  Lu  Lu3  1  0.500000  0.177603  0.207700  1
  Lu  Lu4  1  0.000000  0.682223  0.795318  1
  Lu  Lu5  1  0.000000  0.317777  0.795318  1
  Hf  Hf6  1  0.500000  0.500000  0.154178  1
  Ni  Ni7  1  0.000000  0.000000  0.835332  1
  Ni  Ni8  1  0.500000  0.500000  0.701502  1
  Ni  Ni9  1  0.000000  0.000000  0.300011  1
  Ni  Ni10  1  0.000000  0.500000  0.981219  1
  Ni  Ni11  1  0.500000  0.000000  0.016349  1
  Ni  Ni12  1  0.500000  0.325342  0.987950  1
  Ni  Ni13  1  0.500000  0.674658  0.987950  1
  Ni  Ni14  1  0.000000  0.159482  0.001596  1
  Ni  Ni15  1  0.000000  0.840518  0.001596  1
  Ni  Ni16  1  0.500000  0.299399  0.432930  1
  Ni  Ni17  1  0.500000  0.700601  0.432930  1
  Ni  Ni18  1  0.000000  0.198237  0.569984  1
  Ni  Ni19  1  0.000000  0.801763  0.569984  1
  Ni  Ni20  1  0.500000  0.877262  0.709020  1
  Ni  Ni21  1  0.500000  0.122738  0.709020  1
  Ni  Ni22  1  0.000000  0.623493  0.293900  1
  Ni  Ni23  1  0.000000  0.376507  0.293900  1
  P  P24  1  0.500000  0.500000  0.878495  1
  P  P25  1  0.000000  0.000000  0.123738  1
  P  P26  1  0.500000  0.500000  0.362082  1
  P  P27  1  0.000000  0.000000  0.650337  1
  P  P28  1  0.500000  0.314112  0.618093  1
  P  P29  1  0.500000  0.685888  0.618093  1
  P  P30  1  0.000000  0.183435  0.386237  1
  P  P31  1  0.000000  0.816565  0.386237  1
  P  P32  1  0.500000  0.850813  0.887631  1
  P  P33  1  0.500000  0.149187  0.887631  1
  P  P34  1  0.000000  0.665124  0.103951  1
  P  P35  1  0.000000  0.334876  0.103951  1
