# generated using pymatgen
data_Nd5YIrBr10
_symmetry_space_group_name_H-M   'P 1'
_cell_length_a   7.59812515
_cell_length_b   9.47055393
_cell_length_c   9.61138030
_cell_angle_alpha   108.49142622
_cell_angle_beta   96.71674907
_cell_angle_gamma   105.43713079
_symmetry_Int_Tables_number   1
_chemical_formula_structural   Nd5YIrBr10
_chemical_formula_sum   'Nd5 Y1 Ir1 Br10'
_cell_volume   616.71701041
_cell_formula_units_Z   1
loop_
 _symmetry_equiv_pos_site_id
 _symmetry_equiv_pos_as_xyz
  1  'x, y, z'
loop_
 _atom_site_type_symbol
 _atom_site_label
 _atom_site_symmetry_multiplicity
 _atom_site_fract_x
 _atom_site_fract_y
 _atom_site_fract_z
 _atom_site_occupancy
  Nd  Nd0  1  0.466905  0.795154  0.590796  1
  Nd  Nd1  1  0.528919  0.203234  0.406341  1
  Nd  Nd2  1  0.368892  0.450492  0.749162  1
  Nd  Nd3  1  0.625080  0.546170  0.248583  1
  Nd  Nd4  1  0.868730  0.640410  0.684051  1
  Y  Y5  1  0.138789  0.364496  0.321473  1
  Ir  Ir6  1  0.499165  0.499477  0.500142  1
  Br  Br7  1  0.413741  0.130877  0.671236  1
  Br  Br8  1  0.585838  0.868134  0.327328  1
  Br  Br9  1  0.047852  0.670330  0.413545  1
  Br  Br10  1  0.953817  0.320890  0.576093  1
  Br  Br11  1  0.292008  0.758462  0.849005  1
  Br  Br12  1  0.726231  0.246533  0.158851  1
  Br  Br13  1  0.240720  0.411905  0.051047  1
  Br  Br14  1  0.750295  0.583647  0.953469  1
  Br  Br15  1  0.850605  0.956058  0.770659  1
  Br  Br16  1  0.142413  0.053729  0.228216  1
