# generated using pymatgen
data_Y6MgP12Rh17
_symmetry_space_group_name_H-M   'P 1'
_cell_length_a   3.93284000
_cell_length_b   11.24551200
_cell_length_c   12.81534800
_cell_angle_alpha   90.00000000
_cell_angle_beta   90.00000000
_cell_angle_gamma   90.00000000
_symmetry_Int_Tables_number   1
_chemical_formula_structural   Y6MgP12Rh17
_chemical_formula_sum   'Y6 Mg1 P12 Rh17'
_cell_volume   566.78182542
_cell_formula_units_Z   1
loop_
 _symmetry_equiv_pos_site_id
 _symmetry_equiv_pos_as_xyz
  1  'x, y, z'
loop_
 _atom_site_type_symbol
 _atom_site_label
 _atom_site_symmetry_multiplicity
 _atom_site_fract_x
 _atom_site_fract_y
 _atom_site_fract_z
 _atom_site_occupancy
  Y  Y0  1  0.000000  0.500000  0.519645  1
  Y  Y1  1  0.500000  0.000000  0.478792  1
  Y  Y2  1  0.500000  0.817644  0.205550  1
  Y  Y3  1  0.500000  0.182356  0.205550  1
  Y  Y4  1  0.000000  0.683091  0.795785  1
  Y  Y5  1  0.000000  0.316909  0.795785  1
  Mg  Mg6  1  0.500000  0.500000  0.157796  1
  P  P7  1  0.500000  0.500000  0.879569  1
  P  P8  1  0.000000  0.000000  0.120652  1
  P  P9  1  0.500000  0.500000  0.355441  1
  P  P10  1  0.000000  0.000000  0.647507  1
  P  P11  1  0.500000  0.314994  0.618699  1
  P  P12  1  0.500000  0.685006  0.618699  1
  P  P13  1  0.000000  0.186232  0.382822  1
  P  P14  1  0.000000  0.813768  0.382822  1
  P  P15  1  0.500000  0.848475  0.890546  1
  P  P16  1  0.500000  0.151525  0.890546  1
  P  P17  1  0.000000  0.661712  0.107036  1
  P  P18  1  0.000000  0.338288  0.107036  1
  Rh  Rh19  1  0.000000  0.000000  0.828066  1
  Rh  Rh20  1  0.500000  0.500000  0.702020  1
  Rh  Rh21  1  0.000000  0.000000  0.298594  1
  Rh  Rh22  1  0.000000  0.500000  0.984125  1
  Rh  Rh23  1  0.500000  0.000000  0.020183  1
  Rh  Rh24  1  0.500000  0.331429  0.993780  1
  Rh  Rh25  1  0.500000  0.668571  0.993780  1
  Rh  Rh26  1  0.000000  0.164187  0.003792  1
  Rh  Rh27  1  0.000000  0.835813  0.003792  1
  Rh  Rh28  1  0.500000  0.289539  0.433634  1
  Rh  Rh29  1  0.500000  0.710461  0.433634  1
  Rh  Rh30  1  0.000000  0.203903  0.571483  1
  Rh  Rh31  1  0.000000  0.796097  0.571483  1
  Rh  Rh32  1  0.500000  0.873985  0.710580  1
  Rh  Rh33  1  0.500000  0.126015  0.710580  1
  Rh  Rh34  1  0.000000  0.626701  0.290098  1
  Rh  Rh35  1  0.000000  0.373299  0.290098  1
