# generated using pymatgen
data_NpScB6Ir
_symmetry_space_group_name_H-M   'P 1'
_cell_length_a   3.51572000
_cell_length_b   9.07722200
_cell_length_c   11.46664400
_cell_angle_alpha   90.00000000
_cell_angle_beta   90.00000000
_cell_angle_gamma   90.00000000
_symmetry_Int_Tables_number   1
_chemical_formula_structural   NpScB6Ir
_chemical_formula_sum   'Np4 Sc4 B24 Ir4'
_cell_volume   365.93467663
_cell_formula_units_Z   4
loop_
 _symmetry_equiv_pos_site_id
 _symmetry_equiv_pos_as_xyz
  1  'x, y, z'
loop_
 _atom_site_type_symbol
 _atom_site_label
 _atom_site_symmetry_multiplicity
 _atom_site_fract_x
 _atom_site_fract_y
 _atom_site_fract_z
 _atom_site_occupancy
  Np  Np0  1  0.500000  0.322300  0.414093  1
  Np  Np1  1  0.500000  0.677700  0.585907  1
  Np  Np2  1  0.500000  0.177700  0.914093  1
  Np  Np3  1  0.500000  0.822300  0.085907  1
  Sc  Sc4  1  0.500000  0.445311  0.124754  1
  Sc  Sc5  1  0.500000  0.554689  0.875246  1
  Sc  Sc6  1  0.500000  0.054689  0.624754  1
  Sc  Sc7  1  0.500000  0.945311  0.375246  1
  B  B8  1  0.000000  0.100474  0.472993  1
  B  B9  1  0.000000  0.899526  0.527007  1
  B  B10  1  0.000000  0.399526  0.972993  1
  B  B11  1  0.000000  0.600474  0.027007  1
  B  B12  1  0.000000  0.131170  0.319926  1
  B  B13  1  0.000000  0.868830  0.680074  1
  B  B14  1  0.000000  0.368830  0.819926  1
  B  B15  1  0.000000  0.631170  0.180074  1
  B  B16  1  0.000000  0.053764  0.065769  1
  B  B17  1  0.000000  0.946236  0.934231  1
  B  B18  1  0.000000  0.446236  0.565769  1
  B  B19  1  0.000000  0.553764  0.434231  1
  B  B20  1  0.000000  0.480752  0.284610  1
  B  B21  1  0.000000  0.519248  0.715390  1
  B  B22  1  0.000000  0.019248  0.784610  1
  B  B23  1  0.000000  0.980752  0.215390  1
  B  B24  1  0.000000  0.254177  0.079339  1
  B  B25  1  0.000000  0.745823  0.920661  1
  B  B26  1  0.000000  0.245823  0.579339  1
  B  B27  1  0.000000  0.754177  0.420661  1
  B  B28  1  0.000000  0.296476  0.235603  1
  B  B29  1  0.000000  0.703524  0.764397  1
  B  B30  1  0.000000  0.203524  0.735603  1
  B  B31  1  0.000000  0.796476  0.264397  1
  Ir  Ir32  1  0.500000  0.141253  0.182159  1
  Ir  Ir33  1  0.500000  0.858747  0.817841  1
  Ir  Ir34  1  0.500000  0.358747  0.682159  1
  Ir  Ir35  1  0.500000  0.641253  0.317841  1
