# generated using pymatgen
data_Ce2Mn16SiC2
_symmetry_space_group_name_H-M   'P 1'
_cell_length_a   6.42092383
_cell_length_b   6.46245615
_cell_length_c   6.42092369
_cell_angle_alpha   83.45054999
_cell_angle_beta   84.18720369
_cell_angle_gamma   83.45054210
_symmetry_Int_Tables_number   1
_chemical_formula_structural   Ce2Mn16SiC2
_chemical_formula_sum   'Ce2 Mn16 Si1 C2'
_cell_volume   261.91580278
_cell_formula_units_Z   1
loop_
 _symmetry_equiv_pos_site_id
 _symmetry_equiv_pos_as_xyz
  1  'x, y, z'
loop_
 _atom_site_type_symbol
 _atom_site_label
 _atom_site_symmetry_multiplicity
 _atom_site_fract_x
 _atom_site_fract_y
 _atom_site_fract_z
 _atom_site_occupancy
  Ce  Ce0  1  0.646182  0.656014  0.646182  1
  Ce  Ce1  1  0.353818  0.343986  0.353818  1
  Mn  Mn2  1  0.902633  0.906123  0.902633  1
  Mn  Mn3  1  0.097367  0.093877  0.097367  1
  Mn  Mn4  1  0.727593  0.000000  0.272407  1
  Mn  Mn5  1  0.990523  0.277253  0.721956  1
  Mn  Mn6  1  0.278044  0.722747  0.009477  1
  Mn  Mn7  1  0.009477  0.722747  0.278044  1
  Mn  Mn8  1  0.721956  0.277253  0.990523  1
  Mn  Mn9  1  0.272407  0.000000  0.727593  1
  Mn  Mn10  1  0.340639  0.340821  0.861580  1
  Mn  Mn11  1  0.351550  0.867162  0.351550  1
  Mn  Mn12  1  0.861580  0.340821  0.340639  1
  Mn  Mn13  1  0.659361  0.659179  0.138420  1
  Mn  Mn14  1  0.648450  0.132838  0.648450  1
  Mn  Mn15  1  0.138420  0.659179  0.659361  1
  Mn  Mn16  1  0.500000  0.000000  0.000000  1
  Mn  Mn17  1  0.000000  0.000000  0.500000  1
  Si  Si18  1  0.000000  0.500000  0.000000  1
  C  C19  1  0.000000  0.500000  0.500000  1
  C  C20  1  0.500000  0.500000  0.000000  1
