# generated using pymatgen
data_SrH6OsPb
_symmetry_space_group_name_H-M   'P 1'
_cell_length_a   5.40066877
_cell_length_b   5.40066866
_cell_length_c   5.40066900
_cell_angle_alpha   59.99999180
_cell_angle_beta   59.99999248
_cell_angle_gamma   59.99999077
_symmetry_Int_Tables_number   1
_chemical_formula_structural   SrH6OsPb
_chemical_formula_sum   'Sr1 H6 Os1 Pb1'
_cell_volume   111.38521746
_cell_formula_units_Z   1
loop_
 _symmetry_equiv_pos_site_id
 _symmetry_equiv_pos_as_xyz
  1  'x, y, z'
loop_
 _atom_site_type_symbol
 _atom_site_label
 _atom_site_symmetry_multiplicity
 _atom_site_fract_x
 _atom_site_fract_y
 _atom_site_fract_z
 _atom_site_occupancy
  Sr  Sr0  1  0.250000  0.250000  0.250000  1
  H  H1  1  0.773743  0.773743  0.226257  1
  H  H2  1  0.226257  0.773743  0.226257  1
  H  H3  1  0.773743  0.226257  0.226257  1
  H  H4  1  0.226257  0.226257  0.773743  1
  H  H5  1  0.773743  0.226257  0.773743  1
  H  H6  1  0.226257  0.773743  0.773743  1
  Os  Os7  1  0.000000  0.000000  0.000000  1
  Pb  Pb8  1  0.750000  0.750000  0.750000  1
