# generated using pymatgen
data_Ho20Ir5Pd3Ru4
_symmetry_space_group_name_H-M   'P 1'
_cell_length_a   10.83058737
_cell_length_b   10.83058737
_cell_length_c   6.42569702
_cell_angle_alpha   89.99416865
_cell_angle_beta   89.99416865
_cell_angle_gamma   90.17999308
_symmetry_Int_Tables_number   1
_chemical_formula_structural   Ho20Ir5Pd3Ru4
_chemical_formula_sum   'Ho20 Ir5 Pd3 Ru4'
_cell_volume   753.74096108
_cell_formula_units_Z   1
loop_
 _symmetry_equiv_pos_site_id
 _symmetry_equiv_pos_as_xyz
  1  'x, y, z'
loop_
 _atom_site_type_symbol
 _atom_site_label
 _atom_site_symmetry_multiplicity
 _atom_site_fract_x
 _atom_site_fract_y
 _atom_site_fract_z
 _atom_site_occupancy
  Ho  Ho0  1  0.296449  0.084791  0.370712  1
  Ho  Ho1  1  0.295136  0.908911  0.879160  1
  Ho  Ho2  1  0.702268  0.089305  0.873347  1
  Ho  Ho3  1  0.700985  0.910322  0.372491  1
  Ho  Ho4  1  0.582410  0.792360  0.879027  1
  Ho  Ho5  1  0.582183  0.207639  0.378932  1
  Ho  Ho6  1  0.412187  0.792699  0.378937  1
  Ho  Ho7  1  0.416949  0.207325  0.879024  1
  Ho  Ho8  1  0.207640  0.417590  0.620973  1
  Ho  Ho9  1  0.207301  0.587813  0.121063  1
  Ho  Ho10  1  0.792361  0.417817  0.121068  1
  Ho  Ho11  1  0.792675  0.583051  0.620976  1
  Ho  Ho12  1  0.915209  0.703551  0.129288  1
  Ho  Ho13  1  0.910695  0.297732  0.626653  1
  Ho  Ho14  1  0.091089  0.704864  0.620840  1
  Ho  Ho15  1  0.089678  0.299015  0.127509  1
  Ho  Ho16  1  0.001897  0.997602  0.498733  1
  Ho  Ho17  1  0.002398  0.998103  0.001267  1
  Ho  Ho18  1  0.499741  0.499871  0.000534  1
  Ho  Ho19  1  0.500129  0.500259  0.499466  1
  Ir  Ir20  1  0.150482  0.849518  0.250000  1
  Ir  Ir21  1  0.653633  0.346367  0.750000  1
  Ir  Ir22  1  0.653988  0.653690  0.249772  1
  Ir  Ir23  1  0.346310  0.346012  0.250228  1
  Ir  Ir24  1  0.347460  0.652540  0.750000  1
  Pd  Pd25  1  0.847797  0.152203  0.250000  1
  Pd  Pd26  1  0.846388  0.847079  0.749929  1
  Pd  Pd27  1  0.152921  0.153612  0.750071  1
  Ru  Ru28  1  0.501100  0.000271  0.123283  1
  Ru  Ru29  1  0.501009  0.000195  0.624607  1
  Ru  Ru30  1  0.999805  0.498991  0.875393  1
  Ru  Ru31  1  0.999729  0.498900  0.376717  1
