# generated using pymatgen
data_Ho2Er4ReB14Ru
_symmetry_space_group_name_H-M   'P 1'
_cell_length_a   8.01174503
_cell_length_b   8.01174467
_cell_length_c   9.29780100
_cell_angle_alpha   90.00000000
_cell_angle_beta   90.00000000
_cell_angle_gamma   154.65473569
_symmetry_Int_Tables_number   1
_chemical_formula_structural   Ho2Er4ReB14Ru
_chemical_formula_sum   'Ho2 Er4 Re1 B14 Ru1'
_cell_volume   255.47667385
_cell_formula_units_Z   1
loop_
 _symmetry_equiv_pos_site_id
 _symmetry_equiv_pos_as_xyz
  1  'x, y, z'
loop_
 _atom_site_type_symbol
 _atom_site_label
 _atom_site_symmetry_multiplicity
 _atom_site_fract_x
 _atom_site_fract_y
 _atom_site_fract_z
 _atom_site_occupancy
  Ho  Ho0  1  0.243621  0.756379  0.250000  1
  Ho  Ho1  1  0.756451  0.243549  0.750000  1
  Er  Er2  1  0.894378  0.105622  0.440123  1
  Er  Er3  1  0.105740  0.894260  0.560673  1
  Er  Er4  1  0.894378  0.105622  0.059877  1
  Er  Er5  1  0.105740  0.894260  0.939327  1
  Re  Re6  1  0.947534  0.052466  0.750000  1
  B  B7  1  0.727018  0.272982  0.465428  1
  B  B8  1  0.272327  0.727673  0.533320  1
  B  B9  1  0.727018  0.272982  0.034572  1
  B  B10  1  0.272327  0.727673  0.966680  1
  B  B11  1  0.631640  0.368360  0.151087  1
  B  B12  1  0.367582  0.632418  0.849503  1
  B  B13  1  0.631640  0.368360  0.348913  1
  B  B14  1  0.367582  0.632418  0.650497  1
  B  B15  1  0.520233  0.479767  0.095834  1
  B  B16  1  0.479961  0.520039  0.905247  1
  B  B17  1  0.520233  0.479767  0.404166  1
  B  B18  1  0.479961  0.520039  0.594753  1
  B  B19  1  0.455799  0.544201  0.250000  1
  B  B20  1  0.545231  0.454769  0.750000  1
  Ru  Ru21  1  0.053609  0.946391  0.250000  1
