# generated using pymatgen
data_Tb3Lu2Sn3P
_symmetry_space_group_name_H-M   'P 1'
_cell_length_a   9.04400800
_cell_length_b   9.04400778
_cell_length_c   6.61552100
_cell_angle_alpha   90.00000000
_cell_angle_beta   90.00000000
_cell_angle_gamma   119.99999350
_symmetry_Int_Tables_number   1
_chemical_formula_structural   Tb3Lu2Sn3P
_chemical_formula_sum   'Tb6 Lu4 Sn6 P2'
_cell_volume   468.61542252
_cell_formula_units_Z   2
loop_
 _symmetry_equiv_pos_site_id
 _symmetry_equiv_pos_as_xyz
  1  'x, y, z'
loop_
 _atom_site_type_symbol
 _atom_site_label
 _atom_site_symmetry_multiplicity
 _atom_site_fract_x
 _atom_site_fract_y
 _atom_site_fract_z
 _atom_site_occupancy
  Tb  Tb0  1  0.756837  0.756837  0.750000  1
  Tb  Tb1  1  0.243163  0.000000  0.750000  1
  Tb  Tb2  1  0.000000  0.243163  0.750000  1
  Tb  Tb3  1  0.243163  0.243163  0.250000  1
  Tb  Tb4  1  0.756837  0.000000  0.250000  1
  Tb  Tb5  1  0.000000  0.756837  0.250000  1
  Lu  Lu6  1  0.666667  0.333333  0.000000  1
  Lu  Lu7  1  0.333333  0.666667  0.000000  1
  Lu  Lu8  1  0.333333  0.666667  0.500000  1
  Lu  Lu9  1  0.666667  0.333333  0.500000  1
  Sn  Sn10  1  0.400117  0.400117  0.750000  1
  Sn  Sn11  1  0.599883  0.000000  0.750000  1
  Sn  Sn12  1  0.000000  0.599883  0.750000  1
  Sn  Sn13  1  0.599883  0.599883  0.250000  1
  Sn  Sn14  1  0.400117  0.000000  0.250000  1
  Sn  Sn15  1  0.000000  0.400117  0.250000  1
  P  P16  1  0.000000  0.000000  0.000000  1
  P  P17  1  0.000000  0.000000  0.500000  1
