# generated using pymatgen
data_Sr4Ca3Y(Si3Pd)4
_symmetry_space_group_name_H-M   'P 1'
_cell_length_a   8.33332600
_cell_length_b   8.33332685
_cell_length_c   8.69879300
_cell_angle_alpha   90.00000000
_cell_angle_beta   90.00000000
_cell_angle_gamma   119.99999661
_symmetry_Int_Tables_number   1
_chemical_formula_structural   Sr4Ca3Y(Si3Pd)4
_chemical_formula_sum   'Sr4 Ca3 Y1 Si12 Pd4'
_cell_volume   523.15024241
_cell_formula_units_Z   1
loop_
 _symmetry_equiv_pos_site_id
 _symmetry_equiv_pos_as_xyz
  1  'x, y, z'
loop_
 _atom_site_type_symbol
 _atom_site_label
 _atom_site_symmetry_multiplicity
 _atom_site_fract_x
 _atom_site_fract_y
 _atom_site_fract_z
 _atom_site_occupancy
  Sr  Sr0  1  0.500232  0.000464  0.250000  1
  Sr  Sr1  1  0.999536  0.499768  0.250000  1
  Sr  Sr2  1  0.500232  0.499768  0.250000  1
  Sr  Sr3  1  0.000000  0.000000  0.250000  1
  Ca  Ca4  1  0.499622  0.999245  0.750000  1
  Ca  Ca5  1  0.000755  0.500378  0.750000  1
  Ca  Ca6  1  0.499622  0.500378  0.750000  1
  Y  Y7  1  0.000000  0.000000  0.750000  1
  Si  Si8  1  0.164544  0.329088  0.985075  1
  Si  Si9  1  0.835416  0.670833  0.984805  1
  Si  Si10  1  0.670912  0.835456  0.985075  1
  Si  Si11  1  0.835416  0.670833  0.515195  1
  Si  Si12  1  0.329167  0.164584  0.984805  1
  Si  Si13  1  0.164544  0.329088  0.514925  1
  Si  Si14  1  0.164544  0.835456  0.985075  1
  Si  Si15  1  0.329167  0.164584  0.515195  1
  Si  Si16  1  0.835416  0.164584  0.984805  1
  Si  Si17  1  0.670912  0.835456  0.514925  1
  Si  Si18  1  0.835416  0.164584  0.515195  1
  Si  Si19  1  0.164544  0.835456  0.514925  1
  Pd  Pd20  1  0.333333  0.666667  0.984041  1
  Pd  Pd21  1  0.666667  0.333333  0.982625  1
  Pd  Pd22  1  0.666667  0.333333  0.517375  1
  Pd  Pd23  1  0.333333  0.666667  0.515959  1
