# generated using pymatgen
data_Th2CdIrPd
_symmetry_space_group_name_H-M   'P 1'
_cell_length_a   7.90928700
_cell_length_b   7.94855500
_cell_length_c   3.79446000
_cell_angle_alpha   90.00000000
_cell_angle_beta   90.00000000
_cell_angle_gamma   90.00000000
_symmetry_Int_Tables_number   1
_chemical_formula_structural   Th2CdIrPd
_chemical_formula_sum   'Th4 Cd2 Ir2 Pd2'
_cell_volume   238.54784496
_cell_formula_units_Z   2
loop_
 _symmetry_equiv_pos_site_id
 _symmetry_equiv_pos_as_xyz
  1  'x, y, z'
loop_
 _atom_site_type_symbol
 _atom_site_label
 _atom_site_symmetry_multiplicity
 _atom_site_fract_x
 _atom_site_fract_y
 _atom_site_fract_z
 _atom_site_occupancy
  Th  Th0  1  0.327420  0.845418  0.500000  1
  Th  Th1  1  0.827420  0.654582  0.500000  1
  Th  Th2  1  0.170356  0.317050  0.500000  1
  Th  Th3  1  0.670356  0.182950  0.500000  1
  Cd  Cd4  1  0.993132  0.994362  0.000000  1
  Cd  Cd5  1  0.493132  0.505638  0.000000  1
  Ir  Ir6  1  0.372727  0.127012  0.000000  1
  Ir  Ir7  1  0.872727  0.372988  0.000000  1
  Pd  Pd8  1  0.136365  0.634600  0.000000  1
  Pd  Pd9  1  0.636365  0.865400  0.000000  1
