# generated using pymatgen
data_AcNd4Bi3O14
_symmetry_space_group_name_H-M   'P 1'
_cell_length_a   6.76828074
_cell_length_b   6.83681813
_cell_length_c   7.98013500
_cell_angle_alpha   106.72279723
_cell_angle_beta   89.66492311
_cell_angle_gamma   97.96489375
_symmetry_Int_Tables_number   1
_chemical_formula_structural   AcNd4Bi3O14
_chemical_formula_sum   'Ac1 Nd4 Bi3 O14'
_cell_volume   350.01469109
_cell_formula_units_Z   1
loop_
 _symmetry_equiv_pos_site_id
 _symmetry_equiv_pos_as_xyz
  1  'x, y, z'
loop_
 _atom_site_type_symbol
 _atom_site_label
 _atom_site_symmetry_multiplicity
 _atom_site_fract_x
 _atom_site_fract_y
 _atom_site_fract_z
 _atom_site_occupancy
  Ac  Ac0  1  0.761189  0.491009  0.619663  1
  Nd  Nd1  1  0.456557  0.008016  0.254232  1
  Nd  Nd2  1  0.535063  0.001599  0.750528  1
  Nd  Nd3  1  0.268105  0.531690  0.885049  1
  Nd  Nd4  1  0.742600  0.460927  0.114167  1
  Bi  Bi5  1  0.995135  0.997785  0.498619  1
  Bi  Bi6  1  0.998797  0.997420  0.998878  1
  Bi  Bi7  1  0.288621  0.538456  0.387088  1
  O  O8  1  0.444489  0.649155  0.172357  1
  O  O9  1  0.555113  0.357885  0.843218  1
  O  O10  1  0.295406  0.922291  0.954100  1
  O  O11  1  0.702923  0.071535  0.048807  1
  O  O12  1  0.291217  0.925284  0.511091  1
  O  O13  1  0.702799  0.077194  0.490316  1
  O  O14  1  0.543236  0.364610  0.338119  1
  O  O15  1  0.447415  0.640071  0.651852  1
  O  O16  1  0.927203  0.670540  0.951268  1
  O  O17  1  0.067367  0.316706  0.027833  1
  O  O18  1  0.081329  0.319323  0.627310  1
  O  O19  1  0.907305  0.675628  0.380040  1
  O  O20  1  0.882204  0.912671  0.728623  1
  O  O21  1  0.105926  0.070206  0.266842  1
