# generated using pymatgen
data_TbErAl3(Fe7C)2
_symmetry_space_group_name_H-M   'P 1'
_cell_length_a   6.45384447
_cell_length_b   6.45384332
_cell_length_c   6.46700228
_cell_angle_alpha   83.71226632
_cell_angle_beta   83.71226241
_cell_angle_gamma   84.03533029
_symmetry_Int_Tables_number   1
_chemical_formula_structural   TbErAl3(Fe7C)2
_chemical_formula_sum   'Tb1 Er1 Al3 Fe14 C2'
_cell_volume   264.97892423
_cell_formula_units_Z   1
loop_
 _symmetry_equiv_pos_site_id
 _symmetry_equiv_pos_as_xyz
  1  'x, y, z'
loop_
 _atom_site_type_symbol
 _atom_site_label
 _atom_site_symmetry_multiplicity
 _atom_site_fract_x
 _atom_site_fract_y
 _atom_site_fract_z
 _atom_site_occupancy
  Tb  Tb0  1  0.342263  0.342263  0.340000  1
  Er  Er1  1  0.657946  0.657946  0.658732  1
  Al  Al2  1  0.655235  0.655235  0.149063  1
  Al  Al3  1  0.344695  0.344695  0.851800  1
  Al  Al4  1  0.999634  0.999634  0.500036  1
  Fe  Fe5  1  0.655985  0.145699  0.663046  1
  Fe  Fe6  1  0.145699  0.655985  0.663046  1
  Fe  Fe7  1  0.344063  0.854727  0.337203  1
  Fe  Fe8  1  0.854727  0.344063  0.337203  1
  Fe  Fe9  1  0.096275  0.096275  0.092862  1
  Fe  Fe10  1  0.903629  0.903629  0.907354  1
  Fe  Fe11  1  0.999748  0.499928  0.999770  1
  Fe  Fe12  1  0.499928  0.999748  0.999770  1
  Fe  Fe13  1  0.716314  0.283739  0.999992  1
  Fe  Fe14  1  0.288204  0.995589  0.717146  1
  Fe  Fe15  1  0.004542  0.711605  0.282894  1
  Fe  Fe16  1  0.711605  0.004542  0.282894  1
  Fe  Fe17  1  0.995589  0.288204  0.717146  1
  Fe  Fe18  1  0.283739  0.716314  0.999992  1
  C  C19  1  0.499770  0.000411  0.500026  1
  C  C20  1  0.000411  0.499770  0.500026  1
