# generated using pymatgen
data_Mn5Ga6MoRu12
_symmetry_space_group_name_H-M   'P 1'
_cell_length_a   4.26777800
_cell_length_b   6.04246500
_cell_length_c   12.77544000
_cell_angle_alpha   90.00000295
_cell_angle_beta   89.99956919
_cell_angle_gamma   90.00002131
_symmetry_Int_Tables_number   1
_chemical_formula_structural   Mn5Ga6MoRu12
_chemical_formula_sum   'Mn5 Ga6 Mo1 Ru12'
_cell_volume   329.45175887
_cell_formula_units_Z   1
loop_
 _symmetry_equiv_pos_site_id
 _symmetry_equiv_pos_as_xyz
  1  'x, y, z'
loop_
 _atom_site_type_symbol
 _atom_site_label
 _atom_site_symmetry_multiplicity
 _atom_site_fract_x
 _atom_site_fract_y
 _atom_site_fract_z
 _atom_site_occupancy
  Mn  Mn0  1  0.499969  0.500001  0.169797  1
  Mn  Mn1  1  0.999968  0.000001  0.334897  1
  Mn  Mn2  1  0.499999  0.500000  0.499998  1
  Mn  Mn3  1  0.000025  0.999999  0.665087  1
  Mn  Mn4  1  0.500036  0.499999  0.830190  1
  Ga  Ga5  1  0.999999  0.499999  0.999970  1
  Ga  Ga6  1  0.499965  0.000000  0.168601  1
  Ga  Ga7  1  0.999958  0.500000  0.335798  1
  Ga  Ga8  1  0.499999  0.000002  0.499978  1
  Ga  Ga9  1  0.000036  0.500000  0.664267  1
  Ga  Ga10  1  0.500044  0.000001  0.831425  1
  Mo  Mo11  1  0.999998  0.999999  0.000003  1
  Ru  Ru12  1  0.500001  0.255121  0.999996  1
  Ru  Ru13  1  0.500001  0.744877  0.999996  1
  Ru  Ru14  1  0.999966  0.253284  0.168470  1
  Ru  Ru15  1  0.999966  0.746717  0.168470  1
  Ru  Ru16  1  0.499953  0.250520  0.333647  1
  Ru  Ru17  1  0.499956  0.749482  0.333650  1
  Ru  Ru18  1  0.999998  0.248527  0.500013  1
  Ru  Ru19  1  0.999998  0.751473  0.500014  1
  Ru  Ru20  1  0.500038  0.250475  0.666350  1
  Ru  Ru21  1  0.500037  0.749526  0.666350  1
  Ru  Ru22  1  0.000046  0.253205  0.831517  1
  Ru  Ru23  1  0.000045  0.746794  0.831517  1
