# generated using pymatgen
data_Dy2HoEr3(Si3Ru)8
_symmetry_space_group_name_H-M   'P 1'
_cell_length_a   10.10493748
_cell_length_b   10.10493775
_cell_length_c   8.13380412
_cell_angle_alpha   89.95083352
_cell_angle_beta   90.04916524
_cell_angle_gamma   132.58595005
_symmetry_Int_Tables_number   1
_chemical_formula_structural   Dy2HoEr3(Si3Ru)8
_chemical_formula_sum   'Dy2 Ho1 Er3 Si24 Ru8'
_cell_volume   611.49624727
_cell_formula_units_Z   1
loop_
 _symmetry_equiv_pos_site_id
 _symmetry_equiv_pos_as_xyz
  1  'x, y, z'
loop_
 _atom_site_type_symbol
 _atom_site_label
 _atom_site_symmetry_multiplicity
 _atom_site_fract_x
 _atom_site_fract_y
 _atom_site_fract_z
 _atom_site_occupancy
  Dy  Dy0  1  0.997206  0.497206  0.250000  1
  Dy  Dy1  1  0.497380  0.997380  0.250000  1
  Ho  Ho2  1  0.002639  0.502639  0.750000  1
  Er  Er3  1  0.500022  0.500013  0.500043  1
  Er  Er4  1  0.000013  0.000022  0.999957  1
  Er  Er5  1  0.502561  0.002561  0.750000  1
  Si  Si6  1  0.795090  0.205368  0.500481  1
  Si  Si7  1  0.294508  0.704836  0.999481  1
  Si  Si8  1  0.204836  0.794508  0.500519  1
  Si  Si9  1  0.705368  0.295090  0.999519  1
  Si  Si10  1  0.332358  0.332485  0.833247  1
  Si  Si11  1  0.667664  0.667521  0.166809  1
  Si  Si12  1  0.167521  0.167664  0.333191  1
  Si  Si13  1  0.832485  0.832358  0.666753  1
  Si  Si14  1  0.121948  0.887501  0.728658  1
  Si  Si15  1  0.111578  0.876881  0.271276  1
  Si  Si16  1  0.612878  0.378303  0.229012  1
  Si  Si17  1  0.622779  0.388256  0.771669  1
  Si  Si18  1  0.878303  0.112878  0.270988  1
  Si  Si19  1  0.888256  0.122779  0.728331  1
  Si  Si20  1  0.387501  0.621948  0.771342  1
  Si  Si21  1  0.376881  0.611578  0.228724  1
  Si  Si22  1  0.344935  0.111678  0.505275  1
  Si  Si23  1  0.887809  0.653886  0.494825  1
  Si  Si24  1  0.388320  0.155229  0.004641  1
  Si  Si25  1  0.846076  0.612132  0.994770  1
  Si  Si26  1  0.655229  0.888320  0.495359  1
  Si  Si27  1  0.112132  0.346076  0.505230  1
  Si  Si28  1  0.611678  0.844935  0.994725  1
  Si  Si29  1  0.153886  0.387809  0.005175  1
  Ru  Ru30  1  0.668080  0.329610  0.500861  1
  Ru  Ru31  1  0.170390  0.831951  0.999609  1
  Ru  Ru32  1  0.331951  0.670390  0.500391  1
  Ru  Ru33  1  0.829610  0.168080  0.999139  1
  Ru  Ru34  1  0.126618  0.126667  0.627510  1
  Ru  Ru35  1  0.873427  0.873413  0.372391  1
  Ru  Ru36  1  0.373413  0.373427  0.127609  1
  Ru  Ru37  1  0.626667  0.626618  0.872490  1
