# generated using pymatgen
data_Nd4TmGe5P7Ir19
_symmetry_space_group_name_H-M   'P 1'
_cell_length_a   12.97973826
_cell_length_b   13.00573594
_cell_length_c   4.02258200
_cell_angle_alpha   90.00000000
_cell_angle_beta   90.00000000
_cell_angle_gamma   120.27817021
_symmetry_Int_Tables_number   1
_chemical_formula_structural   Nd4TmGe5P7Ir19
_chemical_formula_sum   'Nd4 Tm1 Ge5 P7 Ir19'
_cell_volume   586.42466432
_cell_formula_units_Z   1
loop_
 _symmetry_equiv_pos_site_id
 _symmetry_equiv_pos_as_xyz
  1  'x, y, z'
loop_
 _atom_site_type_symbol
 _atom_site_label
 _atom_site_symmetry_multiplicity
 _atom_site_fract_x
 _atom_site_fract_y
 _atom_site_fract_z
 _atom_site_occupancy
  Nd  Nd0  1  0.333901  0.668766  0.500000  1
  Nd  Nd1  1  0.183136  0.184501  0.000000  1
  Nd  Nd2  1  0.817278  0.997198  0.000000  1
  Nd  Nd3  1  0.998701  0.817168  0.000000  1
  Tm  Tm4  1  0.667385  0.332010  0.500000  1
  Ge  Ge5  1  0.322642  0.842707  0.000000  1
  Ge  Ge6  1  0.160571  0.482694  0.000000  1
  Ge  Ge7  1  0.362662  0.361532  0.500000  1
  Ge  Ge8  1  0.639749  0.000470  0.500000  1
  Ge  Ge9  1  0.998230  0.637720  0.500000  1
  P  P10  1  0.520525  0.684616  0.000000  1
  P  P11  1  0.820582  0.303953  0.000000  1
  P  P12  1  0.485090  0.180224  0.000000  1
  P  P13  1  0.695986  0.512407  0.000000  1
  P  P14  1  0.819822  0.814910  0.500000  1
  P  P15  1  0.181538  0.005303  0.500000  1
  P  P16  1  0.997505  0.178630  0.500000  1
  Ir  Ir17  1  0.192357  0.830687  0.500000  1
  Ir  Ir18  1  0.174077  0.367197  0.500000  1
  Ir  Ir19  1  0.627595  0.796841  0.500000  1
  Ir  Ir20  1  0.821313  0.208246  0.500000  1
  Ir  Ir21  1  0.389406  0.180345  0.500000  1
  Ir  Ir22  1  0.790003  0.612206  0.500000  1
  Ir  Ir23  1  0.128433  0.651258  0.000000  1
  Ir  Ir24  1  0.360630  0.493755  0.000000  1
  Ir  Ir25  1  0.522251  0.867301  0.000000  1
  Ir  Ir26  1  0.630522  0.131528  0.000000  1
  Ir  Ir27  1  0.500696  0.368474  0.000000  1
  Ir  Ir28  1  0.868328  0.498089  0.000000  1
  Ir  Ir29  1  0.546486  0.553051  0.500000  1
  Ir  Ir30  1  0.445675  0.989203  0.500000  1
  Ir  Ir31  1  0.010706  0.455506  0.500000  1
  Ir  Ir32  1  0.713889  0.709165  0.000000  1
  Ir  Ir33  1  0.283159  0.010508  0.000000  1
  Ir  Ir34  1  0.991695  0.273606  0.000000  1
  Ir  Ir35  1  0.997475  0.998227  0.500000  1
