# generated using pymatgen
data_Pr3Np3Te8
_symmetry_space_group_name_H-M   'P 1'
_cell_length_a   8.22603322
_cell_length_b   8.21641616
_cell_length_c   8.22603381
_cell_angle_alpha   109.34649782
_cell_angle_beta   109.54093998
_cell_angle_gamma   109.57365579
_symmetry_Int_Tables_number   1
_chemical_formula_structural   Pr3Np3Te8
_chemical_formula_sum   'Pr3 Np3 Te8'
_cell_volume   427.74555707
_cell_formula_units_Z   1
loop_
 _symmetry_equiv_pos_site_id
 _symmetry_equiv_pos_as_xyz
  1  'x, y, z'
loop_
 _atom_site_type_symbol
 _atom_site_label
 _atom_site_symmetry_multiplicity
 _atom_site_fract_x
 _atom_site_fract_y
 _atom_site_fract_z
 _atom_site_occupancy
  Pr  Pr0  1  0.250192  0.124844  0.874999  1
  Pr  Pr1  1  0.750155  0.375156  0.625348  1
  Pr  Pr2  1  0.625303  0.750000  0.375303  1
  Np  Np3  1  0.874216  0.250000  0.124216  1
  Np  Np4  1  0.125785  0.875875  0.250097  1
  Np  Np5  1  0.374221  0.624125  0.749909  1
  Te  Te6  1  0.498364  0.998522  0.652034  1
  Te  Te7  1  0.151445  0.501395  0.002101  1
  Te  Te8  1  0.344233  0.346692  0.348870  1
  Te  Te9  1  0.002178  0.153308  0.497541  1
  Te  Te10  1  0.846963  0.849333  0.852063  1
  Te  Te11  1  0.002729  0.650667  0.497629  1
  Te  Te12  1  0.500705  0.998605  0.150049  1
  Te  Te13  1  0.653511  0.501478  0.999842  1
