# generated using pymatgen
data_K4BaAg6
_symmetry_space_group_name_H-M   'P 1'
_cell_length_a   16.49263460
_cell_length_b   16.49263467
_cell_length_c   4.90972200
_cell_angle_alpha   90.00000000
_cell_angle_beta   90.00000000
_cell_angle_gamma   162.96389128
_symmetry_Int_Tables_number   1
_chemical_formula_structural   K4BaAg6
_chemical_formula_sum   'K4 Ba1 Ag6'
_cell_volume   391.26098245
_cell_formula_units_Z   1
loop_
 _symmetry_equiv_pos_site_id
 _symmetry_equiv_pos_as_xyz
  1  'x, y, z'
loop_
 _atom_site_type_symbol
 _atom_site_label
 _atom_site_symmetry_multiplicity
 _atom_site_fract_x
 _atom_site_fract_y
 _atom_site_fract_z
 _atom_site_occupancy
  K  K0  1  0.618021  0.381977  0.000000  1
  K  K1  1  0.381977  0.618021  0.000000  1
  K  K2  1  0.803500  0.196498  0.500001  1
  K  K3  1  0.196498  0.803500  0.500001  1
  Ba  Ba4  1  0.000000  0.000000  0.000000  1
  Ag  Ag5  1  0.730906  0.269092  0.000000  1
  Ag  Ag6  1  0.269092  0.730906  0.000000  1
  Ag  Ag7  1  0.918661  0.081338  0.500001  1
  Ag  Ag8  1  0.543243  0.456755  0.500001  1
  Ag  Ag9  1  0.456755  0.543243  0.500001  1
  Ag  Ag10  1  0.081338  0.918661  0.500001  1
