# generated using pymatgen
data_DyHo4Co19(Si2P)4
_symmetry_space_group_name_H-M   'P 1'
_cell_length_a   12.10312206
_cell_length_b   12.09428695
_cell_length_c   3.69172400
_cell_angle_alpha   90.00000000
_cell_angle_beta   90.00000000
_cell_angle_gamma   120.02244040
_symmetry_Int_Tables_number   1
_chemical_formula_structural   DyHo4Co19(Si2P)4
_chemical_formula_sum   'Dy1 Ho4 Co19 Si8 P4'
_cell_volume   467.88517985
_cell_formula_units_Z   1
loop_
 _symmetry_equiv_pos_site_id
 _symmetry_equiv_pos_as_xyz
  1  'x, y, z'
loop_
 _atom_site_type_symbol
 _atom_site_label
 _atom_site_symmetry_multiplicity
 _atom_site_fract_x
 _atom_site_fract_y
 _atom_site_fract_z
 _atom_site_occupancy
  Dy  Dy0  1  0.332114  0.664840  0.000000  1
  Ho  Ho1  1  0.666018  0.333224  0.000000  1
  Ho  Ho2  1  0.185651  0.184652  0.500000  1
  Ho  Ho3  1  0.814868  0.000773  0.500000  1
  Ho  Ho4  1  0.999968  0.813532  0.500000  1
  Co  Co5  1  0.558411  0.559291  0.000000  1
  Co  Co6  1  0.440502  0.000396  0.000000  1
  Co  Co7  1  0.997228  0.440046  0.000000  1
  Co  Co8  1  0.824998  0.197369  0.000000  1
  Co  Co9  1  0.803094  0.626718  0.000000  1
  Co  Co10  1  0.371963  0.175837  0.000000  1
  Co  Co11  1  0.196327  0.821962  0.000000  1
  Co  Co12  1  0.627377  0.803723  0.000000  1
  Co  Co13  1  0.175660  0.377488  0.000000  1
  Co  Co14  1  0.644587  0.124107  0.500000  1
  Co  Co15  1  0.876174  0.520306  0.500000  1
  Co  Co16  1  0.478658  0.356021  0.500000  1
  Co  Co17  1  0.123984  0.637254  0.500000  1
  Co  Co18  1  0.520331  0.876794  0.500000  1
  Co  Co19  1  0.353972  0.479455  0.500000  1
  Co  Co20  1  0.723220  0.723214  0.500000  1
  Co  Co21  1  0.276534  0.998927  0.500000  1
  Co  Co22  1  0.004335  0.282855  0.500000  1
  Co  Co23  1  0.000090  0.000893  0.000000  1
  Si  Si24  1  0.370471  0.370846  0.000000  1
  Si  Si25  1  0.629028  0.000224  0.000000  1
  Si  Si26  1  0.000216  0.629020  0.000000  1
  Si  Si27  1  0.839559  0.317529  0.500000  1
  Si  Si28  1  0.682048  0.522297  0.500000  1
  Si  Si29  1  0.477130  0.159995  0.500000  1
  Si  Si30  1  0.316814  0.838732  0.500000  1
  Si  Si31  1  0.522790  0.683099  0.500000  1
  P  P32  1  0.165406  0.478374  0.500000  1
  P  P33  1  0.818962  0.818980  0.000000  1
  P  P34  1  0.180604  0.998762  0.000000  1
  P  P35  1  0.000907  0.182463  0.000000  1
