# generated using pymatgen
data_Sc6ReSn5Ru12
_symmetry_space_group_name_H-M   'P 1'
_cell_length_a   4.52679902
_cell_length_b   6.41312003
_cell_length_c   13.58074800
_cell_angle_alpha   90.00005209
_cell_angle_beta   90.00052315
_cell_angle_gamma   90.01127876
_symmetry_Int_Tables_number   1
_chemical_formula_structural   Sc6ReSn5Ru12
_chemical_formula_sum   'Sc6 Re1 Sn5 Ru12'
_cell_volume   394.26140394
_cell_formula_units_Z   1
loop_
 _symmetry_equiv_pos_site_id
 _symmetry_equiv_pos_as_xyz
  1  'x, y, z'
loop_
 _atom_site_type_symbol
 _atom_site_label
 _atom_site_symmetry_multiplicity
 _atom_site_fract_x
 _atom_site_fract_y
 _atom_site_fract_z
 _atom_site_occupancy
  Sc  Sc0  1  0.999997  0.999912  0.999988  1
  Sc  Sc1  1  0.499913  0.500041  0.170041  1
  Sc  Sc2  1  0.999889  0.000006  0.332859  1
  Sc  Sc3  1  0.500003  0.499999  0.500002  1
  Sc  Sc4  1  0.000114  0.000005  0.667147  1
  Sc  Sc5  1  0.500087  0.500043  0.829971  1
  Re  Re6  1  0.000005  0.499886  0.000018  1
  Sn  Sn7  1  0.499934  0.999989  0.166024  1
  Sn  Sn8  1  0.999880  0.500007  0.333649  1
  Sn  Sn9  1  0.499994  0.999994  0.500003  1
  Sn  Sn10  1  0.000113  0.500002  0.666362  1
  Sn  Sn11  1  0.500068  0.999989  0.833989  1
  Ru  Ru12  1  0.500001  0.266009  0.000003  1
  Ru  Ru13  1  0.499988  0.734112  0.000000  1
  Ru  Ru14  1  0.999945  0.260082  0.155750  1
  Ru  Ru15  1  0.999905  0.739926  0.155759  1
  Ru  Ru16  1  0.499874  0.249145  0.331299  1
  Ru  Ru17  1  0.499878  0.750856  0.331304  1
  Ru  Ru18  1  0.999989  0.248118  0.499993  1
  Ru  Ru19  1  0.000022  0.751883  0.499996  1
  Ru  Ru20  1  0.500127  0.249134  0.668692  1
  Ru  Ru21  1  0.500106  0.750860  0.668691  1
  Ru  Ru22  1  0.000102  0.260073  0.844233  1
  Ru  Ru23  1  0.000059  0.739936  0.844224  1
