# generated using pymatgen
data_La2Lu(InIr6)3
_symmetry_space_group_name_H-M   'P 1'
_cell_length_a   8.95667069
_cell_length_b   8.95667069
_cell_length_c   5.22269700
_cell_angle_alpha   90.00000000
_cell_angle_beta   90.00000000
_cell_angle_gamma   89.84036933
_symmetry_Int_Tables_number   1
_chemical_formula_structural   La2Lu(InIr6)3
_chemical_formula_sum   'La2 Lu1 In3 Ir18'
_cell_volume   418.97331076
_cell_formula_units_Z   1
loop_
 _symmetry_equiv_pos_site_id
 _symmetry_equiv_pos_as_xyz
  1  'x, y, z'
loop_
 _atom_site_type_symbol
 _atom_site_label
 _atom_site_symmetry_multiplicity
 _atom_site_fract_x
 _atom_site_fract_y
 _atom_site_fract_z
 _atom_site_occupancy
  La  La0  1  0.499264  0.503886  0.000000  1
  La  La1  1  0.003886  0.999264  0.000000  1
  Lu  Lu2  1  0.618569  0.118569  0.000000  1
  In  In3  1  0.378239  0.878239  0.000000  1
  In  In4  1  0.120679  0.378801  0.000000  1
  In  In5  1  0.878801  0.620679  0.000000  1
  Ir  Ir6  1  0.498964  0.998964  0.500000  1
  Ir  Ir7  1  0.001617  0.501617  0.500000  1
  Ir  Ir8  1  0.703760  0.556458  0.500000  1
  Ir  Ir9  1  0.296535  0.441307  0.500000  1
  Ir  Ir10  1  0.203698  0.942292  0.500000  1
  Ir  Ir11  1  0.793334  0.059728  0.500000  1
  Ir  Ir12  1  0.442292  0.703698  0.500000  1
  Ir  Ir13  1  0.559728  0.293334  0.500000  1
  Ir  Ir14  1  0.056458  0.203760  0.500000  1
  Ir  Ir15  1  0.941307  0.796535  0.500000  1
  Ir  Ir16  1  0.821711  0.321711  0.755774  1
  Ir  Ir17  1  0.180031  0.680031  0.756810  1
  Ir  Ir18  1  0.319637  0.180055  0.756119  1
  Ir  Ir19  1  0.680055  0.819637  0.756119  1
  Ir  Ir20  1  0.180031  0.680031  0.243190  1
  Ir  Ir21  1  0.821711  0.321711  0.244226  1
  Ir  Ir22  1  0.680055  0.819637  0.243881  1
  Ir  Ir23  1  0.319637  0.180055  0.243881  1
