# generated using pymatgen
data_Zr6Zn22SnAu
_symmetry_space_group_name_H-M   'P 1'
_cell_length_a   8.89051022
_cell_length_b   8.89049147
_cell_length_c   8.89049200
_cell_angle_alpha   60.00010220
_cell_angle_beta   60.00011987
_cell_angle_gamma   60.00012212
_symmetry_Int_Tables_number   1
_chemical_formula_structural   Zr6Zn22SnAu
_chemical_formula_sum   'Zr6 Zn22 Sn1 Au1'
_cell_volume   496.89472027
_cell_formula_units_Z   1
loop_
 _symmetry_equiv_pos_site_id
 _symmetry_equiv_pos_as_xyz
  1  'x, y, z'
loop_
 _atom_site_type_symbol
 _atom_site_label
 _atom_site_symmetry_multiplicity
 _atom_site_fract_x
 _atom_site_fract_y
 _atom_site_fract_z
 _atom_site_occupancy
  Zr  Zr0  1  0.730230  0.269770  0.269770  1
  Zr  Zr1  1  0.269770  0.730230  0.730230  1
  Zr  Zr2  1  0.269771  0.730230  0.269768  1
  Zr  Zr3  1  0.730229  0.269770  0.730232  1
  Zr  Zr4  1  0.269771  0.269768  0.730230  1
  Zr  Zr5  1  0.730229  0.730232  0.269770  1
  Zn  Zn6  1  0.129782  0.129782  0.129782  1
  Zn  Zn7  1  0.870218  0.870218  0.870218  1
  Zn  Zn8  1  0.129781  0.129781  0.610658  1
  Zn  Zn9  1  0.129781  0.610658  0.129781  1
  Zn  Zn10  1  0.870219  0.870219  0.389342  1
  Zn  Zn11  1  0.870219  0.389342  0.870219  1
  Zn  Zn12  1  0.610657  0.129781  0.129781  1
  Zn  Zn13  1  0.389343  0.870219  0.870219  1
  Zn  Zn14  1  0.500000  0.000000  0.000000  1
  Zn  Zn15  1  0.000000  0.500000  0.500000  1
  Zn  Zn16  1  0.000000  0.500000  0.000000  1
  Zn  Zn17  1  0.500000  0.000000  0.500000  1
  Zn  Zn18  1  0.000000  0.000000  0.500000  1
  Zn  Zn19  1  0.500000  0.500000  0.000000  1
  Zn  Zn20  1  0.345855  0.345855  0.345855  1
  Zn  Zn21  1  0.654145  0.654145  0.654145  1
  Zn  Zn22  1  0.345853  0.345853  0.962440  1
  Zn  Zn23  1  0.345853  0.962440  0.345853  1
  Zn  Zn24  1  0.654147  0.654147  0.037560  1
  Zn  Zn25  1  0.654147  0.037560  0.654147  1
  Zn  Zn26  1  0.962440  0.345853  0.345853  1
  Zn  Zn27  1  0.037560  0.654147  0.654147  1
  Sn  Sn28  1  0.500000  0.500000  0.500000  1
  Au  Au29  1  0.000000  0.000000  0.000000  1
