# generated using pymatgen
data_SrGd6GeI12
_symmetry_space_group_name_H-M   'P 1'
_cell_length_a   9.59256557
_cell_length_b   9.59256558
_cell_length_c   9.59256700
_cell_angle_alpha   106.50665430
_cell_angle_beta   106.50664809
_cell_angle_gamma   106.50665297
_symmetry_Int_Tables_number   1
_chemical_formula_structural   SrGd6GeI12
_chemical_formula_sum   'Sr1 Gd6 Ge1 I12'
_cell_volume   744.77786812
_cell_formula_units_Z   1
loop_
 _symmetry_equiv_pos_site_id
 _symmetry_equiv_pos_as_xyz
  1  'x, y, z'
loop_
 _atom_site_type_symbol
 _atom_site_label
 _atom_site_symmetry_multiplicity
 _atom_site_fract_x
 _atom_site_fract_y
 _atom_site_fract_z
 _atom_site_occupancy
  Sr  Sr0  1  0.500000  0.500000  0.500000  1
  Gd  Gd1  1  0.971503  0.899520  0.684148  1
  Gd  Gd2  1  0.028497  0.100480  0.315852  1
  Gd  Gd3  1  0.100480  0.315852  0.028497  1
  Gd  Gd4  1  0.315852  0.028497  0.100480  1
  Gd  Gd5  1  0.899520  0.684148  0.971503  1
  Gd  Gd6  1  0.684148  0.971503  0.899520  1
  Ge  Ge7  1  0.000000  0.000000  0.000000  1
  I  I8  1  0.539089  0.624930  0.866561  1
  I  I9  1  0.460911  0.375070  0.133439  1
  I  I10  1  0.316953  0.920804  0.762258  1
  I  I11  1  0.375070  0.133439  0.460911  1
  I  I12  1  0.920804  0.762258  0.316953  1
  I  I13  1  0.683047  0.079196  0.237742  1
  I  I14  1  0.079196  0.237742  0.683047  1
  I  I15  1  0.762258  0.316953  0.920804  1
  I  I16  1  0.237742  0.683047  0.079196  1
  I  I17  1  0.866561  0.539089  0.624930  1
  I  I18  1  0.133439  0.460911  0.375070  1
  I  I19  1  0.624930  0.866561  0.539089  1
