# generated using pymatgen
data_ScUBe4Ru5
_symmetry_space_group_name_H-M   'P 1'
_cell_length_a   3.23842100
_cell_length_b   8.63187326
_cell_length_c   10.30688611
_cell_angle_alpha   90.02255891
_cell_angle_beta   90.00000000
_cell_angle_gamma   90.00000000
_symmetry_Int_Tables_number   1
_chemical_formula_structural   ScUBe4Ru5
_chemical_formula_sum   'Sc2 U2 Be8 Ru10'
_cell_volume   288.11495788
_cell_formula_units_Z   2
loop_
 _symmetry_equiv_pos_site_id
 _symmetry_equiv_pos_as_xyz
  1  'x, y, z'
loop_
 _atom_site_type_symbol
 _atom_site_label
 _atom_site_symmetry_multiplicity
 _atom_site_fract_x
 _atom_site_fract_y
 _atom_site_fract_z
 _atom_site_occupancy
  Sc  Sc0  1  0.500000  0.656600  0.677824  1
  Sc  Sc1  1  0.500000  0.343400  0.322176  1
  U  U2  1  0.500000  0.842239  0.184147  1
  U  U3  1  0.500000  0.157761  0.815853  1
  Be  Be4  1  0.500000  0.959014  0.590530  1
  Be  Be5  1  0.500000  0.040986  0.409470  1
  Be  Be6  1  0.500000  0.836676  0.898516  1
  Be  Be7  1  0.500000  0.163324  0.101484  1
  Be  Be8  1  0.500000  0.655403  0.412740  1
  Be  Be9  1  0.500000  0.344597  0.587260  1
  Be  Be10  1  0.500000  0.470529  0.904833  1
  Be  Be11  1  0.500000  0.529471  0.095167  1
  Ru  Ru12  1  0.000000  0.659277  0.954577  1
  Ru  Ru13  1  0.000000  0.340723  0.045423  1
  Ru  Ru14  1  0.000000  0.841770  0.454099  1
  Ru  Ru15  1  0.000000  0.158230  0.545901  1
  Ru  Ru16  1  0.000000  0.000000  0.000000  1
  Ru  Ru17  1  0.000000  0.391077  0.757675  1
  Ru  Ru18  1  0.000000  0.608923  0.242325  1
  Ru  Ru19  1  0.000000  0.500000  0.500000  1
  Ru  Ru20  1  0.000000  0.911498  0.742863  1
  Ru  Ru21  1  0.000000  0.088502  0.257137  1
