# generated using pymatgen
data_Ho3Er2Pa(Al3Os)8
_symmetry_space_group_name_H-M   'P 1'
_cell_length_a   8.78382300
_cell_length_b   8.82198888
_cell_length_c   9.55340100
_cell_angle_alpha   90.00000000
_cell_angle_beta   90.00000000
_cell_angle_gamma   119.85699639
_symmetry_Int_Tables_number   1
_chemical_formula_structural   Ho3Er2Pa(Al3Os)8
_chemical_formula_sum   'Ho3 Er2 Pa1 Al24 Os8'
_cell_volume   642.04096224
_cell_formula_units_Z   1
loop_
 _symmetry_equiv_pos_site_id
 _symmetry_equiv_pos_as_xyz
  1  'x, y, z'
loop_
 _atom_site_type_symbol
 _atom_site_label
 _atom_site_symmetry_multiplicity
 _atom_site_fract_x
 _atom_site_fract_y
 _atom_site_fract_z
 _atom_site_occupancy
  Ho  Ho0  1  0.807760  0.615518  0.750000  1
  Ho  Ho1  1  0.388754  0.192216  0.750000  1
  Ho  Ho2  1  0.803461  0.192216  0.750000  1
  Er  Er3  1  0.608607  0.801867  0.250000  1
  Er  Er4  1  0.193261  0.801867  0.250000  1
  Pa  Pa5  1  0.196922  0.393843  0.250000  1
  Al  Al6  1  0.336554  0.673108  0.019995  1
  Al  Al7  1  0.667895  0.335790  0.978901  1
  Al  Al8  1  0.667895  0.335790  0.521099  1
  Al  Al9  1  0.336554  0.673108  0.480005  1
  Al  Al10  1  0.163170  0.326341  0.577669  1
  Al  Al11  1  0.836612  0.673223  0.424924  1
  Al  Al12  1  0.672363  0.835243  0.574678  1
  Al  Al13  1  0.836612  0.673223  0.075076  1
  Al  Al14  1  0.326695  0.162227  0.423822  1
  Al  Al15  1  0.163170  0.326341  0.922331  1
  Al  Al16  1  0.162880  0.835243  0.574678  1
  Al  Al17  1  0.326695  0.162227  0.076178  1
  Al  Al18  1  0.835532  0.162227  0.423822  1
  Al  Al19  1  0.672363  0.835243  0.925322  1
  Al  Al20  1  0.835532  0.162227  0.076178  1
  Al  Al21  1  0.162880  0.835243  0.925322  1
  Al  Al22  1  0.559893  0.119787  0.250000  1
  Al  Al23  1  0.437618  0.875235  0.750000  1
  Al  Al24  1  0.872697  0.437511  0.250000  1
  Al  Al25  1  0.120413  0.559677  0.750000  1
  Al  Al26  1  0.564814  0.437511  0.250000  1
  Al  Al27  1  0.439265  0.559677  0.750000  1
  Al  Al28  1  0.000610  0.001221  0.250000  1
  Al  Al29  1  0.000561  0.001121  0.750000  1
  Os  Os30  1  0.501716  0.003431  0.997800  1
  Os  Os31  1  0.003520  0.499908  0.004972  1
  Os  Os32  1  0.501716  0.003431  0.502200  1
  Os  Os33  1  0.496389  0.499908  0.004972  1
  Os  Os34  1  0.003520  0.499908  0.495028  1
  Os  Os35  1  0.496389  0.499908  0.495028  1
  Os  Os36  1  0.999359  0.998717  0.999258  1
  Os  Os37  1  0.999359  0.998717  0.500742  1
