# generated using pymatgen
data_HfNbB2SbRu5
_symmetry_space_group_name_H-M   'P 1'
_cell_length_a   9.49481896
_cell_length_b   9.49481851
_cell_length_c   3.06801300
_cell_angle_alpha   90.00000000
_cell_angle_beta   90.00000000
_cell_angle_gamma   90.18954745
_symmetry_Int_Tables_number   1
_chemical_formula_structural   HfNbB2SbRu5
_chemical_formula_sum   'Hf2 Nb2 B4 Sb2 Ru10'
_cell_volume   276.58471454
_cell_formula_units_Z   2
loop_
 _symmetry_equiv_pos_site_id
 _symmetry_equiv_pos_as_xyz
  1  'x, y, z'
loop_
 _atom_site_type_symbol
 _atom_site_label
 _atom_site_symmetry_multiplicity
 _atom_site_fract_x
 _atom_site_fract_y
 _atom_site_fract_z
 _atom_site_occupancy
  Hf  Hf0  1  0.824557  0.675443  0.000000  1
  Hf  Hf1  1  0.175443  0.324557  0.000000  1
  Nb  Nb2  1  0.324734  0.824734  0.000000  1
  Nb  Nb3  1  0.675266  0.175266  0.000000  1
  B  B4  1  0.621043  0.878957  0.000000  1
  B  B5  1  0.378957  0.121043  0.000000  1
  B  B6  1  0.121326  0.621326  0.000000  1
  B  B7  1  0.878674  0.378674  0.000000  1
  Sb  Sb8  1  0.500000  0.500000  0.000000  1
  Sb  Sb9  1  0.000000  0.000000  0.000000  1
  Ru  Ru10  1  0.567362  0.721055  0.500000  1
  Ru  Ru11  1  0.432638  0.278945  0.500000  1
  Ru  Ru12  1  0.074240  0.781664  0.500000  1
  Ru  Ru13  1  0.925760  0.218336  0.500000  1
  Ru  Ru14  1  0.281664  0.574240  0.500000  1
  Ru  Ru15  1  0.718336  0.425760  0.500000  1
  Ru  Ru16  1  0.221055  0.067362  0.500000  1
  Ru  Ru17  1  0.778945  0.932638  0.500000  1
  Ru  Ru18  1  0.500000  0.000000  0.500000  1
  Ru  Ru19  1  0.000000  0.500000  0.500000  1
