# generated using pymatgen
data_Dy4Y12MgHg3Ir4
_symmetry_space_group_name_H-M   'P 1'
_cell_length_a   9.64932041
_cell_length_b   9.65013965
_cell_length_c   9.65014000
_cell_angle_alpha   59.99999882
_cell_angle_beta   59.99719026
_cell_angle_gamma   59.99718904
_symmetry_Int_Tables_number   1
_chemical_formula_structural   Dy4Y12MgHg3Ir4
_chemical_formula_sum   'Dy4 Y12 Mg1 Hg3 Ir4'
_cell_volume   635.37553579
_cell_formula_units_Z   1
loop_
 _symmetry_equiv_pos_site_id
 _symmetry_equiv_pos_as_xyz
  1  'x, y, z'
loop_
 _atom_site_type_symbol
 _atom_site_label
 _atom_site_symmetry_multiplicity
 _atom_site_fract_x
 _atom_site_fract_y
 _atom_site_fract_z
 _atom_site_occupancy
  Dy  Dy0  1  0.600161  0.598277  0.598277  1
  Dy  Dy1  1  0.600161  0.598277  0.203285  1
  Dy  Dy2  1  0.600161  0.203285  0.598277  1
  Dy  Dy3  1  0.193815  0.602061  0.602061  1
  Y  Y4  1  0.059285  0.440522  0.440522  1
  Y  Y5  1  0.437041  0.062182  0.062182  1
  Y  Y6  1  0.437041  0.062182  0.438594  1
  Y  Y7  1  0.059285  0.440522  0.059669  1
  Y  Y8  1  0.437041  0.438594  0.062182  1
  Y  Y9  1  0.059285  0.059669  0.440522  1
  Y  Y10  1  0.185836  0.812800  0.812800  1
  Y  Y11  1  0.811860  0.187466  0.187466  1
  Y  Y12  1  0.811860  0.187466  0.813207  1
  Y  Y13  1  0.185836  0.812800  0.188565  1
  Y  Y14  1  0.811860  0.813207  0.187466  1
  Y  Y15  1  0.185836  0.188565  0.812800  1
  Mg  Mg16  1  0.536199  0.821267  0.821267  1
  Hg  Hg17  1  0.830938  0.836229  0.836229  1
  Hg  Hg18  1  0.830938  0.836229  0.496605  1
  Hg  Hg19  1  0.830938  0.496605  0.836229  1
  Ir  Ir20  1  0.390563  0.393621  0.393621  1
  Ir  Ir21  1  0.390563  0.393621  0.822195  1
  Ir  Ir22  1  0.390563  0.822195  0.393621  1
  Ir  Ir23  1  0.822934  0.392355  0.392355  1
