# generated using pymatgen
data_Er5Lu3Tc(B8Os)3
_symmetry_space_group_name_H-M   'P 1'
_cell_length_a   3.62266100
_cell_length_b   9.06946461
_cell_length_c   11.45306318
_cell_angle_alpha   89.96660137
_cell_angle_beta   90.00000000
_cell_angle_gamma   90.00000000
_symmetry_Int_Tables_number   1
_chemical_formula_structural   Er5Lu3Tc(B8Os)3
_chemical_formula_sum   'Er5 Lu3 Tc1 B24 Os3'
_cell_volume   376.29714970
_cell_formula_units_Z   1
loop_
 _symmetry_equiv_pos_site_id
 _symmetry_equiv_pos_as_xyz
  1  'x, y, z'
loop_
 _atom_site_type_symbol
 _atom_site_label
 _atom_site_symmetry_multiplicity
 _atom_site_fract_x
 _atom_site_fract_y
 _atom_site_fract_z
 _atom_site_occupancy
  Er  Er0  1  0.000000  0.323341  0.413379  1
  Er  Er1  1  0.000000  0.677796  0.583756  1
  Er  Er2  1  0.000000  0.819164  0.087402  1
  Er  Er3  1  0.000000  0.178704  0.914857  1
  Er  Er4  1  0.000000  0.942900  0.372835  1
  Lu  Lu5  1  0.000000  0.057124  0.627915  1
  Lu  Lu6  1  0.000000  0.444598  0.127637  1
  Lu  Lu7  1  0.000000  0.556586  0.872390  1
  Tc  Tc8  1  0.000000  0.636668  0.320550  1
  B  B9  1  0.500000  0.552322  0.433272  1
  B  B10  1  0.500000  0.446395  0.567252  1
  B  B11  1  0.500000  0.053990  0.066451  1
  B  B12  1  0.500000  0.946229  0.933375  1
  B  B13  1  0.500000  0.748224  0.419444  1
  B  B14  1  0.500000  0.251000  0.580820  1
  B  B15  1  0.500000  0.250033  0.080061  1
  B  B16  1  0.500000  0.750293  0.919598  1
  B  B17  1  0.500000  0.791088  0.265297  1
  B  B18  1  0.500000  0.208377  0.734567  1
  B  B19  1  0.500000  0.292158  0.233410  1
  B  B20  1  0.500000  0.708553  0.765811  1
  B  B21  1  0.500000  0.630006  0.184465  1
  B  B22  1  0.500000  0.369481  0.815799  1
  B  B23  1  0.500000  0.131541  0.314604  1
  B  B24  1  0.500000  0.869693  0.684818  1
  B  B25  1  0.500000  0.982271  0.212464  1
  B  B26  1  0.500000  0.018130  0.787306  1
  B  B27  1  0.500000  0.480950  0.286585  1
  B  B28  1  0.500000  0.518032  0.713365  1
  B  B29  1  0.500000  0.603585  0.028100  1
  B  B30  1  0.500000  0.396199  0.970962  1
  B  B31  1  0.500000  0.106104  0.471808  1
  B  B32  1  0.500000  0.895878  0.530177  1
  Os  Os33  1  0.000000  0.362062  0.680290  1
  Os  Os34  1  0.000000  0.138089  0.178237  1
  Os  Os35  1  0.000000  0.862432  0.820939  1
