# generated using pymatgen
data_YbDyEr6(B6Os)4
_symmetry_space_group_name_H-M   'P 1'
_cell_length_a   3.63421500
_cell_length_b   9.11517022
_cell_length_c   11.49816079
_cell_angle_alpha   89.92886708
_cell_angle_beta   90.00000000
_cell_angle_gamma   90.00000000
_symmetry_Int_Tables_number   1
_chemical_formula_structural   YbDyEr6(B6Os)4
_chemical_formula_sum   'Yb1 Dy1 Er6 B24 Os4'
_cell_volume   380.89339602
_cell_formula_units_Z   1
loop_
 _symmetry_equiv_pos_site_id
 _symmetry_equiv_pos_as_xyz
  1  'x, y, z'
loop_
 _atom_site_type_symbol
 _atom_site_label
 _atom_site_symmetry_multiplicity
 _atom_site_fract_x
 _atom_site_fract_y
 _atom_site_fract_z
 _atom_site_occupancy
  Yb  Yb0  1  0.000000  0.677528  0.586417  1
  Dy  Dy1  1  0.000000  0.323250  0.414935  1
  Er  Er2  1  0.000000  0.821013  0.085183  1
  Er  Er3  1  0.000000  0.178258  0.913712  1
  Er  Er4  1  0.000000  0.942228  0.372380  1
  Er  Er5  1  0.000000  0.055849  0.628470  1
  Er  Er6  1  0.000000  0.443808  0.127212  1
  Er  Er7  1  0.000000  0.557019  0.871408  1
  B  B8  1  0.500000  0.554344  0.432689  1
  B  B9  1  0.500000  0.446366  0.567746  1
  B  B10  1  0.500000  0.053813  0.066813  1
  B  B11  1  0.500000  0.946800  0.933732  1
  B  B12  1  0.500000  0.748444  0.418806  1
  B  B13  1  0.500000  0.251278  0.581379  1
  B  B14  1  0.500000  0.248512  0.080203  1
  B  B15  1  0.500000  0.752104  0.919477  1
  B  B16  1  0.500000  0.790742  0.265197  1
  B  B17  1  0.500000  0.208348  0.734629  1
  B  B18  1  0.500000  0.290592  0.233514  1
  B  B19  1  0.500000  0.709911  0.766244  1
  B  B20  1  0.500000  0.631185  0.184376  1
  B  B21  1  0.500000  0.368602  0.814706  1
  B  B22  1  0.500000  0.130675  0.314640  1
  B  B23  1  0.500000  0.869180  0.685924  1
  B  B24  1  0.500000  0.982329  0.212465  1
  B  B25  1  0.500000  0.017451  0.788239  1
  B  B26  1  0.500000  0.483256  0.286886  1
  B  B27  1  0.500000  0.516979  0.712710  1
  B  B28  1  0.500000  0.606497  0.029080  1
  B  B29  1  0.500000  0.393393  0.970346  1
  B  B30  1  0.500000  0.103903  0.471298  1
  B  B31  1  0.500000  0.896952  0.528636  1
  Os  Os32  1  0.000000  0.638080  0.319642  1
  Os  Os33  1  0.000000  0.360672  0.679906  1
  Os  Os34  1  0.000000  0.136990  0.178403  1
  Os  Os35  1  0.000000  0.863647  0.822600  1
