# generated using pymatgen
data_Tb8Hf9Nb3Si16
_symmetry_space_group_name_H-M   'P 1'
_cell_length_a   7.24294582
_cell_length_b   7.24294582
_cell_length_c   13.29225511
_cell_angle_alpha   90.03309914
_cell_angle_beta   90.03309914
_cell_angle_gamma   90.04320271
_symmetry_Int_Tables_number   1
_chemical_formula_structural   Tb8Hf9Nb3Si16
_chemical_formula_sum   'Tb8 Hf9 Nb3 Si16'
_cell_volume   697.31478254
_cell_formula_units_Z   1
loop_
 _symmetry_equiv_pos_site_id
 _symmetry_equiv_pos_as_xyz
  1  'x, y, z'
loop_
 _atom_site_type_symbol
 _atom_site_label
 _atom_site_symmetry_multiplicity
 _atom_site_fract_x
 _atom_site_fract_y
 _atom_site_fract_z
 _atom_site_occupancy
  Tb  Tb0  1  0.998575  0.343964  0.214561  1
  Tb  Tb1  1  0.002959  0.657444  0.714287  1
  Tb  Tb2  1  0.156102  0.498235  0.464638  1
  Tb  Tb3  1  0.501765  0.843898  0.035362  1
  Tb  Tb4  1  0.844177  0.502676  0.966331  1
  Tb  Tb5  1  0.497324  0.155823  0.533669  1
  Tb  Tb6  1  0.342556  0.997041  0.785713  1
  Tb  Tb7  1  0.656036  0.001425  0.285439  1
  Hf  Hf8  1  0.674763  0.325237  0.750000  1
  Hf  Hf9  1  0.148899  0.993319  0.375048  1
  Hf  Hf10  1  0.852530  0.004785  0.876086  1
  Hf  Hf11  1  0.506261  0.650438  0.623064  1
  Hf  Hf12  1  0.349562  0.493739  0.876936  1
  Hf  Hf13  1  0.493107  0.351316  0.124956  1
  Hf  Hf14  1  0.648684  0.506893  0.375044  1
  Hf  Hf15  1  0.995215  0.147470  0.623914  1
  Hf  Hf16  1  0.006681  0.851101  0.124952  1
  Nb  Nb17  1  0.175168  0.174708  0.000358  1
  Nb  Nb18  1  0.825292  0.824832  0.499642  1
  Nb  Nb19  1  0.324737  0.675263  0.250000  1
  Si  Si20  1  0.363321  0.295714  0.316682  1
  Si  Si21  1  0.636399  0.705075  0.816979  1
  Si  Si22  1  0.204122  0.863148  0.566526  1
  Si  Si23  1  0.136852  0.795878  0.933474  1
  Si  Si24  1  0.795720  0.136572  0.066776  1
  Si  Si25  1  0.863428  0.204280  0.433224  1
  Si  Si26  1  0.294925  0.363601  0.683021  1
  Si  Si27  1  0.704286  0.636679  0.183318  1
  Si  Si28  1  0.295490  0.048342  0.185121  1
  Si  Si29  1  0.704742  0.950412  0.684341  1
  Si  Si30  1  0.451289  0.795701  0.434662  1
  Si  Si31  1  0.204299  0.548711  0.065338  1
  Si  Si32  1  0.547181  0.203694  0.936003  1
  Si  Si33  1  0.796306  0.452819  0.563997  1
  Si  Si34  1  0.049588  0.295258  0.815659  1
  Si  Si35  1  0.951658  0.704510  0.314879  1
