# generated using pymatgen
data_TeSF34
_symmetry_space_group_name_H-M   'P 1'
_cell_length_a   8.68398198
_cell_length_b   8.47608206
_cell_length_c   10.03887741
_cell_angle_alpha   80.64895984
_cell_angle_beta   86.88597675
_cell_angle_gamma   66.69585677
_symmetry_Int_Tables_number   1
_chemical_formula_structural   TeSF34
_chemical_formula_sum   'Te1 S1 F34'
_cell_volume   669.58144851
_cell_formula_units_Z   1
loop_
 _symmetry_equiv_pos_site_id
 _symmetry_equiv_pos_as_xyz
  1  'x, y, z'
loop_
 _atom_site_type_symbol
 _atom_site_label
 _atom_site_symmetry_multiplicity
 _atom_site_fract_x
 _atom_site_fract_y
 _atom_site_fract_z
 _atom_site_occupancy
  Te  Te0  1  0.133321  0.749187  0.241099  1
  S  S1  1  0.863481  0.248415  0.759802  1
  F  F2  1  0.621676  0.200924  0.478954  1
  F  F3  1  0.388601  0.789569  0.529404  1
  F  F4  1  0.827875  0.698675  0.713089  1
  F  F5  1  0.172834  0.293154  0.278528  1
  F  F6  1  0.087755  0.751000  0.859950  1
  F  F7  1  0.905898  0.251288  0.132328  1
  F  F8  1  0.558774  0.144998  0.374850  1
  F  F9  1  0.440917  0.861572  0.628918  1
  F  F10  1  0.674686  0.316787  0.705523  1
  F  F11  1  0.352590  0.669213  0.306814  1
  F  F12  1  0.918191  0.092682  0.673671  1
  F  F13  1  0.062426  0.927409  0.345659  1
  F  F14  1  0.904992  0.367002  0.634936  1
  F  F15  1  0.084418  0.608474  0.385152  1
  F  F16  1  0.856189  0.820968  0.610136  1
  F  F17  1  0.154224  0.182829  0.395857  1
  F  F18  1  0.808961  0.404668  0.846111  1
  F  F19  1  0.199792  0.569014  0.138020  1
  F  F20  1  0.217047  0.686694  0.765297  1
  F  F21  1  0.785173  0.315223  0.233093  1
  F  F22  1  0.916682  0.828508  0.170677  1
  F  F23  1  0.051300  0.180174  0.815338  1
  F  F24  1  0.821004  0.129494  0.884721  1
  F  F25  1  0.185250  0.891692  0.099647  1
  F  F26  1  0.501490  0.587503  0.983765  1
  F  F27  1  0.512107  0.413025  0.007169  1
  F  F28  1  0.449062  0.093693  0.865369  1
  F  F29  1  0.548520  0.915993  0.132849  1
  F  F30  1  0.286895  0.261619  0.604035  1
  F  F31  1  0.709211  0.738278  0.399066  1
  F  F32  1  0.258484  0.400115  0.678908  1
  F  F33  1  0.740517  0.598857  0.324599  1
  F  F34  1  0.559882  0.928768  0.833091  1
  F  F35  1  0.439775  0.082539  0.163576  1
