# generated using pymatgen
data_Ba(GaAu)3
_symmetry_space_group_name_H-M   'P 1'
_cell_length_a   4.62250800
_cell_length_b   7.41539800
_cell_length_c   8.94478000
_cell_angle_alpha   90.00000000
_cell_angle_beta   90.00000000
_cell_angle_gamma   90.00000000
_symmetry_Int_Tables_number   1
_chemical_formula_structural   Ba(GaAu)3
_chemical_formula_sum   'Ba2 Ga6 Au6'
_cell_volume   306.60681259
_cell_formula_units_Z   2
loop_
 _symmetry_equiv_pos_site_id
 _symmetry_equiv_pos_as_xyz
  1  'x, y, z'
loop_
 _atom_site_type_symbol
 _atom_site_label
 _atom_site_symmetry_multiplicity
 _atom_site_fract_x
 _atom_site_fract_y
 _atom_site_fract_z
 _atom_site_occupancy
  Ba  Ba0  1  0.250000  0.750000  0.254171  1
  Ba  Ba1  1  0.750000  0.250000  0.745829  1
  Ga  Ga2  1  0.750000  0.062571  0.111492  1
  Ga  Ga3  1  0.750000  0.437428  0.111492  1
  Ga  Ga4  1  0.250000  0.250000  0.375139  1
  Ga  Ga5  1  0.750000  0.750000  0.624861  1
  Ga  Ga6  1  0.250000  0.562571  0.888508  1
  Ga  Ga7  1  0.250000  0.937429  0.888508  1
  Au  Au8  1  0.250000  0.250000  0.056824  1
  Au  Au9  1  0.750000  0.037565  0.403972  1
  Au  Au10  1  0.750000  0.462435  0.403972  1
  Au  Au11  1  0.250000  0.537566  0.596028  1
  Au  Au12  1  0.250000  0.962434  0.596028  1
  Au  Au13  1  0.750000  0.750000  0.943176  1
