# generated using pymatgen
data_NdThIr6
_symmetry_space_group_name_H-M   'P 1'
_cell_length_a   5.37561144
_cell_length_b   5.37561162
_cell_length_c   18.05656391
_cell_angle_alpha   98.56056584
_cell_angle_beta   98.56056631
_cell_angle_gamma   60.00000735
_symmetry_Int_Tables_number   1
_chemical_formula_structural   NdThIr6
_chemical_formula_sum   'Nd3 Th3 Ir18'
_cell_volume   445.15322612
_cell_formula_units_Z   3
loop_
 _symmetry_equiv_pos_site_id
 _symmetry_equiv_pos_as_xyz
  1  'x, y, z'
loop_
 _atom_site_type_symbol
 _atom_site_label
 _atom_site_symmetry_multiplicity
 _atom_site_fract_x
 _atom_site_fract_y
 _atom_site_fract_z
 _atom_site_occupancy
  Nd  Nd0  1  0.429418  0.429418  0.288254  1
  Nd  Nd1  1  0.930782  0.930782  0.792345  1
  Nd  Nd2  1  0.070319  0.070319  0.210958  1
  Th  Th3  1  0.569530  0.569530  0.708589  1
  Th  Th4  1  0.000652  0.000652  0.001955  1
  Th  Th5  1  0.498676  0.498676  0.496027  1
  Ir  Ir6  1  0.460735  0.958466  0.377666  1
  Ir  Ir7  1  0.961016  0.458781  0.878578  1
  Ir  Ir8  1  0.958466  0.958466  0.377666  1
  Ir  Ir9  1  0.458781  0.458781  0.878578  1
  Ir  Ir10  1  0.958466  0.460735  0.377666  1
  Ir  Ir11  1  0.458781  0.961016  0.878578  1
  Ir  Ir12  1  0.038877  0.541625  0.122125  1
  Ir  Ir13  1  0.539727  0.041106  0.621941  1
  Ir  Ir14  1  0.541625  0.541625  0.122125  1
  Ir  Ir15  1  0.041106  0.041106  0.621941  1
  Ir  Ir16  1  0.541625  0.038877  0.122125  1
  Ir  Ir17  1  0.041106  0.539727  0.621941  1
  Ir  Ir18  1  0.333836  0.333836  0.001510  1
  Ir  Ir19  1  0.833598  0.833598  0.500793  1
  Ir  Ir20  1  0.166257  0.166257  0.498773  1
  Ir  Ir21  1  0.666344  0.666344  0.999029  1
  Ir  Ir22  1  0.750022  0.750022  0.250068  1
  Ir  Ir23  1  0.250258  0.250258  0.750774  1
