# generated using pymatgen
data_Tm4Ga4Co3Ru
_symmetry_space_group_name_H-M   'P 1'
_cell_length_a   4.37178600
_cell_length_b   6.96231879
_cell_length_c   6.97427148
_cell_angle_alpha   89.87454037
_cell_angle_beta   90.00000000
_cell_angle_gamma   90.00000000
_symmetry_Int_Tables_number   1
_chemical_formula_structural   Tm4Ga4Co3Ru
_chemical_formula_sum   'Tm4 Ga4 Co3 Ru1'
_cell_volume   212.28074717
_cell_formula_units_Z   1
loop_
 _symmetry_equiv_pos_site_id
 _symmetry_equiv_pos_as_xyz
  1  'x, y, z'
loop_
 _atom_site_type_symbol
 _atom_site_label
 _atom_site_symmetry_multiplicity
 _atom_site_fract_x
 _atom_site_fract_y
 _atom_site_fract_z
 _atom_site_occupancy
  Tm  Tm0  1  0.250000  0.982879  0.800854  1
  Tm  Tm1  1  0.750000  0.013137  0.197776  1
  Tm  Tm2  1  0.250000  0.478210  0.695084  1
  Tm  Tm3  1  0.750000  0.513919  0.301854  1
  Ga  Ga4  1  0.250000  0.294063  0.103458  1
  Ga  Ga5  1  0.750000  0.696870  0.884950  1
  Ga  Ga6  1  0.250000  0.808172  0.405523  1
  Ga  Ga7  1  0.750000  0.199044  0.604533  1
  Co  Co8  1  0.750000  0.847737  0.563026  1
  Co  Co9  1  0.250000  0.161669  0.438862  1
  Co  Co10  1  0.750000  0.342506  0.935841  1
  Ru  Ru11  1  0.250000  0.661792  0.068238  1
