# generated using pymatgen
data_Eu5CuNi2
_symmetry_space_group_name_H-M   'P 1'
_cell_length_a   9.05712980
_cell_length_b   9.05713013
_cell_length_c   9.05712955
_cell_angle_alpha   129.71935732
_cell_angle_beta   129.71935011
_cell_angle_gamma   73.85581964
_symmetry_Int_Tables_number   1
_chemical_formula_structural   Eu5CuNi2
_chemical_formula_sum   'Eu10 Cu2 Ni4'
_cell_volume   428.78099629
_cell_formula_units_Z   2
loop_
 _symmetry_equiv_pos_site_id
 _symmetry_equiv_pos_as_xyz
  1  'x, y, z'
loop_
 _atom_site_type_symbol
 _atom_site_label
 _atom_site_symmetry_multiplicity
 _atom_site_fract_x
 _atom_site_fract_y
 _atom_site_fract_z
 _atom_site_occupancy
  Eu  Eu0  1  0.500000  0.500000  0.000000  1
  Eu  Eu1  1  0.000000  0.000000  0.000000  1
  Eu  Eu2  1  0.532769  0.032769  0.843399  1
  Eu  Eu3  1  0.189369  0.689369  0.156601  1
  Eu  Eu4  1  0.032769  0.189369  0.500000  1
  Eu  Eu5  1  0.689369  0.532769  0.500000  1
  Eu  Eu6  1  0.467231  0.967231  0.156601  1
  Eu  Eu7  1  0.810631  0.310631  0.843399  1
  Eu  Eu8  1  0.967231  0.810631  0.500000  1
  Eu  Eu9  1  0.310631  0.467231  0.500000  1
  Cu  Cu10  1  0.250000  0.250000  0.000000  1
  Cu  Cu11  1  0.750000  0.750000  0.000000  1
  Ni  Ni12  1  0.112358  0.612358  0.724714  1
  Ni  Ni13  1  0.887642  0.387642  0.275286  1
  Ni  Ni14  1  0.612358  0.887642  0.500000  1
  Ni  Ni15  1  0.387642  0.112358  0.500000  1
