# generated using pymatgen
data_Tm2Fe4P6(IrRu)3
_symmetry_space_group_name_H-M   'P 1'
_cell_length_a   3.81927200
_cell_length_b   10.50630500
_cell_length_c   12.15731000
_cell_angle_alpha   90.00000000
_cell_angle_beta   90.00000000
_cell_angle_gamma   90.00000000
_symmetry_Int_Tables_number   1
_chemical_formula_structural   Tm2Fe4P6(IrRu)3
_chemical_formula_sum   'Tm4 Fe8 P12 Ir6 Ru6'
_cell_volume   487.82952785
_cell_formula_units_Z   2
loop_
 _symmetry_equiv_pos_site_id
 _symmetry_equiv_pos_as_xyz
  1  'x, y, z'
loop_
 _atom_site_type_symbol
 _atom_site_label
 _atom_site_symmetry_multiplicity
 _atom_site_fract_x
 _atom_site_fract_y
 _atom_site_fract_z
 _atom_site_occupancy
  Tm  Tm0  1  0.250000  0.579140  0.709720  1
  Tm  Tm1  1  0.250000  0.920860  0.209720  1
  Tm  Tm2  1  0.750000  0.420607  0.291079  1
  Tm  Tm3  1  0.750000  0.079393  0.791079  1
  Fe  Fe4  1  0.250000  0.879387  0.698360  1
  Fe  Fe5  1  0.250000  0.620613  0.198360  1
  Fe  Fe6  1  0.750000  0.120525  0.300037  1
  Fe  Fe7  1  0.750000  0.379475  0.800037  1
  Fe  Fe8  1  0.250000  0.460582  0.935864  1
  Fe  Fe9  1  0.250000  0.039418  0.435864  1
  Fe  Fe10  1  0.750000  0.539182  0.063167  1
  Fe  Fe11  1  0.750000  0.960818  0.563167  1
  P  P12  1  0.250000  0.437817  0.113110  1
  P  P13  1  0.250000  0.062183  0.613110  1
  P  P14  1  0.750000  0.561194  0.886160  1
  P  P15  1  0.750000  0.938806  0.386160  1
  P  P16  1  0.250000  0.269863  0.868615  1
  P  P17  1  0.250000  0.230137  0.368615  1
  P  P18  1  0.750000  0.726634  0.133590  1
  P  P19  1  0.750000  0.773366  0.633590  1
  P  P20  1  0.250000  0.599220  0.383032  1
  P  P21  1  0.250000  0.900780  0.883032  1
  P  P22  1  0.750000  0.398179  0.614482  1
  P  P23  1  0.750000  0.101821  0.114482  1
  Ir  Ir24  1  0.750000  0.595189  0.520881  1
  Ir  Ir25  1  0.750000  0.904811  0.020881  1
  Ir  Ir26  1  0.250000  0.232568  0.177855  1
  Ir  Ir27  1  0.250000  0.267432  0.677855  1
  Ir  Ir28  1  0.750000  0.767613  0.822689  1
  Ir  Ir29  1  0.750000  0.732387  0.322689  1
  Ru  Ru30  1  0.250000  0.707513  0.986978  1
  Ru  Ru31  1  0.250000  0.792487  0.486978  1
  Ru  Ru32  1  0.750000  0.292974  0.011636  1
  Ru  Ru33  1  0.750000  0.207026  0.511636  1
  Ru  Ru34  1  0.250000  0.407136  0.482743  1
  Ru  Ru35  1  0.250000  0.092864  0.982743  1
