# generated using pymatgen
data_Tb5Nd3Ho4(Si2Ni)4
_symmetry_space_group_name_H-M   'P 1'
_cell_length_a   4.13115900
_cell_length_b   11.43196714
_cell_length_c   11.39655611
_cell_angle_alpha   89.94909601
_cell_angle_beta   90.00000000
_cell_angle_gamma   90.00000000
_symmetry_Int_Tables_number   1
_chemical_formula_structural   Tb5Nd3Ho4(Si2Ni)4
_chemical_formula_sum   'Tb5 Nd3 Ho4 Si8 Ni4'
_cell_volume   538.22806506
_cell_formula_units_Z   1
loop_
 _symmetry_equiv_pos_site_id
 _symmetry_equiv_pos_as_xyz
  1  'x, y, z'
loop_
 _atom_site_type_symbol
 _atom_site_label
 _atom_site_symmetry_multiplicity
 _atom_site_fract_x
 _atom_site_fract_y
 _atom_site_fract_z
 _atom_site_occupancy
  Tb  Tb0  1  0.750000  0.627960  0.941350  1
  Tb  Tb1  1  0.250000  0.802476  0.717913  1
  Tb  Tb2  1  0.250000  0.694729  0.215474  1
  Tb  Tb3  1  0.750000  0.194864  0.282442  1
  Tb  Tb4  1  0.750000  0.306152  0.783534  1
  Nd  Nd5  1  0.250000  0.127240  0.557456  1
  Nd  Nd6  1  0.250000  0.375326  0.055045  1
  Nd  Nd7  1  0.750000  0.873488  0.444012  1
  Ho  Ho8  1  0.250000  0.056662  0.884649  1
  Ho  Ho9  1  0.250000  0.442197  0.382864  1
  Ho  Ho10  1  0.750000  0.940640  0.115374  1
  Ho  Ho11  1  0.750000  0.559117  0.617361  1
  Si  Si12  1  0.250000  0.813934  0.976495  1
  Si  Si13  1  0.250000  0.680882  0.475463  1
  Si  Si14  1  0.750000  0.181645  0.023993  1
  Si  Si15  1  0.750000  0.319750  0.524479  1
  Si  Si16  1  0.250000  0.499199  0.800706  1
  Si  Si17  1  0.250000  0.004605  0.297714  1
  Si  Si18  1  0.750000  0.506388  0.199856  1
  Si  Si19  1  0.750000  0.994009  0.703046  1
  Ni  Ni20  1  0.250000  0.373997  0.628054  1
  Ni  Ni21  1  0.250000  0.127921  0.126719  1
  Ni  Ni22  1  0.750000  0.629124  0.372563  1
  Ni  Ni23  1  0.750000  0.867695  0.873438  1
