# generated using pymatgen
data_Al53Si12Os17
_symmetry_space_group_name_H-M   'P 1'
_cell_length_a   9.00256661
_cell_length_b   9.01054643
_cell_length_c   17.28300000
_cell_angle_alpha   99.88853545
_cell_angle_beta   100.21800884
_cell_angle_gamma   109.20077205
_symmetry_Int_Tables_number   1
_chemical_formula_structural   Al53Si12Os17
_chemical_formula_sum   'Al53 Si12 Os17'
_cell_volume   1262.42069919
_cell_formula_units_Z   1
loop_
 _symmetry_equiv_pos_site_id
 _symmetry_equiv_pos_as_xyz
  1  'x, y, z'
loop_
 _atom_site_type_symbol
 _atom_site_label
 _atom_site_symmetry_multiplicity
 _atom_site_fract_x
 _atom_site_fract_y
 _atom_site_fract_z
 _atom_site_occupancy
  Al  Al0  1  0.427545  0.381252  0.810417  1
  Al  Al1  1  0.929883  0.382007  0.308910  1
  Al  Al2  1  0.070117  0.617993  0.691090  1
  Al  Al3  1  0.572455  0.618748  0.189583  1
  Al  Al4  1  0.805853  0.702064  0.901263  1
  Al  Al5  1  0.293983  0.689717  0.391876  1
  Al  Al6  1  0.250938  0.201232  0.952674  1
  Al  Al7  1  0.757319  0.210217  0.451157  1
  Al  Al8  1  0.444337  0.098966  0.656615  1
  Al  Al9  1  0.951869  0.094886  0.147595  1
  Al  Al10  1  0.706017  0.310283  0.608124  1
  Al  Al11  1  0.194147  0.297936  0.098737  1
  Al  Al12  1  0.242681  0.789783  0.548843  1
  Al  Al13  1  0.749062  0.798768  0.047326  1
  Al  Al14  1  0.048131  0.905114  0.852405  1
  Al  Al15  1  0.555663  0.901034  0.343385  1
  Al  Al16  1  0.202328  0.461843  0.878420  1
  Al  Al17  1  0.703804  0.463499  0.374392  1
  Al  Al18  1  0.199619  0.250186  0.665573  1
  Al  Al19  1  0.702848  0.250616  0.163284  1
  Al  Al20  1  0.522435  0.674137  0.770604  1
  Al  Al21  1  0.018209  0.670154  0.265567  1
  Al  Al22  1  0.296196  0.536501  0.625608  1
  Al  Al23  1  0.797672  0.538157  0.121580  1
  Al  Al24  1  0.297152  0.749384  0.836716  1
  Al  Al25  1  0.800381  0.749814  0.334427  1
  Al  Al26  1  0.981791  0.329846  0.734433  1
  Al  Al27  1  0.477565  0.325863  0.229396  1
  Al  Al28  1  0.814377  0.066556  0.590250  1
  Al  Al29  1  0.302036  0.061006  0.080692  1
  Al  Al30  1  0.550735  0.828117  0.615633  1
  Al  Al31  1  0.047989  0.833442  0.108786  1
  Al  Al32  1  0.133239  0.778095  0.969418  1
  Al  Al33  1  0.642891  0.777696  0.467140  1
  Al  Al34  1  0.697964  0.938994  0.919308  1
  Al  Al35  1  0.185623  0.933444  0.409750  1
  Al  Al36  1  0.952011  0.166558  0.891214  1
  Al  Al37  1  0.449265  0.171883  0.384367  1
  Al  Al38  1  0.357109  0.222304  0.532860  1
  Al  Al39  1  0.866761  0.221905  0.030582  1
  Al  Al40  1  0.500000  0.000000  0.500000  1
  Al  Al41  1  0.713288  0.357260  0.780449  1
  Al  Al42  1  0.212536  0.350518  0.276363  1
  Al  Al43  1  0.613261  0.444417  0.967288  1
  Al  Al44  1  0.114000  0.442802  0.467632  1
  Al  Al45  1  0.377954  0.064436  0.824426  1
  Al  Al46  1  0.882553  0.067393  0.321116  1
  Al  Al47  1  0.787464  0.649482  0.723637  1
  Al  Al48  1  0.286712  0.642740  0.219551  1
  Al  Al49  1  0.886000  0.557198  0.532368  1
  Al  Al50  1  0.386739  0.555583  0.032712  1
  Al  Al51  1  0.117447  0.932607  0.678884  1
  Al  Al52  1  0.622046  0.935564  0.175574  1
  Si  Si53  1  0.912013  0.461001  0.934370  1
  Si  Si54  1  0.414431  0.462371  0.434228  1
  Si  Si55  1  0.532952  0.134386  0.991672  1
  Si  Si56  1  0.028232  0.131358  0.490058  1
  Si  Si57  1  0.636104  0.015571  0.771887  1
  Si  Si58  1  0.139843  0.026503  0.266862  1
  Si  Si59  1  0.585569  0.537629  0.565772  1
  Si  Si60  1  0.087987  0.538999  0.065630  1
  Si  Si61  1  0.971768  0.868642  0.509942  1
  Si  Si62  1  0.467048  0.865614  0.008328  1
  Si  Si63  1  0.860157  0.973497  0.733138  1
  Si  Si64  1  0.363896  0.984429  0.228113  1
  Os  Os65  1  0.687111  0.206600  0.895367  1
  Os  Os66  1  0.190510  0.207703  0.397277  1
  Os  Os67  1  0.809490  0.792297  0.602723  1
  Os  Os68  1  0.312889  0.793400  0.104633  1
  Os  Os69  1  0.994467  0.596446  0.828905  1
  Os  Os70  1  0.495263  0.598115  0.329162  1
  Os  Os71  1  0.984947  0.341818  0.582174  1
  Os  Os72  1  0.486296  0.342749  0.082993  1
  Os  Os73  1  0.357280  0.834244  0.701452  1
  Os  Os74  1  0.860910  0.835354  0.202199  1
  Os  Os75  1  0.504737  0.401885  0.670838  1
  Os  Os76  1  0.005533  0.403554  0.171095  1
  Os  Os77  1  0.513704  0.657251  0.917007  1
  Os  Os78  1  0.015053  0.658182  0.417826  1
  Os  Os79  1  0.139090  0.164646  0.797801  1
  Os  Os80  1  0.642720  0.165756  0.298548  1
  Os  Os81  1  0.000000  0.000000  0.000000  1
