# generated using pymatgen
data_LaNdHo2(NiP)4
_symmetry_space_group_name_H-M   'P 1'
_cell_length_a   3.94141300
_cell_length_b   3.94141430
_cell_length_c   15.89797200
_cell_angle_alpha   90.00000000
_cell_angle_beta   90.00000000
_cell_angle_gamma   119.99999746
_symmetry_Int_Tables_number   1
_chemical_formula_structural   LaNdHo2(NiP)4
_chemical_formula_sum   'La1 Nd1 Ho2 Ni4 P4'
_cell_volume   213.88306718
_cell_formula_units_Z   1
loop_
 _symmetry_equiv_pos_site_id
 _symmetry_equiv_pos_as_xyz
  1  'x, y, z'
loop_
 _atom_site_type_symbol
 _atom_site_label
 _atom_site_symmetry_multiplicity
 _atom_site_fract_x
 _atom_site_fract_y
 _atom_site_fract_z
 _atom_site_occupancy
  La  La0  1  0.000000  0.000000  0.500000  1
  Nd  Nd1  1  0.000000  0.000000  0.000000  1
  Ho  Ho2  1  0.000000  0.000000  0.248089  1
  Ho  Ho3  1  0.000000  0.000000  0.751911  1
  Ni  Ni4  1  0.333333  0.666667  0.364277  1
  Ni  Ni5  1  0.666667  0.333333  0.635723  1
  Ni  Ni6  1  0.666667  0.333333  0.868754  1
  Ni  Ni7  1  0.333333  0.666667  0.131246  1
  P  P8  1  0.333333  0.666667  0.873229  1
  P  P9  1  0.666667  0.333333  0.126771  1
  P  P10  1  0.666667  0.333333  0.368495  1
  P  P11  1  0.333333  0.666667  0.631505  1
