# generated using pymatgen
data_K2CaGaF7
_symmetry_space_group_name_H-M   'P 1'
_cell_length_a   7.98733994
_cell_length_b   7.98734013
_cell_length_c   7.98734012
_cell_angle_alpha   120.52182658
_cell_angle_beta   117.47794353
_cell_angle_gamma   91.76076916
_symmetry_Int_Tables_number   1
_chemical_formula_structural   K2CaGaF7
_chemical_formula_sum   'K4 Ca2 Ga2 F14'
_cell_volume   365.27206681
_cell_formula_units_Z   2
loop_
 _symmetry_equiv_pos_site_id
 _symmetry_equiv_pos_as_xyz
  1  'x, y, z'
loop_
 _atom_site_type_symbol
 _atom_site_label
 _atom_site_symmetry_multiplicity
 _atom_site_fract_x
 _atom_site_fract_y
 _atom_site_fract_z
 _atom_site_occupancy
  K  K0  1  0.500000  0.500000  0.000000  1
  K  K1  1  0.000000  0.000000  0.000000  1
  K  K2  1  0.000000  0.500000  0.000000  1
  K  K3  1  0.000000  0.000000  0.500000  1
  Ca  Ca4  1  0.500000  0.500000  0.500000  1
  Ca  Ca5  1  0.500000  0.000000  0.000000  1
  Ga  Ga6  1  0.000000  0.500000  0.500000  1
  Ga  Ga7  1  0.500000  0.000000  0.500000  1
  F  F8  1  0.873912  0.580311  0.293601  1
  F  F9  1  0.213289  0.919689  0.293601  1
  F  F10  1  0.175618  0.785808  0.742780  1
  F  F11  1  0.456972  0.714192  0.389809  1
  F  F12  1  0.456972  0.067163  0.742780  1
  F  F13  1  0.175618  0.432837  0.389809  1
  F  F14  1  0.824382  0.567163  0.610191  1
  F  F15  1  0.543028  0.932837  0.257220  1
  F  F16  1  0.543028  0.285808  0.610191  1
  F  F17  1  0.824382  0.214192  0.257220  1
  F  F18  1  0.368215  0.250000  0.118215  1
  F  F19  1  0.126088  0.419689  0.706399  1
  F  F20  1  0.786711  0.080311  0.706399  1
  F  F21  1  0.631785  0.750000  0.881785  1
