# generated using pymatgen
data_Tm4LuBe4P8Ir19
_symmetry_space_group_name_H-M   'P 1'
_cell_length_a   12.60384124
_cell_length_b   12.50009659
_cell_length_c   3.93416500
_cell_angle_alpha   90.00000000
_cell_angle_beta   90.00000000
_cell_angle_gamma   120.05100641
_symmetry_Int_Tables_number   1
_chemical_formula_structural   Tm4LuBe4P8Ir19
_chemical_formula_sum   'Tm4 Lu1 Be4 P8 Ir19'
_cell_volume   536.50781085
_cell_formula_units_Z   1
loop_
 _symmetry_equiv_pos_site_id
 _symmetry_equiv_pos_as_xyz
  1  'x, y, z'
loop_
 _atom_site_type_symbol
 _atom_site_label
 _atom_site_symmetry_multiplicity
 _atom_site_fract_x
 _atom_site_fract_y
 _atom_site_fract_z
 _atom_site_occupancy
  Tm  Tm0  1  0.677534  0.331485  0.500000  1
  Tm  Tm1  1  0.183202  0.191488  0.000000  1
  Tm  Tm2  1  0.808664  0.999985  0.000000  1
  Tm  Tm3  1  0.005139  0.815345  0.000000  1
  Lu  Lu4  1  0.334268  0.667177  0.500000  1
  Be  Be5  1  0.314535  0.835254  0.000000  1
  Be  Be6  1  0.164536  0.478355  0.000000  1
  Be  Be7  1  0.520708  0.684380  0.000000  1
  Be  Be8  1  0.830704  0.308042  0.000000  1
  P  P9  1  0.485493  0.176523  0.000000  1
  P  P10  1  0.697493  0.517378  0.000000  1
  P  P11  1  0.361253  0.373909  0.500000  1
  P  P12  1  0.626644  0.993376  0.500000  1
  P  P13  1  0.007569  0.631891  0.500000  1
  P  P14  1  0.818338  0.820643  0.500000  1
  P  P15  1  0.181266  0.002149  0.500000  1
  P  P16  1  0.995697  0.180361  0.500000  1
  Ir  Ir17  1  0.194334  0.820227  0.500000  1
  Ir  Ir18  1  0.177597  0.375986  0.500000  1
  Ir  Ir19  1  0.624674  0.805184  0.500000  1
  Ir  Ir20  1  0.810973  0.186894  0.500000  1
  Ir  Ir21  1  0.377004  0.190803  0.500000  1
  Ir  Ir22  1  0.809144  0.623339  0.500000  1
  Ir  Ir23  1  0.128352  0.641144  0.000000  1
  Ir  Ir24  1  0.356813  0.484564  0.000000  1
  Ir  Ir25  1  0.511270  0.867511  0.000000  1
  Ir  Ir26  1  0.633786  0.127957  0.000000  1
  Ir  Ir27  1  0.500575  0.368347  0.000000  1
  Ir  Ir28  1  0.875312  0.509943  0.000000  1
  Ir  Ir29  1  0.546852  0.554085  0.500000  1
  Ir  Ir30  1  0.443358  0.991168  0.500000  1
  Ir  Ir31  1  0.995437  0.443110  0.500000  1
  Ir  Ir32  1  0.719242  0.714926  0.000000  1
  Ir  Ir33  1  0.286435  0.007061  0.000000  1
  Ir  Ir34  1  0.995796  0.279976  0.000000  1
  Ir  Ir35  1  0.999999  0.000033  0.500000  1
