# generated using pymatgen
data_Tb2GaNiI2
_symmetry_space_group_name_H-M   'P 1'
_cell_length_a   4.16158400
_cell_length_b   4.16158360
_cell_length_c   11.50639600
_cell_angle_alpha   90.00000000
_cell_angle_beta   90.00000000
_cell_angle_gamma   120.00000319
_symmetry_Int_Tables_number   1
_chemical_formula_structural   Tb2GaNiI2
_chemical_formula_sum   'Tb2 Ga1 Ni1 I2'
_cell_volume   172.57871164
_cell_formula_units_Z   1
loop_
 _symmetry_equiv_pos_site_id
 _symmetry_equiv_pos_as_xyz
  1  'x, y, z'
loop_
 _atom_site_type_symbol
 _atom_site_label
 _atom_site_symmetry_multiplicity
 _atom_site_fract_x
 _atom_site_fract_y
 _atom_site_fract_z
 _atom_site_occupancy
  Tb  Tb0  1  0.000000  0.000000  0.160193  1
  Tb  Tb1  1  0.000000  0.000000  0.838371  1
  Ga  Ga2  1  0.666667  0.333333  0.996477  1
  Ni  Ni3  1  0.333333  0.666667  0.004920  1
  I  I4  1  0.333333  0.666667  0.656755  1
  I  I5  1  0.666667  0.333333  0.343284  1
