# generated using pymatgen
data_Li2Cd3Pd7
_symmetry_space_group_name_H-M   'P 1'
_cell_length_a   7.72239848
_cell_length_b   7.72239833
_cell_length_c   7.56608048
_cell_angle_alpha   43.04384196
_cell_angle_beta   43.04384242
_cell_angle_gamma   44.55299867
_symmetry_Int_Tables_number   1
_chemical_formula_structural   Li2Cd3Pd7
_chemical_formula_sum   'Li2 Cd3 Pd7'
_cell_volume   194.17161175
_cell_formula_units_Z   1
loop_
 _symmetry_equiv_pos_site_id
 _symmetry_equiv_pos_as_xyz
  1  'x, y, z'
loop_
 _atom_site_type_symbol
 _atom_site_label
 _atom_site_symmetry_multiplicity
 _atom_site_fract_x
 _atom_site_fract_y
 _atom_site_fract_z
 _atom_site_occupancy
  Li  Li0  1  0.500468  0.500468  0.999689  1
  Li  Li1  1  0.705856  0.705856  0.254795  1
  Cd  Cd2  1  0.001642  0.001642  0.997293  1
  Cd  Cd3  1  0.213119  0.213119  0.238012  1
  Cd  Cd4  1  0.787995  0.787995  0.759262  1
  Pd  Pd5  1  0.780973  0.290194  0.260517  1
  Pd  Pd6  1  0.290194  0.780973  0.260517  1
  Pd  Pd7  1  0.501320  0.999696  0.495584  1
  Pd  Pd8  1  0.999696  0.501320  0.495584  1
  Pd  Pd9  1  0.710928  0.220480  0.739664  1
  Pd  Pd10  1  0.220480  0.710928  0.739664  1
  Pd  Pd11  1  0.287329  0.287329  0.759417  1
