# generated using pymatgen
data_Ho16Zr3ScIr12
_symmetry_space_group_name_H-M   'P 1'
_cell_length_a   10.80539000
_cell_length_b   10.80539000
_cell_length_c   6.25433100
_cell_angle_alpha   90.00000000
_cell_angle_beta   90.00000000
_cell_angle_gamma   90.00000000
_symmetry_Int_Tables_number   1
_chemical_formula_structural   Ho16Zr3ScIr12
_chemical_formula_sum   'Ho16 Zr3 Sc1 Ir12'
_cell_volume   730.23350377
_cell_formula_units_Z   1
loop_
 _symmetry_equiv_pos_site_id
 _symmetry_equiv_pos_as_xyz
  1  'x, y, z'
loop_
 _atom_site_type_symbol
 _atom_site_label
 _atom_site_symmetry_multiplicity
 _atom_site_fract_x
 _atom_site_fract_y
 _atom_site_fract_z
 _atom_site_occupancy
  Ho  Ho0  1  0.289959  0.086293  0.375361  1
  Ho  Ho1  1  0.289715  0.913154  0.875648  1
  Ho  Ho2  1  0.710285  0.086846  0.875648  1
  Ho  Ho3  1  0.710041  0.913707  0.375361  1
  Ho  Ho4  1  0.586733  0.789575  0.876796  1
  Ho  Ho5  1  0.586091  0.211466  0.376018  1
  Ho  Ho6  1  0.413909  0.788534  0.376018  1
  Ho  Ho7  1  0.413267  0.210425  0.876796  1
  Ho  Ho8  1  0.211466  0.413909  0.623982  1
  Ho  Ho9  1  0.210425  0.586733  0.123204  1
  Ho  Ho10  1  0.789575  0.413267  0.123204  1
  Ho  Ho11  1  0.788534  0.586091  0.623982  1
  Ho  Ho12  1  0.913154  0.710285  0.124352  1
  Ho  Ho13  1  0.913707  0.289959  0.624639  1
  Ho  Ho14  1  0.086293  0.710041  0.624639  1
  Ho  Ho15  1  0.086846  0.289715  0.124352  1
  Zr  Zr16  1  0.000000  0.000000  0.500000  1
  Zr  Zr17  1  0.000000  0.000000  0.000000  1
  Zr  Zr18  1  0.500000  0.500000  0.000000  1
  Sc  Sc19  1  0.500000  0.500000  0.500000  1
  Ir  Ir20  1  0.853876  0.146092  0.250560  1
  Ir  Ir21  1  0.853908  0.853876  0.749440  1
  Ir  Ir22  1  0.146092  0.146124  0.749440  1
  Ir  Ir23  1  0.146124  0.853908  0.250560  1
  Ir  Ir24  1  0.646629  0.352660  0.752624  1
  Ir  Ir25  1  0.647340  0.646629  0.247376  1
  Ir  Ir26  1  0.352660  0.353371  0.247376  1
  Ir  Ir27  1  0.353371  0.647340  0.752624  1
  Ir  Ir28  1  0.500000  0.000000  0.123349  1
  Ir  Ir29  1  0.500000  0.000000  0.622824  1
  Ir  Ir30  1  0.000000  0.500000  0.876651  1
  Ir  Ir31  1  0.000000  0.500000  0.377176  1
