# generated using pymatgen
data_K2CeTh(SbSe3)4
_symmetry_space_group_name_H-M   'P 1'
_cell_length_a   4.23505949
_cell_length_b   15.27800752
_cell_length_c   17.20709421
_cell_angle_alpha   90.37570623
_cell_angle_beta   92.56552648
_cell_angle_gamma   89.70465280
_symmetry_Int_Tables_number   1
_chemical_formula_structural   K2CeTh(SbSe3)4
_chemical_formula_sum   'K4 Ce2 Th2 Sb8 Se24'
_cell_volume   1112.20225852
_cell_formula_units_Z   2
loop_
 _symmetry_equiv_pos_site_id
 _symmetry_equiv_pos_as_xyz
  1  'x, y, z'
loop_
 _atom_site_type_symbol
 _atom_site_label
 _atom_site_symmetry_multiplicity
 _atom_site_fract_x
 _atom_site_fract_y
 _atom_site_fract_z
 _atom_site_occupancy
  K  K0  1  0.266342  0.716761  0.672262  1
  K  K1  1  0.264084  0.785829  0.169876  1
  K  K2  1  0.733658  0.283239  0.327738  1
  K  K3  1  0.735916  0.214171  0.830124  1
  Ce  Ce4  1  0.702257  0.130139  0.091322  1
  Ce  Ce5  1  0.297743  0.869861  0.908678  1
  Th  Th6  1  0.703255  0.370544  0.591064  1
  Th  Th7  1  0.296745  0.629456  0.408936  1
  Sb  Sb8  1  0.262714  0.123344  0.526691  1
  Sb  Sb9  1  0.263599  0.373976  0.026202  1
  Sb  Sb10  1  0.736401  0.626024  0.973798  1
  Sb  Sb11  1  0.241866  0.025402  0.293329  1
  Sb  Sb12  1  0.760187  0.522688  0.202580  1
  Sb  Sb13  1  0.758134  0.974598  0.706671  1
  Sb  Sb14  1  0.737286  0.876656  0.473309  1
  Sb  Sb15  1  0.239813  0.477312  0.797420  1
  Se  Se16  1  0.332637  0.468539  0.302280  1
  Se  Se17  1  0.675602  0.969324  0.194048  1
  Se  Se18  1  0.324398  0.030676  0.805952  1
  Se  Se19  1  0.261732  0.830911  0.372421  1
  Se  Se20  1  0.738268  0.169089  0.627579  1
  Se  Se21  1  0.695110  0.075318  0.408413  1
  Se  Se22  1  0.304890  0.924682  0.591587  1
  Se  Se23  1  0.214263  0.205136  0.985814  1
  Se  Se24  1  0.262023  0.668478  0.871973  1
  Se  Se25  1  0.210194  0.293067  0.484387  1
  Se  Se26  1  0.737977  0.331522  0.128027  1
  Se  Se27  1  0.307953  0.577331  0.090232  1
  Se  Se28  1  0.184398  0.987747  0.057339  1
  Se  Se29  1  0.786450  0.826818  0.789284  1
  Se  Se30  1  0.667363  0.531461  0.697720  1
  Se  Se31  1  0.783752  0.672390  0.288161  1
  Se  Se32  1  0.692047  0.422669  0.909768  1
  Se  Se33  1  0.213550  0.173182  0.210716  1
  Se  Se34  1  0.216248  0.327610  0.711839  1
  Se  Se35  1  0.785737  0.794864  0.014186  1
  Se  Se36  1  0.815602  0.012253  0.942661  1
  Se  Se37  1  0.182450  0.513578  0.559650  1
  Se  Se38  1  0.817550  0.486422  0.440350  1
  Se  Se39  1  0.789806  0.706933  0.515613  1
