# generated using pymatgen
data_Nd4Er12Cd4OsPd3
_symmetry_space_group_name_H-M   'P 1'
_cell_length_a   9.72258899
_cell_length_b   9.71126617
_cell_length_c   9.71126734
_cell_angle_alpha   59.77885721
_cell_angle_beta   59.46257596
_cell_angle_gamma   59.46257151
_symmetry_Int_Tables_number   1
_chemical_formula_structural   Nd4Er12Cd4OsPd3
_chemical_formula_sum   'Nd4 Er12 Cd4 Os1 Pd3'
_cell_volume   641.98305273
_cell_formula_units_Z   1
loop_
 _symmetry_equiv_pos_site_id
 _symmetry_equiv_pos_as_xyz
  1  'x, y, z'
loop_
 _atom_site_type_symbol
 _atom_site_label
 _atom_site_symmetry_multiplicity
 _atom_site_fract_x
 _atom_site_fract_y
 _atom_site_fract_z
 _atom_site_occupancy
  Nd  Nd0  1  0.565735  0.934435  0.566039  1
  Nd  Nd1  1  0.937968  0.558368  0.936772  1
  Nd  Nd2  1  0.565735  0.566039  0.934435  1
  Nd  Nd3  1  0.937968  0.936772  0.558368  1
  Er  Er4  1  0.351952  0.353154  0.353154  1
  Er  Er5  1  0.348909  0.348553  0.949949  1
  Er  Er6  1  0.348909  0.949949  0.348553  1
  Er  Er7  1  0.948304  0.349378  0.349378  1
  Er  Er8  1  0.818644  0.186198  0.186198  1
  Er  Er9  1  0.186202  0.811795  0.811795  1
  Er  Er10  1  0.187424  0.817320  0.187084  1
  Er  Er11  1  0.811445  0.185151  0.811341  1
  Er  Er12  1  0.187424  0.187084  0.817320  1
  Er  Er13  1  0.811445  0.811341  0.185151  1
  Er  Er14  1  0.938417  0.560847  0.560847  1
  Er  Er15  1  0.552821  0.942012  0.942012  1
  Cd  Cd16  1  0.582091  0.578413  0.578413  1
  Cd  Cd17  1  0.578634  0.582544  0.258277  1
  Cd  Cd18  1  0.578634  0.258277  0.582544  1
  Cd  Cd19  1  0.257858  0.579213  0.579213  1
  Os  Os20  1  0.145286  0.142376  0.142376  1
  Pd  Pd21  1  0.143539  0.146036  0.571085  1
  Pd  Pd22  1  0.143539  0.571085  0.146036  1
  Pd  Pd23  1  0.571118  0.143659  0.143659  1
