# generated using pymatgen
data_HfVGaRh5
_symmetry_space_group_name_H-M   'P 1'
_cell_length_a   4.00058300
_cell_length_b   5.47152916
_cell_length_c   10.80046121
_cell_angle_alpha   90.69553407
_cell_angle_beta   90.00000000
_cell_angle_gamma   90.00000000
_symmetry_Int_Tables_number   1
_chemical_formula_structural   HfVGaRh5
_chemical_formula_sum   'Hf2 V2 Ga2 Rh10'
_cell_volume   236.39718706
_cell_formula_units_Z   2
loop_
 _symmetry_equiv_pos_site_id
 _symmetry_equiv_pos_as_xyz
  1  'x, y, z'
loop_
 _atom_site_type_symbol
 _atom_site_label
 _atom_site_symmetry_multiplicity
 _atom_site_fract_x
 _atom_site_fract_y
 _atom_site_fract_z
 _atom_site_occupancy
  Hf  Hf0  1  0.500000  0.686072  0.860308  1
  Hf  Hf1  1  0.500000  0.313928  0.139692  1
  V  V2  1  0.500000  0.175883  0.640243  1
  V  V3  1  0.500000  0.824117  0.359757  1
  Ga  Ga4  1  0.000000  0.500000  0.500000  1
  Ga  Ga5  1  0.000000  0.000000  0.000000  1
  Rh  Rh6  1  0.500000  0.192427  0.879616  1
  Rh  Rh7  1  0.500000  0.807573  0.120384  1
  Rh  Rh8  1  0.500000  0.706601  0.602768  1
  Rh  Rh9  1  0.500000  0.293399  0.397232  1
  Rh  Rh10  1  0.000000  0.428198  0.736601  1
  Rh  Rh11  1  0.000000  0.571802  0.263399  1
  Rh  Rh12  1  0.000000  0.000000  0.500000  1
  Rh  Rh13  1  0.000000  0.500000  0.000000  1
  Rh  Rh14  1  0.000000  0.056380  0.255139  1
  Rh  Rh15  1  0.000000  0.943620  0.744861  1
