# generated using pymatgen
data_TbPr2Si4(AsPd10)2
_symmetry_space_group_name_H-M   'P 1'
_cell_length_a   8.75964690
_cell_length_b   8.85745142
_cell_length_c   8.85745212
_cell_angle_alpha   59.27079608
_cell_angle_beta   60.36460389
_cell_angle_gamma   60.36460919
_symmetry_Int_Tables_number   1
_chemical_formula_structural   TbPr2Si4(AsPd10)2
_chemical_formula_sum   'Tb1 Pr2 Si4 As2 Pd20'
_cell_volume   485.83014608
_cell_formula_units_Z   1
loop_
 _symmetry_equiv_pos_site_id
 _symmetry_equiv_pos_as_xyz
  1  'x, y, z'
loop_
 _atom_site_type_symbol
 _atom_site_label
 _atom_site_symmetry_multiplicity
 _atom_site_fract_x
 _atom_site_fract_y
 _atom_site_fract_z
 _atom_site_occupancy
  Tb  Tb0  1  0.000000  0.000000  0.000000  1
  Pr  Pr1  1  0.250000  0.250000  0.250000  1
  Pr  Pr2  1  0.750000  0.750000  0.750000  1
  Si  Si3  1  0.266357  0.733643  0.266357  1
  Si  Si4  1  0.733643  0.266357  0.733643  1
  Si  Si5  1  0.266357  0.266357  0.733643  1
  Si  Si6  1  0.733643  0.733643  0.266357  1
  As  As7  1  0.736353  0.263647  0.263647  1
  As  As8  1  0.263647  0.736353  0.736353  1
  Pd  Pd9  1  0.380671  0.387916  0.387916  1
  Pd  Pd10  1  0.619329  0.612084  0.612084  1
  Pd  Pd11  1  0.387916  0.380671  0.843498  1
  Pd  Pd12  1  0.387916  0.843498  0.380671  1
  Pd  Pd13  1  0.612084  0.619329  0.156502  1
  Pd  Pd14  1  0.612084  0.156502  0.619329  1
  Pd  Pd15  1  0.843498  0.387916  0.387916  1
  Pd  Pd16  1  0.156502  0.612084  0.612084  1
  Pd  Pd17  1  0.345757  0.000000  0.000000  1
  Pd  Pd18  1  0.654243  0.000000  0.000000  1
  Pd  Pd19  1  0.000000  0.345757  0.654243  1
  Pd  Pd20  1  0.000000  0.654243  0.345757  1
  Pd  Pd21  1  0.008285  0.346680  0.991715  1
  Pd  Pd22  1  0.653320  0.991715  0.346680  1
  Pd  Pd23  1  0.991715  0.653320  0.008285  1
  Pd  Pd24  1  0.346680  0.008285  0.653320  1
  Pd  Pd25  1  0.008285  0.991715  0.346680  1
  Pd  Pd26  1  0.991715  0.008285  0.653320  1
  Pd  Pd27  1  0.653320  0.346680  0.991715  1
  Pd  Pd28  1  0.346680  0.653320  0.008285  1
