# generated using pymatgen
data_ReRh8
_symmetry_space_group_name_H-M   'P 1'
_cell_length_a   6.08550647
_cell_length_b   6.08550724
_cell_length_c   6.08550651
_cell_angle_alpha   95.74729648
_cell_angle_beta   95.74729477
_cell_angle_gamma   143.10315238
_symmetry_Int_Tables_number   1
_chemical_formula_structural   ReRh8
_chemical_formula_sum   'Re1 Rh8'
_cell_volume   128.35150099
_cell_formula_units_Z   1
loop_
 _symmetry_equiv_pos_site_id
 _symmetry_equiv_pos_as_xyz
  1  'x, y, z'
loop_
 _atom_site_type_symbol
 _atom_site_label
 _atom_site_symmetry_multiplicity
 _atom_site_fract_x
 _atom_site_fract_y
 _atom_site_fract_z
 _atom_site_occupancy
  Re  Re0  1  0.000000  0.000000  0.000000  1
  Rh  Rh1  1  0.662333  0.337666  0.000000  1
  Rh  Rh2  1  0.337666  0.662333  0.000000  1
  Rh  Rh3  1  0.662333  0.662333  0.324667  1
  Rh  Rh4  1  0.330409  0.000000  0.330409  1
  Rh  Rh5  1  0.000000  0.330409  0.330409  1
  Rh  Rh6  1  0.669591  0.000000  0.669591  1
  Rh  Rh7  1  0.000000  0.669591  0.669591  1
  Rh  Rh8  1  0.337667  0.337667  0.675333  1
