# generated using pymatgen
data_SrPrTl2(Ir2O7)2
_symmetry_space_group_name_H-M   'P 1'
_cell_length_a   7.38671657
_cell_length_b   7.51404569
_cell_length_c   7.38671666
_cell_angle_alpha   59.09843046
_cell_angle_beta   59.14318519
_cell_angle_gamma   59.09842314
_symmetry_Int_Tables_number   1
_chemical_formula_structural   SrPrTl2(Ir2O7)2
_chemical_formula_sum   'Sr1 Pr1 Tl2 Ir4 O14'
_cell_volume   284.04937890
_cell_formula_units_Z   1
loop_
 _symmetry_equiv_pos_site_id
 _symmetry_equiv_pos_as_xyz
  1  'x, y, z'
loop_
 _atom_site_type_symbol
 _atom_site_label
 _atom_site_symmetry_multiplicity
 _atom_site_fract_x
 _atom_site_fract_y
 _atom_site_fract_z
 _atom_site_occupancy
  Sr  Sr0  1  0.125000  0.625000  0.125000  1
  Pr  Pr1  1  0.125000  0.125000  0.125000  1
  Tl  Tl2  1  0.125000  0.125000  0.625000  1
  Tl  Tl3  1  0.625000  0.125000  0.125000  1
  Ir  Ir4  1  0.625000  0.625000  0.625000  1
  Ir  Ir5  1  0.125000  0.625000  0.625000  1
  Ir  Ir6  1  0.625000  0.125000  0.625000  1
  Ir  Ir7  1  0.625000  0.625000  0.125000  1
  O  O8  1  0.949110  0.543812  0.559942  1
  O  O9  1  0.299480  0.299529  0.698907  1
  O  O10  1  0.954007  0.540381  0.954007  1
  O  O11  1  0.698907  0.299529  0.299480  1
  O  O12  1  0.559942  0.543812  0.949110  1
  O  O13  1  0.548214  0.952558  0.548214  1
  O  O14  1  0.551093  0.950471  0.950520  1
  O  O15  1  0.260456  0.232373  0.260456  1
  O  O16  1  0.300890  0.706188  0.690058  1
  O  O17  1  0.701786  0.297442  0.701786  1
  O  O18  1  0.989544  0.017627  0.989544  1
  O  O19  1  0.950520  0.950471  0.551093  1
  O  O20  1  0.295993  0.709619  0.295993  1
  O  O21  1  0.690058  0.706188  0.300890  1
