# generated using pymatgen
data_Y5Ho(SiPd5)2
_symmetry_space_group_name_H-M   'P 1'
_cell_length_a   8.22266586
_cell_length_b   8.22266484
_cell_length_c   8.22266489
_cell_angle_alpha   127.28532905
_cell_angle_beta   125.45014419
_cell_angle_gamma   79.29344609
_symmetry_Int_Tables_number   1
_chemical_formula_structural   Y5Ho(SiPd5)2
_chemical_formula_sum   'Y5 Ho1 Si2 Pd10'
_cell_volume   348.37663086
_cell_formula_units_Z   1
loop_
 _symmetry_equiv_pos_site_id
 _symmetry_equiv_pos_as_xyz
  1  'x, y, z'
loop_
 _atom_site_type_symbol
 _atom_site_label
 _atom_site_symmetry_multiplicity
 _atom_site_fract_x
 _atom_site_fract_y
 _atom_site_fract_z
 _atom_site_occupancy
  Y  Y0  1  0.226007  0.449931  0.776076  1
  Y  Y1  1  0.773642  0.550195  0.223447  1
  Y  Y2  1  0.826144  0.050069  0.776076  1
  Y  Y3  1  0.173252  0.949805  0.223447  1
  Y  Y4  1  0.391859  0.250000  0.141859  1
  Ho  Ho5  1  0.607017  0.750000  0.857017  1
  Si  Si6  1  0.783249  0.250000  0.533249  1
  Si  Si7  1  0.218621  0.750000  0.468621  1
  Pd  Pd8  1  0.167892  0.399999  0.355835  1
  Pd  Pd9  1  0.831142  0.185914  0.231315  1
  Pd  Pd10  1  0.455836  0.100001  0.767894  1
  Pd  Pd11  1  0.545401  0.314086  0.645228  1
  Pd  Pd12  1  0.999834  0.502182  0.002016  1
  Pd  Pd13  1  0.999834  0.997818  0.497652  1
  Pd  Pd14  1  0.455836  0.687942  0.355835  1
  Pd  Pd15  1  0.545401  0.900173  0.231315  1
  Pd  Pd16  1  0.167892  0.812058  0.767894  1
  Pd  Pd17  1  0.831142  0.599827  0.645228  1
