# generated using pymatgen
data_CsMg4Bi3
_symmetry_space_group_name_H-M   'P 1'
_cell_length_a   4.86693000
_cell_length_b   4.86693000
_cell_length_c   11.76705700
_cell_angle_alpha   90.00000000
_cell_angle_beta   90.00000000
_cell_angle_gamma   90.00000000
_symmetry_Int_Tables_number   1
_chemical_formula_structural   CsMg4Bi3
_chemical_formula_sum   'Cs1 Mg4 Bi3'
_cell_volume   278.72636888
_cell_formula_units_Z   1
loop_
 _symmetry_equiv_pos_site_id
 _symmetry_equiv_pos_as_xyz
  1  'x, y, z'
loop_
 _atom_site_type_symbol
 _atom_site_label
 _atom_site_symmetry_multiplicity
 _atom_site_fract_x
 _atom_site_fract_y
 _atom_site_fract_z
 _atom_site_occupancy
  Cs  Cs0  1  0.000000  0.000000  0.500000  1
  Mg  Mg1  1  0.499999  0.000000  0.163113  1
  Mg  Mg2  1  0.000000  0.499999  0.163113  1
  Mg  Mg3  1  0.499999  0.000000  0.836887  1
  Mg  Mg4  1  0.000000  0.499999  0.836887  1
  Bi  Bi5  1  0.000000  0.000000  0.000000  1
  Bi  Bi6  1  0.499999  0.499999  0.303437  1
  Bi  Bi7  1  0.499999  0.499999  0.696563  1
