# generated using pymatgen
data_Ba3AcBi3
_symmetry_space_group_name_H-M   'P 1'
_cell_length_a   9.26444896
_cell_length_b   9.18225438
_cell_length_c   9.21590733
_cell_angle_alpha   109.41749358
_cell_angle_beta   109.61884846
_cell_angle_gamma   109.63213223
_symmetry_Int_Tables_number   1
_chemical_formula_structural   Ba3AcBi3
_chemical_formula_sum   'Ba6 Ac2 Bi6'
_cell_volume   601.60355871
_cell_formula_units_Z   2
loop_
 _symmetry_equiv_pos_site_id
 _symmetry_equiv_pos_as_xyz
  1  'x, y, z'
loop_
 _atom_site_type_symbol
 _atom_site_label
 _atom_site_symmetry_multiplicity
 _atom_site_fract_x
 _atom_site_fract_y
 _atom_site_fract_z
 _atom_site_occupancy
  Ba  Ba0  1  0.140647  0.503326  0.004320  1
  Ba  Ba1  1  0.367926  0.365856  0.360705  1
  Ba  Ba2  1  0.637321  0.496674  0.000994  1
  Ba  Ba3  1  0.495981  0.001511  0.639023  1
  Ba  Ba4  1  0.494470  0.998489  0.137512  1
  Ba  Ba5  1  0.002070  0.634144  0.494850  1
  Ac  Ac6  1  0.860527  0.859908  0.858557  1
  Ac  Ac7  1  0.000620  0.140092  0.498649  1
  Bi  Bi8  1  0.232027  0.119018  0.864589  1
  Bi  Bi9  1  0.113009  0.880982  0.245571  1
  Bi  Bi10  1  0.758760  0.381332  0.629250  1
  Bi  Bi11  1  0.876213  0.233207  0.125634  1
  Bi  Bi12  1  0.643005  0.766793  0.392427  1
  Bi  Bi13  1  0.377428  0.618668  0.747918  1
