# generated using pymatgen
data_Dy20Sn11Bi5
_symmetry_space_group_name_H-M   'P 1'
_cell_length_a   8.21223805
_cell_length_b   8.20959574
_cell_length_c   15.57192000
_cell_angle_alpha   90.12602213
_cell_angle_beta   90.35659749
_cell_angle_gamma   89.89772717
_symmetry_Int_Tables_number   1
_chemical_formula_structural   Dy20Sn11Bi5
_chemical_formula_sum   'Dy20 Sn11 Bi5'
_cell_volume   1049.82116098
_cell_formula_units_Z   1
loop_
 _symmetry_equiv_pos_site_id
 _symmetry_equiv_pos_as_xyz
  1  'x, y, z'
loop_
 _atom_site_type_symbol
 _atom_site_label
 _atom_site_symmetry_multiplicity
 _atom_site_fract_x
 _atom_site_fract_y
 _atom_site_fract_z
 _atom_site_occupancy
  Dy  Dy0  1  0.391436  0.838472  0.877272  1
  Dy  Dy1  1  0.891741  0.660875  0.621949  1
  Dy  Dy2  1  0.608367  0.159560  0.377411  1
  Dy  Dy3  1  0.105410  0.338082  0.122126  1
  Dy  Dy4  1  0.610948  0.164929  0.122686  1
  Dy  Dy5  1  0.115056  0.336199  0.379975  1
  Dy  Dy6  1  0.383348  0.837826  0.620850  1
  Dy  Dy7  1  0.887944  0.658205  0.878689  1
  Dy  Dy8  1  0.562737  0.335864  0.889260  1
  Dy  Dy9  1  0.060886  0.172518  0.608558  1
  Dy  Dy10  1  0.439942  0.672434  0.391926  1
  Dy  Dy11  1  0.940313  0.824556  0.112099  1
  Dy  Dy12  1  0.449282  0.663954  0.110927  1
  Dy  Dy13  1  0.958133  0.829401  0.393007  1
  Dy  Dy14  1  0.541140  0.330457  0.606287  1
  Dy  Dy15  1  0.053793  0.173512  0.888972  1
  Dy  Dy16  1  0.221436  0.501409  0.745848  1
  Dy  Dy17  1  0.721694  0.000937  0.748746  1
  Dy  Dy18  1  0.778426  0.498576  0.248072  1
  Dy  Dy19  1  0.278603  0.999165  0.253885  1
  Sn  Sn20  1  0.224933  0.525963  0.543845  1
  Sn  Sn21  1  0.274985  0.024947  0.456272  1
  Sn  Sn22  1  0.770448  0.479092  0.044788  1
  Sn  Sn23  1  0.586793  0.628825  0.748657  1
  Sn  Sn24  1  0.085470  0.873395  0.751793  1
  Sn  Sn25  1  0.412061  0.372135  0.249985  1
  Sn  Sn26  1  0.913572  0.126040  0.251012  1
  Sn  Sn27  1  0.360006  0.144420  0.751018  1
  Sn  Sn28  1  0.857906  0.356616  0.747918  1
  Sn  Sn29  1  0.641951  0.855589  0.251202  1
  Sn  Sn30  1  0.141915  0.641336  0.250348  1
  Bi  Bi31  1  0.266537  0.014989  0.045469  1
  Bi  Bi32  1  0.768896  0.479268  0.455241  1
  Bi  Bi33  1  0.730473  0.980170  0.544040  1
  Bi  Bi34  1  0.232101  0.518199  0.954786  1
  Bi  Bi35  1  0.731322  0.982088  0.955078  1
