# generated using pymatgen
data_TiMn3(MoO4)6
_symmetry_space_group_name_H-M   'P 1'
_cell_length_a   9.83208882
_cell_length_b   9.83208918
_cell_length_c   9.83208900
_cell_angle_alpha   57.90946668
_cell_angle_beta   57.90946537
_cell_angle_gamma   57.90946366
_symmetry_Int_Tables_number   1
_chemical_formula_structural   TiMn3(MoO4)6
_chemical_formula_sum   'Ti1 Mn3 Mo6 O24'
_cell_volume   639.83719917
_cell_formula_units_Z   1
loop_
 _symmetry_equiv_pos_site_id
 _symmetry_equiv_pos_as_xyz
  1  'x, y, z'
loop_
 _atom_site_type_symbol
 _atom_site_label
 _atom_site_symmetry_multiplicity
 _atom_site_fract_x
 _atom_site_fract_y
 _atom_site_fract_z
 _atom_site_occupancy
  Ti  Ti0  1  0.141102  0.141102  0.141102  1
  Mn  Mn1  1  0.856110  0.856110  0.856110  1
  Mn  Mn2  1  0.639199  0.639199  0.639199  1
  Mn  Mn3  1  0.357657  0.357657  0.357657  1
  Mo  Mo4  1  0.233417  0.538828  0.969661  1
  Mo  Mo5  1  0.969661  0.233417  0.538828  1
  Mo  Mo6  1  0.538828  0.969661  0.233417  1
  Mo  Mo7  1  0.472069  0.030825  0.756643  1
  Mo  Mo8  1  0.030825  0.756643  0.472069  1
  Mo  Mo9  1  0.756643  0.472069  0.030825  1
  O  O10  1  0.736623  0.493663  0.851858  1
  O  O11  1  0.493663  0.851858  0.736623  1
  O  O12  1  0.044908  0.726903  0.934334  1
  O  O13  1  0.851858  0.736623  0.493663  1
  O  O14  1  0.419299  0.562698  0.788631  1
  O  O15  1  0.209485  0.347101  0.012638  1
  O  O16  1  0.934334  0.044908  0.726903  1
  O  O17  1  0.788631  0.419299  0.562698  1
  O  O18  1  0.562698  0.788631  0.419299  1
  O  O19  1  0.663462  0.992082  0.779578  1
  O  O20  1  0.279776  0.073382  0.941827  1
  O  O21  1  0.992082  0.779578  0.663462  1
  O  O22  1  0.012638  0.209485  0.347101  1
  O  O23  1  0.726903  0.934334  0.044908  1
  O  O24  1  0.347101  0.012638  0.209485  1
  O  O25  1  0.448360  0.208781  0.569756  1
  O  O26  1  0.208781  0.569756  0.448360  1
  O  O27  1  0.073382  0.941827  0.279776  1
  O  O28  1  0.779578  0.663462  0.992082  1
  O  O29  1  0.569756  0.448360  0.208781  1
  O  O30  1  0.148796  0.258328  0.512216  1
  O  O31  1  0.941827  0.279776  0.073382  1
  O  O32  1  0.512216  0.148796  0.258328  1
  O  O33  1  0.258328  0.512216  0.148796  1
