# generated using pymatgen
data_RbTbY2F10
_symmetry_space_group_name_H-M   'P 1'
_cell_length_a   8.31887021
_cell_length_b   8.31887009
_cell_length_c   8.31843000
_cell_angle_alpha   60.00175000
_cell_angle_beta   60.00175048
_cell_angle_gamma   59.99649620
_symmetry_Int_Tables_number   1
_chemical_formula_structural   RbTbY2F10
_chemical_formula_sum   'Rb2 Tb2 Y4 F20'
_cell_volume   407.05683010
_cell_formula_units_Z   2
loop_
 _symmetry_equiv_pos_site_id
 _symmetry_equiv_pos_as_xyz
  1  'x, y, z'
loop_
 _atom_site_type_symbol
 _atom_site_label
 _atom_site_symmetry_multiplicity
 _atom_site_fract_x
 _atom_site_fract_y
 _atom_site_fract_z
 _atom_site_occupancy
  Rb  Rb0  1  0.250000  0.250000  0.250000  1
  Rb  Rb1  1  0.750000  0.750000  0.750000  1
  Tb  Tb2  1  0.240434  0.240434  0.759566  1
  Tb  Tb3  1  0.759566  0.759566  0.240434  1
  Y  Y4  1  0.759417  0.240583  0.240583  1
  Y  Y5  1  0.240583  0.759417  0.759417  1
  Y  Y6  1  0.240583  0.759417  0.240583  1
  Y  Y7  1  0.759417  0.240583  0.759417  1
  F  F8  1  0.829322  0.499775  0.500225  1
  F  F9  1  0.170678  0.500225  0.499775  1
  F  F10  1  0.499775  0.829322  0.170678  1
  F  F11  1  0.500225  0.170678  0.829322  1
  F  F12  1  0.499775  0.829322  0.500225  1
  F  F13  1  0.170678  0.500225  0.829322  1
  F  F14  1  0.500225  0.170678  0.499775  1
  F  F15  1  0.829322  0.499775  0.170678  1
  F  F16  1  0.500000  0.500000  0.829273  1
  F  F17  1  0.500000  0.500000  0.170727  1
  F  F18  1  0.170727  0.829273  0.500000  1
  F  F19  1  0.829273  0.170727  0.500000  1
  F  F20  1  0.110416  0.110416  0.110642  1
  F  F21  1  0.889584  0.889584  0.889358  1
  F  F22  1  0.110416  0.110416  0.668526  1
  F  F23  1  0.110642  0.668526  0.110416  1
  F  F24  1  0.889584  0.889584  0.331474  1
  F  F25  1  0.889358  0.331474  0.889584  1
  F  F26  1  0.668526  0.110642  0.110416  1
  F  F27  1  0.331474  0.889358  0.889584  1
