# generated using pymatgen
data_Th3FeSn3IrRh
_symmetry_space_group_name_H-M   'P 1'
_cell_length_a   7.56479500
_cell_length_b   7.56479556
_cell_length_c   4.06985000
_cell_angle_alpha   90.00000000
_cell_angle_beta   90.00000000
_cell_angle_gamma   120.00000193
_symmetry_Int_Tables_number   1
_chemical_formula_structural   Th3FeSn3IrRh
_chemical_formula_sum   'Th3 Fe1 Sn3 Ir1 Rh1'
_cell_volume   201.69883289
_cell_formula_units_Z   1
loop_
 _symmetry_equiv_pos_site_id
 _symmetry_equiv_pos_as_xyz
  1  'x, y, z'
loop_
 _atom_site_type_symbol
 _atom_site_label
 _atom_site_symmetry_multiplicity
 _atom_site_fract_x
 _atom_site_fract_y
 _atom_site_fract_z
 _atom_site_occupancy
  Th  Th0  1  0.409464  0.407534  0.500000  1
  Th  Th1  1  0.592466  0.001930  0.500000  1
  Th  Th2  1  0.998070  0.590536  0.500000  1
  Fe  Fe3  1  0.000000  0.000000  0.500000  1
  Sn  Sn4  1  0.756307  0.758234  0.000000  1
  Sn  Sn5  1  0.241766  0.998073  0.000000  1
  Sn  Sn6  1  0.001927  0.243693  0.000000  1
  Ir  Ir7  1  0.666667  0.333333  0.000000  1
  Rh  Rh8  1  0.333333  0.666667  0.000000  1
