# generated using pymatgen
data_Er4Hf3TcF28
_symmetry_space_group_name_H-M   'P 1'
_cell_length_a   5.61704628
_cell_length_b   8.93700433
_cell_length_c   12.07215516
_cell_angle_alpha   62.60603224
_cell_angle_beta   89.98157936
_cell_angle_gamma   89.96403406
_symmetry_Int_Tables_number   1
_chemical_formula_structural   Er4Hf3TcF28
_chemical_formula_sum   'Er4 Hf3 Tc1 F28'
_cell_volume   538.06043384
_cell_formula_units_Z   1
loop_
 _symmetry_equiv_pos_site_id
 _symmetry_equiv_pos_as_xyz
  1  'x, y, z'
loop_
 _atom_site_type_symbol
 _atom_site_label
 _atom_site_symmetry_multiplicity
 _atom_site_fract_x
 _atom_site_fract_y
 _atom_site_fract_z
 _atom_site_occupancy
  Er  Er0  1  0.756560  0.815993  0.764824  1
  Er  Er1  1  0.257027  0.184686  0.734317  1
  Er  Er2  1  0.242890  0.184317  0.237365  1
  Er  Er3  1  0.744021  0.813866  0.265459  1
  Hf  Hf4  1  0.756853  0.273138  0.957316  1
  Hf  Hf5  1  0.256164  0.726385  0.542857  1
  Hf  Hf6  1  0.243820  0.725934  0.043528  1
  Tc  Tc7  1  0.741396  0.272169  0.457036  1
  F  F8  1  0.454158  0.708549  0.916039  1
  F  F9  1  0.945486  0.292674  0.581339  1
  F  F10  1  0.546078  0.290616  0.084671  1
  F  F11  1  0.045475  0.709207  0.415665  1
  F  F12  1  0.447844  0.275010  0.546947  1
  F  F13  1  0.942248  0.726405  0.951656  1
  F  F14  1  0.557914  0.725237  0.451752  1
  F  F15  1  0.058170  0.273043  0.049273  1
  F  F16  1  0.778823  0.524984  0.859821  1
  F  F17  1  0.275725  0.474394  0.639358  1
  F  F18  1  0.220938  0.474173  0.141391  1
  F  F19  1  0.723882  0.519619  0.360120  1
  F  F20  1  0.758042  0.021986  0.058008  1
  F  F21  1  0.257809  0.977509  0.442295  1
  F  F22  1  0.242074  0.976952  0.941854  1
  F  F23  1  0.744081  0.026517  0.553348  1
  F  F24  1  0.974470  0.732168  0.643215  1
  F  F25  1  0.475793  0.269386  0.855780  1
  F  F26  1  0.022192  0.271563  0.359628  1
  F  F27  1  0.525187  0.729660  0.144729  1
  F  F28  1  0.042257  0.747807  0.173847  1
  F  F29  1  0.543763  0.254162  0.327859  1
  F  F30  1  0.958626  0.252266  0.825965  1
  F  F31  1  0.459109  0.749001  0.672735  1
  F  F32  1  0.422844  0.971432  0.233790  1
  F  F33  1  0.922677  0.028697  0.266766  1
  F  F34  1  0.577793  0.029007  0.767081  1
  F  F35  1  0.077809  0.971486  0.732368  1
