# generated using pymatgen
data_EuDyTa2(Co4P3)2
_symmetry_space_group_name_H-M   'P 1'
_cell_length_a   3.68683500
_cell_length_b   10.59460400
_cell_length_c   12.03708300
_cell_angle_alpha   90.00000000
_cell_angle_beta   90.00000000
_cell_angle_gamma   90.00000000
_symmetry_Int_Tables_number   1
_chemical_formula_structural   EuDyTa2(Co4P3)2
_chemical_formula_sum   'Eu2 Dy2 Ta4 Co16 P12'
_cell_volume   470.17516469
_cell_formula_units_Z   2
loop_
 _symmetry_equiv_pos_site_id
 _symmetry_equiv_pos_as_xyz
  1  'x, y, z'
loop_
 _atom_site_type_symbol
 _atom_site_label
 _atom_site_symmetry_multiplicity
 _atom_site_fract_x
 _atom_site_fract_y
 _atom_site_fract_z
 _atom_site_occupancy
  Eu  Eu0  1  0.250000  0.583001  0.705223  1
  Eu  Eu1  1  0.250000  0.916999  0.205223  1
  Dy  Dy2  1  0.750000  0.417461  0.294509  1
  Dy  Dy3  1  0.750000  0.082539  0.794509  1
  Ta  Ta4  1  0.250000  0.705722  0.989493  1
  Ta  Ta5  1  0.250000  0.794278  0.489493  1
  Ta  Ta6  1  0.750000  0.294497  0.010732  1
  Ta  Ta7  1  0.750000  0.205503  0.510732  1
  Co  Co8  1  0.250000  0.403746  0.488593  1
  Co  Co9  1  0.250000  0.096254  0.988593  1
  Co  Co10  1  0.750000  0.591596  0.506104  1
  Co  Co11  1  0.750000  0.908404  0.006104  1
  Co  Co12  1  0.250000  0.223648  0.176046  1
  Co  Co13  1  0.250000  0.276352  0.676046  1
  Co  Co14  1  0.750000  0.780019  0.824898  1
  Co  Co15  1  0.750000  0.719981  0.324898  1
  Co  Co16  1  0.250000  0.890140  0.701138  1
  Co  Co17  1  0.250000  0.609860  0.201138  1
  Co  Co18  1  0.750000  0.116593  0.300775  1
  Co  Co19  1  0.750000  0.383407  0.800775  1
  Co  Co20  1  0.250000  0.463887  0.935078  1
  Co  Co21  1  0.250000  0.036113  0.435078  1
  Co  Co22  1  0.750000  0.534629  0.066709  1
  Co  Co23  1  0.750000  0.965371  0.566709  1
  P  P24  1  0.250000  0.421981  0.116856  1
  P  P25  1  0.250000  0.078019  0.616856  1
  P  P26  1  0.750000  0.577563  0.883943  1
  P  P27  1  0.750000  0.922437  0.383943  1
  P  P28  1  0.250000  0.270035  0.860511  1
  P  P29  1  0.250000  0.229965  0.360511  1
  P  P30  1  0.750000  0.728448  0.139671  1
  P  P31  1  0.750000  0.771552  0.639671  1
  P  P32  1  0.250000  0.590732  0.390026  1
  P  P33  1  0.250000  0.909268  0.890026  1
  P  P34  1  0.750000  0.408410  0.609693  1
  P  P35  1  0.750000  0.091590  0.109693  1
