# generated using pymatgen
data_Cs8CuNi(PS4)4
_symmetry_space_group_name_H-M   'P 1'
_cell_length_a   13.49234113
_cell_length_b   7.48806441
_cell_length_c   9.82373454
_cell_angle_alpha   84.43327721
_cell_angle_beta   90.14008932
_cell_angle_gamma   89.87510762
_symmetry_Int_Tables_number   1
_chemical_formula_structural   Cs8CuNi(PS4)4
_chemical_formula_sum   'Cs8 Cu1 Ni1 P4 S16'
_cell_volume   987.82020831
_cell_formula_units_Z   1
loop_
 _symmetry_equiv_pos_site_id
 _symmetry_equiv_pos_as_xyz
  1  'x, y, z'
loop_
 _atom_site_type_symbol
 _atom_site_label
 _atom_site_symmetry_multiplicity
 _atom_site_fract_x
 _atom_site_fract_y
 _atom_site_fract_z
 _atom_site_occupancy
  Cs  Cs0  1  0.133072  0.821034  0.683050  1
  Cs  Cs1  1  0.631057  0.182186  0.819776  1
  Cs  Cs2  1  0.866928  0.178966  0.316950  1
  Cs  Cs3  1  0.368943  0.817814  0.180224  1
  Cs  Cs4  1  0.346038  0.278238  0.532213  1
  Cs  Cs5  1  0.845106  0.721907  0.966503  1
  Cs  Cs6  1  0.653962  0.721762  0.467787  1
  Cs  Cs7  1  0.154894  0.278093  0.033497  1
  Cu  Cu8  1  0.000000  0.500000  0.500000  1
  Ni  Ni9  1  0.500000  0.500000  0.000000  1
  P  P10  1  0.421430  0.755838  0.765593  1
  P  P11  1  0.921674  0.242193  0.737330  1
  P  P12  1  0.578570  0.244162  0.234407  1
  P  P13  1  0.078326  0.757807  0.262670  1
  S  S14  1  0.068179  0.303042  0.676483  1
  S  S15  1  0.565913  0.686964  0.835265  1
  S  S16  1  0.931821  0.696958  0.323517  1
  S  S17  1  0.434087  0.313036  0.164735  1
  S  S18  1  0.398967  0.753995  0.562512  1
  S  S19  1  0.898446  0.243185  0.940152  1
  S  S20  1  0.601033  0.246005  0.437488  1
  S  S21  1  0.101554  0.756815  0.059848  1
  S  S22  1  0.143380  0.533633  0.372675  1
  S  S23  1  0.638199  0.471095  0.121605  1
  S  S24  1  0.856620  0.466367  0.627325  1
  S  S25  1  0.361801  0.528905  0.878395  1
  S  S26  1  0.375134  0.989213  0.832109  1
  S  S27  1  0.876248  0.010202  0.667548  1
  S  S28  1  0.624866  0.010787  0.167891  1
  S  S29  1  0.123752  0.989798  0.332452  1
