# generated using pymatgen
data_TmNb8CuSe16
_symmetry_space_group_name_H-M   'P 1'
_cell_length_a   7.01439600
_cell_length_b   7.01434698
_cell_length_c   13.60799000
_cell_angle_alpha   89.99993875
_cell_angle_beta   90.00057641
_cell_angle_gamma   119.99962713
_symmetry_Int_Tables_number   1
_chemical_formula_structural   TmNb8CuSe16
_chemical_formula_sum   'Tm1 Nb8 Cu1 Se16'
_cell_volume   579.83412430
_cell_formula_units_Z   1
loop_
 _symmetry_equiv_pos_site_id
 _symmetry_equiv_pos_as_xyz
  1  'x, y, z'
loop_
 _atom_site_type_symbol
 _atom_site_label
 _atom_site_symmetry_multiplicity
 _atom_site_fract_x
 _atom_site_fract_y
 _atom_site_fract_z
 _atom_site_occupancy
  Tm  Tm0  1  0.000000  0.000000  0.500000  1
  Nb  Nb1  1  0.999998  0.999999  0.236506  1
  Nb  Nb2  1  0.000002  0.000001  0.763494  1
  Nb  Nb3  1  0.509318  0.018617  0.236863  1
  Nb  Nb4  1  0.981402  0.490700  0.236865  1
  Nb  Nb5  1  0.509318  0.490699  0.236862  1
  Nb  Nb6  1  0.490682  0.981383  0.763137  1
  Nb  Nb7  1  0.018598  0.509300  0.763135  1
  Nb  Nb8  1  0.490682  0.509301  0.763138  1
  Cu  Cu9  1  0.000000  0.000000  0.000000  1
  Se  Se10  1  0.333320  0.666661  0.890688  1
  Se  Se11  1  0.666680  0.333339  0.109312  1
  Se  Se12  1  0.666678  0.333338  0.367011  1
  Se  Se13  1  0.333322  0.666662  0.632989  1
  Se  Se14  1  0.168999  0.830974  0.359334  1
  Se  Se15  1  0.168997  0.338024  0.359335  1
  Se  Se16  1  0.661986  0.830995  0.359343  1
  Se  Se17  1  0.831001  0.169026  0.640666  1
  Se  Se18  1  0.831003  0.661976  0.640665  1
  Se  Se19  1  0.338014  0.169005  0.640657  1
  Se  Se20  1  0.830160  0.169860  0.884083  1
  Se  Se21  1  0.830163  0.660303  0.884083  1
  Se  Se22  1  0.339688  0.169843  0.884090  1
  Se  Se23  1  0.169840  0.830140  0.115917  1
  Se  Se24  1  0.169837  0.339697  0.115917  1
  Se  Se25  1  0.660312  0.830157  0.115910  1
