# generated using pymatgen
data_Tb2Nd3SmCoBr10
_symmetry_space_group_name_H-M   'P 1'
_cell_length_a   7.50304461
_cell_length_b   9.36784117
_cell_length_c   9.51739367
_cell_angle_alpha   107.94435124
_cell_angle_beta   95.64225091
_cell_angle_gamma   104.35923475
_symmetry_Int_Tables_number   1
_chemical_formula_structural   Tb2Nd3SmCoBr10
_chemical_formula_sum   'Tb2 Nd3 Sm1 Co1 Br10'
_cell_volume   605.34956513
_cell_formula_units_Z   1
loop_
 _symmetry_equiv_pos_site_id
 _symmetry_equiv_pos_as_xyz
  1  'x, y, z'
loop_
 _atom_site_type_symbol
 _atom_site_label
 _atom_site_symmetry_multiplicity
 _atom_site_fract_x
 _atom_site_fract_y
 _atom_site_fract_z
 _atom_site_occupancy
  Tb  Tb0  1  0.348083  0.125318  0.672654  1
  Tb  Tb1  1  0.651221  0.874859  0.328778  1
  Nd  Nd2  1  0.036110  0.715887  0.408691  1
  Nd  Nd3  1  0.963192  0.283384  0.588826  1
  Nd  Nd4  1  0.869107  0.948592  0.745917  1
  Sm  Sm5  1  0.130419  0.051053  0.257756  1
  Co  Co6  1  0.000116  0.999705  0.500004  1
  Br  Br7  1  0.452702  0.823286  0.580468  1
  Br  Br8  1  0.545018  0.176099  0.419292  1
  Br  Br9  1  0.912682  0.627766  0.669056  1
  Br  Br10  1  0.089318  0.368838  0.326996  1
  Br  Br11  1  0.246733  0.080603  0.946925  1
  Br  Br12  1  0.757936  0.920764  0.057551  1
  Br  Br13  1  0.343370  0.436788  0.765712  1
  Br  Br14  1  0.654378  0.563091  0.233105  1
  Br  Br15  1  0.759343  0.245462  0.839934  1
  Br  Br16  1  0.240272  0.758503  0.158338  1
