# generated using pymatgen
data_CsLaDy9(C2Br9)2
_symmetry_space_group_name_H-M   'P 1'
_cell_length_a   10.76668764
_cell_length_b   10.85385665
_cell_length_c   10.98103587
_cell_angle_alpha   113.52383444
_cell_angle_beta   87.31791916
_cell_angle_gamma   118.80665764
_symmetry_Int_Tables_number   1
_chemical_formula_structural   CsLaDy9(C2Br9)2
_chemical_formula_sum   'Cs1 La1 Dy9 C4 Br18'
_cell_volume   1013.94170446
_cell_formula_units_Z   1
loop_
 _symmetry_equiv_pos_site_id
 _symmetry_equiv_pos_as_xyz
  1  'x, y, z'
loop_
 _atom_site_type_symbol
 _atom_site_label
 _atom_site_symmetry_multiplicity
 _atom_site_fract_x
 _atom_site_fract_y
 _atom_site_fract_z
 _atom_site_occupancy
  Cs  Cs0  1  0.500197  0.001730  0.499684  1
  La  La1  1  0.651508  0.712978  0.696395  1
  Dy  Dy2  1  0.281037  0.362361  0.013336  1
  Dy  Dy3  1  0.091574  0.403218  0.298453  1
  Dy  Dy4  1  0.961470  0.038098  0.331982  1
  Dy  Dy5  1  0.907024  0.595761  0.700442  1
  Dy  Dy6  1  0.111881  0.942359  0.001557  1
  Dy  Dy7  1  0.041385  0.963443  0.669761  1
  Dy  Dy8  1  0.335337  0.280497  0.295070  1
  Dy  Dy9  1  0.721601  0.638680  0.988995  1
  Dy  Dy10  1  0.889841  0.058329  0.999352  1
  C  C11  1  0.156415  0.226332  0.123188  1
  C  C12  1  0.845935  0.774287  0.878052  1
  C  C13  1  0.923998  0.852545  0.798396  1
  C  C14  1  0.078179  0.147938  0.203087  1
  Br  Br15  1  0.449133  0.526341  0.841743  1
  Br  Br16  1  0.381024  0.038784  0.158593  1
  Br  Br17  1  0.786528  0.864109  0.498710  1
  Br  Br18  1  0.840166  0.311055  0.154760  1
  Br  Br19  1  0.546213  0.468200  0.166515  1
  Br  Br20  1  0.220970  0.142967  0.496872  1
  Br  Br21  1  0.313803  0.099419  0.829916  1
  Br  Br22  1  0.687840  0.901118  0.170417  1
  Br  Br23  1  0.974909  0.762518  0.172453  1
  Br  Br24  1  0.934773  0.302375  0.499299  1
  Br  Br25  1  0.026519  0.237657  0.828587  1
  Br  Br26  1  0.066107  0.698057  0.500910  1
  Br  Br27  1  0.258773  0.619804  0.187327  1
  Br  Br28  1  0.741189  0.380573  0.813065  1
  Br  Br29  1  0.639760  0.420283  0.491738  1
  Br  Br30  1  0.160100  0.689530  0.845646  1
  Br  Br31  1  0.619761  0.976086  0.849950  1
  Br  Br32  1  0.355047  0.562568  0.495746  1
