# generated using pymatgen
data_DyHo3OsBr4
_symmetry_space_group_name_H-M   'P 1'
_cell_length_a   8.97471138
_cell_length_b   8.94530611
_cell_length_c   6.54168059
_cell_angle_alpha   89.61353916
_cell_angle_beta   89.37503733
_cell_angle_gamma   89.27576033
_symmetry_Int_Tables_number   1
_chemical_formula_structural   DyHo3OsBr4
_chemical_formula_sum   'Dy2 Ho6 Os2 Br8'
_cell_volume   525.09153643
_cell_formula_units_Z   2
loop_
 _symmetry_equiv_pos_site_id
 _symmetry_equiv_pos_as_xyz
  1  'x, y, z'
loop_
 _atom_site_type_symbol
 _atom_site_label
 _atom_site_symmetry_multiplicity
 _atom_site_fract_x
 _atom_site_fract_y
 _atom_site_fract_z
 _atom_site_occupancy
  Dy  Dy0  1  0.249907  0.900666  0.008910  1
  Dy  Dy1  1  0.750093  0.099334  0.991090  1
  Ho  Ho2  1  0.098322  0.751828  0.489105  1
  Ho  Ho3  1  0.901678  0.248172  0.510895  1
  Ho  Ho4  1  0.753505  0.902869  0.508695  1
  Ho  Ho5  1  0.246495  0.097131  0.491305  1
  Ho  Ho6  1  0.096141  0.247336  0.991848  1
  Ho  Ho7  1  0.903859  0.752664  0.008152  1
  Os  Os8  1  0.995499  0.004642  0.249857  1
  Os  Os9  1  0.004501  0.995358  0.750143  1
  Br  Br10  1  0.418390  0.817377  0.411504  1
  Br  Br11  1  0.581610  0.182623  0.588496  1
  Br  Br12  1  0.182018  0.580197  0.091823  1
  Br  Br13  1  0.817982  0.419803  0.908177  1
  Br  Br14  1  0.411970  0.192023  0.092532  1
  Br  Br15  1  0.588030  0.807977  0.907468  1
  Br  Br16  1  0.810977  0.586085  0.406649  1
  Br  Br17  1  0.189023  0.413915  0.593351  1
