# generated using pymatgen
data_YSi4(PdRh2)2
_symmetry_space_group_name_H-M   'P 1'
_cell_length_a   7.09255718
_cell_length_b   7.13437972
_cell_length_c   3.79070600
_cell_angle_alpha   90.00000000
_cell_angle_beta   90.00000000
_cell_angle_gamma   120.19525409
_symmetry_Int_Tables_number   1
_chemical_formula_structural   YSi4(PdRh2)2
_chemical_formula_sum   'Y1 Si4 Pd2 Rh4'
_cell_volume   165.78756602
_cell_formula_units_Z   1
loop_
 _symmetry_equiv_pos_site_id
 _symmetry_equiv_pos_as_xyz
  1  'x, y, z'
loop_
 _atom_site_type_symbol
 _atom_site_label
 _atom_site_symmetry_multiplicity
 _atom_site_fract_x
 _atom_site_fract_y
 _atom_site_fract_z
 _atom_site_occupancy
  Y  Y0  1  0.993512  0.996756  0.000000  1
  Si  Si1  1  0.795537  0.196316  0.500000  1
  Si  Si2  1  0.795537  0.599221  0.500000  1
  Si  Si3  1  0.404488  0.202244  0.500000  1
  Si  Si4  1  0.342824  0.671412  0.000000  1
  Pd  Pd5  1  0.196076  0.803796  0.500000  1
  Pd  Pd6  1  0.196076  0.392281  0.500000  1
  Rh  Rh7  1  0.534987  0.467038  0.000000  1
  Rh  Rh8  1  0.534987  0.067947  0.000000  1
  Rh  Rh9  1  0.936073  0.468036  0.000000  1
  Rh  Rh10  1  0.603237  0.801619  0.500000  1
