# generated using pymatgen
data_Li2Tl6TeW3O16
_symmetry_space_group_name_H-M   'P 1'
_cell_length_a   8.17316196
_cell_length_b   6.45272700
_cell_length_c   9.09891472
_cell_angle_alpha   90.00000000
_cell_angle_beta   89.11613621
_cell_angle_gamma   90.00000000
_symmetry_Int_Tables_number   1
_chemical_formula_structural   Li2Tl6TeW3O16
_chemical_formula_sum   'Li2 Tl6 Te1 W3 O16'
_cell_volume   479.81223020
_cell_formula_units_Z   1
loop_
 _symmetry_equiv_pos_site_id
 _symmetry_equiv_pos_as_xyz
  1  'x, y, z'
loop_
 _atom_site_type_symbol
 _atom_site_label
 _atom_site_symmetry_multiplicity
 _atom_site_fract_x
 _atom_site_fract_y
 _atom_site_fract_z
 _atom_site_occupancy
  Li  Li0  1  0.785112  0.497653  0.231968  1
  Li  Li1  1  0.214888  0.497653  0.768032  1
  Tl  Tl2  1  0.730851  0.739919  0.867077  1
  Tl  Tl3  1  0.269149  0.739919  0.132923  1
  Tl  Tl4  1  0.723223  0.247962  0.645029  1
  Tl  Tl5  1  0.276777  0.247962  0.354971  1
  Tl  Tl6  1  0.500000  0.244312  0.000000  1
  Tl  Tl7  1  0.500000  0.733430  0.500000  1
  Te  Te8  1  0.000000  0.252017  0.000000  1
  W  W9  1  0.000000  0.734368  0.500000  1
  W  W10  1  0.191690  0.005459  0.742104  1
  W  W11  1  0.808310  0.005459  0.257896  1
  O  O12  1  0.166481  0.988399  0.530294  1
  O  O13  1  0.833519  0.988399  0.469706  1
  O  O14  1  0.998324  0.220255  0.783357  1
  O  O15  1  0.838337  0.019235  0.034725  1
  O  O16  1  0.175102  0.445552  0.987264  1
  O  O17  1  0.664692  0.220879  0.274354  1
  O  O18  1  0.325838  0.782646  0.770464  1
  O  O19  1  0.174199  0.555730  0.502953  1
  O  O20  1  0.824898  0.445552  0.012736  1
  O  O21  1  0.825801  0.555730  0.497047  1
  O  O22  1  0.335308  0.220879  0.725646  1
  O  O23  1  0.674162  0.782646  0.229536  1
  O  O24  1  0.001676  0.220255  0.216643  1
  O  O25  1  0.161663  0.019235  0.965275  1
  O  O26  1  0.007736  0.794247  0.289040  1
  O  O27  1  0.992264  0.794247  0.710960  1
