# generated using pymatgen
data_NdMnCuO5
_symmetry_space_group_name_H-M   'P 1'
_cell_length_a   5.68476900
_cell_length_b   7.83402300
_cell_length_c   8.60580900
_cell_angle_alpha   90.00000000
_cell_angle_beta   90.00000000
_cell_angle_gamma   90.00000000
_symmetry_Int_Tables_number   1
_chemical_formula_structural   NdMnCuO5
_chemical_formula_sum   'Nd4 Mn4 Cu4 O20'
_cell_volume   383.25635698
_cell_formula_units_Z   4
loop_
 _symmetry_equiv_pos_site_id
 _symmetry_equiv_pos_as_xyz
  1  'x, y, z'
loop_
 _atom_site_type_symbol
 _atom_site_label
 _atom_site_symmetry_multiplicity
 _atom_site_fract_x
 _atom_site_fract_y
 _atom_site_fract_z
 _atom_site_occupancy
  Nd  Nd0  1  0.000000  0.347418  0.674829  1
  Nd  Nd1  1  0.000000  0.652582  0.325171  1
  Nd  Nd2  1  0.000000  0.847418  0.825171  1
  Nd  Nd3  1  0.000000  0.152582  0.174829  1
  Mn  Mn4  1  0.261614  0.500000  0.000000  1
  Mn  Mn5  1  0.738386  0.000000  0.500000  1
  Mn  Mn6  1  0.738386  0.500000  0.000000  1
  Mn  Mn7  1  0.261614  0.000000  0.500000  1
  Cu  Cu8  1  0.500000  0.066666  0.848985  1
  Cu  Cu9  1  0.500000  0.933334  0.151015  1
  Cu  Cu10  1  0.500000  0.566666  0.651015  1
  Cu  Cu11  1  0.500000  0.433334  0.348985  1
  O  O12  1  0.247663  0.910439  0.287592  1
  O  O13  1  0.247663  0.089561  0.712408  1
  O  O14  1  0.752337  0.410439  0.212408  1
  O  O15  1  0.752337  0.589561  0.787592  1
  O  O16  1  0.752337  0.089561  0.712408  1
  O  O17  1  0.752337  0.910439  0.287592  1
  O  O18  1  0.247663  0.589561  0.787592  1
  O  O19  1  0.247663  0.410439  0.212408  1
  O  O20  1  0.500000  0.350360  0.941277  1
  O  O21  1  0.500000  0.649640  0.058723  1
  O  O22  1  0.500000  0.850360  0.558723  1
  O  O23  1  0.500000  0.149640  0.441277  1
  O  O24  1  0.278899  0.000000  0.000000  1
  O  O25  1  0.721101  0.500000  0.500000  1
  O  O26  1  0.721101  0.000000  0.000000  1
  O  O27  1  0.278899  0.500000  0.500000  1
  O  O28  1  0.000000  0.157459  0.451535  1
  O  O29  1  0.000000  0.842541  0.548465  1
  O  O30  1  0.000000  0.657459  0.048465  1
  O  O31  1  0.000000  0.342541  0.951535  1
