# generated using pymatgen
data_GdYTcB6
_symmetry_space_group_name_H-M   'P 1'
_cell_length_a   3.70176500
_cell_length_b   9.19356600
_cell_length_c   11.59082600
_cell_angle_alpha   90.00000000
_cell_angle_beta   90.00000000
_cell_angle_gamma   90.00000000
_symmetry_Int_Tables_number   1
_chemical_formula_structural   GdYTcB6
_chemical_formula_sum   'Gd4 Y4 Tc4 B24'
_cell_volume   394.46386836
_cell_formula_units_Z   4
loop_
 _symmetry_equiv_pos_site_id
 _symmetry_equiv_pos_as_xyz
  1  'x, y, z'
loop_
 _atom_site_type_symbol
 _atom_site_label
 _atom_site_symmetry_multiplicity
 _atom_site_fract_x
 _atom_site_fract_y
 _atom_site_fract_z
 _atom_site_occupancy
  Gd  Gd0  1  0.000000  0.323847  0.414385  1
  Gd  Gd1  1  0.000000  0.676153  0.585615  1
  Gd  Gd2  1  0.000000  0.823847  0.085615  1
  Gd  Gd3  1  0.000000  0.176153  0.914385  1
  Y  Y4  1  0.000000  0.942623  0.369213  1
  Y  Y5  1  0.000000  0.057377  0.630787  1
  Y  Y6  1  0.000000  0.442623  0.130787  1
  Y  Y7  1  0.000000  0.557377  0.869213  1
  Tc  Tc8  1  0.000000  0.638977  0.320227  1
  Tc  Tc9  1  0.000000  0.361023  0.679773  1
  Tc  Tc10  1  0.000000  0.138977  0.179773  1
  Tc  Tc11  1  0.000000  0.861023  0.820227  1
  B  B12  1  0.500000  0.553836  0.432337  1
  B  B13  1  0.500000  0.446164  0.567663  1
  B  B14  1  0.500000  0.053836  0.067663  1
  B  B15  1  0.500000  0.946164  0.932337  1
  B  B16  1  0.500000  0.748638  0.417788  1
  B  B17  1  0.500000  0.251362  0.582212  1
  B  B18  1  0.500000  0.248638  0.082212  1
  B  B19  1  0.500000  0.751362  0.917788  1
  B  B20  1  0.500000  0.791542  0.265139  1
  B  B21  1  0.500000  0.208458  0.734861  1
  B  B22  1  0.500000  0.291542  0.234861  1
  B  B23  1  0.500000  0.708458  0.765139  1
  B  B24  1  0.500000  0.630769  0.185833  1
  B  B25  1  0.500000  0.369231  0.814167  1
  B  B26  1  0.500000  0.130769  0.314167  1
  B  B27  1  0.500000  0.869231  0.685833  1
  B  B28  1  0.500000  0.982922  0.211660  1
  B  B29  1  0.500000  0.017078  0.788340  1
  B  B30  1  0.500000  0.482922  0.288340  1
  B  B31  1  0.500000  0.517078  0.711660  1
  B  B32  1  0.500000  0.599475  0.027721  1
  B  B33  1  0.500000  0.400525  0.972279  1
  B  B34  1  0.500000  0.099475  0.472279  1
  B  B35  1  0.500000  0.900525  0.527721  1
