# generated using pymatgen
data_DyHo3TcRu7
_symmetry_space_group_name_H-M   'P 1'
_cell_length_a   5.19777238
_cell_length_b   5.38652608
_cell_length_c   9.00501301
_cell_angle_alpha   90.00000304
_cell_angle_beta   90.00457427
_cell_angle_gamma   121.20870553
_symmetry_Int_Tables_number   1
_chemical_formula_structural   DyHo3TcRu7
_chemical_formula_sum   'Dy1 Ho3 Tc1 Ru7'
_cell_volume   215.63611369
_cell_formula_units_Z   1
loop_
 _symmetry_equiv_pos_site_id
 _symmetry_equiv_pos_as_xyz
  1  'x, y, z'
loop_
 _atom_site_type_symbol
 _atom_site_label
 _atom_site_symmetry_multiplicity
 _atom_site_fract_x
 _atom_site_fract_y
 _atom_site_fract_z
 _atom_site_occupancy
  Dy  Dy0  1  0.326735  0.663368  0.433261  1
  Ho  Ho1  1  0.654344  0.327171  0.565744  1
  Ho  Ho2  1  0.654406  0.327202  0.934441  1
  Ho  Ho3  1  0.327029  0.663514  0.066796  1
  Tc  Tc4  1  0.687380  0.843689  0.750251  1
  Ru  Ru5  1  0.978594  0.989297  0.499349  1
  Ru  Ru6  1  0.978382  0.989191  0.000704  1
  Ru  Ru7  1  0.837345  0.167437  0.249614  1
  Ru  Ru8  1  0.837345  0.669908  0.249614  1
  Ru  Ru9  1  0.357333  0.178666  0.249645  1
  Ru  Ru10  1  0.180555  0.826649  0.750290  1
  Ru  Ru11  1  0.180555  0.353906  0.750290  1
