# generated using pymatgen
data_Er16Sc4(IrRh3)3
_symmetry_space_group_name_H-M   'P 1'
_cell_length_a   10.70100027
_cell_length_b   10.70100027
_cell_length_c   6.24822817
_cell_angle_alpha   90.01881051
_cell_angle_beta   90.01881051
_cell_angle_gamma   90.01741046
_symmetry_Int_Tables_number   1
_chemical_formula_structural   Er16Sc4(IrRh3)3
_chemical_formula_sum   'Er16 Sc4 Ir3 Rh9'
_cell_volume   715.49328696
_cell_formula_units_Z   1
loop_
 _symmetry_equiv_pos_site_id
 _symmetry_equiv_pos_as_xyz
  1  'x, y, z'
loop_
 _atom_site_type_symbol
 _atom_site_label
 _atom_site_symmetry_multiplicity
 _atom_site_fract_x
 _atom_site_fract_y
 _atom_site_fract_z
 _atom_site_occupancy
  Er  Er0  1  0.288164  0.087510  0.376867  1
  Er  Er1  1  0.288244  0.912505  0.876941  1
  Er  Er2  1  0.712009  0.086412  0.877181  1
  Er  Er3  1  0.711852  0.912577  0.376817  1
  Er  Er4  1  0.585597  0.787104  0.877685  1
  Er  Er5  1  0.585419  0.212342  0.377078  1
  Er  Er6  1  0.414502  0.787245  0.377314  1
  Er  Er7  1  0.413446  0.212379  0.877856  1
  Er  Er8  1  0.212896  0.414403  0.622315  1
  Er  Er9  1  0.212755  0.585498  0.122686  1
  Er  Er10  1  0.787658  0.414581  0.122922  1
  Er  Er11  1  0.787621  0.586554  0.622144  1
  Er  Er12  1  0.912490  0.711836  0.123133  1
  Er  Er13  1  0.913588  0.287991  0.622819  1
  Er  Er14  1  0.087495  0.711756  0.623059  1
  Er  Er15  1  0.087423  0.288148  0.123183  1
  Sc  Sc16  1  0.999942  0.999971  0.499876  1
  Sc  Sc17  1  0.000029  0.000058  0.000124  1
  Sc  Sc18  1  0.499594  0.500429  0.000618  1
  Sc  Sc19  1  0.499571  0.500406  0.499382  1
  Ir  Ir20  1  0.649607  0.648895  0.250077  1
  Ir  Ir21  1  0.351105  0.350393  0.249923  1
  Ir  Ir22  1  0.350642  0.649358  0.750000  1
  Rh  Rh23  1  0.851313  0.148687  0.250000  1
  Rh  Rh24  1  0.851616  0.851705  0.750026  1
  Rh  Rh25  1  0.148295  0.148384  0.749974  1
  Rh  Rh26  1  0.148235  0.851765  0.250000  1
  Rh  Rh27  1  0.649481  0.350519  0.750000  1
  Rh  Rh28  1  0.500122  0.000381  0.122111  1
  Rh  Rh29  1  0.500147  0.000477  0.622544  1
  Rh  Rh30  1  0.999523  0.499853  0.877456  1
  Rh  Rh31  1  0.999619  0.499878  0.377889  1
