# generated using pymatgen
data_Sr3SmIr8
_symmetry_space_group_name_H-M   'P 1'
_cell_length_a   9.45567227
_cell_length_b   9.45567138
_cell_length_c   9.45567206
_cell_angle_alpha   33.59624848
_cell_angle_beta   33.59625519
_cell_angle_gamma   33.59624872
_symmetry_Int_Tables_number   1
_chemical_formula_structural   Sr3SmIr8
_chemical_formula_sum   'Sr3 Sm1 Ir8'
_cell_volume   230.58307876
_cell_formula_units_Z   1
loop_
 _symmetry_equiv_pos_site_id
 _symmetry_equiv_pos_as_xyz
  1  'x, y, z'
loop_
 _atom_site_type_symbol
 _atom_site_label
 _atom_site_symmetry_multiplicity
 _atom_site_fract_x
 _atom_site_fract_y
 _atom_site_fract_z
 _atom_site_occupancy
  Sr  Sr0  1  0.625308  0.625308  0.625308  1
  Sr  Sr1  1  0.998698  0.998698  0.998698  1
  Sr  Sr2  1  0.501414  0.501414  0.501414  1
  Sm  Sm3  1  0.124958  0.124958  0.124958  1
  Ir  Ir4  1  0.562797  0.562797  0.066383  1
  Ir  Ir5  1  0.062263  0.062263  0.558325  1
  Ir  Ir6  1  0.562797  0.066383  0.562797  1
  Ir  Ir7  1  0.062263  0.558325  0.062263  1
  Ir  Ir8  1  0.812439  0.812439  0.812439  1
  Ir  Ir9  1  0.312357  0.312357  0.312357  1
  Ir  Ir10  1  0.066383  0.562797  0.562797  1
  Ir  Ir11  1  0.558325  0.062263  0.062263  1
