# generated using pymatgen
data_Y5Ho(Sc2Pb3)2
_symmetry_space_group_name_H-M   'P 1'
_cell_length_a   8.91485600
_cell_length_b   8.91293629
_cell_length_c   6.36902400
_cell_angle_alpha   90.00000000
_cell_angle_beta   90.00000000
_cell_angle_gamma   120.00712512
_symmetry_Int_Tables_number   1
_chemical_formula_structural   Y5Ho(Sc2Pb3)2
_chemical_formula_sum   'Y5 Ho1 Sc4 Pb6'
_cell_volume   438.23541000
_cell_formula_units_Z   1
loop_
 _symmetry_equiv_pos_site_id
 _symmetry_equiv_pos_as_xyz
  1  'x, y, z'
loop_
 _atom_site_type_symbol
 _atom_site_label
 _atom_site_symmetry_multiplicity
 _atom_site_fract_x
 _atom_site_fract_y
 _atom_site_fract_z
 _atom_site_occupancy
  Y  Y0  1  0.238839  0.000000  0.250000  1
  Y  Y1  1  0.238669  0.238733  0.750000  1
  Y  Y2  1  0.999936  0.761267  0.750000  1
  Y  Y3  1  0.999903  0.238697  0.250000  1
  Y  Y4  1  0.761206  0.761303  0.250000  1
  Ho  Ho5  1  0.761262  0.000000  0.750000  1
  Sc  Sc6  1  0.333356  0.666683  0.999988  1
  Sc  Sc7  1  0.666674  0.333317  0.500012  1
  Sc  Sc8  1  0.666674  0.333317  0.999988  1
  Sc  Sc9  1  0.333356  0.666683  0.500012  1
  Pb  Pb10  1  0.601488  0.000000  0.250000  1
  Pb  Pb11  1  0.601532  0.601667  0.750000  1
  Pb  Pb12  1  0.999865  0.398333  0.750000  1
  Pb  Pb13  1  0.000007  0.601468  0.250000  1
  Pb  Pb14  1  0.398540  0.398532  0.250000  1
  Pb  Pb15  1  0.398691  0.000000  0.750000  1
