# generated using pymatgen
data_Sr4YTmNb2O12
_symmetry_space_group_name_H-M   'P 1'
_cell_length_a   5.84082251
_cell_length_b   5.94195129
_cell_length_c   8.31150835
_cell_angle_alpha   89.96703448
_cell_angle_beta   90.17702201
_cell_angle_gamma   90.01438658
_symmetry_Int_Tables_number   1
_chemical_formula_structural   Sr4YTmNb2O12
_chemical_formula_sum   'Sr4 Y1 Tm1 Nb2 O12'
_cell_volume   288.45680153
_cell_formula_units_Z   1
loop_
 _symmetry_equiv_pos_site_id
 _symmetry_equiv_pos_as_xyz
  1  'x, y, z'
loop_
 _atom_site_type_symbol
 _atom_site_label
 _atom_site_symmetry_multiplicity
 _atom_site_fract_x
 _atom_site_fract_y
 _atom_site_fract_z
 _atom_site_occupancy
  Sr  Sr0  1  0.490826  0.040788  0.747272  1
  Sr  Sr1  1  0.009120  0.539320  0.748560  1
  Sr  Sr2  1  0.509175  0.959210  0.252729  1
  Sr  Sr3  1  0.990879  0.460678  0.251440  1
  Y  Y4  1  0.000000  0.000000  0.000000  1
  Tm  Tm5  1  0.500000  0.500000  0.500000  1
  Nb  Nb6  1  0.500000  0.500000  0.999999  1
  Nb  Nb7  1  0.000000  0.000000  0.500000  1
  O  O8  1  0.579850  0.475168  0.761916  1
  O  O9  1  0.918679  0.974612  0.735211  1
  O  O10  1  0.420151  0.524832  0.238084  1
  O  O11  1  0.081319  0.025388  0.264789  1
  O  O12  1  0.800648  0.724283  0.455933  1
  O  O13  1  0.692553  0.222512  0.045639  1
  O  O14  1  0.199353  0.275715  0.544066  1
  O  O15  1  0.307448  0.777488  0.954361  1
  O  O16  1  0.724152  0.201207  0.460171  1
  O  O17  1  0.777779  0.694881  0.041775  1
  O  O18  1  0.275848  0.798793  0.539829  1
  O  O19  1  0.222221  0.305119  0.958226  1
