# generated using pymatgen
data_Th10Sn4Bi2S
_symmetry_space_group_name_H-M   'P 1'
_cell_length_a   6.48029461
_cell_length_b   9.54966500
_cell_length_c   9.54414800
_cell_angle_alpha   119.98080107
_cell_angle_beta   90.02480936
_cell_angle_gamma   89.98752452
_symmetry_Int_Tables_number   1
_chemical_formula_structural   Th10Sn4Bi2S
_chemical_formula_sum   'Th10 Sn4 Bi2 S1'
_cell_volume   511.60482325
_cell_formula_units_Z   1
loop_
 _symmetry_equiv_pos_site_id
 _symmetry_equiv_pos_as_xyz
  1  'x, y, z'
loop_
 _atom_site_type_symbol
 _atom_site_label
 _atom_site_symmetry_multiplicity
 _atom_site_fract_x
 _atom_site_fract_y
 _atom_site_fract_z
 _atom_site_occupancy
  Th  Th0  1  0.497000  0.329849  0.665914  1
  Th  Th1  1  0.496989  0.670182  0.335998  1
  Th  Th2  1  0.002573  0.670300  0.336123  1
  Th  Th3  1  0.002580  0.329700  0.665814  1
  Th  Th4  1  0.748326  0.253516  0.995873  1
  Th  Th5  1  0.748353  0.746484  0.742285  1
  Th  Th6  1  0.748704  0.999912  0.259085  1
  Th  Th7  1  0.250921  0.744497  0.000263  1
  Th  Th8  1  0.250986  0.255610  0.255746  1
  Th  Th9  1  0.251993  0.999978  0.742392  1
  Sn  Sn10  1  0.751975  0.999898  0.612147  1
  Sn  Sn11  1  0.248354  0.386928  0.000685  1
  Sn  Sn12  1  0.248377  0.613201  0.613722  1
  Sn  Sn13  1  0.247836  0.999934  0.385929  1
  Bi  Bi14  1  0.751671  0.611629  0.999454  1
  Bi  Bi15  1  0.751680  0.388393  0.387687  1
  S  S16  1  0.501680  0.999993  0.000884  1
