# generated using pymatgen
data_Tm10Zn4BiSb
_symmetry_space_group_name_H-M   'P 1'
_cell_length_a   8.49145500
_cell_length_b   8.49145474
_cell_length_c   8.49145415
_cell_angle_alpha   123.64499136
_cell_angle_beta   123.64499642
_cell_angle_gamma   83.79472446
_symmetry_Int_Tables_number   1
_chemical_formula_structural   Tm10Zn4BiSb
_chemical_formula_sum   'Tm10 Zn4 Bi1 Sb1'
_cell_volume   406.48035061
_cell_formula_units_Z   1
loop_
 _symmetry_equiv_pos_site_id
 _symmetry_equiv_pos_as_xyz
  1  'x, y, z'
loop_
 _atom_site_type_symbol
 _atom_site_label
 _atom_site_symmetry_multiplicity
 _atom_site_fract_x
 _atom_site_fract_y
 _atom_site_fract_z
 _atom_site_occupancy
  Tm  Tm0  1  0.002937  0.002937  0.000000  1
  Tm  Tm1  1  0.497063  0.497063  0.000000  1
  Tm  Tm2  1  0.798150  0.294345  0.805982  1
  Tm  Tm3  1  0.205655  0.701850  0.194018  1
  Tm  Tm4  1  0.488362  0.992168  0.194018  1
  Tm  Tm5  1  0.294345  0.488362  0.496194  1
  Tm  Tm6  1  0.011638  0.205655  0.503806  1
  Tm  Tm7  1  0.507832  0.011638  0.805982  1
  Tm  Tm8  1  0.701850  0.507832  0.496194  1
  Tm  Tm9  1  0.992168  0.798150  0.503806  1
  Zn  Zn10  1  0.138488  0.638488  0.776978  1
  Zn  Zn11  1  0.861512  0.361512  0.223022  1
  Zn  Zn12  1  0.638488  0.861512  0.500000  1
  Zn  Zn13  1  0.361512  0.138488  0.500000  1
  Bi  Bi14  1  0.750000  0.750000  0.000000  1
  Sb  Sb15  1  0.250000  0.250000  0.000000  1
