# generated using pymatgen
data_TbNd4SmCoBr10
_symmetry_space_group_name_H-M   'P 1'
_cell_length_a   7.53107423
_cell_length_b   9.36319949
_cell_length_c   9.52412388
_cell_angle_alpha   108.54331259
_cell_angle_beta   96.32919375
_cell_angle_gamma   105.43788454
_symmetry_Int_Tables_number   1
_chemical_formula_structural   TbNd4SmCoBr10
_chemical_formula_sum   'Tb1 Nd4 Sm1 Co1 Br10'
_cell_volume   599.63353843
_cell_formula_units_Z   1
loop_
 _symmetry_equiv_pos_site_id
 _symmetry_equiv_pos_as_xyz
  1  'x, y, z'
loop_
 _atom_site_type_symbol
 _atom_site_label
 _atom_site_symmetry_multiplicity
 _atom_site_fract_x
 _atom_site_fract_y
 _atom_site_fract_z
 _atom_site_occupancy
  Tb  Tb0  1  0.644777  0.868923  0.325542  1
  Nd  Nd1  1  0.028665  0.712016  0.408185  1
  Nd  Nd2  1  0.969460  0.287388  0.590418  1
  Nd  Nd3  1  0.870774  0.951292  0.745964  1
  Nd  Nd4  1  0.126074  0.046994  0.252703  1
  Sm  Sm5  1  0.359020  0.133173  0.676715  1
  Co  Co6  1  0.999518  0.999696  0.500019  1
  Br  Br7  1  0.451756  0.820512  0.577810  1
  Br  Br8  1  0.549745  0.174256  0.416247  1
  Br  Br9  1  0.914047  0.630713  0.672095  1
  Br  Br10  1  0.085925  0.369221  0.327586  1
  Br  Br11  1  0.251932  0.083895  0.951183  1
  Br  Br12  1  0.743890  0.914627  0.052109  1
  Br  Br13  1  0.354375  0.451439  0.770338  1
  Br  Br14  1  0.642199  0.553475  0.229687  1
  Br  Br15  1  0.780327  0.254816  0.846572  1
  Br  Br16  1  0.227515  0.747564  0.156827  1
