# generated using pymatgen
data_Lu4ReSi4Rh
_symmetry_space_group_name_H-M   'P 1'
_cell_length_a   5.62233474
_cell_length_b   5.62233485
_cell_length_c   9.86276405
_cell_angle_alpha   116.21997512
_cell_angle_beta   116.21997563
_cell_angle_gamma   43.76279671
_symmetry_Int_Tables_number   1
_chemical_formula_structural   Lu4ReSi4Rh
_chemical_formula_sum   'Lu4 Re1 Si4 Rh1'
_cell_volume   189.63154762
_cell_formula_units_Z   1
loop_
 _symmetry_equiv_pos_site_id
 _symmetry_equiv_pos_as_xyz
  1  'x, y, z'
loop_
 _atom_site_type_symbol
 _atom_site_label
 _atom_site_symmetry_multiplicity
 _atom_site_fract_x
 _atom_site_fract_y
 _atom_site_fract_z
 _atom_site_occupancy
  Lu  Lu0  1  0.004499  0.004499  0.177948  1
  Lu  Lu1  1  0.816434  0.816434  0.391376  1
  Lu  Lu2  1  0.186318  0.186318  0.609639  1
  Lu  Lu3  1  0.992732  0.992732  0.821378  1
  Re  Re4  1  0.271145  0.271145  0.128058  1
  Si  Si5  1  0.640026  0.640026  0.061110  1
  Si  Si6  1  0.507919  0.507919  0.379168  1
  Si  Si7  1  0.489471  0.489471  0.622240  1
  Si  Si8  1  0.361609  0.361609  0.937490  1
  Rh  Rh9  1  0.729844  0.729844  0.871595  1
