# generated using pymatgen
data_DyYLu3(In2Ni)2
_symmetry_space_group_name_H-M   'P 1'
_cell_length_a   3.55634600
_cell_length_b   7.94058671
_cell_length_c   17.75367260
_cell_angle_alpha   89.95143354
_cell_angle_beta   90.00000000
_cell_angle_gamma   90.00000000
_symmetry_Int_Tables_number   1
_chemical_formula_structural   DyYLu3(In2Ni)2
_chemical_formula_sum   'Dy2 Y2 Lu6 In8 Ni4'
_cell_volume   501.35419189
_cell_formula_units_Z   2
loop_
 _symmetry_equiv_pos_site_id
 _symmetry_equiv_pos_as_xyz
  1  'x, y, z'
loop_
 _atom_site_type_symbol
 _atom_site_label
 _atom_site_symmetry_multiplicity
 _atom_site_fract_x
 _atom_site_fract_y
 _atom_site_fract_z
 _atom_site_occupancy
  Dy  Dy0  1  0.500000  0.245445  0.278180  1
  Dy  Dy1  1  0.500000  0.617702  0.412303  1
  Y  Y2  1  0.500000  0.500238  0.999244  1
  Y  Y3  1  0.500000  0.000066  0.500360  1
  Lu  Lu4  1  0.500000  0.383358  0.590874  1
  Lu  Lu5  1  0.500000  0.883520  0.909645  1
  Lu  Lu6  1  0.500000  0.115872  0.089050  1
  Lu  Lu7  1  0.500000  0.754457  0.721950  1
  Lu  Lu8  1  0.500000  0.254475  0.778439  1
  Lu  Lu9  1  0.500000  0.745662  0.220975  1
  In  In10  1  0.000000  0.797424  0.067817  1
  In  In11  1  0.000000  0.926125  0.347057  1
  In  In12  1  0.000000  0.073572  0.652972  1
  In  In13  1  0.000000  0.573862  0.847453  1
  In  In14  1  0.000000  0.703163  0.570935  1
  In  In15  1  0.000000  0.201882  0.931168  1
  In  In16  1  0.000000  0.295670  0.432553  1
  In  In17  1  0.000000  0.427738  0.151051  1
  Ni  Ni18  1  0.000000  0.976567  0.803950  1
  Ni  Ni19  1  0.000000  0.527975  0.302883  1
  Ni  Ni20  1  0.000000  0.476130  0.696778  1
  Ni  Ni21  1  0.000000  0.019097  0.194364  1
