# generated using pymatgen
data_MgU(Si7Ir3)2
_symmetry_space_group_name_H-M   'P 1'
_cell_length_a   7.99297919
_cell_length_b   7.99297827
_cell_length_c   7.99297900
_cell_angle_alpha   56.66497060
_cell_angle_beta   56.66497494
_cell_angle_gamma   56.66497242
_symmetry_Int_Tables_number   1
_chemical_formula_structural   MgU(Si7Ir3)2
_chemical_formula_sum   'Mg1 U1 Si14 Ir6'
_cell_volume   333.27405042
_cell_formula_units_Z   1
loop_
 _symmetry_equiv_pos_site_id
 _symmetry_equiv_pos_as_xyz
  1  'x, y, z'
loop_
 _atom_site_type_symbol
 _atom_site_label
 _atom_site_symmetry_multiplicity
 _atom_site_fract_x
 _atom_site_fract_y
 _atom_site_fract_z
 _atom_site_occupancy
  Mg  Mg0  1  0.500000  0.500000  0.500000  1
  U  U1  1  0.000000  0.000000  0.000000  1
  Si  Si2  1  0.846983  0.064910  0.671997  1
  Si  Si3  1  0.671997  0.846983  0.064910  1
  Si  Si4  1  0.064910  0.671997  0.846983  1
  Si  Si5  1  0.645875  0.826717  0.435094  1
  Si  Si6  1  0.248553  0.248553  0.248553  1
  Si  Si7  1  0.751447  0.751447  0.751447  1
  Si  Si8  1  0.173283  0.564906  0.354125  1
  Si  Si9  1  0.564906  0.354125  0.173283  1
  Si  Si10  1  0.354125  0.173283  0.564906  1
  Si  Si11  1  0.935090  0.328003  0.153017  1
  Si  Si12  1  0.328003  0.153017  0.935090  1
  Si  Si13  1  0.153017  0.935090  0.328003  1
  Si  Si14  1  0.826717  0.435094  0.645875  1
  Si  Si15  1  0.435094  0.645875  0.826717  1
  Ir  Ir16  1  0.753346  0.069480  0.424955  1
  Ir  Ir17  1  0.424955  0.753346  0.069480  1
  Ir  Ir18  1  0.069480  0.424955  0.753346  1
  Ir  Ir19  1  0.246654  0.930520  0.575045  1
  Ir  Ir20  1  0.575045  0.246654  0.930520  1
  Ir  Ir21  1  0.930520  0.575045  0.246654  1
