# generated using pymatgen
data_ErLu4P12Ru19
_symmetry_space_group_name_H-M   'P 1'
_cell_length_a   12.49412800
_cell_length_b   12.49366141
_cell_length_c   3.95985300
_cell_angle_alpha   90.00000000
_cell_angle_beta   90.00000000
_cell_angle_gamma   119.99876338
_symmetry_Int_Tables_number   1
_chemical_formula_structural   ErLu4P12Ru19
_chemical_formula_sum   'Er1 Lu4 P12 Ru19'
_cell_volume   535.31669801
_cell_formula_units_Z   1
loop_
 _symmetry_equiv_pos_site_id
 _symmetry_equiv_pos_as_xyz
  1  'x, y, z'
loop_
 _atom_site_type_symbol
 _atom_site_label
 _atom_site_symmetry_multiplicity
 _atom_site_fract_x
 _atom_site_fract_y
 _atom_site_fract_z
 _atom_site_occupancy
  Er  Er0  1  0.000000  0.816124  0.500000  1
  Lu  Lu1  1  0.183848  0.183847  0.500000  1
  Lu  Lu2  1  0.816152  0.999999  0.500000  1
  Lu  Lu3  1  0.333327  0.666616  0.000000  1
  Lu  Lu4  1  0.666673  0.333289  0.000000  1
  P  P5  1  0.816564  0.816794  0.000000  1
  P  P6  1  0.183436  0.000230  0.000000  1
  P  P7  1  0.000000  0.183458  0.000000  1
  P  P8  1  0.170954  0.478449  0.500000  1
  P  P9  1  0.521343  0.692403  0.500000  1
  P  P10  1  0.307575  0.829045  0.500000  1
  P  P11  1  0.692425  0.521470  0.500000  1
  P  P12  1  0.829046  0.307495  0.500000  1
  P  P13  1  0.478657  0.171060  0.500000  1
  P  P14  1  0.371793  0.371793  0.000000  1
  P  P15  1  0.628207  0.999999  0.000000  1
  P  P16  1  0.000000  0.628041  0.000000  1
  Ru  Ru17  1  0.554329  0.554357  0.000000  1
  Ru  Ru18  1  0.445671  0.000028  0.000000  1
  Ru  Ru19  1  0.000000  0.445517  0.000000  1
  Ru  Ru20  1  0.717583  0.717858  0.500000  1
  Ru  Ru21  1  0.282417  0.000275  0.500000  1
  Ru  Ru22  1  0.000000  0.281951  0.500000  1
  Ru  Ru23  1  0.184932  0.376634  0.000000  1
  Ru  Ru24  1  0.623323  0.808319  0.000000  1
  Ru  Ru25  1  0.192446  0.815179  0.000000  1
  Ru  Ru26  1  0.807554  0.622733  0.000000  1
  Ru  Ru27  1  0.815068  0.191702  0.000000  1
  Ru  Ru28  1  0.376677  0.184996  0.000000  1
  Ru  Ru29  1  0.364984  0.491962  0.500000  1
  Ru  Ru30  1  0.507984  0.873010  0.500000  1
  Ru  Ru31  1  0.126989  0.634839  0.500000  1
  Ru  Ru32  1  0.873011  0.507849  0.500000  1
  Ru  Ru33  1  0.635016  0.126977  0.500000  1
  Ru  Ru34  1  0.492016  0.365025  0.500000  1
  Ru  Ru35  1  0.000000  0.000676  0.000000  1
