# generated using pymatgen
data_Tm5LuNiI10
_symmetry_space_group_name_H-M   'P 1'
_cell_length_a   7.63372466
_cell_length_b   9.58243118
_cell_length_c   9.60653110
_cell_angle_alpha   106.98332203
_cell_angle_beta   96.87530070
_cell_angle_gamma   104.50271552
_symmetry_Int_Tables_number   1
_chemical_formula_structural   Tm5LuNiI10
_chemical_formula_sum   'Tm5 Lu1 Ni1 I10'
_cell_volume   636.38347614
_cell_formula_units_Z   1
loop_
 _symmetry_equiv_pos_site_id
 _symmetry_equiv_pos_as_xyz
  1  'x, y, z'
loop_
 _atom_site_type_symbol
 _atom_site_label
 _atom_site_symmetry_multiplicity
 _atom_site_fract_x
 _atom_site_fract_y
 _atom_site_fract_z
 _atom_site_occupancy
  Tm  Tm0  1  0.335836  0.118923  0.158736  1
  Tm  Tm1  1  0.664546  0.881272  0.840326  1
  Tm  Tm2  1  0.969910  0.276485  0.082365  1
  Tm  Tm3  1  0.030443  0.723740  0.917197  1
  Tm  Tm4  1  0.889405  0.959995  0.232996  1
  Lu  Lu5  1  0.109186  0.039222  0.767873  1
  Ni  Ni6  1  0.000490  0.000390  0.999230  1
  I  I7  1  0.350929  0.449715  0.272103  1
  I  I8  1  0.649283  0.550298  0.728183  1
  I  I9  1  0.771421  0.254871  0.342812  1
  I  I10  1  0.228652  0.745211  0.657472  1
  I  I11  1  0.545109  0.184763  0.906374  1
  I  I12  1  0.454703  0.815091  0.093584  1
  I  I13  1  0.743375  0.912857  0.536917  1
  I  I14  1  0.256716  0.087052  0.463351  1
  I  I15  1  0.915166  0.626495  0.180016  1
  I  I16  1  0.084832  0.373618  0.820463  1
