# generated using pymatgen
data_Ta12Al8IrPd(RhC2)2
_symmetry_space_group_name_H-M   'P 1'
_cell_length_a   8.32446211
_cell_length_b   8.32446307
_cell_length_c   8.32446200
_cell_angle_alpha   59.84921903
_cell_angle_beta   59.84921518
_cell_angle_gamma   59.84922196
_symmetry_Int_Tables_number   1
_chemical_formula_structural   Ta12Al8IrPd(RhC2)2
_chemical_formula_sum   'Ta12 Al8 Ir1 Pd1 Rh2 C4'
_cell_volume   406.50413231
_cell_formula_units_Z   1
loop_
 _symmetry_equiv_pos_site_id
 _symmetry_equiv_pos_as_xyz
  1  'x, y, z'
loop_
 _atom_site_type_symbol
 _atom_site_label
 _atom_site_symmetry_multiplicity
 _atom_site_fract_x
 _atom_site_fract_y
 _atom_site_fract_z
 _atom_site_occupancy
  Ta  Ta0  1  0.568779  0.933682  0.564824  1
  Ta  Ta1  1  0.316318  0.681221  0.685176  1
  Ta  Ta2  1  0.687031  0.314704  0.314298  1
  Ta  Ta3  1  0.314704  0.687031  0.314298  1
  Ta  Ta4  1  0.684740  0.684740  0.314534  1
  Ta  Ta5  1  0.315530  0.315530  0.688178  1
  Ta  Ta6  1  0.565260  0.565260  0.935466  1
  Ta  Ta7  1  0.933682  0.568779  0.564824  1
  Ta  Ta8  1  0.562969  0.935296  0.935702  1
  Ta  Ta9  1  0.934470  0.934470  0.561822  1
  Ta  Ta10  1  0.681221  0.316318  0.685176  1
  Ta  Ta11  1  0.935296  0.562969  0.935702  1
  Al  Al12  1  0.914892  0.914892  0.917684  1
  Al  Al13  1  0.000003  0.335457  0.332609  1
  Al  Al14  1  0.335457  0.000003  0.332609  1
  Al  Al15  1  0.333908  0.333908  0.001583  1
  Al  Al16  1  0.914543  0.249997  0.917391  1
  Al  Al17  1  0.916092  0.916092  0.248417  1
  Al  Al18  1  0.249997  0.914543  0.917391  1
  Al  Al19  1  0.335108  0.335108  0.332316  1
  Ir  Ir20  1  0.125000  0.125000  0.125000  1
  Pd  Pd21  1  0.125000  0.125000  0.625000  1
  Rh  Rh22  1  0.625000  0.125000  0.125000  1
  Rh  Rh23  1  0.125000  0.625000  0.125000  1
  C  C24  1  0.625000  0.625000  0.625000  1
  C  C25  1  0.125000  0.625000  0.625000  1
  C  C26  1  0.625000  0.125000  0.625000  1
  C  C27  1  0.625000  0.625000  0.125000  1
