# generated using pymatgen
data_TbEr15In6FePt
_symmetry_space_group_name_H-M   'P 1'
_cell_length_a   10.27485300
_cell_length_b   10.26823693
_cell_length_c   6.96665600
_cell_angle_alpha   89.95802238
_cell_angle_beta   90.00000000
_cell_angle_gamma   120.02130669
_symmetry_Int_Tables_number   1
_chemical_formula_structural   TbEr15In6FePt
_chemical_formula_sum   'Tb1 Er15 In6 Fe1 Pt1'
_cell_volume   636.40423008
_cell_formula_units_Z   1
loop_
 _symmetry_equiv_pos_site_id
 _symmetry_equiv_pos_as_xyz
  1  'x, y, z'
loop_
 _atom_site_type_symbol
 _atom_site_label
 _atom_site_symmetry_multiplicity
 _atom_site_fract_x
 _atom_site_fract_y
 _atom_site_fract_z
 _atom_site_occupancy
  Tb  Tb0  1  0.535773  0.071546  0.790582  1
  Er  Er1  1  0.927706  0.463938  0.791838  1
  Er  Er2  1  0.536233  0.463938  0.791838  1
  Er  Er3  1  0.470034  0.940069  0.292856  1
  Er  Er4  1  0.059446  0.529761  0.293727  1
  Er  Er5  1  0.470314  0.529761  0.293727  1
  Er  Er6  1  0.821971  0.643942  0.501990  1
  Er  Er7  1  0.355771  0.178403  0.501393  1
  Er  Er8  1  0.822632  0.178403  0.501393  1
  Er  Er9  1  0.175205  0.350411  0.998385  1
  Er  Er10  1  0.649793  0.824407  0.998450  1
  Er  Er11  1  0.174612  0.824407  0.998450  1
  Er  Er12  1  0.666953  0.333903  0.180516  1
  Er  Er13  1  0.333028  0.666057  0.668759  1
  Er  Er14  1  0.999964  0.999928  0.778663  1
  Er  Er15  1  0.000048  0.000096  0.279442  1
  In  In16  1  0.836501  0.673004  0.041500  1
  In  In17  1  0.326478  0.163506  0.042359  1
  In  In18  1  0.837026  0.163506  0.042359  1
  In  In19  1  0.163032  0.326062  0.538540  1
  In  In20  1  0.674003  0.837031  0.538219  1
  In  In21  1  0.163029  0.837031  0.538219  1
  Fe  Fe22  1  0.667161  0.334322  0.565711  1
  Pt  Pt23  1  0.333288  0.666576  0.066987  1
