# generated using pymatgen
data_DyYTm4(B7W)2
_symmetry_space_group_name_H-M   'P 1'
_cell_length_a   8.07357354
_cell_length_b   8.07357410
_cell_length_c   9.46425900
_cell_angle_alpha   90.00000000
_cell_angle_beta   90.00000000
_cell_angle_gamma   155.44198245
_symmetry_Int_Tables_number   1
_chemical_formula_structural   DyYTm4(B7W)2
_chemical_formula_sum   'Dy1 Y1 Tm4 B14 W2'
_cell_volume   256.39461559
_cell_formula_units_Z   1
loop_
 _symmetry_equiv_pos_site_id
 _symmetry_equiv_pos_as_xyz
  1  'x, y, z'
loop_
 _atom_site_type_symbol
 _atom_site_label
 _atom_site_symmetry_multiplicity
 _atom_site_fract_x
 _atom_site_fract_y
 _atom_site_fract_z
 _atom_site_occupancy
  Dy  Dy0  1  0.753449  0.246551  0.750000  1
  Y  Y1  1  0.247100  0.752900  0.250000  1
  Tm  Tm2  1  0.893109  0.106891  0.441485  1
  Tm  Tm3  1  0.107090  0.892910  0.558589  1
  Tm  Tm4  1  0.893109  0.106891  0.058515  1
  Tm  Tm5  1  0.107090  0.892910  0.941411  1
  B  B6  1  0.727554  0.272446  0.467604  1
  B  B7  1  0.272500  0.727500  0.532377  1
  B  B8  1  0.727554  0.272446  0.032396  1
  B  B9  1  0.272500  0.727500  0.967623  1
  B  B10  1  0.634731  0.365269  0.146784  1
  B  B11  1  0.364831  0.635169  0.853218  1
  B  B12  1  0.634731  0.365269  0.353216  1
  B  B13  1  0.364831  0.635169  0.646782  1
  B  B14  1  0.518848  0.481152  0.091263  1
  B  B15  1  0.481167  0.518833  0.908587  1
  B  B16  1  0.518848  0.481152  0.408737  1
  B  B17  1  0.481167  0.518833  0.591413  1
  B  B18  1  0.452409  0.547591  0.250000  1
  B  B19  1  0.547519  0.452481  0.750000  1
  W  W20  1  0.052322  0.947678  0.250000  1
  W  W21  1  0.947541  0.052459  0.750000  1
