# generated using pymatgen
data_RbLiPaS3
_symmetry_space_group_name_H-M   'P 1'
_cell_length_a   7.57564581
_cell_length_b   7.57564531
_cell_length_c   10.63902300
_cell_angle_alpha   90.00000000
_cell_angle_beta   90.00000000
_cell_angle_gamma   148.34815003
_symmetry_Int_Tables_number   1
_chemical_formula_structural   RbLiPaS3
_chemical_formula_sum   'Rb2 Li2 Pa2 S6'
_cell_volume   320.40467124
_cell_formula_units_Z   2
loop_
 _symmetry_equiv_pos_site_id
 _symmetry_equiv_pos_as_xyz
  1  'x, y, z'
loop_
 _atom_site_type_symbol
 _atom_site_label
 _atom_site_symmetry_multiplicity
 _atom_site_fract_x
 _atom_site_fract_y
 _atom_site_fract_z
 _atom_site_occupancy
  Rb  Rb0  1  0.238198  0.761801  0.250000  1
  Rb  Rb1  1  0.761801  0.238198  0.750000  1
  Li  Li2  1  0.962570  0.037429  0.250000  1
  Li  Li3  1  0.037429  0.962570  0.750000  1
  Pa  Pa4  1  0.500000  0.500000  0.000000  1
  Pa  Pa5  1  0.500000  0.500000  0.500000  1
  S  S6  1  0.882260  0.117740  0.052124  1
  S  S7  1  0.550644  0.449355  0.250000  1
  S  S8  1  0.882260  0.117740  0.447876  1
  S  S9  1  0.117740  0.882260  0.552124  1
  S  S10  1  0.449355  0.550644  0.750000  1
  S  S11  1  0.117740  0.882260  0.947876  1
