# generated using pymatgen
data_Eu2AlSbO7
_symmetry_space_group_name_H-M   'P 1'
_cell_length_a   7.29715976
_cell_length_b   7.29716024
_cell_length_c   7.29715985
_cell_angle_alpha   120.13198650
_cell_angle_beta   119.49013999
_cell_angle_gamma   90.32846330
_symmetry_Int_Tables_number   1
_chemical_formula_structural   Eu2AlSbO7
_chemical_formula_sum   'Eu4 Al2 Sb2 O14'
_cell_volume   275.52461608
_cell_formula_units_Z   2
loop_
 _symmetry_equiv_pos_site_id
 _symmetry_equiv_pos_as_xyz
  1  'x, y, z'
loop_
 _atom_site_type_symbol
 _atom_site_label
 _atom_site_symmetry_multiplicity
 _atom_site_fract_x
 _atom_site_fract_y
 _atom_site_fract_z
 _atom_site_occupancy
  Eu  Eu0  1  0.500000  0.500000  0.500000  1
  Eu  Eu1  1  0.500000  0.000000  0.000000  1
  Eu  Eu2  1  0.500000  0.500000  0.000000  1
  Eu  Eu3  1  0.000000  0.500000  0.500000  1
  Al  Al4  1  0.000000  0.000000  0.500000  1
  Al  Al5  1  0.000000  0.500000  0.000000  1
  Sb  Sb6  1  0.000000  0.000000  0.000000  1
  Sb  Sb7  1  0.500000  0.000000  0.500000  1
  O  O8  1  0.374897  0.624897  0.750000  1
  O  O9  1  0.625103  0.375103  0.250000  1
  O  O10  1  0.332605  0.082605  0.250000  1
  O  O11  1  0.926761  0.676761  0.250000  1
  O  O12  1  0.322111  0.671007  0.246205  1
  O  O13  1  0.924801  0.075905  0.253795  1
  O  O14  1  0.322111  0.075905  0.651104  1
  O  O15  1  0.924801  0.671007  0.848896  1
  O  O16  1  0.667395  0.917395  0.750000  1
  O  O17  1  0.073239  0.323239  0.750000  1
  O  O18  1  0.677889  0.328993  0.753795  1
  O  O19  1  0.075199  0.924095  0.746205  1
  O  O20  1  0.677889  0.924095  0.348896  1
  O  O21  1  0.075199  0.328993  0.151104  1
