# generated using pymatgen
data_Ho3Lu5(AlPd)2
_symmetry_space_group_name_H-M   'P 1'
_cell_length_a   9.45969869
_cell_length_b   9.45969937
_cell_length_c   9.45969900
_cell_angle_alpha   59.99999781
_cell_angle_beta   59.99999542
_cell_angle_gamma   59.99999732
_symmetry_Int_Tables_number   1
_chemical_formula_structural   Ho3Lu5(AlPd)2
_chemical_formula_sum   'Ho6 Lu10 Al4 Pd4'
_cell_volume   598.57273007
_cell_formula_units_Z   2
loop_
 _symmetry_equiv_pos_site_id
 _symmetry_equiv_pos_as_xyz
  1  'x, y, z'
loop_
 _atom_site_type_symbol
 _atom_site_label
 _atom_site_symmetry_multiplicity
 _atom_site_fract_x
 _atom_site_fract_y
 _atom_site_fract_z
 _atom_site_occupancy
  Ho  Ho0  1  0.185701  0.814287  0.814273  1
  Ho  Ho1  1  0.814265  0.185736  0.185821  1
  Ho  Ho2  1  0.814236  0.185697  0.814339  1
  Ho  Ho3  1  0.185665  0.814488  0.185624  1
  Ho  Ho4  1  0.814238  0.814167  0.185797  1
  Ho  Ho5  1  0.185721  0.185873  0.814093  1
  Lu  Lu6  1  0.605739  0.605863  0.605995  1
  Lu  Lu7  1  0.605800  0.605922  0.182257  1
  Lu  Lu8  1  0.605885  0.182305  0.606081  1
  Lu  Lu9  1  0.182343  0.606105  0.605627  1
  Lu  Lu10  1  0.058499  0.441387  0.441445  1
  Lu  Lu11  1  0.441378  0.058636  0.058617  1
  Lu  Lu12  1  0.441491  0.058531  0.441320  1
  Lu  Lu13  1  0.058840  0.441156  0.058653  1
  Lu  Lu14  1  0.441324  0.441373  0.058705  1
  Lu  Lu15  1  0.058690  0.058763  0.441352  1
  Al  Al16  1  0.827653  0.827588  0.827568  1
  Al  Al17  1  0.827629  0.827599  0.517174  1
  Al  Al18  1  0.827649  0.517197  0.827556  1
  Al  Al19  1  0.517232  0.827587  0.827589  1
  Pd  Pd20  1  0.394761  0.394440  0.394861  1
  Pd  Pd21  1  0.394673  0.394802  0.815717  1
  Pd  Pd22  1  0.394860  0.815685  0.394811  1
  Pd  Pd23  1  0.815728  0.394813  0.394723  1
