# generated using pymatgen
data_Dy2Ho4TcIr
_symmetry_space_group_name_H-M   'P 1'
_cell_length_a   6.31425300
_cell_length_b   7.31280400
_cell_length_c   9.13564900
_cell_angle_alpha   90.00000000
_cell_angle_beta   90.00000000
_cell_angle_gamma   90.00000000
_symmetry_Int_Tables_number   1
_chemical_formula_structural   Dy2Ho4TcIr
_chemical_formula_sum   'Dy4 Ho8 Tc2 Ir2'
_cell_volume   421.83762964
_cell_formula_units_Z   2
loop_
 _symmetry_equiv_pos_site_id
 _symmetry_equiv_pos_as_xyz
  1  'x, y, z'
loop_
 _atom_site_type_symbol
 _atom_site_label
 _atom_site_symmetry_multiplicity
 _atom_site_fract_x
 _atom_site_fract_y
 _atom_site_fract_z
 _atom_site_occupancy
  Dy  Dy0  1  0.873772  0.537967  0.250000  1
  Dy  Dy1  1  0.626228  0.037967  0.250000  1
  Dy  Dy2  1  0.133265  0.459967  0.750000  1
  Dy  Dy3  1  0.366735  0.959967  0.750000  1
  Ho  Ho4  1  0.328874  0.676608  0.065902  1
  Ho  Ho5  1  0.171126  0.176608  0.434098  1
  Ho  Ho6  1  0.668355  0.323981  0.560864  1
  Ho  Ho7  1  0.831645  0.823981  0.939136  1
  Ho  Ho8  1  0.668355  0.323981  0.939136  1
  Ho  Ho9  1  0.831645  0.823981  0.560864  1
  Ho  Ho10  1  0.328874  0.676608  0.434098  1
  Ho  Ho11  1  0.171126  0.176608  0.065902  1
  Tc  Tc12  1  0.035668  0.886147  0.250000  1
  Tc  Tc13  1  0.464332  0.386147  0.250000  1
  Ir  Ir14  1  0.954852  0.114739  0.750000  1
  Ir  Ir15  1  0.545148  0.614739  0.750000  1
