# generated using pymatgen
data_TbPr2Tm3(IrO7)2
_symmetry_space_group_name_H-M   'P 1'
_cell_length_a   6.43319732
_cell_length_b   6.44186426
_cell_length_c   7.48141400
_cell_angle_alpha   90.00000000
_cell_angle_beta   90.00000000
_cell_angle_gamma   109.57843294
_symmetry_Int_Tables_number   1
_chemical_formula_structural   TbPr2Tm3(IrO7)2
_chemical_formula_sum   'Tb1 Pr2 Tm3 Ir2 O14'
_cell_volume   292.11758099
_cell_formula_units_Z   1
loop_
 _symmetry_equiv_pos_site_id
 _symmetry_equiv_pos_as_xyz
  1  'x, y, z'
loop_
 _atom_site_type_symbol
 _atom_site_label
 _atom_site_symmetry_multiplicity
 _atom_site_fract_x
 _atom_site_fract_y
 _atom_site_fract_z
 _atom_site_occupancy
  Tb  Tb0  1  0.064369  0.516255  0.250000  1
  Pr  Pr1  1  0.997611  0.998876  0.998680  1
  Pr  Pr2  1  0.997611  0.998876  0.501320  1
  Tm  Tm3  1  0.486272  0.940468  0.750000  1
  Tm  Tm4  1  0.513333  0.058770  0.250000  1
  Tm  Tm5  1  0.939041  0.487091  0.750000  1
  Ir  Ir6  1  0.499133  0.498476  0.998613  1
  Ir  Ir7  1  0.499133  0.498476  0.501387  1
  O  O8  1  0.598475  0.597697  0.750000  1
  O  O9  1  0.414660  0.407788  0.250000  1
  O  O10  1  0.835765  0.126052  0.750000  1
  O  O11  1  0.161983  0.882481  0.250000  1
  O  O12  1  0.125504  0.836747  0.750000  1
  O  O13  1  0.872707  0.159481  0.250000  1
  O  O14  1  0.441310  0.178094  0.965768  1
  O  O15  1  0.555664  0.819941  0.466759  1
  O  O16  1  0.178831  0.436674  0.961976  1
  O  O17  1  0.821396  0.561524  0.469148  1
  O  O18  1  0.441310  0.178094  0.534232  1
  O  O19  1  0.555664  0.819941  0.033241  1
  O  O20  1  0.821396  0.561524  0.030852  1
  O  O21  1  0.178831  0.436674  0.538024  1
