# generated using pymatgen
data_Hf3CoSi3Ni
_symmetry_space_group_name_H-M   'P 1'
_cell_length_a   5.30947160
_cell_length_b   5.30947063
_cell_length_c   12.85640916
_cell_angle_alpha   89.60245883
_cell_angle_beta   90.39754070
_cell_angle_gamma   137.66532093
_symmetry_Int_Tables_number   1
_chemical_formula_structural   Hf3CoSi3Ni
_chemical_formula_sum   'Hf6 Co2 Si6 Ni2'
_cell_volume   244.07429044
_cell_formula_units_Z   2
loop_
 _symmetry_equiv_pos_site_id
 _symmetry_equiv_pos_as_xyz
  1  'x, y, z'
loop_
 _atom_site_type_symbol
 _atom_site_label
 _atom_site_symmetry_multiplicity
 _atom_site_fract_x
 _atom_site_fract_y
 _atom_site_fract_z
 _atom_site_occupancy
  Hf  Hf0  1  0.134448  0.865552  0.249817  1
  Hf  Hf1  1  0.865552  0.134448  0.750183  1
  Hf  Hf2  1  0.573391  0.426609  0.618872  1
  Hf  Hf3  1  0.426609  0.573391  0.381128  1
  Hf  Hf4  1  0.425685  0.574315  0.116615  1
  Hf  Hf5  1  0.574315  0.425685  0.883385  1
  Co  Co6  1  0.278188  0.721812  0.920591  1
  Co  Co7  1  0.721812  0.278188  0.079409  1
  Si  Si8  1  0.836916  0.163084  0.246994  1
  Si  Si9  1  0.163084  0.836916  0.753006  1
  Si  Si10  1  0.889297  0.110703  0.540286  1
  Si  Si11  1  0.110703  0.889297  0.459714  1
  Si  Si12  1  0.110665  0.889335  0.043119  1
  Si  Si13  1  0.889335  0.110665  0.956881  1
  Ni  Ni14  1  0.718329  0.281671  0.410618  1
  Ni  Ni15  1  0.281671  0.718329  0.589382  1
