# generated using pymatgen
data_CsPr2YCBr6
_symmetry_space_group_name_H-M   'P 1'
_cell_length_a   9.08273479
_cell_length_b   9.12830219
_cell_length_c   9.55936497
_cell_angle_alpha   71.10888521
_cell_angle_beta   84.88611910
_cell_angle_gamma   89.28887189
_symmetry_Int_Tables_number   1
_chemical_formula_structural   CsPr2YCBr6
_chemical_formula_sum   'Cs2 Pr4 Y2 C2 Br12'
_cell_volume   746.77666182
_cell_formula_units_Z   2
loop_
 _symmetry_equiv_pos_site_id
 _symmetry_equiv_pos_as_xyz
  1  'x, y, z'
loop_
 _atom_site_type_symbol
 _atom_site_label
 _atom_site_symmetry_multiplicity
 _atom_site_fract_x
 _atom_site_fract_y
 _atom_site_fract_z
 _atom_site_occupancy
  Cs  Cs0  1  0.467484  0.357299  0.333314  1
  Cs  Cs1  1  0.532517  0.642701  0.666686  1
  Pr  Pr2  1  0.916268  0.736845  0.004075  1
  Pr  Pr3  1  0.083732  0.263155  0.995924  1
  Pr  Pr4  1  0.735926  0.085903  0.000489  1
  Pr  Pr5  1  0.264073  0.914097  0.999512  1
  Y  Y6  1  0.973021  0.888677  0.323038  1
  Y  Y7  1  0.026978  0.111323  0.676963  1
  C  C8  1  0.006528  0.025983  0.921974  1
  C  C9  1  0.993471  0.974017  0.078026  1
  Br  Br10  1  0.073615  0.186928  0.336922  1
  Br  Br11  1  0.926385  0.813072  0.663078  1
  Br  Br12  1  0.212546  0.589675  0.000207  1
  Br  Br13  1  0.787455  0.410325  0.999793  1
  Br  Br14  1  0.406126  0.208162  0.003100  1
  Br  Br15  1  0.593873  0.791839  0.996899  1
  Br  Br16  1  0.672755  0.996076  0.335268  1
  Br  Br17  1  0.327245  0.003924  0.664732  1
  Br  Br18  1  0.270315  0.774846  0.332969  1
  Br  Br19  1  0.729685  0.225154  0.667031  1
  Br  Br20  1  0.852291  0.596863  0.334848  1
  Br  Br21  1  0.147708  0.403137  0.665152  1
