# generated using pymatgen
data_Ca9SmRh4
_symmetry_space_group_name_H-M   'P 1'
_cell_length_a   8.70747510
_cell_length_b   8.70747615
_cell_length_c   7.58117050
_cell_angle_alpha   82.83529977
_cell_angle_beta   82.83530793
_cell_angle_gamma   44.27308561
_symmetry_Int_Tables_number   1
_chemical_formula_structural   Ca9SmRh4
_chemical_formula_sum   'Ca9 Sm1 Rh4'
_cell_volume   397.60553611
_cell_formula_units_Z   1
loop_
 _symmetry_equiv_pos_site_id
 _symmetry_equiv_pos_as_xyz
  1  'x, y, z'
loop_
 _atom_site_type_symbol
 _atom_site_label
 _atom_site_symmetry_multiplicity
 _atom_site_fract_x
 _atom_site_fract_y
 _atom_site_fract_z
 _atom_site_occupancy
  Ca  Ca0  1  0.023668  0.799949  0.417039  1
  Ca  Ca1  1  0.200051  0.976332  0.082961  1
  Ca  Ca2  1  0.981826  0.196011  0.581810  1
  Ca  Ca3  1  0.803989  0.018174  0.918190  1
  Ca  Ca4  1  0.362314  0.205594  0.321726  1
  Ca  Ca5  1  0.794406  0.637686  0.178274  1
  Ca  Ca6  1  0.638631  0.797835  0.678678  1
  Ca  Ca7  1  0.202165  0.361369  0.821322  1
  Ca  Ca8  1  0.573427  0.426573  0.250000  1
  Sm  Sm9  1  0.434028  0.565972  0.750000  1
  Rh  Rh10  1  0.182564  0.601772  0.070522  1
  Rh  Rh11  1  0.398228  0.817436  0.429478  1
  Rh  Rh12  1  0.809986  0.405283  0.915251  1
  Rh  Rh13  1  0.594717  0.190014  0.584749  1
