# generated using pymatgen
data_Zn2NiSn(RhO4)2
_symmetry_space_group_name_H-M   'P 1'
_cell_length_a   6.08873299
_cell_length_b   6.18347581
_cell_length_c   6.20548625
_cell_angle_alpha   60.11725647
_cell_angle_beta   59.55406673
_cell_angle_gamma   59.48393357
_symmetry_Int_Tables_number   1
_chemical_formula_structural   Zn2NiSn(RhO4)2
_chemical_formula_sum   'Zn2 Ni1 Sn1 Rh2 O8'
_cell_volume   164.13520245
_cell_formula_units_Z   1
loop_
 _symmetry_equiv_pos_site_id
 _symmetry_equiv_pos_as_xyz
  1  'x, y, z'
loop_
 _atom_site_type_symbol
 _atom_site_label
 _atom_site_symmetry_multiplicity
 _atom_site_fract_x
 _atom_site_fract_y
 _atom_site_fract_z
 _atom_site_occupancy
  Zn  Zn0  1  0.479139  0.506464  0.507934  1
  Zn  Zn1  1  0.770861  0.743536  0.742066  1
  Ni  Ni2  1  0.625000  0.125000  0.125000  1
  Sn  Sn3  1  0.125000  0.125000  0.625000  1
  Rh  Rh4  1  0.125000  0.125000  0.125000  1
  Rh  Rh5  1  0.125000  0.625000  0.125000  1
  O  O6  1  0.363807  0.367237  0.365089  1
  O  O7  1  0.348585  0.881052  0.889312  1
  O  O8  1  0.886569  0.884764  0.343905  1
  O  O9  1  0.886193  0.346134  0.884911  1
  O  O10  1  0.363431  0.365236  0.906095  1
  O  O11  1  0.363807  0.903866  0.365089  1
  O  O12  1  0.886193  0.882763  0.884911  1
  O  O13  1  0.901415  0.368948  0.360688  1
