# generated using pymatgen
data_Tm2HPd5Pt
_symmetry_space_group_name_H-M   'P 1'
_cell_length_a   5.85851374
_cell_length_b   5.84976541
_cell_length_c   5.84989900
_cell_angle_alpha   60.09822993
_cell_angle_beta   59.94975511
_cell_angle_gamma   59.95202391
_symmetry_Int_Tables_number   1
_chemical_formula_structural   Tm2HPd5Pt
_chemical_formula_sum   'Tm2 H1 Pd5 Pt1'
_cell_volume   141.76120155
_cell_formula_units_Z   1
loop_
 _symmetry_equiv_pos_site_id
 _symmetry_equiv_pos_as_xyz
  1  'x, y, z'
loop_
 _atom_site_type_symbol
 _atom_site_label
 _atom_site_symmetry_multiplicity
 _atom_site_fract_x
 _atom_site_fract_y
 _atom_site_fract_z
 _atom_site_occupancy
  Tm  Tm0  1  0.246986  0.253014  0.253014  1
  Tm  Tm1  1  0.746986  0.753014  0.753014  1
  H  H2  1  0.026709  0.973291  0.973291  1
  Pd  Pd3  1  0.746127  0.253874  0.253874  1
  Pd  Pd4  1  0.248619  0.751382  0.256280  1
  Pd  Pd5  1  0.743840  0.751422  0.256161  1
  Pd  Pd6  1  0.743720  0.256281  0.751381  1
  Pd  Pd7  1  0.248578  0.256160  0.751423  1
  Pt  Pt8  1  0.248438  0.751563  0.751563  1
