# generated using pymatgen
data_Ce2Er5Lu3(Al2Ru3)2
_symmetry_space_group_name_H-M   'P 1'
_cell_length_a   8.39275391
_cell_length_b   8.30294614
_cell_length_c   8.27591117
_cell_angle_alpha   109.95379388
_cell_angle_beta   109.46734436
_cell_angle_gamma   110.10554784
_symmetry_Int_Tables_number   1
_chemical_formula_structural   Ce2Er5Lu3(Al2Ru3)2
_chemical_formula_sum   'Ce2 Er5 Lu3 Al4 Ru6'
_cell_volume   437.73116348
_cell_formula_units_Z   1
loop_
 _symmetry_equiv_pos_site_id
 _symmetry_equiv_pos_as_xyz
  1  'x, y, z'
loop_
 _atom_site_type_symbol
 _atom_site_label
 _atom_site_symmetry_multiplicity
 _atom_site_fract_x
 _atom_site_fract_y
 _atom_site_fract_z
 _atom_site_occupancy
  Ce  Ce0  1  0.942925  0.250952  0.194988  1
  Ce  Ce1  1  0.196829  0.940920  0.251484  1
  Er  Er2  1  0.567905  0.748117  0.313797  1
  Er  Er3  1  0.720216  0.503680  0.997240  1
  Er  Er4  1  0.999085  0.719327  0.507569  1
  Er  Er5  1  0.502329  0.992254  0.716600  1
  Er  Er6  1  0.253676  0.187503  0.931017  1
  Lu  Lu7  1  0.780185  0.784219  0.777713  1
  Lu  Lu8  1  0.318886  0.567695  0.754811  1
  Lu  Lu9  1  0.751238  0.318946  0.569609  1
  Al  Al10  1  0.417455  0.412668  0.411303  1
  Al  Al11  1  0.091757  0.491387  0.995039  1
  Al  Al12  1  0.997811  0.091380  0.503062  1
  Al  Al13  1  0.501900  0.009991  0.093941  1
  Ru  Ru14  1  0.866684  0.114944  0.740256  1
  Ru  Ru15  1  0.752434  0.899142  0.119426  1
  Ru  Ru16  1  0.124513  0.760971  0.903811  1
  Ru  Ru17  1  0.226352  0.594914  0.366600  1
  Ru  Ru18  1  0.360540  0.225094  0.599075  1
  Ru  Ru19  1  0.627282  0.385894  0.252656  1
