# generated using pymatgen
data_Ba6In2Fe2O13
_symmetry_space_group_name_H-M   'P 1'
_cell_length_a   11.34562556
_cell_length_b   11.34562464
_cell_length_c   5.85252000
_cell_angle_alpha   90.00000000
_cell_angle_beta   90.00000000
_cell_angle_gamma   150.04942889
_symmetry_Int_Tables_number   1
_chemical_formula_structural   Ba6In2Fe2O13
_chemical_formula_sum   'Ba6 In2 Fe2 O13'
_cell_volume   376.11459247
_cell_formula_units_Z   1
loop_
 _symmetry_equiv_pos_site_id
 _symmetry_equiv_pos_as_xyz
  1  'x, y, z'
loop_
 _atom_site_type_symbol
 _atom_site_label
 _atom_site_symmetry_multiplicity
 _atom_site_fract_x
 _atom_site_fract_y
 _atom_site_fract_z
 _atom_site_occupancy
  Ba  Ba0  1  0.500000  0.500000  0.000000  1
  Ba  Ba1  1  0.000000  0.000000  0.500000  1
  Ba  Ba2  1  0.182493  0.817507  0.500000  1
  Ba  Ba3  1  0.683211  0.316789  0.000000  1
  Ba  Ba4  1  0.316789  0.683211  0.000000  1
  Ba  Ba5  1  0.817507  0.182493  0.500000  1
  In  In6  1  0.903750  0.096250  0.000000  1
  In  In7  1  0.096250  0.903750  0.000000  1
  Fe  Fe8  1  0.393343  0.606657  0.500000  1
  Fe  Fe9  1  0.606657  0.393343  0.500000  1
  O  O10  1  0.638050  0.819952  0.729135  1
  O  O11  1  0.180048  0.361950  0.270865  1
  O  O12  1  0.819952  0.638050  0.729135  1
  O  O13  1  0.361950  0.180048  0.270865  1
  O  O14  1  0.180048  0.361950  0.729135  1
  O  O15  1  0.638050  0.819952  0.270865  1
  O  O16  1  0.361950  0.180048  0.729135  1
  O  O17  1  0.819952  0.638050  0.270865  1
  O  O18  1  0.304950  0.695050  0.500000  1
  O  O19  1  0.806787  0.193213  0.000000  1
  O  O20  1  0.193213  0.806787  0.000000  1
  O  O21  1  0.695050  0.304950  0.500000  1
  O  O22  1  0.000000  0.000000  0.000000  1
