# generated using pymatgen
data_Gd2HoEr(B6Ru)2
_symmetry_space_group_name_H-M   'P 1'
_cell_length_a   3.66347100
_cell_length_b   9.14478305
_cell_length_c   11.53058106
_cell_angle_alpha   90.01154445
_cell_angle_beta   90.00000000
_cell_angle_gamma   90.00000000
_symmetry_Int_Tables_number   1
_chemical_formula_structural   Gd2HoEr(B6Ru)2
_chemical_formula_sum   'Gd4 Ho2 Er2 B24 Ru4'
_cell_volume   386.29345416
_cell_formula_units_Z   2
loop_
 _symmetry_equiv_pos_site_id
 _symmetry_equiv_pos_as_xyz
  1  'x, y, z'
loop_
 _atom_site_type_symbol
 _atom_site_label
 _atom_site_symmetry_multiplicity
 _atom_site_fract_x
 _atom_site_fract_y
 _atom_site_fract_z
 _atom_site_occupancy
  Gd  Gd0  1  0.000000  0.322896  0.414057  1
  Gd  Gd1  1  0.000000  0.677104  0.585943  1
  Gd  Gd2  1  0.000000  0.822622  0.085854  1
  Gd  Gd3  1  0.000000  0.177378  0.914146  1
  Ho  Ho4  1  0.000000  0.944043  0.372211  1
  Ho  Ho5  1  0.000000  0.055957  0.627789  1
  Er  Er6  1  0.000000  0.444123  0.127636  1
  Er  Er7  1  0.000000  0.555877  0.872364  1
  B  B8  1  0.500000  0.554789  0.432288  1
  B  B9  1  0.500000  0.445211  0.567712  1
  B  B10  1  0.500000  0.054856  0.067667  1
  B  B11  1  0.500000  0.945144  0.932333  1
  B  B12  1  0.500000  0.748645  0.419194  1
  B  B13  1  0.500000  0.251355  0.580806  1
  B  B14  1  0.500000  0.249037  0.080788  1
  B  B15  1  0.500000  0.750963  0.919212  1
  B  B16  1  0.500000  0.791187  0.266250  1
  B  B17  1  0.500000  0.208813  0.733750  1
  B  B18  1  0.500000  0.291587  0.233647  1
  B  B19  1  0.500000  0.708413  0.766353  1
  B  B20  1  0.500000  0.631565  0.184824  1
  B  B21  1  0.500000  0.368435  0.815176  1
  B  B22  1  0.500000  0.131896  0.314997  1
  B  B23  1  0.500000  0.868104  0.685003  1
  B  B24  1  0.500000  0.984437  0.213070  1
  B  B25  1  0.500000  0.015563  0.786930  1
  B  B26  1  0.500000  0.484214  0.286710  1
  B  B27  1  0.500000  0.515786  0.713290  1
  B  B28  1  0.500000  0.606118  0.029134  1
  B  B29  1  0.500000  0.393882  0.970866  1
  B  B30  1  0.500000  0.106661  0.470724  1
  B  B31  1  0.500000  0.893339  0.529276  1
  Ru  Ru32  1  0.000000  0.638525  0.320289  1
  Ru  Ru33  1  0.000000  0.361475  0.679711  1
  Ru  Ru34  1  0.000000  0.139071  0.179458  1
  Ru  Ru35  1  0.000000  0.860929  0.820542  1
