# generated using pymatgen
data_Y12Co2Ni2AgSn
_symmetry_space_group_name_H-M   'P 1'
_cell_length_a   8.39682393
_cell_length_b   8.39682405
_cell_length_c   8.39682513
_cell_angle_alpha   111.53828297
_cell_angle_beta   109.22993235
_cell_angle_gamma   107.66898098
_symmetry_Int_Tables_number   1
_chemical_formula_structural   Y12Co2Ni2AgSn
_chemical_formula_sum   'Y12 Co2 Ni2 Ag1 Sn1'
_cell_volume   455.21843697
_cell_formula_units_Z   1
loop_
 _symmetry_equiv_pos_site_id
 _symmetry_equiv_pos_as_xyz
  1  'x, y, z'
loop_
 _atom_site_type_symbol
 _atom_site_label
 _atom_site_symmetry_multiplicity
 _atom_site_fract_x
 _atom_site_fract_y
 _atom_site_fract_z
 _atom_site_occupancy
  Y  Y0  1  0.425859  0.223883  0.201976  1
  Y  Y1  1  0.574141  0.776117  0.798024  1
  Y  Y2  1  0.021907  0.223883  0.798024  1
  Y  Y3  1  0.978093  0.776117  0.201976  1
  Y  Y4  1  0.183391  0.290221  0.473612  1
  Y  Y5  1  0.816609  0.709779  0.526388  1
  Y  Y6  1  0.183391  0.709779  0.893169  1
  Y  Y7  1  0.816609  0.290221  0.106831  1
  Y  Y8  1  0.317403  0.623095  0.305692  1
  Y  Y9  1  0.682597  0.376905  0.694308  1
  Y  Y10  1  0.317403  0.011711  0.694308  1
  Y  Y11  1  0.682597  0.988289  0.305692  1
  Co  Co12  1  0.113334  0.613334  0.500000  1
  Co  Co13  1  0.886666  0.386666  0.500000  1
  Ni  Ni14  1  0.365612  0.000000  0.365612  1
  Ni  Ni15  1  0.634388  0.000000  0.634388  1
  Ag  Ag16  1  0.000000  0.000000  0.000000  1
  Sn  Sn17  1  0.500000  0.500000  0.000000  1
