# generated using pymatgen
data_Dy7Ho2Tm2Th5(MgRu)4
_symmetry_space_group_name_H-M   'P 1'
_cell_length_a   9.69975094
_cell_length_b   9.76980829
_cell_length_c   9.76317948
_cell_angle_alpha   59.84712676
_cell_angle_beta   60.10787148
_cell_angle_gamma   60.14249553
_symmetry_Int_Tables_number   1
_chemical_formula_structural   Dy7Ho2Tm2Th5(MgRu)4
_chemical_formula_sum   'Dy7 Ho2 Tm2 Th5 Mg4 Ru4'
_cell_volume   654.69018441
_cell_formula_units_Z   1
loop_
 _symmetry_equiv_pos_site_id
 _symmetry_equiv_pos_as_xyz
  1  'x, y, z'
loop_
 _atom_site_type_symbol
 _atom_site_label
 _atom_site_symmetry_multiplicity
 _atom_site_fract_x
 _atom_site_fract_y
 _atom_site_fract_z
 _atom_site_occupancy
  Dy  Dy0  1  0.814365  0.811067  0.183572  1
  Dy  Dy1  1  0.933253  0.566958  0.568226  1
  Dy  Dy2  1  0.564142  0.935898  0.934930  1
  Dy  Dy3  1  0.562011  0.936520  0.564975  1
  Dy  Dy4  1  0.937529  0.563596  0.935810  1
  Dy  Dy5  1  0.562610  0.564436  0.936026  1
  Dy  Dy6  1  0.936958  0.936065  0.564318  1
  Ho  Ho7  1  0.185249  0.814729  0.814042  1
  Ho  Ho8  1  0.191070  0.810033  0.184671  1
  Tm  Tm9  1  0.814400  0.184399  0.810442  1
  Tm  Tm10  1  0.190504  0.184947  0.809965  1
  Th  Th11  1  0.341790  0.348540  0.348935  1
  Th  Th12  1  0.347333  0.346697  0.959702  1
  Th  Th13  1  0.346459  0.960082  0.347242  1
  Th  Th14  1  0.959907  0.348712  0.349803  1
  Th  Th15  1  0.816732  0.183759  0.182644  1
  Mg  Mg16  1  0.580280  0.579541  0.580146  1
  Mg  Mg17  1  0.578320  0.582100  0.258906  1
  Mg  Mg18  1  0.578321  0.258997  0.582273  1
  Mg  Mg19  1  0.260080  0.578654  0.578963  1
  Ru  Ru20  1  0.129898  0.146653  0.146668  1
  Ru  Ru21  1  0.144991  0.141617  0.569447  1
  Ru  Ru22  1  0.146418  0.567806  0.141358  1
  Ru  Ru23  1  0.577384  0.148195  0.146933  1
