# generated using pymatgen
data_Dy3YBS3
_symmetry_space_group_name_H-M   'P 1'
_cell_length_a   6.74329488
_cell_length_b   6.74329428
_cell_length_c   6.74329419
_cell_angle_alpha   131.93135819
_cell_angle_beta   131.96451882
_cell_angle_gamma   70.31126039
_symmetry_Int_Tables_number   1
_chemical_formula_structural   Dy3YBS3
_chemical_formula_sum   'Dy3 Y1 B1 S3'
_cell_volume   166.23590039
_cell_formula_units_Z   1
loop_
 _symmetry_equiv_pos_site_id
 _symmetry_equiv_pos_as_xyz
  1  'x, y, z'
loop_
 _atom_site_type_symbol
 _atom_site_label
 _atom_site_symmetry_multiplicity
 _atom_site_fract_x
 _atom_site_fract_y
 _atom_site_fract_z
 _atom_site_occupancy
  Dy  Dy0  1  0.234509  0.234509  0.000000  1
  Dy  Dy1  1  0.765491  0.765491  0.000000  1
  Dy  Dy2  1  0.000000  0.500000  0.500000  1
  Y  Y3  1  0.500000  0.000000  0.500000  1
  B  B4  1  0.000000  0.000000  0.000000  1
  S  S5  1  0.750092  0.250092  0.500000  1
  S  S6  1  0.249908  0.749908  0.500000  1
  S  S7  1  0.500000  0.500000  0.000000  1
