# generated using pymatgen
data_YbCe2HfBi5
_symmetry_space_group_name_H-M   'P 1'
_cell_length_a   9.56127100
_cell_length_b   9.59412383
_cell_length_c   6.46486200
_cell_angle_alpha   90.00000000
_cell_angle_beta   90.00000000
_cell_angle_gamma   119.88678035
_symmetry_Int_Tables_number   1
_chemical_formula_structural   YbCe2HfBi5
_chemical_formula_sum   'Yb2 Ce4 Hf2 Bi10'
_cell_volume   514.16816618
_cell_formula_units_Z   2
loop_
 _symmetry_equiv_pos_site_id
 _symmetry_equiv_pos_as_xyz
  1  'x, y, z'
loop_
 _atom_site_type_symbol
 _atom_site_label
 _atom_site_symmetry_multiplicity
 _atom_site_fract_x
 _atom_site_fract_y
 _atom_site_fract_z
 _atom_site_occupancy
  Yb  Yb0  1  0.614363  0.000000  0.250000  1
  Yb  Yb1  1  0.385637  0.000000  0.750000  1
  Ce  Ce2  1  0.002769  0.619686  0.250000  1
  Ce  Ce3  1  0.997231  0.380314  0.750000  1
  Ce  Ce4  1  0.383084  0.380314  0.250000  1
  Ce  Ce5  1  0.616916  0.619686  0.750000  1
  Hf  Hf6  1  0.000000  0.000000  0.000000  1
  Hf  Hf7  1  0.000000  0.000000  0.500000  1
  Bi  Bi8  1  0.264637  0.000000  0.250000  1
  Bi  Bi9  1  0.735363  0.000000  0.750000  1
  Bi  Bi10  1  0.997872  0.264566  0.250000  1
  Bi  Bi11  1  0.002128  0.735434  0.750000  1
  Bi  Bi12  1  0.733306  0.735434  0.250000  1
  Bi  Bi13  1  0.266694  0.264566  0.750000  1
  Bi  Bi14  1  0.331732  0.663464  0.000000  1
  Bi  Bi15  1  0.668268  0.336536  0.000000  1
  Bi  Bi16  1  0.668268  0.336536  0.500000  1
  Bi  Bi17  1  0.331732  0.663464  0.500000  1
