# generated using pymatgen
data_Y4Cr3PtF28
_symmetry_space_group_name_H-M   'P 1'
_cell_length_a   5.53024889
_cell_length_b   8.83483789
_cell_length_c   11.79866164
_cell_angle_alpha   62.81406219
_cell_angle_beta   90.23204248
_cell_angle_gamma   90.17100502
_symmetry_Int_Tables_number   1
_chemical_formula_structural   Y4Cr3PtF28
_chemical_formula_sum   'Y4 Cr3 Pt1 F28'
_cell_volume   512.78106225
_cell_formula_units_Z   1
loop_
 _symmetry_equiv_pos_site_id
 _symmetry_equiv_pos_as_xyz
  1  'x, y, z'
loop_
 _atom_site_type_symbol
 _atom_site_label
 _atom_site_symmetry_multiplicity
 _atom_site_fract_x
 _atom_site_fract_y
 _atom_site_fract_z
 _atom_site_occupancy
  Y  Y0  1  0.261348  0.811123  0.263471  1
  Y  Y1  1  0.739368  0.190265  0.732065  1
  Y  Y2  1  0.762282  0.190686  0.233759  1
  Y  Y3  1  0.235763  0.810675  0.769436  1
  Cr  Cr4  1  0.754449  0.725086  0.044188  1
  Cr  Cr5  1  0.245672  0.273268  0.956030  1
  Cr  Cr6  1  0.257596  0.275805  0.454097  1
  Pt  Pt7  1  0.742282  0.728583  0.543687  1
  F  F8  1  0.932779  0.698097  0.415333  1
  F  F9  1  0.058521  0.292846  0.572527  1
  F  F10  1  0.450982  0.291995  0.075657  1
  F  F11  1  0.552532  0.706823  0.926742  1
  F  F12  1  0.482473  0.731340  0.138577  1
  F  F13  1  0.513920  0.264534  0.864899  1
  F  F14  1  0.985432  0.274704  0.356492  1
  F  F15  1  0.041851  0.730174  0.633437  1
  F  F16  1  0.954849  0.744383  0.164231  1
  F  F17  1  0.043432  0.251451  0.834070  1
  F  F18  1  0.453761  0.258807  0.332109  1
  F  F19  1  0.555850  0.749159  0.678066  1
  F  F20  1  0.762882  0.492030  0.137683  1
  F  F21  1  0.235804  0.507066  0.861246  1
  F  F22  1  0.268689  0.510462  0.361654  1
  F  F23  1  0.734107  0.480159  0.645791  1
  F  F24  1  0.970815  0.284494  0.044381  1
  F  F25  1  0.033539  0.713024  0.954462  1
  F  F26  1  0.437968  0.716387  0.461015  1
  F  F27  1  0.538715  0.284132  0.544704  1
  F  F28  1  0.740754  0.977687  0.451091  1
  F  F29  1  0.255762  0.043901  0.544431  1
  F  F30  1  0.240342  0.040224  0.047470  1
  F  F31  1  0.756208  0.957089  0.953261  1
  F  F32  1  0.585650  0.968504  0.234097  1
  F  F33  1  0.415836  0.026985  0.771607  1
  F  F34  1  0.081858  0.024834  0.270645  1
  F  F35  1  0.915930  0.973221  0.727587  1
