# generated using pymatgen
data_Lu8Sc4TcRu3
_symmetry_space_group_name_H-M   'P 1'
_cell_length_a   6.06364805
_cell_length_b   7.09279042
_cell_length_c   8.80920000
_cell_angle_alpha   90.00000000
_cell_angle_beta   90.00000000
_cell_angle_gamma   90.01247927
_symmetry_Int_Tables_number   1
_chemical_formula_structural   Lu8Sc4TcRu3
_chemical_formula_sum   'Lu8 Sc4 Tc1 Ru3'
_cell_volume   378.86769230
_cell_formula_units_Z   1
loop_
 _symmetry_equiv_pos_site_id
 _symmetry_equiv_pos_as_xyz
  1  'x, y, z'
loop_
 _atom_site_type_symbol
 _atom_site_label
 _atom_site_symmetry_multiplicity
 _atom_site_fract_x
 _atom_site_fract_y
 _atom_site_fract_z
 _atom_site_occupancy
  Lu  Lu0  1  0.333598  0.677714  0.061966  1
  Lu  Lu1  1  0.167567  0.177151  0.438510  1
  Lu  Lu2  1  0.667449  0.322149  0.561395  1
  Lu  Lu3  1  0.834492  0.823292  0.939236  1
  Lu  Lu4  1  0.667449  0.322149  0.938605  1
  Lu  Lu5  1  0.834492  0.823292  0.560764  1
  Lu  Lu6  1  0.333598  0.677714  0.438034  1
  Lu  Lu7  1  0.167567  0.177151  0.061490  1
  Sc  Sc8  1  0.870744  0.541459  0.250000  1
  Sc  Sc9  1  0.626000  0.042043  0.250000  1
  Sc  Sc10  1  0.130264  0.457297  0.750000  1
  Sc  Sc11  1  0.369800  0.957605  0.750000  1
  Tc  Tc12  1  0.024901  0.880902  0.250000  1
  Ru  Ru13  1  0.473053  0.380758  0.250000  1
  Ru  Ru14  1  0.972881  0.120573  0.750000  1
  Ru  Ru15  1  0.526144  0.618753  0.750000  1
