# generated using pymatgen
data_Er5Si11PIr10Rh9
_symmetry_space_group_name_H-M   'P 1'
_cell_length_a   12.79523982
_cell_length_b   12.83519444
_cell_length_c   3.95372000
_cell_angle_alpha   90.00000000
_cell_angle_beta   90.00000000
_cell_angle_gamma   120.10335396
_symmetry_Int_Tables_number   1
_chemical_formula_structural   Er5Si11PIr10Rh9
_chemical_formula_sum   'Er5 Si11 P1 Ir10 Rh9'
_cell_volume   561.73848578
_cell_formula_units_Z   1
loop_
 _symmetry_equiv_pos_site_id
 _symmetry_equiv_pos_as_xyz
  1  'x, y, z'
loop_
 _atom_site_type_symbol
 _atom_site_label
 _atom_site_symmetry_multiplicity
 _atom_site_fract_x
 _atom_site_fract_y
 _atom_site_fract_z
 _atom_site_occupancy
  Er  Er0  1  0.666348  0.333009  0.000000  1
  Er  Er1  1  0.333652  0.666662  0.000000  1
  Er  Er2  1  0.813891  0.814576  0.500000  1
  Er  Er3  1  0.186109  0.000685  0.500000  1
  Er  Er4  1  0.000000  0.184587  0.500000  1
  Si  Si5  1  0.687464  0.167067  0.500000  1
  Si  Si6  1  0.833204  0.519639  0.500000  1
  Si  Si7  1  0.479911  0.312593  0.500000  1
  Si  Si8  1  0.166796  0.686435  0.500000  1
  Si  Si9  1  0.520089  0.832682  0.500000  1
  Si  Si10  1  0.312536  0.479603  0.500000  1
  Si  Si11  1  0.629135  0.629452  0.000000  1
  Si  Si12  1  0.370865  0.000317  0.000000  1
  Si  Si13  1  0.000000  0.371098  0.000000  1
  Si  Si14  1  0.179537  0.180764  0.000000  1
  Si  Si15  1  0.820463  0.001227  0.000000  1
  P  P16  1  0.000000  0.818223  0.000000  1
  Ir  Ir17  1  0.279388  0.279760  0.500000  1
  Ir  Ir18  1  0.720612  0.000372  0.500000  1
  Ir  Ir19  1  0.000000  0.722596  0.500000  1
  Ir  Ir20  1  0.873167  0.360365  0.500000  1
  Ir  Ir21  1  0.640855  0.513289  0.500000  1
  Ir  Ir22  1  0.486852  0.126648  0.500000  1
  Ir  Ir23  1  0.359145  0.872434  0.500000  1
  Ir  Ir24  1  0.513148  0.639795  0.500000  1
  Ir  Ir25  1  0.126833  0.487198  0.500000  1
  Ir  Ir26  1  0.000000  0.995540  0.000000  1
  Rh  Rh27  1  0.807660  0.183216  0.000000  1
  Rh  Rh28  1  0.819237  0.627373  0.000000  1
  Rh  Rh29  1  0.374550  0.192117  0.000000  1
  Rh  Rh30  1  0.180763  0.808135  0.000000  1
  Rh  Rh31  1  0.625450  0.817566  0.000000  1
  Rh  Rh32  1  0.192340  0.375555  0.000000  1
  Rh  Rh33  1  0.446017  0.445193  0.000000  1
  Rh  Rh34  1  0.553983  0.999176  0.000000  1
  Rh  Rh35  1  0.000000  0.555052  0.000000  1
