# generated using pymatgen
data_Pr2PPd14
_symmetry_space_group_name_H-M   'P 1'
_cell_length_a   8.99183200
_cell_length_b   8.99183200
_cell_length_c   7.18168300
_cell_angle_alpha   90.00000000
_cell_angle_beta   90.00000000
_cell_angle_gamma   90.00000000
_symmetry_Int_Tables_number   1
_chemical_formula_structural   Pr2PPd14
_chemical_formula_sum   'Pr4 P2 Pd28'
_cell_volume   580.66092237
_cell_formula_units_Z   2
loop_
 _symmetry_equiv_pos_site_id
 _symmetry_equiv_pos_as_xyz
  1  'x, y, z'
loop_
 _atom_site_type_symbol
 _atom_site_label
 _atom_site_symmetry_multiplicity
 _atom_site_fract_x
 _atom_site_fract_y
 _atom_site_fract_z
 _atom_site_occupancy
  Pr  Pr0  1  0.500000  0.000000  0.935050  1
  Pr  Pr1  1  0.000000  0.500000  0.064950  1
  Pr  Pr2  1  0.000000  0.000000  0.500000  1
  Pr  Pr3  1  0.500000  0.500000  0.500000  1
  P  P4  1  0.500000  0.000000  0.449863  1
  P  P5  1  0.000000  0.500000  0.550137  1
  Pd  Pd6  1  0.336556  0.836556  0.613485  1
  Pd  Pd7  1  0.336556  0.163444  0.613485  1
  Pd  Pd8  1  0.663444  0.836556  0.613485  1
  Pd  Pd9  1  0.663444  0.163444  0.613485  1
  Pd  Pd10  1  0.163444  0.663444  0.386515  1
  Pd  Pd11  1  0.163444  0.336556  0.386515  1
  Pd  Pd12  1  0.836556  0.663444  0.386515  1
  Pd  Pd13  1  0.836556  0.336556  0.386515  1
  Pd  Pd14  1  0.500000  0.772240  0.258824  1
  Pd  Pd15  1  0.500000  0.227760  0.258824  1
  Pd  Pd16  1  0.272240  0.000000  0.258824  1
  Pd  Pd17  1  0.727760  0.000000  0.258824  1
  Pd  Pd18  1  0.000000  0.727760  0.741176  1
  Pd  Pd19  1  0.000000  0.272240  0.741176  1
  Pd  Pd20  1  0.227760  0.500000  0.741176  1
  Pd  Pd21  1  0.772240  0.500000  0.741176  1
  Pd  Pd22  1  0.500000  0.348749  0.856185  1
  Pd  Pd23  1  0.500000  0.651251  0.856185  1
  Pd  Pd24  1  0.848749  0.000000  0.856185  1
  Pd  Pd25  1  0.151251  0.000000  0.856185  1
  Pd  Pd26  1  0.000000  0.151251  0.143815  1
  Pd  Pd27  1  0.000000  0.848749  0.143815  1
  Pd  Pd28  1  0.651251  0.500000  0.143815  1
  Pd  Pd29  1  0.348749  0.500000  0.143815  1
  Pd  Pd30  1  0.250000  0.750000  0.000000  1
  Pd  Pd31  1  0.250000  0.250000  0.000000  1
  Pd  Pd32  1  0.750000  0.750000  0.000000  1
  Pd  Pd33  1  0.750000  0.250000  0.000000  1
