# generated using pymatgen
data_Ho4P3Se
_symmetry_space_group_name_H-M   'P 1'
_cell_length_a   6.96462914
_cell_length_b   6.96462739
_cell_length_c   6.95981300
_cell_angle_alpha   80.27858138
_cell_angle_beta   80.27858383
_cell_angle_gamma   33.57795769
_symmetry_Int_Tables_number   1
_chemical_formula_structural   Ho4P3Se
_chemical_formula_sum   'Ho4 P3 Se1'
_cell_volume   183.78581398
_cell_formula_units_Z   1
loop_
 _symmetry_equiv_pos_site_id
 _symmetry_equiv_pos_as_xyz
  1  'x, y, z'
loop_
 _atom_site_type_symbol
 _atom_site_label
 _atom_site_symmetry_multiplicity
 _atom_site_fract_x
 _atom_site_fract_y
 _atom_site_fract_z
 _atom_site_occupancy
  Ho  Ho0  1  0.248218  0.248218  0.260669  1
  Ho  Ho1  1  0.501741  0.501741  0.489359  1
  Ho  Ho2  1  0.742867  0.742867  0.741040  1
  Ho  Ho3  1  0.007139  0.007139  0.008975  1
  P  P4  1  0.627443  0.627443  0.122821  1
  P  P5  1  0.874989  0.874989  0.375005  1
  P  P6  1  0.122546  0.122546  0.627216  1
  Se  Se7  1  0.375057  0.375057  0.874915  1
