# generated using pymatgen
data_Ca2Pr8AlSn5
_symmetry_space_group_name_H-M   'P 1'
_cell_length_a   9.46353181
_cell_length_b   9.46353186
_cell_length_c   9.41664100
_cell_angle_alpha   128.60998305
_cell_angle_beta   128.60998330
_cell_angle_gamma   76.00438665
_symmetry_Int_Tables_number   1
_chemical_formula_structural   Ca2Pr8AlSn5
_chemical_formula_sum   'Ca2 Pr8 Al1 Sn5'
_cell_volume   499.68653844
_cell_formula_units_Z   1
loop_
 _symmetry_equiv_pos_site_id
 _symmetry_equiv_pos_as_xyz
  1  'x, y, z'
loop_
 _atom_site_type_symbol
 _atom_site_label
 _atom_site_symmetry_multiplicity
 _atom_site_fract_x
 _atom_site_fract_y
 _atom_site_fract_z
 _atom_site_occupancy
  Ca  Ca0  1  0.001001  0.998355  0.999357  1
  Ca  Ca1  1  0.498355  0.501001  0.999357  1
  Pr  Pr2  1  0.819564  0.319564  0.841096  1
  Pr  Pr3  1  0.179752  0.679752  0.150901  1
  Pr  Pr4  1  0.471150  0.971150  0.150901  1
  Pr  Pr5  1  0.317454  0.484041  0.503227  1
  Pr  Pr6  1  0.019186  0.185773  0.503227  1
  Pr  Pr7  1  0.521533  0.021533  0.841096  1
  Pr  Pr8  1  0.685773  0.519186  0.503227  1
  Pr  Pr9  1  0.984041  0.817454  0.503227  1
  Al  Al10  1  0.123361  0.623361  0.746722  1
  Sn  Sn11  1  0.876023  0.376023  0.252045  1
  Sn  Sn12  1  0.630494  0.870596  0.501090  1
  Sn  Sn13  1  0.370596  0.130494  0.501090  1
  Sn  Sn14  1  0.250858  0.250858  0.001718  1
  Sn  Sn15  1  0.750858  0.750858  0.001718  1
