# generated using pymatgen
data_Ca20Ir3Pd
_symmetry_space_group_name_H-M   'P 1'
_cell_length_a   6.84062736
_cell_length_b   7.56675574
_cell_length_c   16.04994000
_cell_angle_alpha   90.00000000
_cell_angle_beta   90.00000000
_cell_angle_gamma   90.11372974
_symmetry_Int_Tables_number   1
_chemical_formula_structural   Ca20Ir3Pd
_chemical_formula_sum   'Ca20 Ir3 Pd1'
_cell_volume   830.76502660
_cell_formula_units_Z   1
loop_
 _symmetry_equiv_pos_site_id
 _symmetry_equiv_pos_as_xyz
  1  'x, y, z'
loop_
 _atom_site_type_symbol
 _atom_site_label
 _atom_site_symmetry_multiplicity
 _atom_site_fract_x
 _atom_site_fract_y
 _atom_site_fract_z
 _atom_site_occupancy
  Ca  Ca0  1  0.155357  0.094566  0.250000  1
  Ca  Ca1  1  0.853706  0.191116  0.560899  1
  Ca  Ca2  1  0.840608  0.899837  0.750000  1
  Ca  Ca3  1  0.822779  0.464860  0.146464  1
  Ca  Ca4  1  0.178916  0.542864  0.643005  1
  Ca  Ca5  1  0.357418  0.307856  0.067008  1
  Ca  Ca6  1  0.344543  0.594189  0.250000  1
  Ca  Ca7  1  0.822779  0.464860  0.353536  1
  Ca  Ca8  1  0.329393  0.031553  0.857049  1
  Ca  Ca9  1  0.141770  0.808206  0.067346  1
  Ca  Ca10  1  0.645432  0.690496  0.565623  1
  Ca  Ca11  1  0.677061  0.964654  0.353545  1
  Ca  Ca12  1  0.645432  0.690496  0.934377  1
  Ca  Ca13  1  0.329393  0.031553  0.642951  1
  Ca  Ca14  1  0.141770  0.808206  0.432654  1
  Ca  Ca15  1  0.646930  0.407202  0.750000  1
  Ca  Ca16  1  0.178916  0.542864  0.856995  1
  Ca  Ca17  1  0.357418  0.307856  0.432992  1
  Ca  Ca18  1  0.677061  0.964654  0.146455  1
  Ca  Ca19  1  0.853706  0.191116  0.939101  1
  Ir  Ir20  1  0.459879  0.739566  0.750000  1
  Ir  Ir21  1  0.536246  0.260274  0.250000  1
  Ir  Ir22  1  0.963907  0.760170  0.250000  1
  Pd  Pd23  1  0.039579  0.240984  0.750000  1
