# generated using pymatgen
data_PrZn3Ga
_symmetry_space_group_name_H-M   'P 1'
_cell_length_a   6.06752874
_cell_length_b   6.06752889
_cell_length_c   5.98742200
_cell_angle_alpha   90.00000000
_cell_angle_beta   90.00000000
_cell_angle_gamma   118.57007254
_symmetry_Int_Tables_number   1
_chemical_formula_structural   PrZn3Ga
_chemical_formula_sum   'Pr2 Zn6 Ga2'
_cell_volume   193.58569525
_cell_formula_units_Z   2
loop_
 _symmetry_equiv_pos_site_id
 _symmetry_equiv_pos_as_xyz
  1  'x, y, z'
loop_
 _atom_site_type_symbol
 _atom_site_label
 _atom_site_symmetry_multiplicity
 _atom_site_fract_x
 _atom_site_fract_y
 _atom_site_fract_z
 _atom_site_occupancy
  Pr  Pr0  1  0.262848  0.737152  0.750000  1
  Pr  Pr1  1  0.737152  0.262848  0.250000  1
  Zn  Zn2  1  0.609664  0.390336  0.750000  1
  Zn  Zn3  1  0.390336  0.609664  0.250000  1
  Zn  Zn4  1  0.777597  0.777597  0.000000  1
  Zn  Zn5  1  0.777597  0.777597  0.500000  1
  Zn  Zn6  1  0.222403  0.222403  0.000000  1
  Zn  Zn7  1  0.222403  0.222403  0.500000  1
  Ga  Ga8  1  0.847029  0.152971  0.750000  1
  Ga  Ga9  1  0.152971  0.847029  0.250000  1
