# generated using pymatgen
data_Ba7Na2V6F34
_symmetry_space_group_name_H-M   'P 1'
_cell_length_a   7.84554813
_cell_length_b   10.49366408
_cell_length_c   10.49366400
_cell_angle_alpha   67.93342727
_cell_angle_beta   99.45690150
_cell_angle_gamma   99.45689975
_symmetry_Int_Tables_number   1
_chemical_formula_structural   Ba7Na2V6F34
_chemical_formula_sum   'Ba7 Na2 V6 F34'
_cell_volume   784.77456203
_cell_formula_units_Z   1
loop_
 _symmetry_equiv_pos_site_id
 _symmetry_equiv_pos_as_xyz
  1  'x, y, z'
loop_
 _atom_site_type_symbol
 _atom_site_label
 _atom_site_symmetry_multiplicity
 _atom_site_fract_x
 _atom_site_fract_y
 _atom_site_fract_z
 _atom_site_occupancy
  Ba  Ba0  1  0.000000  0.000000  0.000000  1
  Ba  Ba1  1  0.697183  0.551183  0.159753  1
  Ba  Ba2  1  0.125327  0.262217  0.262217  1
  Ba  Ba3  1  0.302817  0.840247  0.448817  1
  Ba  Ba4  1  0.697183  0.159753  0.551183  1
  Ba  Ba5  1  0.874672  0.737784  0.737784  1
  Ba  Ba6  1  0.302817  0.448817  0.840247  1
  Na  Na7  1  0.000000  0.500000  0.500000  1
  Na  Na8  1  0.500000  0.500000  0.500000  1
  V  V9  1  0.200775  0.645963  0.136293  1
  V  V10  1  0.540412  0.168320  0.168320  1
  V  V11  1  0.799225  0.863707  0.354037  1
  V  V12  1  0.200775  0.136293  0.645963  1
  V  V13  1  0.459589  0.831681  0.831681  1
  V  V14  1  0.799225  0.354037  0.863707  1
  F  F15  1  0.996504  0.265326  0.998326  1
  F  F16  1  0.378418  0.777127  0.015835  1
  F  F17  1  0.187318  0.514543  0.042992  1
  F  F18  1  0.305222  0.106238  0.106238  1
  F  F19  1  0.454047  0.351005  0.114264  1
  F  F20  1  0.802159  0.779345  0.217922  1
  F  F21  1  0.621583  0.984165  0.222873  1
  F  F22  1  0.197841  0.782078  0.220655  1
  F  F23  1  0.759764  0.248100  0.248100  1
  F  F24  1  0.031201  0.510555  0.260043  1
  F  F25  1  0.389967  0.550265  0.264299  1
  F  F26  1  0.996504  0.998326  0.265326  1
  F  F27  1  0.454047  0.114264  0.351005  1
  F  F28  1  0.723120  0.431590  0.431590  1
  F  F29  1  0.610034  0.735701  0.449735  1
  F  F30  1  0.812683  0.957008  0.485457  1
  F  F31  1  0.968800  0.739957  0.489445  1
  F  F32  1  0.031201  0.260043  0.510555  1
  F  F33  1  0.187318  0.042992  0.514543  1
  F  F34  1  0.389967  0.264299  0.550265  1
  F  F35  1  0.276879  0.568410  0.568410  1
  F  F36  1  0.545954  0.885736  0.648994  1
  F  F37  1  0.003496  0.001673  0.734675  1
  F  F38  1  0.610034  0.449735  0.735701  1
  F  F39  1  0.968800  0.489445  0.739957  1
  F  F40  1  0.240236  0.751900  0.751900  1
  F  F41  1  0.802159  0.217922  0.779345  1
  F  F42  1  0.378418  0.015835  0.777127  1
  F  F43  1  0.197841  0.220655  0.782078  1
  F  F44  1  0.545954  0.648994  0.885736  1
  F  F45  1  0.694778  0.893762  0.893762  1
  F  F46  1  0.812683  0.485457  0.957008  1
  F  F47  1  0.621583  0.222873  0.984165  1
  F  F48  1  0.003496  0.734675  0.001673  1
