# generated using pymatgen
data_Zr3AlP2Ir2Ru
_symmetry_space_group_name_H-M   'P 1'
_cell_length_a   6.43107486
_cell_length_b   6.42055734
_cell_length_c   4.03494500
_cell_angle_alpha   90.00000000
_cell_angle_beta   90.00000000
_cell_angle_gamma   119.94593479
_symmetry_Int_Tables_number   1
_chemical_formula_structural   Zr3AlP2Ir2Ru
_chemical_formula_sum   'Zr3 Al1 P2 Ir2 Ru1'
_cell_volume   144.36465921
_cell_formula_units_Z   1
loop_
 _symmetry_equiv_pos_site_id
 _symmetry_equiv_pos_as_xyz
  1  'x, y, z'
loop_
 _atom_site_type_symbol
 _atom_site_label
 _atom_site_symmetry_multiplicity
 _atom_site_fract_x
 _atom_site_fract_y
 _atom_site_fract_z
 _atom_site_occupancy
  Zr  Zr0  1  0.431134  0.432289  0.500000  1
  Zr  Zr1  1  0.568866  0.001155  0.500000  1
  Zr  Zr2  1  0.000000  0.563641  0.500000  1
  Al  Al3  1  0.000000  0.000920  0.500000  1
  P  P4  1  0.668070  0.332905  0.000000  1
  P  P5  1  0.331930  0.664836  0.000000  1
  Ir  Ir6  1  0.749737  0.750944  0.000000  1
  Ir  Ir7  1  0.250263  0.001207  0.000000  1
  Ru  Ru8  1  0.000000  0.252102  0.000000  1
