# generated using pymatgen
data_La4Ga4Ir3Pt
_symmetry_space_group_name_H-M   'P 1'
_cell_length_a   4.44751800
_cell_length_b   7.13476314
_cell_length_c   8.05485376
_cell_angle_alpha   90.01425337
_cell_angle_beta   90.00000000
_cell_angle_gamma   90.00000000
_symmetry_Int_Tables_number   1
_chemical_formula_structural   La4Ga4Ir3Pt
_chemical_formula_sum   'La4 Ga4 Ir3 Pt1'
_cell_volume   255.59651078
_cell_formula_units_Z   1
loop_
 _symmetry_equiv_pos_site_id
 _symmetry_equiv_pos_as_xyz
  1  'x, y, z'
loop_
 _atom_site_type_symbol
 _atom_site_label
 _atom_site_symmetry_multiplicity
 _atom_site_fract_x
 _atom_site_fract_y
 _atom_site_fract_z
 _atom_site_occupancy
  La  La0  1  0.250000  0.535863  0.813929  1
  La  La1  1  0.250000  0.029760  0.682353  1
  La  La2  1  0.750000  0.967973  0.313729  1
  La  La3  1  0.750000  0.472165  0.189673  1
  Ga  Ga4  1  0.250000  0.143598  0.069958  1
  Ga  Ga5  1  0.750000  0.356415  0.564654  1
  Ga  Ga6  1  0.250000  0.645963  0.432523  1
  Ga  Ga7  1  0.750000  0.849412  0.932522  1
  Ir  Ir8  1  0.250000  0.773511  0.114510  1
  Ir  Ir9  1  0.250000  0.273607  0.384238  1
  Ir  Ir10  1  0.750000  0.727122  0.616206  1
  Pt  Pt11  1  0.750000  0.224612  0.885704  1
