# generated using pymatgen
data_SmYV2(WO6)2
_symmetry_space_group_name_H-M   'P 1'
_cell_length_a   5.28795399
_cell_length_b   7.48308740
_cell_length_c   11.19516700
_cell_angle_alpha   90.00000000
_cell_angle_beta   90.00000000
_cell_angle_gamma   89.92985833
_symmetry_Int_Tables_number   1
_chemical_formula_structural   SmYV2(WO6)2
_chemical_formula_sum   'Sm2 Y2 V4 W4 O24'
_cell_volume   442.99491032
_cell_formula_units_Z   2
loop_
 _symmetry_equiv_pos_site_id
 _symmetry_equiv_pos_as_xyz
  1  'x, y, z'
loop_
 _atom_site_type_symbol
 _atom_site_label
 _atom_site_symmetry_multiplicity
 _atom_site_fract_x
 _atom_site_fract_y
 _atom_site_fract_z
 _atom_site_occupancy
  Sm  Sm0  1  0.957205  0.251062  0.544787  1
  Sm  Sm1  1  0.457205  0.751061  0.955213  1
  Y  Y2  1  0.546749  0.251168  0.045743  1
  Y  Y3  1  0.046749  0.751167  0.454258  1
  V  V4  1  0.050526  0.998723  0.134544  1
  V  V5  1  0.550526  0.498723  0.365457  1
  V  V6  1  0.450394  0.997707  0.633637  1
  V  V7  1  0.950394  0.497707  0.866363  1
  W  W8  1  0.056082  0.504313  0.144508  1
  W  W9  1  0.556083  0.004313  0.355493  1
  W  W10  1  0.445036  0.507324  0.643191  1
  W  W11  1  0.945036  0.007324  0.856809  1
  O  O12  1  0.759661  0.965077  0.020482  1
  O  O13  1  0.766884  0.541566  0.030284  1
  O  O14  1  0.168713  0.748407  0.117799  1
  O  O15  1  0.935142  0.257827  0.144582  1
  O  O16  1  0.372731  0.433770  0.206424  1
  O  O17  1  0.390704  0.065594  0.212930  1
  O  O18  1  0.890704  0.565594  0.287069  1
  O  O19  1  0.872731  0.933770  0.293576  1
  O  O20  1  0.435142  0.757827  0.355419  1
  O  O21  1  0.668713  0.248407  0.382201  1
  O  O22  1  0.266884  0.041565  0.469717  1
  O  O23  1  0.259661  0.465078  0.479518  1
  O  O24  1  0.741146  0.958189  0.518847  1
  O  O25  1  0.734559  0.547291  0.529307  1
  O  O26  1  0.323480  0.749962  0.616950  1
  O  O27  1  0.557242  0.258565  0.641452  1
  O  O28  1  0.130517  0.437505  0.708131  1
  O  O29  1  0.113230  0.066149  0.715383  1
  O  O30  1  0.613230  0.566149  0.784617  1
  O  O31  1  0.630517  0.937505  0.791868  1
  O  O32  1  0.057242  0.758565  0.858547  1
  O  O33  1  0.823481  0.249962  0.883050  1
  O  O34  1  0.234558  0.047290  0.970693  1
  O  O35  1  0.241146  0.458190  0.981153  1
