# generated using pymatgen
data_La16Pr3NdIr12
_symmetry_space_group_name_H-M   'P 1'
_cell_length_a   11.41728700
_cell_length_b   11.41728700
_cell_length_c   6.69242400
_cell_angle_alpha   90.00000000
_cell_angle_beta   90.00000000
_cell_angle_gamma   90.00000000
_symmetry_Int_Tables_number   1
_chemical_formula_structural   La16Pr3NdIr12
_chemical_formula_sum   'La16 Pr3 Nd1 Ir12'
_cell_volume   872.38719909
_cell_formula_units_Z   1
loop_
 _symmetry_equiv_pos_site_id
 _symmetry_equiv_pos_as_xyz
  1  'x, y, z'
loop_
 _atom_site_type_symbol
 _atom_site_label
 _atom_site_symmetry_multiplicity
 _atom_site_fract_x
 _atom_site_fract_y
 _atom_site_fract_z
 _atom_site_occupancy
  La  La0  1  0.090489  0.291661  0.116182  1
  La  La1  1  0.791742  0.409470  0.116114  1
  La  La2  1  0.208258  0.590530  0.116114  1
  La  La3  1  0.909511  0.708339  0.116182  1
  La  La4  1  0.409435  0.791744  0.383874  1
  La  La5  1  0.590565  0.208256  0.383874  1
  La  La6  1  0.291541  0.090502  0.383991  1
  La  La7  1  0.708459  0.909498  0.383991  1
  La  La8  1  0.409470  0.208258  0.883886  1
  La  La9  1  0.708339  0.090489  0.883818  1
  La  La10  1  0.291661  0.909511  0.883818  1
  La  La11  1  0.590530  0.791742  0.883886  1
  La  La12  1  0.090502  0.708459  0.616009  1
  La  La13  1  0.909498  0.291541  0.616009  1
  La  La14  1  0.208256  0.409435  0.616126  1
  La  La15  1  0.791744  0.590565  0.616126  1
  Pr  Pr16  1  0.000000  0.000000  0.000000  1
  Pr  Pr17  1  0.500000  0.500000  0.000000  1
  Pr  Pr18  1  0.500000  0.500000  0.500000  1
  Nd  Nd19  1  0.000000  0.000000  0.500000  1
  Ir  Ir20  1  0.153607  0.846403  0.250597  1
  Ir  Ir21  1  0.346005  0.346038  0.249968  1
  Ir  Ir22  1  0.653995  0.653962  0.249968  1
  Ir  Ir23  1  0.846393  0.153597  0.250597  1
  Ir  Ir24  1  0.346038  0.653995  0.750032  1
  Ir  Ir25  1  0.153597  0.153607  0.749403  1
  Ir  Ir26  1  0.846403  0.846393  0.749403  1
  Ir  Ir27  1  0.653962  0.346005  0.750032  1
  Ir  Ir28  1  0.000000  0.500000  0.380215  1
  Ir  Ir29  1  0.500000  0.000000  0.119722  1
  Ir  Ir30  1  0.500000  0.000000  0.619785  1
  Ir  Ir31  1  0.000000  0.500000  0.880278  1
