# generated using pymatgen
data_Er6Al24Pd3Ru5
_symmetry_space_group_name_H-M   'P 1'
_cell_length_a   8.82206158
_cell_length_b   8.80407161
_cell_length_c   9.53236742
_cell_angle_alpha   90.18656951
_cell_angle_beta   89.90422764
_cell_angle_gamma   119.50766184
_symmetry_Int_Tables_number   1
_chemical_formula_structural   Er6Al24Pd3Ru5
_chemical_formula_sum   'Er6 Al24 Pd3 Ru5'
_cell_volume   644.34139592
_cell_formula_units_Z   1
loop_
 _symmetry_equiv_pos_site_id
 _symmetry_equiv_pos_as_xyz
  1  'x, y, z'
loop_
 _atom_site_type_symbol
 _atom_site_label
 _atom_site_symmetry_multiplicity
 _atom_site_fract_x
 _atom_site_fract_y
 _atom_site_fract_z
 _atom_site_occupancy
  Er  Er0  1  0.188917  0.388105  0.252259  1
  Er  Er1  1  0.811083  0.611895  0.747741  1
  Er  Er2  1  0.614225  0.809822  0.250603  1
  Er  Er3  1  0.385775  0.190178  0.749397  1
  Er  Er4  1  0.193138  0.804473  0.250960  1
  Er  Er5  1  0.806862  0.195527  0.749040  1
  Al  Al6  1  0.328020  0.664495  0.026417  1
  Al  Al7  1  0.671980  0.335505  0.973583  1
  Al  Al8  1  0.669107  0.330422  0.525524  1
  Al  Al9  1  0.330893  0.669578  0.474476  1
  Al  Al10  1  0.158065  0.325270  0.577387  1
  Al  Al11  1  0.841935  0.674730  0.422613  1
  Al  Al12  1  0.675803  0.842945  0.576730  1
  Al  Al13  1  0.842412  0.675880  0.078448  1
  Al  Al14  1  0.324197  0.157055  0.423270  1
  Al  Al15  1  0.157588  0.324120  0.921552  1
  Al  Al16  1  0.163935  0.837052  0.578142  1
  Al  Al17  1  0.322448  0.162281  0.079711  1
  Al  Al18  1  0.836065  0.162948  0.421858  1
  Al  Al19  1  0.677552  0.837719  0.920289  1
  Al  Al20  1  0.842355  0.168065  0.080175  1
  Al  Al21  1  0.157645  0.831935  0.919825  1
  Al  Al22  1  0.562020  0.124497  0.252967  1
  Al  Al23  1  0.437980  0.875503  0.747033  1
  Al  Al24  1  0.877123  0.439426  0.249973  1
  Al  Al25  1  0.122877  0.560574  0.750027  1
  Al  Al26  1  0.563470  0.437414  0.249976  1
  Al  Al27  1  0.436530  0.562586  0.750024  1
  Al  Al28  1  0.997239  0.000891  0.250264  1
  Al  Al29  1  0.002761  0.999109  0.749736  1
  Pd  Pd30  1  0.500000  0.000000  0.000000  1
  Pd  Pd31  1  0.500000  0.500000  0.000000  1
  Pd  Pd32  1  0.500000  0.500000  0.500000  1
  Ru  Ru33  1  0.000000  0.500000  0.000000  1
  Ru  Ru34  1  0.500000  0.000000  0.500000  1
  Ru  Ru35  1  0.000000  0.500000  0.500000  1
  Ru  Ru36  1  0.000000  0.000000  0.000000  1
  Ru  Ru37  1  0.000000  0.000000  0.500000  1
