# generated using pymatgen
data_Sr4CuPt5
_symmetry_space_group_name_H-M   'P 1'
_cell_length_a   5.87315184
_cell_length_b   5.87315232
_cell_length_c   8.16440171
_cell_angle_alpha   90.90064327
_cell_angle_beta   89.09936051
_cell_angle_gamma   122.94050988
_symmetry_Int_Tables_number   1
_chemical_formula_structural   Sr4CuPt5
_chemical_formula_sum   'Sr4 Cu1 Pt5'
_cell_volume   236.30953502
_cell_formula_units_Z   1
loop_
 _symmetry_equiv_pos_site_id
 _symmetry_equiv_pos_as_xyz
  1  'x, y, z'
loop_
 _atom_site_type_symbol
 _atom_site_label
 _atom_site_symmetry_multiplicity
 _atom_site_fract_x
 _atom_site_fract_y
 _atom_site_fract_z
 _atom_site_occupancy
  Sr  Sr0  1  0.156287  0.843711  0.097420  1
  Sr  Sr1  1  0.658169  0.341829  0.408033  1
  Sr  Sr2  1  0.341829  0.658169  0.591967  1
  Sr  Sr3  1  0.843711  0.156287  0.902580  1
  Cu  Cu4  1  0.499999  0.499999  0.000000  1
  Pt  Pt5  1  0.162488  0.344173  0.243660  1
  Pt  Pt6  1  0.655827  0.837512  0.243660  1
  Pt  Pt7  1  0.000000  0.000000  0.500000  1
  Pt  Pt8  1  0.344173  0.162488  0.756340  1
  Pt  Pt9  1  0.837512  0.655827  0.756340  1
