# generated using pymatgen
data_HfMgNi12P7
_symmetry_space_group_name_H-M   'P 1'
_cell_length_a   9.00439400
_cell_length_b   9.00439404
_cell_length_c   3.57168100
_cell_angle_alpha   90.00000000
_cell_angle_beta   90.00000000
_cell_angle_gamma   119.99999984
_symmetry_Int_Tables_number   1
_chemical_formula_structural   HfMgNi12P7
_chemical_formula_sum   'Hf1 Mg1 Ni12 P7'
_cell_volume   250.79119096
_cell_formula_units_Z   1
loop_
 _symmetry_equiv_pos_site_id
 _symmetry_equiv_pos_as_xyz
  1  'x, y, z'
loop_
 _atom_site_type_symbol
 _atom_site_label
 _atom_site_symmetry_multiplicity
 _atom_site_fract_x
 _atom_site_fract_y
 _atom_site_fract_z
 _atom_site_occupancy
  Hf  Hf0  1  0.333333  0.666667  0.000000  1
  Mg  Mg1  1  0.666667  0.333333  0.500000  1
  Ni  Ni2  1  0.383283  0.434229  0.500000  1
  Ni  Ni3  1  0.050946  0.616717  0.500000  1
  Ni  Ni4  1  0.218120  0.092188  0.500000  1
  Ni  Ni5  1  0.874069  0.781880  0.500000  1
  Ni  Ni6  1  0.907812  0.125931  0.500000  1
  Ni  Ni7  1  0.722321  0.877828  0.000000  1
  Ni  Ni8  1  0.122172  0.844491  0.000000  1
  Ni  Ni9  1  0.155509  0.277679  0.000000  1
  Ni  Ni10  1  0.937040  0.374945  0.000000  1
  Ni  Ni11  1  0.625055  0.562096  0.000000  1
  Ni  Ni12  1  0.437904  0.062960  0.000000  1
  Ni  Ni13  1  0.565771  0.949054  0.500000  1
  P  P14  1  0.000000  0.000000  0.000000  1
  P  P15  1  0.411659  0.291660  0.000000  1
  P  P16  1  0.585881  0.706521  0.500000  1
  P  P17  1  0.293479  0.879359  0.500000  1
  P  P18  1  0.120641  0.414119  0.500000  1
  P  P19  1  0.708340  0.119999  0.000000  1
  P  P20  1  0.880001  0.588341  0.000000  1
