# generated using pymatgen
data_Hf3Nb2Ge3B
_symmetry_space_group_name_H-M   'P 1'
_cell_length_a   7.95878500
_cell_length_b   7.95878562
_cell_length_c   5.46848300
_cell_angle_alpha   90.00000000
_cell_angle_beta   90.00000000
_cell_angle_gamma   119.99999326
_symmetry_Int_Tables_number   1
_chemical_formula_structural   Hf3Nb2Ge3B
_chemical_formula_sum   'Hf6 Nb4 Ge6 B2'
_cell_volume   299.97917541
_cell_formula_units_Z   2
loop_
 _symmetry_equiv_pos_site_id
 _symmetry_equiv_pos_as_xyz
  1  'x, y, z'
loop_
 _atom_site_type_symbol
 _atom_site_label
 _atom_site_symmetry_multiplicity
 _atom_site_fract_x
 _atom_site_fract_y
 _atom_site_fract_z
 _atom_site_occupancy
  Hf  Hf0  1  0.754903  0.754903  0.250000  1
  Hf  Hf1  1  0.245097  0.000000  0.250000  1
  Hf  Hf2  1  0.000000  0.245097  0.250000  1
  Hf  Hf3  1  0.245097  0.245097  0.750000  1
  Hf  Hf4  1  0.754903  0.000000  0.750000  1
  Hf  Hf5  1  0.000000  0.754903  0.750000  1
  Nb  Nb6  1  0.666667  0.333333  0.500000  1
  Nb  Nb7  1  0.333333  0.666667  0.500000  1
  Nb  Nb8  1  0.333333  0.666667  0.000000  1
  Nb  Nb9  1  0.666667  0.333333  0.000000  1
  Ge  Ge10  1  0.400074  0.400074  0.250000  1
  Ge  Ge11  1  0.599926  0.000000  0.250000  1
  Ge  Ge12  1  0.000000  0.599926  0.250000  1
  Ge  Ge13  1  0.599926  0.599926  0.750000  1
  Ge  Ge14  1  0.400074  0.000000  0.750000  1
  Ge  Ge15  1  0.000000  0.400074  0.750000  1
  B  B16  1  0.000000  0.000000  0.500000  1
  B  B17  1  0.000000  0.000000  0.000000  1
