# generated using pymatgen
data_Li12Ge4Ir3Rh
_symmetry_space_group_name_H-M   'P 1'
_cell_length_a   6.67074896
_cell_length_b   6.67074896
_cell_length_c   6.67074896
_cell_angle_alpha   89.95654736
_cell_angle_beta   90.04345264
_cell_angle_gamma   89.95654736
_symmetry_Int_Tables_number   1
_chemical_formula_structural   Li12Ge4Ir3Rh
_chemical_formula_sum   'Li12 Ge4 Ir3 Rh1'
_cell_volume   296.84067916
_cell_formula_units_Z   1
loop_
 _symmetry_equiv_pos_site_id
 _symmetry_equiv_pos_as_xyz
  1  'x, y, z'
loop_
 _atom_site_type_symbol
 _atom_site_label
 _atom_site_symmetry_multiplicity
 _atom_site_fract_x
 _atom_site_fract_y
 _atom_site_fract_z
 _atom_site_occupancy
  Li  Li0  1  0.127302  0.197517  0.456793  1
  Li  Li1  1  0.458492  0.127905  0.198543  1
  Li  Li2  1  0.197820  0.458902  0.128615  1
  Li  Li3  1  0.302483  0.543207  0.627302  1
  Li  Li4  1  0.956793  0.372698  0.802483  1
  Li  Li5  1  0.802104  0.958187  0.372713  1
  Li  Li6  1  0.041098  0.871385  0.697820  1
  Li  Li7  1  0.541813  0.627287  0.302104  1
  Li  Li8  1  0.698543  0.041508  0.872095  1
  Li  Li9  1  0.628615  0.302180  0.541098  1
  Li  Li10  1  0.872713  0.697896  0.041813  1
  Li  Li11  1  0.372095  0.801457  0.958492  1
  Ge  Ge12  1  0.931222  0.568778  0.431222  1
  Ge  Ge13  1  0.568897  0.430742  0.930797  1
  Ge  Ge14  1  0.430797  0.931103  0.569258  1
  Ge  Ge15  1  0.069258  0.069203  0.068897  1
  Ir  Ir16  1  0.183548  0.816840  0.316660  1
  Ir  Ir17  1  0.816660  0.316452  0.183160  1
  Ir  Ir18  1  0.683160  0.683340  0.683548  1
  Rh  Rh19  1  0.316588  0.183412  0.816588  1
