# generated using pymatgen
data_TbDy11In2(CoTc)2
_symmetry_space_group_name_H-M   'P 1'
_cell_length_a   8.46168340
_cell_length_b   8.45950537
_cell_length_c   8.45950404
_cell_angle_alpha   112.88889041
_cell_angle_beta   111.00280836
_cell_angle_gamma   104.62452619
_symmetry_Int_Tables_number   1
_chemical_formula_structural   TbDy11In2(CoTc)2
_chemical_formula_sum   'Tb1 Dy11 In2 Co2 Tc2'
_cell_volume   463.59588854
_cell_formula_units_Z   1
loop_
 _symmetry_equiv_pos_site_id
 _symmetry_equiv_pos_as_xyz
  1  'x, y, z'
loop_
 _atom_site_type_symbol
 _atom_site_label
 _atom_site_symmetry_multiplicity
 _atom_site_fract_x
 _atom_site_fract_y
 _atom_site_fract_z
 _atom_site_occupancy
  Tb  Tb0  1  0.444018  0.243871  0.200149  1
  Dy  Dy1  1  0.555915  0.756278  0.799636  1
  Dy  Dy2  1  0.043151  0.243648  0.799502  1
  Dy  Dy3  1  0.956568  0.756208  0.200360  1
  Dy  Dy4  1  0.184788  0.287672  0.472584  1
  Dy  Dy5  1  0.815167  0.712614  0.527657  1
  Dy  Dy6  1  0.184788  0.712203  0.897116  1
  Dy  Dy7  1  0.815167  0.287509  0.102552  1
  Dy  Dy8  1  0.327350  0.647821  0.320260  1
  Dy  Dy9  1  0.672816  0.352395  0.680070  1
  Dy  Dy10  1  0.327350  0.007090  0.679530  1
  Dy  Dy11  1  0.672816  0.992747  0.320422  1
  In  In12  1  0.500172  0.500225  0.999947  1
  In  In13  1  0.999530  0.999728  0.999802  1
  Co  Co14  1  0.110145  0.610133  0.500013  1
  Co  Co15  1  0.890107  0.389881  0.500226  1
  Tc  Tc16  1  0.322538  0.999971  0.322567  1
  Tc  Tc17  1  0.677616  0.000008  0.677609  1
