# generated using pymatgen
data_TbPr2Th(Ga3Ir)6
_symmetry_space_group_name_H-M   'P 1'
_cell_length_a   7.66581231
_cell_length_b   7.67289673
_cell_length_c   9.57848100
_cell_angle_alpha   90.00000000
_cell_angle_beta   90.00000000
_cell_angle_gamma   119.69057424
_symmetry_Int_Tables_number   1
_chemical_formula_structural   TbPr2Th(Ga3Ir)6
_chemical_formula_sum   'Tb1 Pr2 Th1 Ga18 Ir6'
_cell_volume   489.42990580
_cell_formula_units_Z   1
loop_
 _symmetry_equiv_pos_site_id
 _symmetry_equiv_pos_as_xyz
  1  'x, y, z'
loop_
 _atom_site_type_symbol
 _atom_site_label
 _atom_site_symmetry_multiplicity
 _atom_site_fract_x
 _atom_site_fract_y
 _atom_site_fract_z
 _atom_site_occupancy
  Tb  Tb0  1  0.671197  0.997294  0.250000  1
  Pr  Pr1  1  0.003131  0.331515  0.750000  1
  Pr  Pr2  1  0.330743  0.002650  0.750000  1
  Th  Th3  1  0.997725  0.669520  0.250000  1
  Ga  Ga4  1  0.130949  0.131835  0.250000  1
  Ga  Ga5  1  0.869462  0.870993  0.750000  1
  Ga  Ga6  1  0.998756  0.329114  0.080662  1
  Ga  Ga7  1  0.997724  0.665423  0.920179  1
  Ga  Ga8  1  0.997724  0.665423  0.579821  1
  Ga  Ga9  1  0.340730  0.004242  0.419242  1
  Ga  Ga10  1  0.998756  0.329114  0.419338  1
  Ga  Ga11  1  0.665704  0.998800  0.574937  1
  Ga  Ga12  1  0.665704  0.998800  0.925063  1
  Ga  Ga13  1  0.340730  0.004242  0.080758  1
  Ga  Ga14  1  0.333552  0.333404  0.559337  1
  Ga  Ga15  1  0.662874  0.667742  0.436304  1
  Ga  Ga16  1  0.662874  0.667742  0.063696  1
  Ga  Ga17  1  0.333552  0.333404  0.940663  1
  Ga  Ga18  1  0.341652  0.546139  0.250000  1
  Ga  Ga19  1  0.660514  0.455546  0.750000  1
  Ga  Ga20  1  0.543434  0.338815  0.250000  1
  Ga  Ga21  1  0.455599  0.661994  0.750000  1
  Ir  Ir22  1  0.672850  0.331238  0.002690  1
  Ir  Ir23  1  0.326588  0.670356  0.002921  1
  Ir  Ir24  1  0.326588  0.670356  0.497079  1
  Ir  Ir25  1  0.672850  0.331238  0.497310  1
  Ir  Ir26  1  0.999019  0.996534  0.003710  1
  Ir  Ir27  1  0.999019  0.996534  0.496290  1
