# generated using pymatgen
data_Dy15HoCd4Ir3Os
_symmetry_space_group_name_H-M   'P 1'
_cell_length_a   9.67769275
_cell_length_b   9.67689789
_cell_length_c   9.67768032
_cell_angle_alpha   59.45355686
_cell_angle_beta   59.45935847
_cell_angle_gamma   59.45444731
_symmetry_Int_Tables_number   1
_chemical_formula_structural   Dy15HoCd4Ir3Os
_chemical_formula_sum   'Dy15 Ho1 Cd4 Ir3 Os1'
_cell_volume   632.92764207
_cell_formula_units_Z   1
loop_
 _symmetry_equiv_pos_site_id
 _symmetry_equiv_pos_as_xyz
  1  'x, y, z'
loop_
 _atom_site_type_symbol
 _atom_site_label
 _atom_site_symmetry_multiplicity
 _atom_site_fract_x
 _atom_site_fract_y
 _atom_site_fract_z
 _atom_site_occupancy
  Dy  Dy0  1  0.598540  0.598514  0.207225  1
  Dy  Dy1  1  0.598516  0.207246  0.598515  1
  Dy  Dy2  1  0.207221  0.598520  0.598544  1
  Dy  Dy3  1  0.061583  0.438735  0.438734  1
  Dy  Dy4  1  0.437202  0.060002  0.059983  1
  Dy  Dy5  1  0.438733  0.061596  0.438732  1
  Dy  Dy6  1  0.059989  0.437193  0.059987  1
  Dy  Dy7  1  0.438735  0.438727  0.061596  1
  Dy  Dy8  1  0.059983  0.060004  0.437195  1
  Dy  Dy9  1  0.188130  0.811769  0.811762  1
  Dy  Dy10  1  0.807891  0.188650  0.188639  1
  Dy  Dy11  1  0.811773  0.188139  0.811776  1
  Dy  Dy12  1  0.188661  0.807870  0.188662  1
  Dy  Dy13  1  0.811764  0.811767  0.188130  1
  Dy  Dy14  1  0.188645  0.188658  0.807876  1
  Ho  Ho15  1  0.599054  0.599066  0.599056  1
  Cd  Cd16  1  0.829830  0.829814  0.829830  1
  Cd  Cd17  1  0.830344  0.830342  0.506810  1
  Cd  Cd18  1  0.830336  0.506823  0.830335  1
  Cd  Cd19  1  0.506814  0.830340  0.830345  1
  Ir  Ir20  1  0.393834  0.393821  0.826845  1
  Ir  Ir21  1  0.393833  0.826837  0.393829  1
  Ir  Ir22  1  0.826841  0.393830  0.393834  1
  Os  Os23  1  0.391750  0.391740  0.391763  1
