# generated using pymatgen
data_Tb4Ga16Ir2Pd
_symmetry_space_group_name_H-M   'P 1'
_cell_length_a   6.18342800
_cell_length_b   6.18342800
_cell_length_c   11.23714600
_cell_angle_alpha   90.00000000
_cell_angle_beta   90.00000000
_cell_angle_gamma   90.00000000
_symmetry_Int_Tables_number   1
_chemical_formula_structural   Tb4Ga16Ir2Pd
_chemical_formula_sum   'Tb4 Ga16 Ir2 Pd1'
_cell_volume   429.64982572
_cell_formula_units_Z   1
loop_
 _symmetry_equiv_pos_site_id
 _symmetry_equiv_pos_as_xyz
  1  'x, y, z'
loop_
 _atom_site_type_symbol
 _atom_site_label
 _atom_site_symmetry_multiplicity
 _atom_site_fract_x
 _atom_site_fract_y
 _atom_site_fract_z
 _atom_site_occupancy
  Tb  Tb0  1  0.500000  0.000000  0.805638  1
  Tb  Tb1  1  0.000000  0.500000  0.805638  1
  Tb  Tb2  1  0.500000  0.000000  0.194362  1
  Tb  Tb3  1  0.000000  0.500000  0.194362  1
  Ga  Ga4  1  0.249603  0.249603  0.619619  1
  Ga  Ga5  1  0.750397  0.750397  0.619619  1
  Ga  Ga6  1  0.750397  0.249603  0.619619  1
  Ga  Ga7  1  0.249603  0.750397  0.619619  1
  Ga  Ga8  1  0.750397  0.750397  0.380381  1
  Ga  Ga9  1  0.249603  0.249603  0.380381  1
  Ga  Ga10  1  0.249603  0.750397  0.380381  1
  Ga  Ga11  1  0.750397  0.249603  0.380381  1
  Ga  Ga12  1  0.289976  0.289976  0.000000  1
  Ga  Ga13  1  0.710024  0.710024  0.000000  1
  Ga  Ga14  1  0.710024  0.289976  0.000000  1
  Ga  Ga15  1  0.289976  0.710024  0.000000  1
  Ga  Ga16  1  0.500000  0.500000  0.803882  1
  Ga  Ga17  1  0.500000  0.500000  0.196118  1
  Ga  Ga18  1  0.000000  0.000000  0.772607  1
  Ga  Ga19  1  0.000000  0.000000  0.227393  1
  Ir  Ir20  1  0.500000  0.000000  0.500000  1
  Ir  Ir21  1  0.000000  0.500000  0.500000  1
  Pd  Pd22  1  0.000000  0.000000  0.000000  1
