# generated using pymatgen
data_Tb2Dy9Er9(CoSb2)4
_symmetry_space_group_name_H-M   'P 1'
_cell_length_a   7.85933231
_cell_length_b   8.75856700
_cell_length_c   12.17710121
_cell_angle_alpha   90.00000000
_cell_angle_beta   89.96671387
_cell_angle_gamma   90.00000000
_symmetry_Int_Tables_number   1
_chemical_formula_structural   Tb2Dy9Er9(CoSb2)4
_chemical_formula_sum   'Tb2 Dy9 Er9 Co4 Sb8'
_cell_volume   838.22874786
_cell_formula_units_Z   1
loop_
 _symmetry_equiv_pos_site_id
 _symmetry_equiv_pos_as_xyz
  1  'x, y, z'
loop_
 _atom_site_type_symbol
 _atom_site_label
 _atom_site_symmetry_multiplicity
 _atom_site_fract_x
 _atom_site_fract_y
 _atom_site_fract_z
 _atom_site_occupancy
  Tb  Tb0  1  0.377315  0.250000  0.692732  1
  Tb  Tb1  1  0.877277  0.750000  0.807354  1
  Dy  Dy2  1  0.653973  0.250000  0.296667  1
  Dy  Dy3  1  0.846623  0.250000  0.797239  1
  Dy  Dy4  1  0.346452  0.750000  0.702872  1
  Dy  Dy5  1  0.452665  0.750000  0.998106  1
  Dy  Dy6  1  0.953613  0.250000  0.501625  1
  Dy  Dy7  1  0.546330  0.250000  0.002593  1
  Dy  Dy8  1  0.046827  0.750000  0.497507  1
  Dy  Dy9  1  0.621749  0.750000  0.307758  1
  Dy  Dy10  1  0.122199  0.250000  0.192316  1
  Er  Er11  1  0.153566  0.750000  0.202276  1
  Er  Er12  1  0.823097  0.964243  0.065576  1
  Er  Er13  1  0.323081  0.034556  0.434786  1
  Er  Er14  1  0.177172  0.464909  0.935256  1
  Er  Er15  1  0.677169  0.535347  0.564903  1
  Er  Er16  1  0.177172  0.035091  0.935256  1
  Er  Er17  1  0.677169  0.964653  0.564903  1
  Er  Er18  1  0.823097  0.535757  0.065576  1
  Er  Er19  1  0.323081  0.465444  0.434786  1
  Co  Co20  1  0.436514  0.750000  0.491358  1
  Co  Co21  1  0.935995  0.250000  0.008970  1
  Co  Co22  1  0.564261  0.250000  0.508288  1
  Co  Co23  1  0.064148  0.750000  0.991679  1
  Sb  Sb24  1  0.929990  0.991587  0.326597  1
  Sb  Sb25  1  0.428349  0.007416  0.173159  1
  Sb  Sb26  1  0.070663  0.492145  0.672629  1
  Sb  Sb27  1  0.570725  0.507810  0.827423  1
  Sb  Sb28  1  0.070663  0.007855  0.672629  1
  Sb  Sb29  1  0.570725  0.992190  0.827423  1
  Sb  Sb30  1  0.929990  0.508413  0.326597  1
  Sb  Sb31  1  0.428349  0.492584  0.173159  1
