# generated using pymatgen
data_Er5In2(RuPb)2
_symmetry_space_group_name_H-M   'P 1'
_cell_length_a   3.56242300
_cell_length_b   8.12939100
_cell_length_c   18.34233400
_cell_angle_alpha   90.00000000
_cell_angle_beta   90.00000000
_cell_angle_gamma   90.00000000
_symmetry_Int_Tables_number   1
_chemical_formula_structural   Er5In2(RuPb)2
_chemical_formula_sum   'Er10 In4 Ru4 Pb4'
_cell_volume   531.20003597
_cell_formula_units_Z   2
loop_
 _symmetry_equiv_pos_site_id
 _symmetry_equiv_pos_as_xyz
  1  'x, y, z'
loop_
 _atom_site_type_symbol
 _atom_site_label
 _atom_site_symmetry_multiplicity
 _atom_site_fract_x
 _atom_site_fract_y
 _atom_site_fract_z
 _atom_site_occupancy
  Er  Er0  1  0.000000  0.500000  0.500000  1
  Er  Er1  1  0.000000  0.000000  0.000000  1
  Er  Er2  1  0.000000  0.739724  0.278749  1
  Er  Er3  1  0.000000  0.260276  0.721251  1
  Er  Er4  1  0.000000  0.760276  0.778749  1
  Er  Er5  1  0.000000  0.239724  0.221251  1
  Er  Er6  1  0.000000  0.621268  0.089237  1
  Er  Er7  1  0.000000  0.378732  0.910763  1
  Er  Er8  1  0.000000  0.878732  0.589237  1
  Er  Er9  1  0.000000  0.121268  0.410763  1
  In  In10  1  0.500000  0.578624  0.652829  1
  In  In11  1  0.500000  0.421376  0.347171  1
  In  In12  1  0.500000  0.921376  0.152829  1
  In  In13  1  0.500000  0.078624  0.847171  1
  Ru  Ru14  1  0.500000  0.521016  0.195482  1
  Ru  Ru15  1  0.500000  0.478984  0.804518  1
  Ru  Ru16  1  0.500000  0.978984  0.695482  1
  Ru  Ru17  1  0.500000  0.021016  0.304518  1
  Pb  Pb18  1  0.500000  0.705259  0.933015  1
  Pb  Pb19  1  0.500000  0.294741  0.066985  1
  Pb  Pb20  1  0.500000  0.794741  0.433015  1
  Pb  Pb21  1  0.500000  0.205259  0.566985  1
