# generated using pymatgen
data_Pu4Mo3WC8
_symmetry_space_group_name_H-M   'P 1'
_cell_length_a   3.27041800
_cell_length_b   5.70356197
_cell_length_c   10.95818760
_cell_angle_alpha   90.13509672
_cell_angle_beta   90.00000000
_cell_angle_gamma   90.00000000
_symmetry_Int_Tables_number   1
_chemical_formula_structural   Pu4Mo3WC8
_chemical_formula_sum   'Pu4 Mo3 W1 C8'
_cell_volume   204.40285288
_cell_formula_units_Z   1
loop_
 _symmetry_equiv_pos_site_id
 _symmetry_equiv_pos_as_xyz
  1  'x, y, z'
loop_
 _atom_site_type_symbol
 _atom_site_label
 _atom_site_symmetry_multiplicity
 _atom_site_fract_x
 _atom_site_fract_y
 _atom_site_fract_z
 _atom_site_occupancy
  Pu  Pu0  1  0.250000  0.583205  0.859607  1
  Pu  Pu1  1  0.750000  0.416583  0.140437  1
  Pu  Pu2  1  0.750000  0.916491  0.360108  1
  Pu  Pu3  1  0.250000  0.082858  0.640255  1
  Mo  Mo4  1  0.750000  0.085552  0.893728  1
  Mo  Mo5  1  0.750000  0.584481  0.605289  1
  Mo  Mo6  1  0.250000  0.414699  0.394523  1
  W  W7  1  0.250000  0.915551  0.105624  1
  C  C8  1  0.250000  0.666188  0.245556  1
  C  C9  1  0.750000  0.335591  0.753893  1
  C  C10  1  0.750000  0.834653  0.745749  1
  C  C11  1  0.250000  0.164546  0.253705  1
  C  C12  1  0.250000  0.737082  0.511226  1
  C  C13  1  0.750000  0.261831  0.488966  1
  C  C14  1  0.750000  0.763155  0.011663  1
  C  C15  1  0.250000  0.237534  0.989670  1
