# generated using pymatgen
data_Tb3Tm(IrO4)4
_symmetry_space_group_name_H-M   'P 1'
_cell_length_a   5.35509416
_cell_length_b   7.63287757
_cell_length_c   7.40171711
_cell_angle_alpha   80.81433234
_cell_angle_beta   89.29734388
_cell_angle_gamma   87.33682897
_symmetry_Int_Tables_number   1
_chemical_formula_structural   Tb3Tm(IrO4)4
_chemical_formula_sum   'Tb3 Tm1 Ir4 O16'
_cell_volume   298.33761961
_cell_formula_units_Z   1
loop_
 _symmetry_equiv_pos_site_id
 _symmetry_equiv_pos_as_xyz
  1  'x, y, z'
loop_
 _atom_site_type_symbol
 _atom_site_label
 _atom_site_symmetry_multiplicity
 _atom_site_fract_x
 _atom_site_fract_y
 _atom_site_fract_z
 _atom_site_occupancy
  Tb  Tb0  1  0.234939  0.631676  0.111245  1
  Tb  Tb1  1  0.765775  0.369742  0.888280  1
  Tb  Tb2  1  0.703246  0.336821  0.395112  1
  Tm  Tm3  1  0.297047  0.664523  0.606871  1
  Ir  Ir4  1  0.780864  0.837920  0.799511  1
  Ir  Ir5  1  0.737733  0.839796  0.297718  1
  Ir  Ir6  1  0.263487  0.159419  0.703575  1
  Ir  Ir7  1  0.219775  0.161835  0.199551  1
  O  O8  1  0.101301  0.935675  0.693443  1
  O  O9  1  0.421045  0.946405  0.188111  1
  O  O10  1  0.632199  0.833166  0.555462  1
  O  O11  1  0.887672  0.827688  0.053278  1
  O  O12  1  0.512780  0.671705  0.878414  1
  O  O13  1  0.000178  0.609948  0.818243  1
  O  O14  1  0.038304  0.698042  0.379930  1
  O  O15  1  0.539805  0.615153  0.330366  1
  O  O16  1  0.452990  0.389313  0.672287  1
  O  O17  1  0.961775  0.298562  0.625807  1
  O  O18  1  0.001113  0.391200  0.175440  1
  O  O19  1  0.484866  0.329400  0.118131  1
  O  O20  1  0.111804  0.169024  0.947278  1
  O  O21  1  0.363120  0.166499  0.445020  1
  O  O22  1  0.583783  0.055512  0.809881  1
  O  O23  1  0.904402  0.060974  0.307044  1
