# generated using pymatgen
data_Er11TmCo2Ni3Bi
_symmetry_space_group_name_H-M   'P 1'
_cell_length_a   8.26463164
_cell_length_b   8.25890985
_cell_length_c   8.26642359
_cell_angle_alpha   109.28972015
_cell_angle_beta   111.34290468
_cell_angle_gamma   107.78009689
_symmetry_Int_Tables_number   1
_chemical_formula_structural   Er11TmCo2Ni3Bi
_chemical_formula_sum   'Er11 Tm1 Co2 Ni3 Bi1'
_cell_volume   434.03913491
_cell_formula_units_Z   1
loop_
 _symmetry_equiv_pos_site_id
 _symmetry_equiv_pos_as_xyz
  1  'x, y, z'
loop_
 _atom_site_type_symbol
 _atom_site_label
 _atom_site_symmetry_multiplicity
 _atom_site_fract_x
 _atom_site_fract_y
 _atom_site_fract_z
 _atom_site_occupancy
  Er  Er0  1  0.710630  0.820074  0.530297  1
  Er  Er1  1  0.288860  0.820719  0.109158  1
  Er  Er2  1  0.710251  0.180103  0.890500  1
  Er  Er3  1  0.625854  0.315587  0.310576  1
  Er  Er4  1  0.374129  0.684092  0.689433  1
  Er  Er5  1  0.005138  0.315590  0.689537  1
  Er  Er6  1  0.994690  0.684307  0.310070  1
  Er  Er7  1  0.209945  0.403769  0.193672  1
  Er  Er8  1  0.789306  0.595269  0.805599  1
  Er  Er9  1  0.210050  0.016042  0.805329  1
  Er  Er10  1  0.790019  0.984031  0.194186  1
  Tm  Tm11  1  0.288804  0.179954  0.468904  1
  Co  Co12  1  0.385345  0.886712  0.500363  1
  Co  Co13  1  0.614196  0.114733  0.500017  1
  Ni  Ni14  1  0.001647  0.365924  0.367815  1
  Ni  Ni15  1  0.999589  0.633225  0.633043  1
  Ni  Ni16  1  0.001448  0.999687  0.001299  1
  Bi  Bi17  1  0.500098  0.500182  0.000201  1
