# generated using pymatgen
data_Rb8TbDy3F20
_symmetry_space_group_name_H-M   'P 1'
_cell_length_a   6.95818298
_cell_length_b   7.46277100
_cell_length_c   11.50606577
_cell_angle_alpha   90.00000000
_cell_angle_beta   90.07021115
_cell_angle_gamma   90.00000000
_symmetry_Int_Tables_number   1
_chemical_formula_structural   Rb8TbDy3F20
_chemical_formula_sum   'Rb8 Tb1 Dy3 F20'
_cell_volume   597.47878169
_cell_formula_units_Z   1
loop_
 _symmetry_equiv_pos_site_id
 _symmetry_equiv_pos_as_xyz
  1  'x, y, z'
loop_
 _atom_site_type_symbol
 _atom_site_label
 _atom_site_symmetry_multiplicity
 _atom_site_fract_x
 _atom_site_fract_y
 _atom_site_fract_z
 _atom_site_occupancy
  Rb  Rb0  1  0.532516  0.498163  0.828986  1
  Rb  Rb1  1  0.467385  0.501486  0.171069  1
  Rb  Rb2  1  0.032338  0.501375  0.671769  1
  Rb  Rb3  1  0.467385  0.998514  0.171069  1
  Rb  Rb4  1  0.967423  0.497948  0.328329  1
  Rb  Rb5  1  0.532516  0.001837  0.828986  1
  Rb  Rb6  1  0.967423  0.002052  0.328329  1
  Rb  Rb7  1  0.032338  0.998625  0.671769  1
  Tb  Tb8  1  0.560378  0.750000  0.501119  1
  Dy  Dy9  1  0.440141  0.250000  0.498840  1
  Dy  Dy10  1  0.059253  0.250000  0.998775  1
  Dy  Dy11  1  0.940260  0.750000  0.001370  1
  F  F12  1  0.846716  0.750000  0.817336  1
  F  F13  1  0.152984  0.250000  0.182623  1
  F  F14  1  0.346465  0.250000  0.682754  1
  F  F15  1  0.654308  0.750000  0.316230  1
  F  F16  1  0.375522  0.750000  0.658749  1
  F  F17  1  0.624318  0.250000  0.342347  1
  F  F18  1  0.875453  0.250000  0.842069  1
  F  F19  1  0.123999  0.750000  0.158130  1
  F  F20  1  0.877188  0.750000  0.515323  1
  F  F21  1  0.124464  0.250000  0.484521  1
  F  F22  1  0.374662  0.250000  0.984216  1
  F  F23  1  0.624931  0.750000  0.015769  1
  F  F24  1  0.639743  0.034772  0.572450  1
  F  F25  1  0.360672  0.967207  0.427184  1
  F  F26  1  0.139375  0.966013  0.928399  1
  F  F27  1  0.360672  0.532793  0.427184  1
  F  F28  1  0.860024  0.034125  0.071731  1
  F  F29  1  0.639743  0.465228  0.572450  1
  F  F30  1  0.860024  0.465875  0.071731  1
  F  F31  1  0.139375  0.533987  0.928399  1
