# generated using pymatgen
data_Y6BiO11F
_symmetry_space_group_name_H-M   'P 1'
_cell_length_a   6.61528389
_cell_length_b   6.60438648
_cell_length_c   6.62676000
_cell_angle_alpha   99.30703204
_cell_angle_beta   99.30957391
_cell_angle_gamma   99.18422512
_symmetry_Int_Tables_number   1
_chemical_formula_structural   Y6BiO11F
_chemical_formula_sum   'Y6 Bi1 O11 F1'
_cell_volume   276.77031765
_cell_formula_units_Z   1
loop_
 _symmetry_equiv_pos_site_id
 _symmetry_equiv_pos_as_xyz
  1  'x, y, z'
loop_
 _atom_site_type_symbol
 _atom_site_label
 _atom_site_symmetry_multiplicity
 _atom_site_fract_x
 _atom_site_fract_y
 _atom_site_fract_z
 _atom_site_occupancy
  Y  Y0  1  0.315009  0.607925  0.147833  1
  Y  Y1  1  0.618875  0.136260  0.291967  1
  Y  Y2  1  0.391721  0.841616  0.690848  1
  Y  Y3  1  0.698782  0.401840  0.869900  1
  Y  Y4  1  0.856208  0.688723  0.394559  1
  Y  Y5  1  0.126010  0.316295  0.609754  1
  Bi  Bi6  1  0.004120  0.002546  0.997913  1
  O  O7  1  0.923567  0.690334  0.051598  1
  O  O8  1  0.174586  0.585009  0.432002  1
  O  O9  1  0.813317  0.405933  0.570144  1
  O  O10  1  0.570738  0.830419  0.419606  1
  O  O11  1  0.588638  0.432166  0.180568  1
  O  O12  1  0.411935  0.558954  0.818832  1
  O  O13  1  0.955896  0.077427  0.312066  1
  O  O14  1  0.057662  0.931458  0.685376  1
  O  O15  1  0.684595  0.053054  0.926194  1
  O  O16  1  0.069937  0.318976  0.952151  1
  O  O17  1  0.316336  0.946204  0.072218  1
  F  F18  1  0.422067  0.174862  0.576472  1
