# generated using pymatgen
data_PrTm3Sc2(AlPt2)2
_symmetry_space_group_name_H-M   'P 1'
_cell_length_a   4.43536800
_cell_length_b   7.18314256
_cell_length_c   8.03642731
_cell_angle_alpha   90.75578095
_cell_angle_beta   90.00000000
_cell_angle_gamma   90.00000000
_symmetry_Int_Tables_number   1
_chemical_formula_structural   PrTm3Sc2(AlPt2)2
_chemical_formula_sum   'Pr1 Tm3 Sc2 Al2 Pt4'
_cell_volume   256.01733999
_cell_formula_units_Z   1
loop_
 _symmetry_equiv_pos_site_id
 _symmetry_equiv_pos_as_xyz
  1  'x, y, z'
loop_
 _atom_site_type_symbol
 _atom_site_label
 _atom_site_symmetry_multiplicity
 _atom_site_fract_x
 _atom_site_fract_y
 _atom_site_fract_z
 _atom_site_occupancy
  Pr  Pr0  1  0.750000  0.479029  0.170368  1
  Tm  Tm1  1  0.250000  0.558318  0.818641  1
  Tm  Tm2  1  0.250000  0.021408  0.671241  1
  Tm  Tm3  1  0.750000  0.949809  0.325970  1
  Sc  Sc4  1  0.250000  0.126168  0.062592  1
  Sc  Sc5  1  0.750000  0.371679  0.566517  1
  Al  Al6  1  0.250000  0.644441  0.439696  1
  Al  Al7  1  0.750000  0.859600  0.935320  1
  Pt  Pt8  1  0.250000  0.765940  0.121992  1
  Pt  Pt9  1  0.250000  0.261775  0.389701  1
  Pt  Pt10  1  0.750000  0.742316  0.623142  1
  Pt  Pt11  1  0.750000  0.219516  0.874821  1
