# generated using pymatgen
data_TaNb23GaAs11
_symmetry_space_group_name_H-M   'P 1'
_cell_length_a   3.51722400
_cell_length_b   12.04628226
_cell_length_c   14.88147378
_cell_angle_alpha   89.77165058
_cell_angle_beta   90.00000000
_cell_angle_gamma   90.00000000
_symmetry_Int_Tables_number   1
_chemical_formula_structural   TaNb23GaAs11
_chemical_formula_sum   'Ta1 Nb23 Ga1 As11'
_cell_volume   630.51519509
_cell_formula_units_Z   1
loop_
 _symmetry_equiv_pos_site_id
 _symmetry_equiv_pos_as_xyz
  1  'x, y, z'
loop_
 _atom_site_type_symbol
 _atom_site_label
 _atom_site_symmetry_multiplicity
 _atom_site_fract_x
 _atom_site_fract_y
 _atom_site_fract_z
 _atom_site_occupancy
  Ta  Ta0  1  0.500000  0.027110  0.390208  1
  Nb  Nb1  1  0.000000  0.187534  0.296698  1
  Nb  Nb2  1  0.000000  0.527210  0.109670  1
  Nb  Nb3  1  0.500000  0.912068  0.078888  1
  Nb  Nb4  1  0.000000  0.886163  0.927528  1
  Nb  Nb5  1  0.000000  0.860364  0.476709  1
  Nb  Nb6  1  0.500000  0.689524  0.203905  1
  Nb  Nb7  1  0.500000  0.385457  0.572701  1
  Nb  Nb8  1  0.000000  0.584839  0.576922  1
  Nb  Nb9  1  0.500000  0.612083  0.427005  1
  Nb  Nb10  1  0.000000  0.086419  0.759230  1
  Nb  Nb11  1  0.500000  0.642750  0.977158  1
  Nb  Nb12  1  0.000000  0.144293  0.522996  1
  Nb  Nb13  1  0.000000  0.411185  0.420774  1
  Nb  Nb14  1  0.500000  0.415119  0.256939  1
  Nb  Nb15  1  0.500000  0.585833  0.740181  1
  Nb  Nb16  1  0.500000  0.972936  0.609470  1
  Nb  Nb17  1  0.500000  0.356381  0.022475  1
  Nb  Nb18  1  0.000000  0.113686  0.073494  1
  Nb  Nb19  1  0.500000  0.086842  0.921913  1
  Nb  Nb20  1  0.000000  0.472905  0.890743  1
  Nb  Nb21  1  0.000000  0.814556  0.704506  1
  Nb  Nb22  1  0.500000  0.311424  0.796176  1
  Nb  Nb23  1  0.000000  0.915817  0.243032  1
  Ga  Ga24  1  0.500000  0.746105  0.582646  1
  As  As25  1  0.000000  0.425700  0.703960  1
  As  As26  1  0.000000  0.245941  0.916815  1
  As  As27  1  0.000000  0.310579  0.151367  1
  As  As28  1  0.500000  0.253154  0.416862  1
  As  As29  1  0.000000  0.574489  0.296614  1
  As  As30  1  0.500000  0.189101  0.651913  1
  As  As31  1  0.000000  0.753224  0.082825  1
  As  As32  1  0.500000  0.810143  0.350317  1
  As  As33  1  0.000000  0.689025  0.847604  1
  As  As34  1  0.500000  0.074321  0.203547  1
  As  As35  1  0.500000  0.925720  0.796206  1
