# generated using pymatgen
data_Y3In3CoAu2
_symmetry_space_group_name_H-M   'P 1'
_cell_length_a   7.71583300
_cell_length_b   7.71583291
_cell_length_c   3.89147000
_cell_angle_alpha   90.00000000
_cell_angle_beta   90.00000000
_cell_angle_gamma   120.00000466
_symmetry_Int_Tables_number   1
_chemical_formula_structural   Y3In3CoAu2
_chemical_formula_sum   'Y3 In3 Co1 Au2'
_cell_volume   200.63649471
_cell_formula_units_Z   1
loop_
 _symmetry_equiv_pos_site_id
 _symmetry_equiv_pos_as_xyz
  1  'x, y, z'
loop_
 _atom_site_type_symbol
 _atom_site_label
 _atom_site_symmetry_multiplicity
 _atom_site_fract_x
 _atom_site_fract_y
 _atom_site_fract_z
 _atom_site_occupancy
  Y  Y0  1  0.000000  0.600105  0.500000  1
  Y  Y1  1  0.600105  0.000000  0.500000  1
  Y  Y2  1  0.399895  0.399895  0.500000  1
  In  In3  1  0.000000  0.246175  0.000000  1
  In  In4  1  0.246175  0.000000  0.000000  1
  In  In5  1  0.753825  0.753825  0.000000  1
  Co  Co6  1  0.000000  0.000000  0.500000  1
  Au  Au7  1  0.666667  0.333333  0.000000  1
  Au  Au8  1  0.333333  0.666667  0.000000  1
