# generated using pymatgen
data_Pr8Si12Ir3Rh
_symmetry_space_group_name_H-M   'P 1'
_cell_length_a   8.28586500
_cell_length_b   8.28586698
_cell_length_c   8.54173800
_cell_angle_alpha   90.00000000
_cell_angle_beta   90.00000000
_cell_angle_gamma   120.00000408
_symmetry_Int_Tables_number   1
_chemical_formula_structural   Pr8Si12Ir3Rh
_chemical_formula_sum   'Pr8 Si12 Ir3 Rh1'
_cell_volume   507.87012898
_cell_formula_units_Z   1
loop_
 _symmetry_equiv_pos_site_id
 _symmetry_equiv_pos_as_xyz
  1  'x, y, z'
loop_
 _atom_site_type_symbol
 _atom_site_label
 _atom_site_symmetry_multiplicity
 _atom_site_fract_x
 _atom_site_fract_y
 _atom_site_fract_z
 _atom_site_occupancy
  Pr  Pr0  1  0.499875  0.500125  0.749887  1
  Pr  Pr1  1  0.499664  0.500336  0.249936  1
  Pr  Pr2  1  0.000248  0.500125  0.749887  1
  Pr  Pr3  1  0.000673  0.500336  0.249936  1
  Pr  Pr4  1  0.499875  0.999752  0.749887  1
  Pr  Pr5  1  0.499664  0.999327  0.249936  1
  Pr  Pr6  1  0.000000  0.000000  0.749436  1
  Pr  Pr7  1  0.000000  0.000000  0.250508  1
  Si  Si8  1  0.832929  0.167071  0.999227  1
  Si  Si9  1  0.166897  0.833103  0.000567  1
  Si  Si10  1  0.334141  0.167071  0.999227  1
  Si  Si11  1  0.166620  0.833380  0.499403  1
  Si  Si12  1  0.666207  0.833103  0.000567  1
  Si  Si13  1  0.833127  0.166873  0.500602  1
  Si  Si14  1  0.832929  0.665859  0.999227  1
  Si  Si15  1  0.666760  0.833380  0.499403  1
  Si  Si16  1  0.166897  0.333793  0.000567  1
  Si  Si17  1  0.333745  0.166873  0.500602  1
  Si  Si18  1  0.166620  0.333240  0.499403  1
  Si  Si19  1  0.833127  0.666255  0.500602  1
  Ir  Ir20  1  0.666667  0.333333  0.001895  1
  Ir  Ir21  1  0.333333  0.666667  0.998182  1
  Ir  Ir22  1  0.333333  0.666667  0.501494  1
  Rh  Rh23  1  0.666667  0.333333  0.499613  1
