# generated using pymatgen
data_Li3Ti2Ir6W
_symmetry_space_group_name_H-M   'P 1'
_cell_length_a   4.29175500
_cell_length_b   6.03564401
_cell_length_c   12.84673700
_cell_angle_alpha   90.00005971
_cell_angle_beta   90.00051233
_cell_angle_gamma   89.99481850
_symmetry_Int_Tables_number   1
_chemical_formula_structural   Li3Ti2Ir6W
_chemical_formula_sum   'Li6 Ti4 Ir12 W2'
_cell_volume   332.77551948
_cell_formula_units_Z   2
loop_
 _symmetry_equiv_pos_site_id
 _symmetry_equiv_pos_as_xyz
  1  'x, y, z'
loop_
 _atom_site_type_symbol
 _atom_site_label
 _atom_site_symmetry_multiplicity
 _atom_site_fract_x
 _atom_site_fract_y
 _atom_site_fract_z
 _atom_site_occupancy
  Li  Li0  1  0.999998  0.499999  0.999388  1
  Li  Li1  1  0.499826  0.000001  0.167279  1
  Li  Li2  1  0.999826  0.500000  0.334838  1
  Li  Li3  1  0.499997  0.999999  0.501308  1
  Li  Li4  1  0.000166  0.500000  0.665358  1
  Li  Li5  1  0.500165  0.000000  0.831832  1
  Ti  Ti6  1  0.999850  0.000001  0.337552  1
  Ti  Ti7  1  0.500002  0.499999  0.501693  1
  Ti  Ti8  1  0.000147  0.000000  0.664968  1
  Ti  Ti9  1  0.500149  0.499997  0.829116  1
  Ir  Ir10  1  0.500088  0.249974  0.001305  1
  Ir  Ir11  1  0.499911  0.750025  0.001305  1
  Ir  Ir12  1  0.999773  0.250000  0.165373  1
  Ir  Ir13  1  0.999943  0.750003  0.165372  1
  Ir  Ir14  1  0.500025  0.248474  0.333136  1
  Ir  Ir15  1  0.499678  0.751526  0.333136  1
  Ir  Ir16  1  0.999766  0.250341  0.499955  1
  Ir  Ir17  1  0.000236  0.749660  0.499954  1
  Ir  Ir18  1  0.500391  0.249588  0.666711  1
  Ir  Ir19  1  0.499921  0.750415  0.666712  1
  Ir  Ir20  1  0.999972  0.251469  0.833522  1
  Ir  Ir21  1  0.000320  0.748529  0.833523  1
  W  W22  1  0.000004  0.000000  0.996064  1
  W  W23  1  0.499853  0.500000  0.170603  1
