# generated using pymatgen
data_Ho4Sc8In2Fe2Tc
_symmetry_space_group_name_H-M   'P 1'
_cell_length_a   8.00971003
_cell_length_b   8.00970996
_cell_length_c   8.00971092
_cell_angle_alpha   108.54763109
_cell_angle_beta   108.54763846
_cell_angle_gamma   111.33462087
_symmetry_Int_Tables_number   1
_chemical_formula_structural   Ho4Sc8In2Fe2Tc
_chemical_formula_sum   'Ho4 Sc8 In2 Fe2 Tc1'
_cell_volume   395.25975821
_cell_formula_units_Z   1
loop_
 _symmetry_equiv_pos_site_id
 _symmetry_equiv_pos_as_xyz
  1  'x, y, z'
loop_
 _atom_site_type_symbol
 _atom_site_label
 _atom_site_symmetry_multiplicity
 _atom_site_fract_x
 _atom_site_fract_y
 _atom_site_fract_z
 _atom_site_occupancy
  Ho  Ho0  1  0.303059  0.303059  0.606118  1
  Ho  Ho1  1  0.696941  0.696941  0.393882  1
  Ho  Ho2  1  0.696941  0.303059  0.000000  1
  Ho  Ho3  1  0.303059  0.696941  0.000000  1
  Sc  Sc4  1  0.191369  0.426033  0.234663  1
  Sc  Sc5  1  0.808631  0.573967  0.765337  1
  Sc  Sc6  1  0.191369  0.956707  0.765337  1
  Sc  Sc7  1  0.956707  0.191369  0.765337  1
  Sc  Sc8  1  0.808631  0.043293  0.234663  1
  Sc  Sc9  1  0.043293  0.808631  0.234663  1
  Sc  Sc10  1  0.426033  0.191369  0.234663  1
  Sc  Sc11  1  0.573967  0.808631  0.765337  1
  In  In12  1  0.000000  0.500000  0.500000  1
  In  In13  1  0.500000  0.000000  0.500000  1
  Fe  Fe14  1  0.377764  0.377764  0.000000  1
  Fe  Fe15  1  0.622236  0.622236  0.000000  1
  Tc  Tc16  1  0.000000  0.000000  0.000000  1
