# generated using pymatgen
data_Dy6Al24Co5Ru3
_symmetry_space_group_name_H-M   'P 1'
_cell_length_a   8.71292800
_cell_length_b   8.71292801
_cell_length_c   9.42309600
_cell_angle_alpha   90.00000000
_cell_angle_beta   90.00000000
_cell_angle_gamma   119.99999996
_symmetry_Int_Tables_number   1
_chemical_formula_structural   Dy6Al24Co5Ru3
_chemical_formula_sum   'Dy6 Al24 Co5 Ru3'
_cell_volume   619.51595885
_cell_formula_units_Z   1
loop_
 _symmetry_equiv_pos_site_id
 _symmetry_equiv_pos_as_xyz
  1  'x, y, z'
loop_
 _atom_site_type_symbol
 _atom_site_label
 _atom_site_symmetry_multiplicity
 _atom_site_fract_x
 _atom_site_fract_y
 _atom_site_fract_z
 _atom_site_occupancy
  Dy  Dy0  1  0.194302  0.805698  0.252359  1
  Dy  Dy1  1  0.194302  0.388605  0.252359  1
  Dy  Dy2  1  0.611395  0.805698  0.252359  1
  Dy  Dy3  1  0.805698  0.194302  0.747641  1
  Dy  Dy4  1  0.805698  0.611395  0.747641  1
  Dy  Dy5  1  0.388605  0.194302  0.747641  1
  Al  Al6  1  0.560554  0.439446  0.256308  1
  Al  Al7  1  0.560554  0.121108  0.256308  1
  Al  Al8  1  0.878892  0.439446  0.256308  1
  Al  Al9  1  0.439446  0.560554  0.743692  1
  Al  Al10  1  0.439446  0.878892  0.743692  1
  Al  Al11  1  0.121108  0.560554  0.743692  1
  Al  Al12  1  0.324663  0.162331  0.425252  1
  Al  Al13  1  0.837669  0.162331  0.425252  1
  Al  Al14  1  0.837669  0.675337  0.425252  1
  Al  Al15  1  0.675337  0.837669  0.574748  1
  Al  Al16  1  0.162331  0.837669  0.574748  1
  Al  Al17  1  0.162331  0.324663  0.574748  1
  Al  Al18  1  0.679518  0.839759  0.922462  1
  Al  Al19  1  0.160241  0.839759  0.922462  1
  Al  Al20  1  0.160241  0.320482  0.922462  1
  Al  Al21  1  0.320482  0.160241  0.077538  1
  Al  Al22  1  0.839759  0.160241  0.077538  1
  Al  Al23  1  0.839759  0.679518  0.077538  1
  Al  Al24  1  0.666667  0.333333  0.518419  1
  Al  Al25  1  0.333333  0.666667  0.481581  1
  Al  Al26  1  0.333333  0.666667  0.017014  1
  Al  Al27  1  0.666667  0.333333  0.982986  1
  Al  Al28  1  0.000000  0.000000  0.249955  1
  Al  Al29  1  0.000000  0.000000  0.750045  1
  Co  Co30  1  0.000000  0.000000  0.500000  1
  Co  Co31  1  0.000000  0.000000  0.000000  1
  Co  Co32  1  0.500000  0.500000  0.500000  1
  Co  Co33  1  0.500000  0.000000  0.500000  1
  Co  Co34  1  0.000000  0.500000  0.500000  1
  Ru  Ru35  1  0.500000  0.500000  0.000000  1
  Ru  Ru36  1  0.500000  0.000000  0.000000  1
  Ru  Ru37  1  0.000000  0.500000  0.000000  1
