# generated using pymatgen
data_Y3Al3Zn2Ni
_symmetry_space_group_name_H-M   'P 1'
_cell_length_a   7.02757800
_cell_length_b   7.02757830
_cell_length_c   4.20664300
_cell_angle_alpha   90.00000000
_cell_angle_beta   90.00000000
_cell_angle_gamma   119.99998917
_symmetry_Int_Tables_number   1
_chemical_formula_structural   Y3Al3Zn2Ni
_chemical_formula_sum   'Y3 Al3 Zn2 Ni1'
_cell_volume   179.91927969
_cell_formula_units_Z   1
loop_
 _symmetry_equiv_pos_site_id
 _symmetry_equiv_pos_as_xyz
  1  'x, y, z'
loop_
 _atom_site_type_symbol
 _atom_site_label
 _atom_site_symmetry_multiplicity
 _atom_site_fract_x
 _atom_site_fract_y
 _atom_site_fract_z
 _atom_site_occupancy
  Y  Y0  1  0.000000  0.598550  0.000000  1
  Y  Y1  1  0.598550  0.000000  0.000000  1
  Y  Y2  1  0.401450  0.401450  0.000000  1
  Al  Al3  1  0.226033  0.000000  0.500000  1
  Al  Al4  1  0.773967  0.773967  0.500000  1
  Al  Al5  1  0.000000  0.226033  0.500000  1
  Zn  Zn6  1  0.666667  0.333333  0.500000  1
  Zn  Zn7  1  0.333333  0.666667  0.500000  1
  Ni  Ni8  1  0.000000  0.000000  0.000000  1
