# generated using pymatgen
data_CsBaPu2(CuSe3)2
_symmetry_space_group_name_H-M   'P 1'
_cell_length_a   7.77536926
_cell_length_b   7.77536803
_cell_length_c   10.75333500
_cell_angle_alpha   90.00000000
_cell_angle_beta   90.00000000
_cell_angle_gamma   148.52410322
_symmetry_Int_Tables_number   1
_chemical_formula_structural   CsBaPu2(CuSe3)2
_chemical_formula_sum   'Cs1 Ba1 Pu2 Cu2 Se6'
_cell_volume   339.44700106
_cell_formula_units_Z   1
loop_
 _symmetry_equiv_pos_site_id
 _symmetry_equiv_pos_as_xyz
  1  'x, y, z'
loop_
 _atom_site_type_symbol
 _atom_site_label
 _atom_site_symmetry_multiplicity
 _atom_site_fract_x
 _atom_site_fract_y
 _atom_site_fract_z
 _atom_site_occupancy
  Cs  Cs0  1  0.255418  0.744582  0.750000  1
  Ba  Ba1  1  0.745413  0.254587  0.250000  1
  Pu  Pu2  1  0.998595  0.001405  0.498837  1
  Pu  Pu3  1  0.998595  0.001405  0.001163  1
  Cu  Cu4  1  0.534759  0.465241  0.750000  1
  Cu  Cu5  1  0.471052  0.528948  0.250000  1
  Se  Se6  1  0.620517  0.379483  0.553040  1
  Se  Se7  1  0.371523  0.628477  0.430346  1
  Se  Se8  1  0.068301  0.931699  0.250000  1
  Se  Se9  1  0.943787  0.056213  0.750000  1
  Se  Se10  1  0.620517  0.379483  0.946960  1
  Se  Se11  1  0.371523  0.628477  0.069654  1
