# generated using pymatgen
data_Pr3NdTi8O22
_symmetry_space_group_name_H-M   'P 1'
_cell_length_a   5.13685530
_cell_length_b   7.35344308
_cell_length_c   12.75097484
_cell_angle_alpha   97.49470531
_cell_angle_beta   101.67244524
_cell_angle_gamma   110.37906659
_symmetry_Int_Tables_number   1
_chemical_formula_structural   Pr3NdTi8O22
_chemical_formula_sum   'Pr3 Nd1 Ti8 O22'
_cell_volume   431.44974177
_cell_formula_units_Z   1
loop_
 _symmetry_equiv_pos_site_id
 _symmetry_equiv_pos_as_xyz
  1  'x, y, z'
loop_
 _atom_site_type_symbol
 _atom_site_label
 _atom_site_symmetry_multiplicity
 _atom_site_fract_x
 _atom_site_fract_y
 _atom_site_fract_z
 _atom_site_occupancy
  Pr  Pr0  1  0.888996  0.696986  0.093360  1
  Pr  Pr1  1  0.598804  0.802608  0.406406  1
  Pr  Pr2  1  0.401309  0.197324  0.594059  1
  Nd  Nd3  1  0.111774  0.303765  0.906369  1
  Ti  Ti4  1  0.573298  0.156854  0.096876  1
  Ti  Ti5  1  0.240992  0.409032  0.189951  1
  Ti  Ti6  1  0.141248  0.090340  0.309394  1
  Ti  Ti7  1  0.819796  0.343415  0.402672  1
  Ti  Ti8  1  0.180204  0.656748  0.597468  1
  Ti  Ti9  1  0.859411  0.910347  0.691177  1
  Ti  Ti10  1  0.758650  0.589455  0.809739  1
  Ti  Ti11  1  0.425849  0.843768  0.902567  1
  O  O12  1  0.636443  0.920958  0.055187  1
  O  O13  1  0.919887  0.337517  0.060571  1
  O  O14  1  0.481382  0.411157  0.095992  1
  O  O15  1  0.267622  0.077727  0.168436  1
  O  O16  1  0.275653  0.658697  0.222830  1
  O  O17  1  0.905571  0.250429  0.249638  1
  O  O18  1  0.893885  0.840660  0.276759  1
  O  O19  1  0.521401  0.422664  0.331261  1
  O  O20  1  0.473622  0.088742  0.403409  1
  O  O21  1  0.019204  0.161466  0.438134  1
  O  O22  1  0.160705  0.579212  0.444548  1
  O  O23  1  0.839351  0.421096  0.555657  1
  O  O24  1  0.981589  0.839490  0.562322  1
  O  O25  1  0.526957  0.911501  0.597008  1
  O  O26  1  0.478841  0.577129  0.668743  1
  O  O27  1  0.107231  0.160057  0.724392  1
  O  O28  1  0.094402  0.750021  0.750214  1
  O  O29  1  0.726043  0.339957  0.777502  1
  O  O30  1  0.732862  0.923339  0.832092  1
  O  O31  1  0.516390  0.587109  0.902849  1
  O  O32  1  0.080345  0.661137  0.938403  1
  O  O33  1  0.360284  0.079297  0.944014  1
