# generated using pymatgen
data_Li2U2As6Ru7
_symmetry_space_group_name_H-M   'P 1'
_cell_length_a   7.04610813
_cell_length_b   7.11372989
_cell_length_c   7.11373114
_cell_angle_alpha   110.35618818
_cell_angle_beta   109.22033672
_cell_angle_gamma   109.22033044
_symmetry_Int_Tables_number   1
_chemical_formula_structural   Li2U2As6Ru7
_chemical_formula_sum   'Li2 U2 As6 Ru7'
_cell_volume   273.15460978
_cell_formula_units_Z   1
loop_
 _symmetry_equiv_pos_site_id
 _symmetry_equiv_pos_as_xyz
  1  'x, y, z'
loop_
 _atom_site_type_symbol
 _atom_site_label
 _atom_site_symmetry_multiplicity
 _atom_site_fract_x
 _atom_site_fract_y
 _atom_site_fract_z
 _atom_site_occupancy
  Li  Li0  1  0.000000  0.000000  0.500000  1
  Li  Li1  1  0.000000  0.500000  0.000000  1
  U  U2  1  0.500000  0.000000  0.000000  1
  U  U3  1  0.500000  0.500000  0.500000  1
  As  As4  1  0.292582  0.983402  0.309180  1
  As  As5  1  0.000000  0.308393  0.308393  1
  As  As6  1  0.000000  0.691607  0.691607  1
  As  As7  1  0.292582  0.309180  0.983402  1
  As  As8  1  0.707418  0.690820  0.016598  1
  As  As9  1  0.707418  0.016598  0.690820  1
  Ru  Ru10  1  0.744031  0.493444  0.250587  1
  Ru  Ru11  1  0.500000  0.750000  0.250000  1
  Ru  Ru12  1  0.500000  0.250000  0.750000  1
  Ru  Ru13  1  0.744031  0.250587  0.493444  1
  Ru  Ru14  1  0.255969  0.749413  0.506556  1
  Ru  Ru15  1  0.255969  0.506556  0.749413  1
  Ru  Ru16  1  0.000000  0.000000  0.000000  1
