# generated using pymatgen
data_Sm3Er(OsO4)4
_symmetry_space_group_name_H-M   'P 1'
_cell_length_a   5.44601132
_cell_length_b   7.51442483
_cell_length_c   7.75344200
_cell_angle_alpha   79.29258804
_cell_angle_beta   93.84546202
_cell_angle_gamma   91.08659690
_symmetry_Int_Tables_number   1
_chemical_formula_structural   Sm3Er(OsO4)4
_chemical_formula_sum   'Sm3 Er1 Os4 O16'
_cell_volume   311.06573957
_cell_formula_units_Z   1
loop_
 _symmetry_equiv_pos_site_id
 _symmetry_equiv_pos_as_xyz
  1  'x, y, z'
loop_
 _atom_site_type_symbol
 _atom_site_label
 _atom_site_symmetry_multiplicity
 _atom_site_fract_x
 _atom_site_fract_y
 _atom_site_fract_z
 _atom_site_occupancy
  Sm  Sm0  1  0.734983  0.892815  0.380945  1
  Sm  Sm1  1  0.261399  0.108944  0.624532  1
  Sm  Sm2  1  0.805106  0.401773  0.326659  1
  Er  Er3  1  0.191744  0.602087  0.672010  1
  Os  Os4  1  0.753663  0.295737  0.837480  1
  Os  Os5  1  0.242880  0.708488  0.162225  1
  Os  Os6  1  0.282656  0.203895  0.163720  1
  Os  Os7  1  0.713900  0.796960  0.836988  1
  O  O8  1  0.942794  0.783822  0.032784  1
  O  O9  1  0.055247  0.207003  0.964197  1
  O  O10  1  0.367079  0.952188  0.167892  1
  O  O11  1  0.631493  0.050619  0.823837  1
  O  O12  1  0.168576  0.447897  0.173992  1
  O  O13  1  0.847786  0.551668  0.826841  1
  O  O14  1  0.591697  0.293573  0.058363  1
  O  O15  1  0.405167  0.701314  0.939199  1
  O  O16  1  0.947682  0.329229  0.616038  1
  O  O17  1  0.058679  0.675145  0.388272  1
  O  O18  1  0.507518  0.175133  0.389304  1
  O  O19  1  0.490868  0.814779  0.615431  1
  O  O20  1  0.545609  0.637074  0.295548  1
  O  O21  1  0.450957  0.374749  0.701994  1
  O  O22  1  0.027860  0.122672  0.337022  1
  O  O23  1  0.974659  0.872434  0.664731  1
