# generated using pymatgen
data_Er8Sc12Si15Sn
_symmetry_space_group_name_H-M   'P 1'
_cell_length_a   7.10660253
_cell_length_b   7.39559813
_cell_length_c   14.03105566
_cell_angle_alpha   90.02111519
_cell_angle_beta   89.57696127
_cell_angle_gamma   90.00235647
_symmetry_Int_Tables_number   1
_chemical_formula_structural   Er8Sc12Si15Sn
_chemical_formula_sum   'Er8 Sc12 Si15 Sn1'
_cell_volume   737.41812754
_cell_formula_units_Z   1
loop_
 _symmetry_equiv_pos_site_id
 _symmetry_equiv_pos_as_xyz
  1  'x, y, z'
loop_
 _atom_site_type_symbol
 _atom_site_label
 _atom_site_symmetry_multiplicity
 _atom_site_fract_x
 _atom_site_fract_y
 _atom_site_fract_z
 _atom_site_occupancy
  Er  Er0  1  0.011056  0.176366  0.096410  1
  Er  Er1  1  0.988629  0.824386  0.904784  1
  Er  Er2  1  0.489465  0.676565  0.904691  1
  Er  Er3  1  0.989826  0.830076  0.598229  1
  Er  Er4  1  0.510331  0.323578  0.096665  1
  Er  Er5  1  0.005006  0.169838  0.399129  1
  Er  Er6  1  0.512833  0.319662  0.399455  1
  Er  Er7  1  0.501896  0.685146  0.599836  1
  Sc  Sc8  1  0.163346  0.502610  0.755156  1
  Sc  Sc9  1  0.836353  0.497134  0.249099  1
  Sc  Sc10  1  0.336231  0.002996  0.249242  1
  Sc  Sc11  1  0.665427  0.996911  0.751799  1
  Sc  Sc12  1  0.343682  0.162553  0.631039  1
  Sc  Sc13  1  0.663411  0.824709  0.372298  1
  Sc  Sc14  1  0.162392  0.683901  0.368800  1
  Sc  Sc15  1  0.666472  0.822870  0.124233  1
  Sc  Sc16  1  0.824035  0.323403  0.626682  1
  Sc  Sc17  1  0.331611  0.176051  0.875828  1
  Sc  Sc18  1  0.832235  0.323422  0.875896  1
  Sc  Sc19  1  0.167574  0.676805  0.124968  1
  Si  Si20  1  0.036031  0.117286  0.751409  1
  Si  Si21  1  0.962149  0.886405  0.246570  1
  Si  Si22  1  0.464530  0.613994  0.248377  1
  Si  Si23  1  0.533871  0.386843  0.752432  1
  Si  Si24  1  0.287401  0.868873  0.752613  1
  Si  Si25  1  0.711443  0.127936  0.247258  1
  Si  Si26  1  0.211249  0.371354  0.248965  1
  Si  Si27  1  0.790145  0.629265  0.751728  1
  Si  Si28  1  0.829380  0.538648  0.458699  1
  Si  Si29  1  0.336841  0.964187  0.460283  1
  Si  Si30  1  0.840624  0.534593  0.039369  1
  Si  Si31  1  0.663917  0.037060  0.537701  1
  Si  Si32  1  0.158288  0.465024  0.961770  1
  Si  Si33  1  0.658578  0.035183  0.960968  1
  Si  Si34  1  0.340051  0.965510  0.039764  1
  Sn  Sn35  1  0.173690  0.458857  0.537856  1
