# generated using pymatgen
data_Ho2Er2Ga12Fe
_symmetry_space_group_name_H-M   'P 1'
_cell_length_a   7.39581739
_cell_length_b   7.40357202
_cell_length_c   7.39763911
_cell_angle_alpha   109.46001614
_cell_angle_beta   109.45690786
_cell_angle_gamma   109.47115382
_symmetry_Int_Tables_number   1
_chemical_formula_structural   Ho2Er2Ga12Fe
_chemical_formula_sum   'Ho2 Er2 Ga12 Fe1'
_cell_volume   311.91465418
_cell_formula_units_Z   1
loop_
 _symmetry_equiv_pos_site_id
 _symmetry_equiv_pos_as_xyz
  1  'x, y, z'
loop_
 _atom_site_type_symbol
 _atom_site_label
 _atom_site_symmetry_multiplicity
 _atom_site_fract_x
 _atom_site_fract_y
 _atom_site_fract_z
 _atom_site_occupancy
  Ho  Ho0  1  0.000000  0.000000  0.500000  1
  Ho  Ho1  1  0.500000  0.000000  0.000000  1
  Er  Er2  1  0.000000  0.500000  0.000000  1
  Er  Er3  1  0.500000  0.500000  0.500000  1
  Ga  Ga4  1  0.749967  0.250245  0.500250  1
  Ga  Ga5  1  0.749954  0.499993  0.249996  1
  Ga  Ga6  1  0.500284  0.250289  0.750001  1
  Ga  Ga7  1  0.250046  0.500007  0.750004  1
  Ga  Ga8  1  0.250033  0.749755  0.499750  1
  Ga  Ga9  1  0.499716  0.749711  0.249999  1
  Ga  Ga10  1  0.716646  0.716437  0.999756  1
  Ga  Ga11  1  0.283396  0.000002  0.283379  1
  Ga  Ga12  1  0.000217  0.283580  0.283369  1
  Ga  Ga13  1  0.283354  0.283563  0.000244  1
  Ga  Ga14  1  0.716604  0.999998  0.716621  1
  Ga  Ga15  1  0.999783  0.716420  0.716631  1
  Fe  Fe16  1  0.000000  0.000000  0.000000  1
