# generated using pymatgen
data_Ca3La(Nd3Ir2)2
_symmetry_space_group_name_H-M   'P 1'
_cell_length_a   8.90587628
_cell_length_b   8.85563898
_cell_length_c   7.44126496
_cell_angle_alpha   83.14131570
_cell_angle_beta   83.79039522
_cell_angle_gamma   44.30445298
_symmetry_Int_Tables_number   1
_chemical_formula_structural   Ca3La(Nd3Ir2)2
_chemical_formula_sum   'Ca3 La1 Nd6 Ir4'
_cell_volume   406.76133591
_cell_formula_units_Z   1
loop_
 _symmetry_equiv_pos_site_id
 _symmetry_equiv_pos_as_xyz
  1  'x, y, z'
loop_
 _atom_site_type_symbol
 _atom_site_label
 _atom_site_symmetry_multiplicity
 _atom_site_fract_x
 _atom_site_fract_y
 _atom_site_fract_z
 _atom_site_occupancy
  Ca  Ca0  1  0.016889  0.799277  0.917668  1
  Ca  Ca1  1  0.202183  0.983619  0.582632  1
  Ca  Ca2  1  0.986790  0.200545  0.080917  1
  La  La3  1  0.799146  0.016343  0.413192  1
  Nd  Nd4  1  0.351530  0.213236  0.816681  1
  Nd  Nd5  1  0.786408  0.649881  0.682795  1
  Nd  Nd6  1  0.652518  0.784136  0.181071  1
  Nd  Nd7  1  0.207813  0.350648  0.316939  1
  Nd  Nd8  1  0.562706  0.437997  0.752361  1
  Nd  Nd9  1  0.433833  0.568465  0.248037  1
  Ir  Ir10  1  0.177979  0.594459  0.568117  1
  Ir  Ir11  1  0.417322  0.814276  0.926288  1
  Ir  Ir12  1  0.810771  0.409006  0.431528  1
  Ir  Ir13  1  0.594114  0.178112  0.081772  1
