# generated using pymatgen
data_Er8Lu2Ir5Pt
_symmetry_space_group_name_H-M   'P 1'
_cell_length_a   10.83072378
_cell_length_b   10.83197600
_cell_length_c   6.29729100
_cell_angle_alpha   90.00000000
_cell_angle_beta   89.97832111
_cell_angle_gamma   90.00000000
_symmetry_Int_Tables_number   1
_chemical_formula_structural   Er8Lu2Ir5Pt
_chemical_formula_sum   'Er16 Lu4 Ir10 Pt2'
_cell_volume   738.78641425
_cell_formula_units_Z   2
loop_
 _symmetry_equiv_pos_site_id
 _symmetry_equiv_pos_as_xyz
  1  'x, y, z'
loop_
 _atom_site_type_symbol
 _atom_site_label
 _atom_site_symmetry_multiplicity
 _atom_site_fract_x
 _atom_site_fract_y
 _atom_site_fract_z
 _atom_site_occupancy
  Er  Er0  1  0.290424  0.087387  0.375290  1
  Er  Er1  1  0.290424  0.912613  0.875290  1
  Er  Er2  1  0.705336  0.089691  0.874619  1
  Er  Er3  1  0.705336  0.910309  0.374619  1
  Er  Er4  1  0.583423  0.789881  0.877804  1
  Er  Er5  1  0.583423  0.210119  0.377804  1
  Er  Er6  1  0.411010  0.790461  0.377119  1
  Er  Er7  1  0.411010  0.209539  0.877119  1
  Er  Er8  1  0.210069  0.412312  0.621941  1
  Er  Er9  1  0.210069  0.587688  0.121941  1
  Er  Er10  1  0.790430  0.415227  0.123560  1
  Er  Er11  1  0.790430  0.584773  0.623560  1
  Er  Er12  1  0.914707  0.707946  0.127151  1
  Er  Er13  1  0.914707  0.292054  0.627151  1
  Er  Er14  1  0.091319  0.707106  0.622606  1
  Er  Er15  1  0.091319  0.292894  0.122606  1
  Lu  Lu16  1  0.002803  0.998760  0.499901  1
  Lu  Lu17  1  0.002803  0.001240  0.999901  1
  Lu  Lu18  1  0.500416  0.499367  0.000136  1
  Lu  Lu19  1  0.500416  0.500633  0.500136  1
  Ir  Ir20  1  0.151012  0.152582  0.748824  1
  Ir  Ir21  1  0.151012  0.847418  0.248824  1
  Ir  Ir22  1  0.653632  0.347043  0.749760  1
  Ir  Ir23  1  0.653632  0.652957  0.249760  1
  Ir  Ir24  1  0.348460  0.347604  0.250247  1
  Ir  Ir25  1  0.348460  0.652396  0.750247  1
  Ir  Ir26  1  0.500109  0.999910  0.125251  1
  Ir  Ir27  1  0.500109  0.000090  0.625251  1
  Ir  Ir28  1  0.000011  0.500005  0.875118  1
  Ir  Ir29  1  0.000011  0.499995  0.375118  1
  Pt  Pt30  1  0.846838  0.151668  0.250673  1
  Pt  Pt31  1  0.846838  0.848332  0.750673  1
