# generated using pymatgen
data_Sm8Dy7Er5Sn16
_symmetry_space_group_name_H-M   'P 1'
_cell_length_a   8.07480705
_cell_length_b   8.24341763
_cell_length_c   15.55702300
_cell_angle_alpha   89.94224143
_cell_angle_beta   89.92988104
_cell_angle_gamma   90.01877208
_symmetry_Int_Tables_number   1
_chemical_formula_structural   Sm8Dy7Er5Sn16
_chemical_formula_sum   'Sm8 Dy7 Er5 Sn16'
_cell_volume   1035.53642719
_cell_formula_units_Z   1
loop_
 _symmetry_equiv_pos_site_id
 _symmetry_equiv_pos_as_xyz
  1  'x, y, z'
loop_
 _atom_site_type_symbol
 _atom_site_label
 _atom_site_symmetry_multiplicity
 _atom_site_fract_x
 _atom_site_fract_y
 _atom_site_fract_z
 _atom_site_occupancy
  Sm  Sm0  1  0.515670  0.320981  0.903081  1
  Sm  Sm1  1  0.015529  0.179125  0.596951  1
  Sm  Sm2  1  0.484594  0.679280  0.403245  1
  Sm  Sm3  1  0.984458  0.820650  0.096573  1
  Sm  Sm4  1  0.484231  0.679310  0.096768  1
  Sm  Sm5  1  0.984561  0.820721  0.403325  1
  Sm  Sm6  1  0.515598  0.320835  0.596909  1
  Sm  Sm7  1  0.015714  0.179217  0.903121  1
  Dy  Dy8  1  0.362616  0.836507  0.877309  1
  Dy  Dy9  1  0.862316  0.663762  0.623002  1
  Dy  Dy10  1  0.637668  0.163936  0.377236  1
  Dy  Dy11  1  0.137452  0.336205  0.122610  1
  Dy  Dy12  1  0.637605  0.163762  0.122313  1
  Dy  Dy13  1  0.137679  0.336053  0.377233  1
  Dy  Dy14  1  0.362126  0.836191  0.623042  1
  Er  Er15  1  0.862166  0.663383  0.876935  1
  Er  Er16  1  0.194768  0.502671  0.750113  1
  Er  Er17  1  0.695097  0.997226  0.750233  1
  Er  Er18  1  0.805074  0.497530  0.249849  1
  Er  Er19  1  0.305123  0.002548  0.249988  1
  Sn  Sn20  1  0.299354  0.039229  0.041974  1
  Sn  Sn21  1  0.799621  0.460939  0.457834  1
  Sn  Sn22  1  0.700376  0.960779  0.542309  1
  Sn  Sn23  1  0.199057  0.539481  0.957809  1
  Sn  Sn24  1  0.701315  0.959561  0.957831  1
  Sn  Sn25  1  0.200522  0.538958  0.542276  1
  Sn  Sn26  1  0.299540  0.039114  0.457890  1
  Sn  Sn27  1  0.799664  0.461763  0.041297  1
  Sn  Sn28  1  0.560301  0.620918  0.750538  1
  Sn  Sn29  1  0.059419  0.878678  0.750404  1
  Sn  Sn30  1  0.440050  0.379601  0.249738  1
  Sn  Sn31  1  0.939966  0.120133  0.249935  1
  Sn  Sn32  1  0.324742  0.146235  0.750096  1
  Sn  Sn33  1  0.824767  0.354429  0.750371  1
  Sn  Sn34  1  0.675669  0.854325  0.249947  1
  Sn  Sn35  1  0.175591  0.645965  0.249915  1
