# generated using pymatgen
data_Pr10Sn6S
_symmetry_space_group_name_H-M   'P 1'
_cell_length_a   9.46069900
_cell_length_b   9.46070077
_cell_length_c   6.86134000
_cell_angle_alpha   90.00000000
_cell_angle_beta   90.00000000
_cell_angle_gamma   119.99999033
_symmetry_Int_Tables_number   1
_chemical_formula_structural   Pr10Sn6S
_chemical_formula_sum   'Pr10 Sn6 S1'
_cell_volume   531.84630472
_cell_formula_units_Z   1
loop_
 _symmetry_equiv_pos_site_id
 _symmetry_equiv_pos_as_xyz
  1  'x, y, z'
loop_
 _atom_site_type_symbol
 _atom_site_label
 _atom_site_symmetry_multiplicity
 _atom_site_fract_x
 _atom_site_fract_y
 _atom_site_fract_z
 _atom_site_occupancy
  Pr  Pr0  1  0.666667  0.333333  0.500000  1
  Pr  Pr1  1  0.333333  0.666667  0.500000  1
  Pr  Pr2  1  0.333333  0.666667  0.000000  1
  Pr  Pr3  1  0.666667  0.333333  0.000000  1
  Pr  Pr4  1  0.755173  0.755173  0.247650  1
  Pr  Pr5  1  0.244827  0.000000  0.247650  1
  Pr  Pr6  1  0.000000  0.244827  0.247650  1
  Pr  Pr7  1  0.244827  0.244827  0.752350  1
  Pr  Pr8  1  0.755173  0.000000  0.752350  1
  Pr  Pr9  1  0.000000  0.755173  0.752350  1
  Sn  Sn10  1  0.393906  0.393906  0.249226  1
  Sn  Sn11  1  0.606094  0.000000  0.249226  1
  Sn  Sn12  1  0.000000  0.606094  0.249226  1
  Sn  Sn13  1  0.606094  0.606094  0.750774  1
  Sn  Sn14  1  0.393906  0.000000  0.750774  1
  Sn  Sn15  1  0.000000  0.393906  0.750774  1
  S  S16  1  0.000000  0.000000  0.500000  1
