# generated using pymatgen
data_Er19Tm(Ir2Os)4
_symmetry_space_group_name_H-M   'P 1'
_cell_length_a   10.75906600
_cell_length_b   10.75906600
_cell_length_c   6.36282600
_cell_angle_alpha   90.00000000
_cell_angle_beta   90.00000000
_cell_angle_gamma   90.00000000
_symmetry_Int_Tables_number   1
_chemical_formula_structural   Er19Tm(Ir2Os)4
_chemical_formula_sum   'Er19 Tm1 Ir8 Os4'
_cell_volume   736.54483828
_cell_formula_units_Z   1
loop_
 _symmetry_equiv_pos_site_id
 _symmetry_equiv_pos_as_xyz
  1  'x, y, z'
loop_
 _atom_site_type_symbol
 _atom_site_label
 _atom_site_symmetry_multiplicity
 _atom_site_fract_x
 _atom_site_fract_y
 _atom_site_fract_z
 _atom_site_occupancy
  Er  Er0  1  0.293537  0.086284  0.376390  1
  Er  Er1  1  0.293532  0.913728  0.876396  1
  Er  Er2  1  0.706468  0.086272  0.876396  1
  Er  Er3  1  0.706463  0.913716  0.376390  1
  Er  Er4  1  0.586276  0.793497  0.876352  1
  Er  Er5  1  0.586260  0.206580  0.376403  1
  Er  Er6  1  0.413740  0.793420  0.376403  1
  Er  Er7  1  0.413724  0.206503  0.876352  1
  Er  Er8  1  0.206580  0.413740  0.623597  1
  Er  Er9  1  0.206503  0.586276  0.123648  1
  Er  Er10  1  0.793497  0.413724  0.123648  1
  Er  Er11  1  0.793420  0.586260  0.623597  1
  Er  Er12  1  0.913728  0.706468  0.123604  1
  Er  Er13  1  0.913716  0.293537  0.623610  1
  Er  Er14  1  0.086284  0.706463  0.623610  1
  Er  Er15  1  0.086272  0.293532  0.123604  1
  Er  Er16  1  0.000000  0.000000  0.500000  1
  Er  Er17  1  0.000000  0.000000  0.000000  1
  Er  Er18  1  0.500000  0.500000  0.000000  1
  Tm  Tm19  1  0.500000  0.500000  0.500000  1
  Ir  Ir20  1  0.847454  0.152537  0.250015  1
  Ir  Ir21  1  0.847463  0.847454  0.749985  1
  Ir  Ir22  1  0.152537  0.152546  0.749985  1
  Ir  Ir23  1  0.152546  0.847463  0.250015  1
  Ir  Ir24  1  0.652402  0.347595  0.749754  1
  Ir  Ir25  1  0.652405  0.652402  0.250246  1
  Ir  Ir26  1  0.347595  0.347598  0.250246  1
  Ir  Ir27  1  0.347598  0.652405  0.749754  1
  Os  Os28  1  0.500000  0.000000  0.122651  1
  Os  Os29  1  0.500000  0.000000  0.622657  1
  Os  Os30  1  0.000000  0.500000  0.877349  1
  Os  Os31  1  0.000000  0.500000  0.377343  1
