# generated using pymatgen
data_RbV2Tc4Te7
_symmetry_space_group_name_H-M   'P 1'
_cell_length_a   10.22885399
_cell_length_b   10.25213445
_cell_length_c   10.25890397
_cell_angle_alpha   60.69257558
_cell_angle_beta   60.70236133
_cell_angle_gamma   60.90543541
_symmetry_Int_Tables_number   1
_chemical_formula_structural   RbV2Tc4Te7
_chemical_formula_sum   'Rb2 V4 Tc8 Te14'
_cell_volume   773.87726143
_cell_formula_units_Z   2
loop_
 _symmetry_equiv_pos_site_id
 _symmetry_equiv_pos_as_xyz
  1  'x, y, z'
loop_
 _atom_site_type_symbol
 _atom_site_label
 _atom_site_symmetry_multiplicity
 _atom_site_fract_x
 _atom_site_fract_y
 _atom_site_fract_z
 _atom_site_occupancy
  Rb  Rb0  1  0.628670  0.620474  0.627880  1
  Rb  Rb1  1  0.375620  0.377492  0.376365  1
  V  V2  1  0.817996  0.098297  0.946276  1
  V  V3  1  0.051098  0.185963  0.903158  1
  V  V4  1  0.901054  0.055726  0.182827  1
  V  V5  1  0.185857  0.899936  0.053493  1
  Tc  Tc6  1  0.711752  0.878579  0.009027  1
  Tc  Tc7  1  0.005858  0.714194  0.877326  1
  Tc  Tc8  1  0.876835  0.010059  0.711951  1
  Tc  Tc9  1  0.285192  0.124099  0.989820  1
  Tc  Tc10  1  0.989199  0.289913  0.120579  1
  Tc  Tc11  1  0.118599  0.994042  0.286269  1
  Tc  Tc12  1  0.948571  0.810169  0.109643  1
  Tc  Tc13  1  0.110183  0.947126  0.810329  1
  Te  Te14  1  0.422103  0.813777  0.160367  1
  Te  Te15  1  0.156802  0.426943  0.808751  1
  Te  Te16  1  0.808478  0.161218  0.424148  1
  Te  Te17  1  0.576445  0.189684  0.841393  1
  Te  Te18  1  0.836338  0.577597  0.189879  1
  Te  Te19  1  0.187537  0.839716  0.575186  1
  Te  Te20  1  0.641476  0.967498  0.251864  1
  Te  Te21  1  0.248391  0.637477  0.972462  1
  Te  Te22  1  0.981503  0.245822  0.635880  1
  Te  Te23  1  0.365723  0.023096  0.746733  1
  Te  Te24  1  0.745680  0.361213  0.026900  1
  Te  Te25  1  0.027403  0.744136  0.363136  1
  Te  Te26  1  0.774661  0.781998  0.778930  1
  Te  Te27  1  0.220975  0.223757  0.219424  1
