# generated using pymatgen
data_Ce3MnCrC6
_symmetry_space_group_name_H-M   'P 1'
_cell_length_a   8.21450900
_cell_length_b   8.21450834
_cell_length_c   5.08156500
_cell_angle_alpha   90.00000000
_cell_angle_beta   90.00000000
_cell_angle_gamma   119.99999863
_symmetry_Int_Tables_number   1
_chemical_formula_structural   Ce3MnCrC6
_chemical_formula_sum   'Ce6 Mn2 Cr2 C12'
_cell_volume   296.95545494
_cell_formula_units_Z   2
loop_
 _symmetry_equiv_pos_site_id
 _symmetry_equiv_pos_as_xyz
  1  'x, y, z'
loop_
 _atom_site_type_symbol
 _atom_site_label
 _atom_site_symmetry_multiplicity
 _atom_site_fract_x
 _atom_site_fract_y
 _atom_site_fract_z
 _atom_site_occupancy
  Ce  Ce0  1  0.623674  0.689550  0.750000  1
  Ce  Ce1  1  0.934125  0.623674  0.250000  1
  Ce  Ce2  1  0.689550  0.065875  0.250000  1
  Ce  Ce3  1  0.310450  0.934125  0.750000  1
  Ce  Ce4  1  0.065875  0.376326  0.750000  1
  Ce  Ce5  1  0.376326  0.310450  0.250000  1
  Mn  Mn6  1  0.666667  0.333333  0.750000  1
  Mn  Mn7  1  0.333333  0.666667  0.250000  1
  Cr  Cr8  1  0.000000  0.000000  0.500000  1
  Cr  Cr9  1  0.000000  0.000000  0.000000  1
  C  C10  1  0.959214  0.771021  0.750000  1
  C  C11  1  0.188193  0.959214  0.250000  1
  C  C12  1  0.771021  0.811807  0.250000  1
  C  C13  1  0.228979  0.188193  0.750000  1
  C  C14  1  0.811807  0.040786  0.750000  1
  C  C15  1  0.040786  0.228979  0.250000  1
  C  C16  1  0.862152  0.576131  0.750000  1
  C  C17  1  0.286020  0.862152  0.250000  1
  C  C18  1  0.576131  0.713980  0.250000  1
  C  C19  1  0.423869  0.286020  0.750000  1
  C  C20  1  0.137848  0.423869  0.250000  1
  C  C21  1  0.713980  0.137848  0.750000  1
