# generated using pymatgen
data_Tb4Cd2IrAu3
_symmetry_space_group_name_H-M   'P 1'
_cell_length_a   3.78373300
_cell_length_b   7.89027841
_cell_length_c   7.89027826
_cell_angle_alpha   90.02698403
_cell_angle_beta   90.00000000
_cell_angle_gamma   90.00000000
_symmetry_Int_Tables_number   1
_chemical_formula_structural   Tb4Cd2IrAu3
_chemical_formula_sum   'Tb4 Cd2 Ir1 Au3'
_cell_volume   235.56191786
_cell_formula_units_Z   1
loop_
 _symmetry_equiv_pos_site_id
 _symmetry_equiv_pos_as_xyz
  1  'x, y, z'
loop_
 _atom_site_type_symbol
 _atom_site_label
 _atom_site_symmetry_multiplicity
 _atom_site_fract_x
 _atom_site_fract_y
 _atom_site_fract_z
 _atom_site_occupancy
  Tb  Tb0  1  0.500000  0.167577  0.667577  1
  Tb  Tb1  1  0.500000  0.813887  0.313887  1
  Tb  Tb2  1  0.500000  0.351563  0.177977  1
  Tb  Tb3  1  0.500000  0.677977  0.851563  1
  Cd  Cd4  1  0.000000  0.999622  0.002159  1
  Cd  Cd5  1  0.000000  0.502159  0.499622  1
  Ir  Ir6  1  0.000000  0.625990  0.125990  1
  Au  Au7  1  0.000000  0.368740  0.868740  1
  Au  Au8  1  0.000000  0.866369  0.626116  1
  Au  Au9  1  0.000000  0.126116  0.366369  1
