# generated using pymatgen
data_TbPa3(GaNi2)2
_symmetry_space_group_name_H-M   'P 1'
_cell_length_a   7.22814176
_cell_length_b   7.22814103
_cell_length_c   3.55521000
_cell_angle_alpha   90.00000000
_cell_angle_beta   90.00000000
_cell_angle_gamma   91.65122861
_symmetry_Int_Tables_number   1
_chemical_formula_structural   TbPa3(GaNi2)2
_chemical_formula_sum   'Tb1 Pa3 Ga2 Ni4'
_cell_volume   185.66847053
_cell_formula_units_Z   1
loop_
 _symmetry_equiv_pos_site_id
 _symmetry_equiv_pos_as_xyz
  1  'x, y, z'
loop_
 _atom_site_type_symbol
 _atom_site_label
 _atom_site_symmetry_multiplicity
 _atom_site_fract_x
 _atom_site_fract_y
 _atom_site_fract_z
 _atom_site_occupancy
  Tb  Tb0  1  0.819931  0.680069  0.500000  1
  Pa  Pa1  1  0.679244  0.178552  0.500000  1
  Pa  Pa2  1  0.321448  0.820756  0.500000  1
  Pa  Pa3  1  0.177238  0.322762  0.500000  1
  Ga  Ga4  1  0.501225  0.501972  0.000000  1
  Ga  Ga5  1  0.998028  0.998775  0.000000  1
  Ni  Ni6  1  0.884321  0.357326  0.000000  1
  Ni  Ni7  1  0.142674  0.615679  0.000000  1
  Ni  Ni8  1  0.366857  0.133143  0.000000  1
  Ni  Ni9  1  0.609034  0.890966  0.000000  1
