# generated using pymatgen
data_PrNd3Mn4(RhO5)4
_symmetry_space_group_name_H-M   'P 1'
_cell_length_a   6.02863500
_cell_length_b   7.53499517
_cell_length_c   8.84282420
_cell_angle_alpha   90.02461622
_cell_angle_beta   90.00000000
_cell_angle_gamma   90.00000000
_symmetry_Int_Tables_number   1
_chemical_formula_structural   PrNd3Mn4(RhO5)4
_chemical_formula_sum   'Pr1 Nd3 Mn4 Rh4 O20'
_cell_volume   401.69175744
_cell_formula_units_Z   1
loop_
 _symmetry_equiv_pos_site_id
 _symmetry_equiv_pos_as_xyz
  1  'x, y, z'
loop_
 _atom_site_type_symbol
 _atom_site_label
 _atom_site_symmetry_multiplicity
 _atom_site_fract_x
 _atom_site_fract_y
 _atom_site_fract_z
 _atom_site_occupancy
  Pr  Pr0  1  0.000000  0.137473  0.171940  1
  Nd  Nd1  1  0.000000  0.362273  0.672004  1
  Nd  Nd2  1  0.000000  0.637884  0.328094  1
  Nd  Nd3  1  0.000000  0.861822  0.827556  1
  Mn  Mn4  1  0.500000  0.087781  0.851787  1
  Mn  Mn5  1  0.500000  0.911371  0.147740  1
  Mn  Mn6  1  0.500000  0.587979  0.647794  1
  Mn  Mn7  1  0.500000  0.412536  0.352471  1
  Rh  Rh8  1  0.254215  0.500369  0.999820  1
  Rh  Rh9  1  0.745808  0.999946  0.500278  1
  Rh  Rh10  1  0.745785  0.500369  0.999820  1
  Rh  Rh11  1  0.254192  0.999946  0.500278  1
  O  O12  1  0.245202  0.897314  0.286264  1
  O  O13  1  0.244220  0.101593  0.714140  1
  O  O14  1  0.755000  0.399827  0.214221  1
  O  O15  1  0.755691  0.601657  0.785867  1
  O  O16  1  0.755780  0.101593  0.714140  1
  O  O17  1  0.754798  0.897314  0.286264  1
  O  O18  1  0.244309  0.601657  0.785867  1
  O  O19  1  0.245000  0.399827  0.214221  1
  O  O20  1  0.500000  0.347471  0.934208  1
  O  O21  1  0.500000  0.652573  0.065689  1
  O  O22  1  0.500000  0.847315  0.565971  1
  O  O23  1  0.500000  0.152631  0.434083  1
  O  O24  1  0.281554  0.999185  0.999332  1
  O  O25  1  0.719333  0.499973  0.500154  1
  O  O26  1  0.718446  0.999185  0.999332  1
  O  O27  1  0.280667  0.499973  0.500154  1
  O  O28  1  0.000000  0.168191  0.446303  1
  O  O29  1  0.000000  0.831865  0.555130  1
  O  O30  1  0.000000  0.668291  0.055021  1
  O  O31  1  0.000000  0.332813  0.944057  1
