# generated using pymatgen
data_Ga(S8I)3
_symmetry_space_group_name_H-M   'P 1'
_cell_length_a   15.33114733
_cell_length_b   15.33114735
_cell_length_c   15.33114689
_cell_angle_alpha   118.80904198
_cell_angle_beta   118.80904209
_cell_angle_gamma   118.80903598
_symmetry_Int_Tables_number   1
_chemical_formula_structural   Ga(S8I)3
_chemical_formula_sum   'Ga1 S24 I3'
_cell_volume   1016.22897015
_cell_formula_units_Z   1
loop_
 _symmetry_equiv_pos_site_id
 _symmetry_equiv_pos_as_xyz
  1  'x, y, z'
loop_
 _atom_site_type_symbol
 _atom_site_label
 _atom_site_symmetry_multiplicity
 _atom_site_fract_x
 _atom_site_fract_y
 _atom_site_fract_z
 _atom_site_occupancy
  Ga  Ga0  1  0.934310  0.934310  0.934310  1
  S  S1  1  0.803620  0.519107  0.519107  1
  S  S2  1  0.519107  0.519107  0.803620  1
  S  S3  1  0.519107  0.803620  0.519107  1
  S  S4  1  0.241900  0.369519  0.632245  1
  S  S5  1  0.359354  0.955588  0.359354  1
  S  S6  1  0.359354  0.359354  0.955588  1
  S  S7  1  0.955588  0.359354  0.359354  1
  S  S8  1  0.129624  0.740142  0.257291  1
  S  S9  1  0.257291  0.129624  0.740142  1
  S  S10  1  0.740142  0.257291  0.129624  1
  S  S11  1  0.740142  0.129624  0.257291  1
  S  S12  1  0.257291  0.740142  0.129624  1
  S  S13  1  0.129624  0.257291  0.740142  1
  S  S14  1  0.349982  0.880685  0.530501  1
  S  S15  1  0.530501  0.349982  0.880685  1
  S  S16  1  0.880685  0.530501  0.349982  1
  S  S17  1  0.880685  0.349982  0.530501  1
  S  S18  1  0.530501  0.880685  0.349982  1
  S  S19  1  0.349982  0.530501  0.880685  1
  S  S20  1  0.241900  0.632245  0.369519  1
  S  S21  1  0.369519  0.241900  0.632245  1
  S  S22  1  0.632245  0.369519  0.241900  1
  S  S23  1  0.632245  0.241900  0.369519  1
  S  S24  1  0.369519  0.632245  0.241900  1
  I  I25  1  0.827892  0.991592  0.991592  1
  I  I26  1  0.991592  0.991592  0.827892  1
  I  I27  1  0.991592  0.827892  0.991592  1
