# generated using pymatgen
data_Ho3Tm5B24Ir3Ru
_symmetry_space_group_name_H-M   'P 1'
_cell_length_a   3.61938900
_cell_length_b   9.13093731
_cell_length_c   11.45981202
_cell_angle_alpha   90.01109664
_cell_angle_beta   90.00000000
_cell_angle_gamma   90.00000000
_symmetry_Int_Tables_number   1
_chemical_formula_structural   Ho3Tm5B24Ir3Ru
_chemical_formula_sum   'Ho3 Tm5 B24 Ir3 Ru1'
_cell_volume   378.72860558
_cell_formula_units_Z   1
loop_
 _symmetry_equiv_pos_site_id
 _symmetry_equiv_pos_as_xyz
  1  'x, y, z'
loop_
 _atom_site_type_symbol
 _atom_site_label
 _atom_site_symmetry_multiplicity
 _atom_site_fract_x
 _atom_site_fract_y
 _atom_site_fract_z
 _atom_site_occupancy
  Ho  Ho0  1  0.000000  0.320287  0.413366  1
  Ho  Ho1  1  0.000000  0.680793  0.588057  1
  Ho  Ho2  1  0.000000  0.820548  0.084900  1
  Tm  Tm3  1  0.000000  0.177869  0.913011  1
  Tm  Tm4  1  0.000000  0.944060  0.373907  1
  Tm  Tm5  1  0.000000  0.054360  0.627174  1
  Tm  Tm6  1  0.000000  0.443882  0.125577  1
  Tm  Tm7  1  0.000000  0.557541  0.874232  1
  B  B8  1  0.500000  0.554062  0.434726  1
  B  B9  1  0.500000  0.446116  0.565710  1
  B  B10  1  0.500000  0.053844  0.065185  1
  B  B11  1  0.500000  0.946242  0.933565  1
  B  B12  1  0.500000  0.750370  0.421005  1
  B  B13  1  0.500000  0.249704  0.579348  1
  B  B14  1  0.500000  0.249692  0.078558  1
  B  B15  1  0.500000  0.751354  0.919883  1
  B  B16  1  0.500000  0.793276  0.264914  1
  B  B17  1  0.500000  0.206654  0.734913  1
  B  B18  1  0.500000  0.293603  0.234920  1
  B  B19  1  0.500000  0.707808  0.765839  1
  B  B20  1  0.500000  0.631440  0.183605  1
  B  B21  1  0.500000  0.368145  0.816485  1
  B  B22  1  0.500000  0.132073  0.316123  1
  B  B23  1  0.500000  0.868693  0.685056  1
  B  B24  1  0.500000  0.981601  0.213463  1
  B  B25  1  0.500000  0.017491  0.786564  1
  B  B26  1  0.500000  0.481616  0.285930  1
  B  B27  1  0.500000  0.518203  0.714493  1
  B  B28  1  0.500000  0.608514  0.029945  1
  B  B29  1  0.500000  0.390289  0.970101  1
  B  B30  1  0.500000  0.108313  0.470286  1
  B  B31  1  0.500000  0.891882  0.529455  1
  Ir  Ir32  1  0.000000  0.638485  0.321125  1
  Ir  Ir33  1  0.000000  0.361417  0.679390  1
  Ir  Ir34  1  0.000000  0.137383  0.177856  1
  Ru  Ru35  1  0.000000  0.862388  0.821335  1
