# generated using pymatgen
data_Pr8Lu12Si15Rh
_symmetry_space_group_name_H-M   'P 1'
_cell_length_a   7.44517195
_cell_length_b   7.70146279
_cell_length_c   14.61473019
_cell_angle_alpha   89.90638027
_cell_angle_beta   89.92352994
_cell_angle_gamma   90.39611470
_symmetry_Int_Tables_number   1
_chemical_formula_structural   Pr8Lu12Si15Rh
_chemical_formula_sum   'Pr8 Lu12 Si15 Rh1'
_cell_volume   837.96794149
_cell_formula_units_Z   1
loop_
 _symmetry_equiv_pos_site_id
 _symmetry_equiv_pos_as_xyz
  1  'x, y, z'
loop_
 _atom_site_type_symbol
 _atom_site_label
 _atom_site_symmetry_multiplicity
 _atom_site_fract_x
 _atom_site_fract_y
 _atom_site_fract_z
 _atom_site_occupancy
  Pr  Pr0  1  0.017646  0.181256  0.403084  1
  Pr  Pr1  1  0.517481  0.322475  0.399630  1
  Pr  Pr2  1  0.480319  0.675526  0.901843  1
  Pr  Pr3  1  0.479482  0.670971  0.598972  1
  Pr  Pr4  1  0.982749  0.821958  0.596779  1
  Pr  Pr5  1  0.981160  0.823591  0.901988  1
  Pr  Pr6  1  0.517305  0.325509  0.097260  1
  Pr  Pr7  1  0.018373  0.175519  0.098754  1
  Lu  Lu8  1  0.324610  0.187697  0.619124  1
  Lu  Lu9  1  0.673956  0.823304  0.375008  1
  Lu  Lu10  1  0.657749  0.993847  0.748452  1
  Lu  Lu11  1  0.174976  0.664139  0.380089  1
  Lu  Lu12  1  0.827306  0.320030  0.877306  1
  Lu  Lu13  1  0.829753  0.327238  0.621529  1
  Lu  Lu14  1  0.843340  0.494282  0.251952  1
  Lu  Lu15  1  0.343583  0.001949  0.250177  1
  Lu  Lu16  1  0.323789  0.178985  0.876995  1
  Lu  Lu17  1  0.174990  0.678076  0.123736  1
  Lu  Lu18  1  0.678392  0.824599  0.124958  1
  Lu  Lu19  1  0.158553  0.505509  0.743723  1
  Si  Si20  1  0.278985  0.884543  0.750232  1
  Si  Si21  1  0.469373  0.617150  0.248444  1
  Si  Si22  1  0.031563  0.116460  0.750672  1
  Si  Si23  1  0.536235  0.381846  0.752869  1
  Si  Si24  1  0.974759  0.878896  0.252348  1
  Si  Si25  1  0.719541  0.123214  0.248947  1
  Si  Si26  1  0.850468  0.534142  0.039325  1
  Si  Si27  1  0.352323  0.966614  0.039403  1
  Si  Si28  1  0.148120  0.466965  0.961550  1
  Si  Si29  1  0.648492  0.033451  0.538408  1
  Si  Si30  1  0.352949  0.964797  0.460241  1
  Si  Si31  1  0.842652  0.535764  0.458786  1
  Si  Si32  1  0.776375  0.619723  0.752781  1
  Si  Si33  1  0.221830  0.376238  0.248590  1
  Si  Si34  1  0.648826  0.032196  0.961144  1
  Rh  Rh35  1  0.141997  0.471541  0.544904  1
