# generated using pymatgen
data_DyHo8Al(SiB4)4
_symmetry_space_group_name_H-M   'P 1'
_cell_length_a   7.14696001
_cell_length_b   7.14710401
_cell_length_c   7.94072300
_cell_angle_alpha   89.99779774
_cell_angle_beta   90.00046345
_cell_angle_gamma   90.00679819
_symmetry_Int_Tables_number   1
_chemical_formula_structural   DyHo8Al(SiB4)4
_chemical_formula_sum   'Dy1 Ho8 Al1 Si4 B16'
_cell_volume   405.61265655
_cell_formula_units_Z   1
loop_
 _symmetry_equiv_pos_site_id
 _symmetry_equiv_pos_as_xyz
  1  'x, y, z'
loop_
 _atom_site_type_symbol
 _atom_site_label
 _atom_site_symmetry_multiplicity
 _atom_site_fract_x
 _atom_site_fract_y
 _atom_site_fract_z
 _atom_site_occupancy
  Dy  Dy0  1  0.682332  0.179330  0.227740  1
  Ho  Ho1  1  0.317664  0.820661  0.772580  1
  Ho  Ho2  1  0.317648  0.820653  0.227413  1
  Ho  Ho3  1  0.820681  0.682324  0.227418  1
  Ho  Ho4  1  0.820663  0.682334  0.772593  1
  Ho  Ho5  1  0.682324  0.179333  0.772552  1
  Ho  Ho6  1  0.179341  0.317673  0.772598  1
  Ho  Ho7  1  0.179328  0.317684  0.227414  1
  Ho  Ho8  1  0.499982  0.500042  0.500036  1
  Al  Al9  1  0.000028  0.999986  0.500017  1
  Si  Si10  1  0.113923  0.620849  0.500017  1
  Si  Si11  1  0.886166  0.379247  0.500087  1
  Si  Si12  1  0.379079  0.113880  0.500058  1
  Si  Si13  1  0.620817  0.886000  0.500077  1
  B  B14  1  0.174698  0.039716  0.999982  1
  B  B15  1  0.825377  0.960214  0.999921  1
  B  B16  1  0.960357  0.174652  0.999942  1
  B  B17  1  0.327176  0.539538  0.999986  1
  B  B18  1  0.039744  0.825311  0.999986  1
  B  B19  1  0.672787  0.460550  0.999952  1
  B  B20  1  0.539512  0.672830  0.999982  1
  B  B21  1  0.460415  0.327247  0.999930  1
  B  B22  1  0.089837  0.588432  0.999992  1
  B  B23  1  0.910182  0.411583  0.999990  1
  B  B24  1  0.411489  0.089804  0.999939  1
  B  B25  1  0.588404  0.910080  0.999927  1
  B  B26  1  0.000108  0.999944  0.161899  1
  B  B27  1  0.000008  0.999991  0.838033  1
  B  B28  1  0.499990  0.500003  0.835282  1
  B  B29  1  0.499938  0.500111  0.164656  1
