# generated using pymatgen
data_Hf4Al2ReMo5
_symmetry_space_group_name_H-M   'P 1'
_cell_length_a   5.27006100
_cell_length_b   5.25456937
_cell_length_c   8.86890200
_cell_angle_alpha   90.00000000
_cell_angle_beta   90.00000000
_cell_angle_gamma   120.09756809
_symmetry_Int_Tables_number   1
_chemical_formula_structural   Hf4Al2ReMo5
_chemical_formula_sum   'Hf4 Al2 Re1 Mo5'
_cell_volume   212.48361091
_cell_formula_units_Z   1
loop_
 _symmetry_equiv_pos_site_id
 _symmetry_equiv_pos_as_xyz
  1  'x, y, z'
loop_
 _atom_site_type_symbol
 _atom_site_label
 _atom_site_symmetry_multiplicity
 _atom_site_fract_x
 _atom_site_fract_y
 _atom_site_fract_z
 _atom_site_occupancy
  Hf  Hf0  1  0.333070  0.666142  0.438247  1
  Hf  Hf1  1  0.666405  0.332810  0.932529  1
  Hf  Hf2  1  0.666405  0.332810  0.567471  1
  Hf  Hf3  1  0.333070  0.666142  0.061753  1
  Al  Al4  1  0.000863  0.001726  0.999073  1
  Al  Al5  1  0.000863  0.001726  0.500927  1
  Re  Re6  1  0.169478  0.338956  0.750000  1
  Mo  Mo7  1  0.830105  0.170762  0.250000  1
  Mo  Mo8  1  0.340659  0.170762  0.250000  1
  Mo  Mo9  1  0.659532  0.829388  0.750000  1
  Mo  Mo10  1  0.829694  0.659388  0.250000  1
  Mo  Mo11  1  0.169855  0.829388  0.750000  1
