# generated using pymatgen
data_AsPtBr
_symmetry_space_group_name_H-M   'P 1'
_cell_length_a   7.89861300
_cell_length_b   7.89861300
_cell_length_c   5.08121300
_cell_angle_alpha   90.00000000
_cell_angle_beta   90.00000000
_cell_angle_gamma   90.00000000
_symmetry_Int_Tables_number   1
_chemical_formula_structural   AsPtBr
_chemical_formula_sum   'As4 Pt4 Br4'
_cell_volume   317.00716035
_cell_formula_units_Z   4
loop_
 _symmetry_equiv_pos_site_id
 _symmetry_equiv_pos_as_xyz
  1  'x, y, z'
loop_
 _atom_site_type_symbol
 _atom_site_label
 _atom_site_symmetry_multiplicity
 _atom_site_fract_x
 _atom_site_fract_y
 _atom_site_fract_z
 _atom_site_occupancy
  As  As0  1  0.000000  0.188910  0.000000  1
  As  As1  1  0.000000  0.811091  0.000000  1
  As  As2  1  0.188910  0.000000  0.500001  1
  As  As3  1  0.811091  0.000000  0.500001  1
  Pt  Pt4  1  0.250339  0.000000  0.000000  1
  Pt  Pt5  1  0.749661  0.000000  0.000000  1
  Pt  Pt6  1  0.000000  0.250339  0.500001  1
  Pt  Pt7  1  0.000000  0.749661  0.500001  1
  Br  Br8  1  0.500000  0.220953  0.000000  1
  Br  Br9  1  0.500000  0.779048  0.000000  1
  Br  Br10  1  0.220953  0.500000  0.500001  1
  Br  Br11  1  0.779048  0.500000  0.500001  1
