# generated using pymatgen
data_K8AlVSe8
_symmetry_space_group_name_H-M   'P 1'
_cell_length_a   8.43616775
_cell_length_b   10.00658700
_cell_length_c   14.88271159
_cell_angle_alpha   90.00000000
_cell_angle_beta   91.59171569
_cell_angle_gamma   90.00000000
_symmetry_Int_Tables_number   1
_chemical_formula_structural   K8AlVSe8
_chemical_formula_sum   'K16 Al2 V2 Se16'
_cell_volume   1255.87275735
_cell_formula_units_Z   2
loop_
 _symmetry_equiv_pos_site_id
 _symmetry_equiv_pos_as_xyz
  1  'x, y, z'
loop_
 _atom_site_type_symbol
 _atom_site_label
 _atom_site_symmetry_multiplicity
 _atom_site_fract_x
 _atom_site_fract_y
 _atom_site_fract_z
 _atom_site_occupancy
  K  K0  1  0.000000  0.000000  0.000000  1
  K  K1  1  0.500000  0.000000  0.500000  1
  K  K2  1  0.000000  0.500000  0.000000  1
  K  K3  1  0.500000  0.500000  0.500000  1
  K  K4  1  0.991609  0.750000  0.440918  1
  K  K5  1  0.477726  0.250000  0.086396  1
  K  K6  1  0.008391  0.250000  0.559082  1
  K  K7  1  0.522274  0.750000  0.913604  1
  K  K8  1  0.847203  0.060483  0.280355  1
  K  K9  1  0.340313  0.960733  0.229389  1
  K  K10  1  0.152797  0.560483  0.719645  1
  K  K11  1  0.659687  0.460733  0.770611  1
  K  K12  1  0.152797  0.939517  0.719645  1
  K  K13  1  0.659687  0.039267  0.770611  1
  K  K14  1  0.847203  0.439517  0.280355  1
  K  K15  1  0.340313  0.539267  0.229389  1
  Al  Al16  1  0.759096  0.750000  0.669160  1
  Al  Al17  1  0.240904  0.250000  0.330840  1
  V  V18  1  0.738696  0.750000  0.164050  1
  V  V19  1  0.261304  0.250000  0.835950  1
  Se  Se20  1  0.988238  0.250000  0.828303  1
  Se  Se21  1  0.529940  0.250000  0.316204  1
  Se  Se22  1  0.470060  0.750000  0.683796  1
  Se  Se23  1  0.011762  0.750000  0.171697  1
  Se  Se24  1  0.649448  0.561324  0.089969  1
  Se  Se25  1  0.159979  0.449370  0.407715  1
  Se  Se26  1  0.350552  0.061324  0.910031  1
  Se  Se27  1  0.840021  0.949370  0.592285  1
  Se  Se28  1  0.350552  0.438676  0.910031  1
  Se  Se29  1  0.840021  0.550630  0.592285  1
  Se  Se30  1  0.649448  0.938676  0.089969  1
  Se  Se31  1  0.159979  0.050630  0.407715  1
  Se  Se32  1  0.639913  0.750000  0.306774  1
  Se  Se33  1  0.121161  0.250000  0.175569  1
  Se  Se34  1  0.360087  0.250000  0.693226  1
  Se  Se35  1  0.878839  0.750000  0.824431  1
