# generated using pymatgen
data_TbY2Mg(AlPt)4
_symmetry_space_group_name_H-M   'P 1'
_cell_length_a   4.35403200
_cell_length_b   6.88596413
_cell_length_c   7.71856506
_cell_angle_alpha   92.89416675
_cell_angle_beta   90.00000000
_cell_angle_gamma   90.00000000
_symmetry_Int_Tables_number   1
_chemical_formula_structural   TbY2Mg(AlPt)4
_chemical_formula_sum   'Tb1 Y2 Mg1 Al4 Pt4'
_cell_volume   231.12059514
_cell_formula_units_Z   1
loop_
 _symmetry_equiv_pos_site_id
 _symmetry_equiv_pos_as_xyz
  1  'x, y, z'
loop_
 _atom_site_type_symbol
 _atom_site_label
 _atom_site_symmetry_multiplicity
 _atom_site_fract_x
 _atom_site_fract_y
 _atom_site_fract_z
 _atom_site_occupancy
  Tb  Tb0  1  0.750000  0.977077  0.330242  1
  Y  Y1  1  0.250000  0.525745  0.816083  1
  Y  Y2  1  0.750000  0.470468  0.180544  1
  Mg  Mg3  1  0.250000  0.025330  0.676928  1
  Al  Al4  1  0.250000  0.138915  0.054970  1
  Al  Al5  1  0.250000  0.652094  0.439240  1
  Al  Al6  1  0.750000  0.857631  0.935776  1
  Al  Al7  1  0.750000  0.355427  0.565046  1
  Pt  Pt8  1  0.250000  0.275966  0.386292  1
  Pt  Pt9  1  0.250000  0.776129  0.124245  1
  Pt  Pt10  1  0.750000  0.728956  0.619102  1
  Pt  Pt11  1  0.750000  0.216263  0.871532  1
