# generated using pymatgen
data_Hf5ZrGa6PdPt5
_symmetry_space_group_name_H-M   'P 1'
_cell_length_a   7.20183049
_cell_length_b   7.16316492
_cell_length_c   7.08134700
_cell_angle_alpha   90.00000000
_cell_angle_beta   90.00000000
_cell_angle_gamma   119.94802182
_symmetry_Int_Tables_number   1
_chemical_formula_structural   Hf5ZrGa6PdPt5
_chemical_formula_sum   'Hf5 Zr1 Ga6 Pd1 Pt5'
_cell_volume   316.53488768
_cell_formula_units_Z   1
loop_
 _symmetry_equiv_pos_site_id
 _symmetry_equiv_pos_as_xyz
  1  'x, y, z'
loop_
 _atom_site_type_symbol
 _atom_site_label
 _atom_site_symmetry_multiplicity
 _atom_site_fract_x
 _atom_site_fract_y
 _atom_site_fract_z
 _atom_site_occupancy
  Hf  Hf0  1  0.616893  0.592625  0.250000  1
  Hf  Hf1  1  0.407971  0.024879  0.250000  1
  Hf  Hf2  1  0.976345  0.384089  0.250000  1
  Hf  Hf3  1  0.389668  0.973883  0.750000  1
  Hf  Hf4  1  0.584165  0.609991  0.750000  1
  Zr  Zr5  1  0.026823  0.415175  0.750000  1
  Ga  Ga6  1  0.266904  0.267626  0.501622  1
  Ga  Ga7  1  0.732262  0.999167  0.501875  1
  Ga  Ga8  1  0.000668  0.732835  0.501433  1
  Ga  Ga9  1  0.732262  0.999167  0.998125  1
  Ga  Ga10  1  0.266904  0.267626  0.998378  1
  Ga  Ga11  1  0.000668  0.732835  0.998567  1
  Pd  Pd12  1  0.000201  0.998099  0.750000  1
  Pt  Pt13  1  0.334972  0.668223  0.461990  1
  Pt  Pt14  1  0.000264  0.999876  0.250000  1
  Pt  Pt15  1  0.334972  0.668223  0.038010  1
  Pt  Pt16  1  0.664028  0.332840  0.531571  1
  Pt  Pt17  1  0.664028  0.332840  0.968429  1
