# generated using pymatgen
data_Er4Hf2ZrO12
_symmetry_space_group_name_H-M   'P 1'
_cell_length_a   6.30669494
_cell_length_b   6.34573897
_cell_length_c   6.52431844
_cell_angle_alpha   99.84070776
_cell_angle_beta   98.54504786
_cell_angle_gamma   99.56518767
_symmetry_Int_Tables_number   1
_chemical_formula_structural   Er4Hf2ZrO12
_chemical_formula_sum   'Er4 Hf2 Zr1 O12'
_cell_volume   249.44432443
_cell_formula_units_Z   1
loop_
 _symmetry_equiv_pos_site_id
 _symmetry_equiv_pos_as_xyz
  1  'x, y, z'
loop_
 _atom_site_type_symbol
 _atom_site_label
 _atom_site_symmetry_multiplicity
 _atom_site_fract_x
 _atom_site_fract_y
 _atom_site_fract_z
 _atom_site_occupancy
  Er  Er0  1  0.386972  0.699211  0.865370  1
  Er  Er1  1  0.696544  0.865887  0.388996  1
  Er  Er2  1  0.612778  0.299398  0.133221  1
  Er  Er3  1  0.305914  0.135832  0.611173  1
  Hf  Hf4  1  0.998696  0.998849  0.998159  1
  Hf  Hf5  1  0.848767  0.396783  0.669270  1
  Zr  Zr6  1  0.150991  0.604142  0.327888  1
  O  O7  1  0.023798  0.677264  0.885327  1
  O  O8  1  0.685401  0.931378  0.057725  1
  O  O9  1  0.919208  0.085746  0.696229  1
  O  O10  1  0.974130  0.318064  0.116790  1
  O  O11  1  0.313511  0.067124  0.940940  1
  O  O12  1  0.079253  0.919031  0.305361  1
  O  O13  1  0.589305  0.188756  0.434015  1
  O  O14  1  0.170532  0.428962  0.577413  1
  O  O15  1  0.416838  0.582675  0.177710  1
  O  O16  1  0.414233  0.812969  0.566867  1
  O  O17  1  0.825979  0.571253  0.427745  1
  O  O18  1  0.587150  0.416676  0.819799  1
