# generated using pymatgen
data_HoSc2Al8(SiOs)4
_symmetry_space_group_name_H-M   'P 1'
_cell_length_a   8.61069301
_cell_length_b   8.61069225
_cell_length_c   9.35074800
_cell_angle_alpha   90.00000000
_cell_angle_beta   90.00000000
_cell_angle_gamma   120.08953734
_symmetry_Int_Tables_number   1
_chemical_formula_structural   HoSc2Al8(SiOs)4
_chemical_formula_sum   'Ho2 Sc4 Al16 Si8 Os8'
_cell_volume   599.87479426
_cell_formula_units_Z   2
loop_
 _symmetry_equiv_pos_site_id
 _symmetry_equiv_pos_as_xyz
  1  'x, y, z'
loop_
 _atom_site_type_symbol
 _atom_site_label
 _atom_site_symmetry_multiplicity
 _atom_site_fract_x
 _atom_site_fract_y
 _atom_site_fract_z
 _atom_site_occupancy
  Ho  Ho0  1  0.192908  0.807092  0.250000  1
  Ho  Ho1  1  0.807092  0.192908  0.750000  1
  Sc  Sc2  1  0.194533  0.392276  0.250000  1
  Sc  Sc3  1  0.805467  0.607724  0.750000  1
  Sc  Sc4  1  0.607724  0.805467  0.250000  1
  Sc  Sc5  1  0.392276  0.194533  0.750000  1
  Al  Al6  1  0.166731  0.329318  0.577782  1
  Al  Al7  1  0.833269  0.670682  0.422218  1
  Al  Al8  1  0.670682  0.833269  0.577782  1
  Al  Al9  1  0.833269  0.670682  0.077782  1
  Al  Al10  1  0.329318  0.166731  0.422218  1
  Al  Al11  1  0.166731  0.329318  0.922218  1
  Al  Al12  1  0.164215  0.835785  0.580574  1
  Al  Al13  1  0.329318  0.166731  0.077782  1
  Al  Al14  1  0.835785  0.164215  0.419426  1
  Al  Al15  1  0.670682  0.833269  0.922218  1
  Al  Al16  1  0.835785  0.164215  0.080574  1
  Al  Al17  1  0.164215  0.835785  0.919426  1
  Al  Al18  1  0.562392  0.437608  0.250000  1
  Al  Al19  1  0.437608  0.562392  0.750000  1
  Al  Al20  1  0.995455  0.004545  0.250000  1
  Al  Al21  1  0.004545  0.995455  0.750000  1
  Si  Si22  1  0.336018  0.663982  0.046258  1
  Si  Si23  1  0.663982  0.336018  0.953742  1
  Si  Si24  1  0.663982  0.336018  0.546258  1
  Si  Si25  1  0.336018  0.663982  0.453742  1
  Si  Si26  1  0.565029  0.123978  0.250000  1
  Si  Si27  1  0.434971  0.876022  0.750000  1
  Si  Si28  1  0.876022  0.434971  0.250000  1
  Si  Si29  1  0.123978  0.565029  0.750000  1
  Os  Os30  1  0.500000  0.000000  0.000000  1
  Os  Os31  1  0.000000  0.500000  0.000000  1
  Os  Os32  1  0.500000  0.000000  0.500000  1
  Os  Os33  1  0.500000  0.500000  0.000000  1
  Os  Os34  1  0.000000  0.500000  0.500000  1
  Os  Os35  1  0.500000  0.500000  0.500000  1
  Os  Os36  1  0.000000  0.000000  0.000000  1
  Os  Os37  1  0.000000  0.000000  0.500000  1
