# generated using pymatgen
data_Ho6Tm2Ti11Si16Pt
_symmetry_space_group_name_H-M   'P 1'
_cell_length_a   7.02991422
_cell_length_b   7.03164644
_cell_length_c   12.82743847
_cell_angle_alpha   90.17388366
_cell_angle_beta   89.85185388
_cell_angle_gamma   89.71018100
_symmetry_Int_Tables_number   1
_chemical_formula_structural   Ho6Tm2Ti11Si16Pt
_chemical_formula_sum   'Ho6 Tm2 Ti11 Si16 Pt1'
_cell_volume   634.07111085
_cell_formula_units_Z   1
loop_
 _symmetry_equiv_pos_site_id
 _symmetry_equiv_pos_as_xyz
  1  'x, y, z'
loop_
 _atom_site_type_symbol
 _atom_site_label
 _atom_site_symmetry_multiplicity
 _atom_site_fract_x
 _atom_site_fract_y
 _atom_site_fract_z
 _atom_site_occupancy
  Ho  Ho0  1  0.501436  0.157218  0.214556  1
  Ho  Ho1  1  0.842065  0.496483  0.282468  1
  Ho  Ho2  1  0.157476  0.501403  0.785307  1
  Ho  Ho3  1  0.656211  0.998878  0.968474  1
  Ho  Ho4  1  0.003735  0.340491  0.533079  1
  Ho  Ho5  1  0.999075  0.656085  0.031262  1
  Tm  Tm6  1  0.341011  0.002631  0.467177  1
  Tm  Tm7  1  0.497157  0.842470  0.717751  1
  Ti  Ti8  1  0.175933  0.826062  0.248761  1
  Ti  Ti9  1  0.825758  0.175755  0.751198  1
  Ti  Ti10  1  0.672828  0.673492  0.500185  1
  Ti  Ti11  1  0.148532  0.004245  0.876371  1
  Ti  Ti12  1  0.494507  0.654477  0.123997  1
  Ti  Ti13  1  0.506480  0.350831  0.627243  1
  Ti  Ti14  1  0.653921  0.494522  0.875634  1
  Ti  Ti15  1  0.350430  0.507125  0.373076  1
  Ti  Ti16  1  0.850068  0.993362  0.374965  1
  Ti  Ti17  1  0.004724  0.148602  0.123266  1
  Ti  Ti18  1  0.993336  0.850398  0.625365  1
  Si  Si19  1  0.202542  0.132770  0.684898  1
  Si  Si20  1  0.372670  0.710329  0.931122  1
  Si  Si21  1  0.630717  0.293976  0.433432  1
  Si  Si22  1  0.709447  0.372649  0.068047  1
  Si  Si23  1  0.295234  0.632989  0.567192  1
  Si  Si24  1  0.797448  0.867236  0.183403  1
  Si  Si25  1  0.134080  0.200976  0.315231  1
  Si  Si26  1  0.866527  0.797569  0.816461  1
  Si  Si27  1  0.285876  0.944470  0.064435  1
  Si  Si28  1  0.547249  0.791895  0.315366  1
  Si  Si29  1  0.449914  0.208950  0.815037  1
  Si  Si30  1  0.791068  0.548143  0.684837  1
  Si  Si31  1  0.209954  0.449604  0.184784  1
  Si  Si32  1  0.706994  0.047498  0.565553  1
  Si  Si33  1  0.944499  0.285790  0.935195  1
  Si  Si34  1  0.048662  0.708686  0.434846  1
  Pt  Pt35  1  0.332433  0.331939  0.000024  1
