# generated using pymatgen
data_Zr18ReNi2Mo7
_symmetry_space_group_name_H-M   'P 1'
_cell_length_a   8.82049500
_cell_length_b   8.82049489
_cell_length_c   8.45287600
_cell_angle_alpha   90.00000000
_cell_angle_beta   90.00000000
_cell_angle_gamma   120.00336672
_symmetry_Int_Tables_number   1
_chemical_formula_structural   Zr18ReNi2Mo7
_chemical_formula_sum   'Zr18 Re1 Ni2 Mo7'
_cell_volume   569.51649399
_cell_formula_units_Z   1
loop_
 _symmetry_equiv_pos_site_id
 _symmetry_equiv_pos_as_xyz
  1  'x, y, z'
loop_
 _atom_site_type_symbol
 _atom_site_label
 _atom_site_symmetry_multiplicity
 _atom_site_fract_x
 _atom_site_fract_y
 _atom_site_fract_z
 _atom_site_occupancy
  Zr  Zr0  1  0.198651  0.801349  0.443847  1
  Zr  Zr1  1  0.197591  0.396061  0.443084  1
  Zr  Zr2  1  0.603939  0.802409  0.443084  1
  Zr  Zr3  1  0.801678  0.198322  0.555045  1
  Zr  Zr4  1  0.801074  0.602388  0.555984  1
  Zr  Zr5  1  0.397612  0.198926  0.555984  1
  Zr  Zr6  1  0.801678  0.198322  0.944955  1
  Zr  Zr7  1  0.801074  0.602388  0.944016  1
  Zr  Zr8  1  0.397612  0.198926  0.944016  1
  Zr  Zr9  1  0.198651  0.801349  0.056153  1
  Zr  Zr10  1  0.197591  0.396061  0.056916  1
  Zr  Zr11  1  0.603939  0.802409  0.056916  1
  Zr  Zr12  1  0.541514  0.458486  0.250000  1
  Zr  Zr13  1  0.543301  0.083246  0.250000  1
  Zr  Zr14  1  0.916754  0.456699  0.250000  1
  Zr  Zr15  1  0.458238  0.541762  0.750000  1
  Zr  Zr16  1  0.458359  0.916830  0.750000  1
  Zr  Zr17  1  0.083170  0.541641  0.750000  1
  Re  Re18  1  0.890139  0.109861  0.250000  1
  Ni  Ni19  1  0.333489  0.666511  0.250000  1
  Ni  Ni20  1  0.666782  0.333218  0.750000  1
  Mo  Mo21  1  0.889278  0.781418  0.250000  1
  Mo  Mo22  1  0.218582  0.110722  0.250000  1
  Mo  Mo23  1  0.110285  0.889715  0.750000  1
  Mo  Mo24  1  0.109544  0.219911  0.750000  1
  Mo  Mo25  1  0.780089  0.890456  0.750000  1
  Mo  Mo26  1  0.999693  0.000307  0.500323  1
  Mo  Mo27  1  0.999693  0.000307  0.999677  1
