# generated using pymatgen
data_Ho9TmSn8
_symmetry_space_group_name_H-M   'P 1'
_cell_length_a   8.00690300
_cell_length_b   8.13019900
_cell_length_c   15.39160100
_cell_angle_alpha   90.00000000
_cell_angle_beta   90.00000000
_cell_angle_gamma   90.00000000
_symmetry_Int_Tables_number   1
_chemical_formula_structural   Ho9TmSn8
_chemical_formula_sum   'Ho18 Tm2 Sn16'
_cell_volume   1001.95805165
_cell_formula_units_Z   2
loop_
 _symmetry_equiv_pos_site_id
 _symmetry_equiv_pos_as_xyz
  1  'x, y, z'
loop_
 _atom_site_type_symbol
 _atom_site_label
 _atom_site_symmetry_multiplicity
 _atom_site_fract_x
 _atom_site_fract_y
 _atom_site_fract_z
 _atom_site_occupancy
  Ho  Ho0  1  0.367632  0.837236  0.877526  1
  Ho  Ho1  1  0.867632  0.662764  0.622474  1
  Ho  Ho2  1  0.632394  0.162879  0.378032  1
  Ho  Ho3  1  0.132394  0.337121  0.121968  1
  Ho  Ho4  1  0.632394  0.162879  0.121968  1
  Ho  Ho5  1  0.132394  0.337121  0.378032  1
  Ho  Ho6  1  0.367632  0.837236  0.622474  1
  Ho  Ho7  1  0.867632  0.662764  0.877526  1
  Ho  Ho8  1  0.520797  0.320739  0.902413  1
  Ho  Ho9  1  0.020797  0.179261  0.597587  1
  Ho  Ho10  1  0.479320  0.679265  0.402768  1
  Ho  Ho11  1  0.979320  0.820735  0.097232  1
  Ho  Ho12  1  0.479320  0.679265  0.097232  1
  Ho  Ho13  1  0.979320  0.820735  0.402768  1
  Ho  Ho14  1  0.520797  0.320739  0.597587  1
  Ho  Ho15  1  0.020797  0.179261  0.902413  1
  Ho  Ho16  1  0.801089  0.497070  0.250000  1
  Ho  Ho17  1  0.301089  0.002930  0.250000  1
  Tm  Tm18  1  0.198813  0.502995  0.750000  1
  Tm  Tm19  1  0.698813  0.997005  0.750000  1
  Sn  Sn20  1  0.292837  0.036764  0.041530  1
  Sn  Sn21  1  0.792837  0.463236  0.458470  1
  Sn  Sn22  1  0.707402  0.963680  0.542458  1
  Sn  Sn23  1  0.207402  0.536320  0.957542  1
  Sn  Sn24  1  0.707402  0.963680  0.957542  1
  Sn  Sn25  1  0.207402  0.536320  0.542458  1
  Sn  Sn26  1  0.292837  0.036764  0.458470  1
  Sn  Sn27  1  0.792837  0.463236  0.041530  1
  Sn  Sn28  1  0.564433  0.618497  0.750000  1
  Sn  Sn29  1  0.064433  0.881503  0.750000  1
  Sn  Sn30  1  0.434791  0.380930  0.250000  1
  Sn  Sn31  1  0.934791  0.119070  0.250000  1
  Sn  Sn32  1  0.330224  0.148977  0.750000  1
  Sn  Sn33  1  0.830224  0.351023  0.750000  1
  Sn  Sn34  1  0.669883  0.852250  0.250000  1
  Sn  Sn35  1  0.169883  0.647750  0.250000  1
