# generated using pymatgen
data_NdGd(ThH5)6
_symmetry_space_group_name_H-M   'P 1'
_cell_length_a   7.87482180
_cell_length_b   7.87838790
_cell_length_c   7.87243000
_cell_angle_alpha   109.49005468
_cell_angle_beta   109.48781436
_cell_angle_gamma   109.54364901
_symmetry_Int_Tables_number   1
_chemical_formula_structural   NdGd(ThH5)6
_chemical_formula_sum   'Nd1 Gd1 Th6 H30'
_cell_volume   375.47884957
_cell_formula_units_Z   1
loop_
 _symmetry_equiv_pos_site_id
 _symmetry_equiv_pos_as_xyz
  1  'x, y, z'
loop_
 _atom_site_type_symbol
 _atom_site_label
 _atom_site_symmetry_multiplicity
 _atom_site_fract_x
 _atom_site_fract_y
 _atom_site_fract_z
 _atom_site_occupancy
  Nd  Nd0  1  0.498739  0.999289  0.081606  1
  Gd  Gd1  1  0.915157  0.915067  0.915934  1
  Th  Th2  1  0.997927  0.081765  0.498413  1
  Th  Th3  1  0.083303  0.500991  0.999817  1
  Th  Th4  1  0.998333  0.583907  0.502839  1
  Th  Th5  1  0.584690  0.503196  0.999776  1
  Th  Th6  1  0.502738  0.999036  0.584635  1
  Th  Th7  1  0.415974  0.414502  0.414828  1
  H  H8  1  0.655216  0.966465  0.376317  1
  H  H9  1  0.218697  0.315517  0.846747  1
  H  H10  1  0.185993  0.404351  0.534220  1
  H  H11  1  0.096270  0.282664  0.129045  1
  H  H12  1  0.279149  0.129927  0.096329  1
  H  H13  1  0.128559  0.096395  0.281718  1
  H  H14  1  0.466729  0.155474  0.867558  1
  H  H15  1  0.718585  0.348604  0.814630  1
  H  H16  1  0.628171  0.384489  0.253886  1
  H  H17  1  0.248976  0.624847  0.374083  1
  H  H18  1  0.754689  0.871978  0.130279  1
  H  H19  1  0.118871  0.740323  0.868893  1
  H  H20  1  0.375257  0.251153  0.625671  1
  H  H21  1  0.875536  0.128673  0.747206  1
  H  H22  1  0.779661  0.594035  0.626970  1
  H  H23  1  0.312836  0.843865  0.221577  1
  H  H24  1  0.370128  0.648978  0.966276  1
  H  H25  1  0.967363  0.370694  0.652171  1
  H  H26  1  0.534945  0.189310  0.410569  1
  H  H27  1  0.403936  0.533959  0.185240  1
  H  H28  1  0.850355  0.221606  0.318639  1
  H  H29  1  0.904495  0.686287  0.031262  1
  H  H30  1  0.815482  0.718980  0.347992  1
  H  H31  1  0.152389  0.870120  0.466446  1
  H  H32  1  0.690331  0.032274  0.901522  1
  H  H33  1  0.345486  0.812008  0.713337  1
  H  H34  1  0.871625  0.468861  0.153746  1
  H  H35  1  0.628057  0.780121  0.593497  1
  H  H36  1  0.595482  0.626620  0.780258  1
  H  H37  1  0.029871  0.903665  0.686071  1
