# generated using pymatgen
data_Nd4Os5Ru3
_symmetry_space_group_name_H-M   'P 1'
_cell_length_a   5.37711715
_cell_length_b   5.24494112
_cell_length_c   9.25920500
_cell_angle_alpha   90.00000000
_cell_angle_beta   90.00000000
_cell_angle_gamma   119.19014056
_symmetry_Int_Tables_number   1
_chemical_formula_structural   Nd4Os5Ru3
_chemical_formula_sum   'Nd4 Os5 Ru3'
_cell_volume   227.97175944
_cell_formula_units_Z   1
loop_
 _symmetry_equiv_pos_site_id
 _symmetry_equiv_pos_as_xyz
  1  'x, y, z'
loop_
 _atom_site_type_symbol
 _atom_site_label
 _atom_site_symmetry_multiplicity
 _atom_site_fract_x
 _atom_site_fract_y
 _atom_site_fract_z
 _atom_site_occupancy
  Nd  Nd0  1  0.336001  0.668001  0.434484  1
  Nd  Nd1  1  0.671244  0.335621  0.565749  1
  Nd  Nd2  1  0.671244  0.335621  0.934251  1
  Nd  Nd3  1  0.336001  0.668001  0.065516  1
  Os  Os4  1  0.826355  0.168398  0.250000  1
  Os  Os5  1  0.826355  0.657956  0.250000  1
  Os  Os6  1  0.328170  0.164085  0.250000  1
  Os  Os7  1  0.159909  0.830793  0.750000  1
  Os  Os8  1  0.159909  0.329116  0.750000  1
  Ru  Ru9  1  0.021268  0.010634  0.500577  1
  Ru  Ru10  1  0.021268  0.010634  0.999423  1
  Ru  Ru11  1  0.642278  0.821139  0.750000  1
