# generated using pymatgen
data_DyTmLu14(InIr)4
_symmetry_space_group_name_H-M   'P 1'
_cell_length_a   9.49374621
_cell_length_b   9.49374584
_cell_length_c   9.49265500
_cell_angle_alpha   60.00380430
_cell_angle_beta   60.00380561
_cell_angle_gamma   59.91234810
_symmetry_Int_Tables_number   1
_chemical_formula_structural   DyTmLu14(InIr)4
_chemical_formula_sum   'Dy1 Tm1 Lu14 In4 Ir4'
_cell_volume   604.62255557
_cell_formula_units_Z   1
loop_
 _symmetry_equiv_pos_site_id
 _symmetry_equiv_pos_as_xyz
  1  'x, y, z'
loop_
 _atom_site_type_symbol
 _atom_site_label
 _atom_site_symmetry_multiplicity
 _atom_site_fract_x
 _atom_site_fract_y
 _atom_site_fract_z
 _atom_site_occupancy
  Dy  Dy0  1  0.186315  0.186315  0.813685  1
  Tm  Tm1  1  0.814051  0.814051  0.185949  1
  Lu  Lu2  1  0.600358  0.600358  0.594397  1
  Lu  Lu3  1  0.600358  0.600358  0.204886  1
  Lu  Lu4  1  0.597172  0.203690  0.599568  1
  Lu  Lu5  1  0.203690  0.597172  0.599568  1
  Lu  Lu6  1  0.058311  0.440100  0.441442  1
  Lu  Lu7  1  0.440100  0.058311  0.060147  1
  Lu  Lu8  1  0.440100  0.058311  0.441442  1
  Lu  Lu9  1  0.058311  0.440100  0.060147  1
  Lu  Lu10  1  0.441456  0.441456  0.058544  1
  Lu  Lu11  1  0.057204  0.057204  0.442796  1
  Lu  Lu12  1  0.192141  0.807868  0.807812  1
  Lu  Lu13  1  0.807868  0.192141  0.192179  1
  Lu  Lu14  1  0.807868  0.192141  0.807812  1
  Lu  Lu15  1  0.192141  0.807868  0.192179  1
  In  In16  1  0.833901  0.833901  0.833124  1
  In  In17  1  0.833901  0.833901  0.499074  1
  In  In18  1  0.832556  0.500773  0.833336  1
  In  In19  1  0.500773  0.832556  0.833336  1
  Ir  Ir20  1  0.392543  0.392543  0.387913  1
  Ir  Ir21  1  0.392543  0.392543  0.827001  1
  Ir  Ir22  1  0.388957  0.827381  0.391831  1
  Ir  Ir23  1  0.827381  0.388957  0.391831  1
