# generated using pymatgen
data_Ho3TmLu12(Ga3Co)2
_symmetry_space_group_name_H-M   'P 1'
_cell_length_a   9.79657503
_cell_length_b   9.79734569
_cell_length_c   6.84260400
_cell_angle_alpha   90.00296191
_cell_angle_beta   89.99825713
_cell_angle_gamma   119.94127820
_symmetry_Int_Tables_number   1
_chemical_formula_structural   Ho3TmLu12(Ga3Co)2
_chemical_formula_sum   'Ho3 Tm1 Lu12 Ga6 Co2'
_cell_volume   569.10370865
_cell_formula_units_Z   1
loop_
 _symmetry_equiv_pos_site_id
 _symmetry_equiv_pos_as_xyz
  1  'x, y, z'
loop_
 _atom_site_type_symbol
 _atom_site_label
 _atom_site_symmetry_multiplicity
 _atom_site_fract_x
 _atom_site_fract_y
 _atom_site_fract_z
 _atom_site_occupancy
  Ho  Ho0  1  0.535367  0.070851  0.708323  1
  Ho  Ho1  1  0.999971  0.000070  0.231131  1
  Ho  Ho2  1  0.999939  0.000056  0.731465  1
  Tm  Tm3  1  0.929080  0.464629  0.708258  1
  Lu  Lu4  1  0.174214  0.825638  0.509719  1
  Lu  Lu5  1  0.651000  0.824662  0.510251  1
  Lu  Lu6  1  0.175285  0.349016  0.510316  1
  Lu  Lu7  1  0.825722  0.174369  0.013451  1
  Lu  Lu8  1  0.348559  0.174906  0.012355  1
  Lu  Lu9  1  0.825102  0.651352  0.012282  1
  Lu  Lu10  1  0.333687  0.666221  0.828255  1
  Lu  Lu11  1  0.666313  0.333789  0.327638  1
  Lu  Lu12  1  0.463560  0.536450  0.206962  1
  Lu  Lu13  1  0.073468  0.536878  0.207518  1
  Lu  Lu14  1  0.463111  0.926482  0.207526  1
  Lu  Lu15  1  0.536081  0.463989  0.707337  1
  Ga  Ga16  1  0.163788  0.836211  0.959748  1
  Ga  Ga17  1  0.672408  0.836480  0.958761  1
  Ga  Ga18  1  0.163512  0.327581  0.958721  1
  Ga  Ga19  1  0.836907  0.163174  0.457754  1
  Ga  Ga20  1  0.327329  0.163814  0.458361  1
  Ga  Ga21  1  0.836210  0.672617  0.458431  1
  Co  Co22  1  0.333520  0.666459  0.444026  1
  Co  Co23  1  0.665868  0.334306  0.945456  1
