# generated using pymatgen
data_LaTc4Bi3F28
_symmetry_space_group_name_H-M   'P 1'
_cell_length_a   5.75630514
_cell_length_b   9.27883965
_cell_length_c   12.34103211
_cell_angle_alpha   61.76805296
_cell_angle_beta   90.10698903
_cell_angle_gamma   89.87542101
_symmetry_Int_Tables_number   1
_chemical_formula_structural   LaTc4Bi3F28
_chemical_formula_sum   'La1 Tc4 Bi3 F28'
_cell_volume   580.73918255
_cell_formula_units_Z   1
loop_
 _symmetry_equiv_pos_site_id
 _symmetry_equiv_pos_as_xyz
  1  'x, y, z'
loop_
 _atom_site_type_symbol
 _atom_site_label
 _atom_site_symmetry_multiplicity
 _atom_site_fract_x
 _atom_site_fract_y
 _atom_site_fract_z
 _atom_site_occupancy
  La  La0  1  0.742491  0.810259  0.764679  1
  Tc  Tc1  1  0.244430  0.726389  0.539778  1
  Tc  Tc2  1  0.743362  0.270921  0.959101  1
  Tc  Tc3  1  0.757166  0.275310  0.455940  1
  Tc  Tc4  1  0.256536  0.725851  0.045166  1
  Bi  Bi5  1  0.761176  0.815986  0.262359  1
  Bi  Bi6  1  0.260076  0.183813  0.238602  1
  Bi  Bi7  1  0.237582  0.184693  0.737388  1
  F  F8  1  0.958673  0.716905  0.453860  1
  F  F9  1  0.460692  0.282456  0.046032  1
  F  F10  1  0.040285  0.284239  0.544315  1
  F  F11  1  0.536126  0.714612  0.957755  1
  F  F12  1  0.056602  0.708436  0.922826  1
  F  F13  1  0.555834  0.291608  0.577412  1
  F  F14  1  0.946081  0.289932  0.079827  1
  F  F15  1  0.446152  0.708975  0.418986  1
  F  F16  1  0.734995  0.509925  0.861658  1
  F  F17  1  0.235113  0.489856  0.637822  1
  F  F18  1  0.264211  0.487978  0.140595  1
  F  F19  1  0.764884  0.513824  0.359670  1
  F  F20  1  0.740934  0.029492  0.053933  1
  F  F21  1  0.240976  0.969113  0.445461  1
  F  F22  1  0.259632  0.967554  0.948050  1
  F  F23  1  0.759519  0.035049  0.550336  1
  F  F24  1  0.050041  0.742562  0.665343  1
  F  F25  1  0.547660  0.255375  0.833885  1
  F  F26  1  0.954498  0.256932  0.331410  1
  F  F27  1  0.453280  0.743872  0.169137  1
  F  F28  1  0.016934  0.267428  0.865383  1
  F  F29  1  0.516216  0.731490  0.634121  1
  F  F30  1  0.980955  0.732741  0.136798  1
  F  F31  1  0.482598  0.268360  0.362618  1
  F  F32  1  0.086628  0.970950  0.231005  1
  F  F33  1  0.586104  0.028696  0.269369  1
  F  F34  1  0.918136  0.034767  0.769203  1
  F  F35  1  0.403422  0.973652  0.730178  1
