# generated using pymatgen
data_Dy8Al2IrRh
_symmetry_space_group_name_H-M   'P 1'
_cell_length_a   9.53185257
_cell_length_b   9.51781214
_cell_length_c   9.51781250
_cell_angle_alpha   59.89670914
_cell_angle_beta   59.95119048
_cell_angle_gamma   59.95118827
_symmetry_Int_Tables_number   1
_chemical_formula_structural   Dy8Al2IrRh
_chemical_formula_sum   'Dy16 Al4 Ir2 Rh2'
_cell_volume   609.64374415
_cell_formula_units_Z   2
loop_
 _symmetry_equiv_pos_site_id
 _symmetry_equiv_pos_as_xyz
  1  'x, y, z'
loop_
 _atom_site_type_symbol
 _atom_site_label
 _atom_site_symmetry_multiplicity
 _atom_site_fract_x
 _atom_site_fract_y
 _atom_site_fract_z
 _atom_site_occupancy
  Dy  Dy0  1  0.692786  0.307214  0.307214  1
  Dy  Dy1  1  0.692425  0.692793  0.308198  1
  Dy  Dy2  1  0.306585  0.692793  0.308198  1
  Dy  Dy3  1  0.936874  0.938187  0.562278  1
  Dy  Dy4  1  0.147654  0.145599  0.559093  1
  Dy  Dy5  1  0.562660  0.938187  0.562278  1
  Dy  Dy6  1  0.149071  0.147374  0.147374  1
  Dy  Dy7  1  0.306585  0.308198  0.692793  1
  Dy  Dy8  1  0.938950  0.561050  0.561050  1
  Dy  Dy9  1  0.562660  0.562278  0.938187  1
  Dy  Dy10  1  0.563966  0.936034  0.936034  1
  Dy  Dy11  1  0.936874  0.562278  0.938187  1
  Dy  Dy12  1  0.147654  0.559093  0.145599  1
  Dy  Dy13  1  0.307515  0.692485  0.692485  1
  Dy  Dy14  1  0.692425  0.308198  0.692793  1
  Dy  Dy15  1  0.556181  0.147374  0.147374  1
  Al  Al16  1  0.922322  0.923108  0.232247  1
  Al  Al17  1  0.233023  0.922716  0.922716  1
  Al  Al18  1  0.922322  0.232247  0.923108  1
  Al  Al19  1  0.921544  0.922716  0.922716  1
  Ir  Ir20  1  0.357119  0.357282  0.357282  1
  Ir  Ir21  1  0.928318  0.357282  0.357282  1
  Rh  Rh22  1  0.357243  0.358039  0.927476  1
  Rh  Rh23  1  0.357243  0.927476  0.358039  1
