# generated using pymatgen
data_TbSm2Si4(PPd10)2
_symmetry_space_group_name_H-M   'P 1'
_cell_length_a   8.74411532
_cell_length_b   8.74411602
_cell_length_c   8.73657500
_cell_angle_alpha   60.02852801
_cell_angle_beta   60.02852537
_cell_angle_gamma   59.94295283
_symmetry_Int_Tables_number   1
_chemical_formula_structural   TbSm2Si4(PPd10)2
_chemical_formula_sum   'Tb1 Sm2 Si4 P2 Pd20'
_cell_volume   472.34288159
_cell_formula_units_Z   1
loop_
 _symmetry_equiv_pos_site_id
 _symmetry_equiv_pos_as_xyz
  1  'x, y, z'
loop_
 _atom_site_type_symbol
 _atom_site_label
 _atom_site_symmetry_multiplicity
 _atom_site_fract_x
 _atom_site_fract_y
 _atom_site_fract_z
 _atom_site_occupancy
  Tb  Tb0  1  0.000000  0.000000  0.000000  1
  Sm  Sm1  1  0.250000  0.250000  0.250000  1
  Sm  Sm2  1  0.750000  0.750000  0.750000  1
  Si  Si3  1  0.733870  0.266130  0.266130  1
  Si  Si4  1  0.266130  0.733870  0.733870  1
  Si  Si5  1  0.266130  0.733870  0.266130  1
  Si  Si6  1  0.733870  0.266130  0.733870  1
  P  P7  1  0.264865  0.264865  0.735135  1
  P  P8  1  0.735135  0.735135  0.264865  1
  Pd  Pd9  1  0.384117  0.384117  0.386020  1
  Pd  Pd10  1  0.615883  0.615883  0.613980  1
  Pd  Pd11  1  0.384117  0.384117  0.845746  1
  Pd  Pd12  1  0.386020  0.845746  0.384117  1
  Pd  Pd13  1  0.615883  0.615883  0.154254  1
  Pd  Pd14  1  0.613980  0.154254  0.615883  1
  Pd  Pd15  1  0.845746  0.386020  0.384117  1
  Pd  Pd16  1  0.154254  0.613980  0.615883  1
  Pd  Pd17  1  0.345414  0.001083  0.998917  1
  Pd  Pd18  1  0.654586  0.998917  0.001083  1
  Pd  Pd19  1  0.001083  0.345414  0.654586  1
  Pd  Pd20  1  0.998917  0.654586  0.345414  1
  Pd  Pd21  1  0.001083  0.345414  0.998917  1
  Pd  Pd22  1  0.654586  0.998917  0.345414  1
  Pd  Pd23  1  0.998917  0.654586  0.001083  1
  Pd  Pd24  1  0.345414  0.001083  0.654586  1
  Pd  Pd25  1  0.000000  0.000000  0.346446  1
  Pd  Pd26  1  0.000000  0.000000  0.653554  1
  Pd  Pd27  1  0.653554  0.346446  0.000000  1
  Pd  Pd28  1  0.346446  0.653554  0.000000  1
