# generated using pymatgen
data_TbPr2Ho7(In2Pd)4
_symmetry_space_group_name_H-M   'P 1'
_cell_length_a   3.63630700
_cell_length_b   8.22266457
_cell_length_c   18.42368827
_cell_angle_alpha   89.95734865
_cell_angle_beta   90.00000000
_cell_angle_gamma   90.00000000
_symmetry_Int_Tables_number   1
_chemical_formula_structural   TbPr2Ho7(In2Pd)4
_chemical_formula_sum   'Tb1 Pr2 Ho7 In8 Pd4'
_cell_volume   550.87057226
_cell_formula_units_Z   1
loop_
 _symmetry_equiv_pos_site_id
 _symmetry_equiv_pos_as_xyz
  1  'x, y, z'
loop_
 _atom_site_type_symbol
 _atom_site_label
 _atom_site_symmetry_multiplicity
 _atom_site_fract_x
 _atom_site_fract_y
 _atom_site_fract_z
 _atom_site_occupancy
  Tb  Tb0  1  0.000000  0.738768  0.282310  1
  Pr  Pr1  1  0.000000  0.500004  0.500005  1
  Pr  Pr2  1  0.000000  0.000000  0.999979  1
  Ho  Ho3  1  0.000000  0.261083  0.717819  1
  Ho  Ho4  1  0.000000  0.761128  0.782181  1
  Ho  Ho5  1  0.000000  0.238869  0.217817  1
  Ho  Ho6  1  0.000000  0.621249  0.084497  1
  Ho  Ho7  1  0.000000  0.378769  0.915410  1
  Ho  Ho8  1  0.000000  0.878766  0.584587  1
  Ho  Ho9  1  0.000000  0.121335  0.415464  1
  In  In10  1  0.500000  0.698479  0.931958  1
  In  In11  1  0.500000  0.301440  0.068060  1
  In  In12  1  0.500000  0.801633  0.432115  1
  In  In13  1  0.500000  0.198495  0.568052  1
  In  In14  1  0.500000  0.583258  0.653950  1
  In  In15  1  0.500000  0.416420  0.346092  1
  In  In16  1  0.500000  0.916939  0.153798  1
  In  In17  1  0.500000  0.083246  0.846057  1
  Pd  Pd18  1  0.500000  0.524167  0.195665  1
  Pd  Pd19  1  0.500000  0.475238  0.804111  1
  Pd  Pd20  1  0.500000  0.975235  0.695892  1
  Pd  Pd21  1  0.500000  0.025480  0.304178  1
