# generated using pymatgen
data_Y5Ho5(Ir2Ru)2
_symmetry_space_group_name_H-M   'P 1'
_cell_length_a   10.83074792
_cell_length_b   10.82844200
_cell_length_c   6.42808955
_cell_angle_alpha   90.00000000
_cell_angle_beta   90.04718944
_cell_angle_gamma   90.00000000
_symmetry_Int_Tables_number   1
_chemical_formula_structural   Y5Ho5(Ir2Ru)2
_chemical_formula_sum   'Y10 Ho10 Ir8 Ru4'
_cell_volume   753.88689384
_cell_formula_units_Z   2
loop_
 _symmetry_equiv_pos_site_id
 _symmetry_equiv_pos_as_xyz
  1  'x, y, z'
loop_
 _atom_site_type_symbol
 _atom_site_label
 _atom_site_symmetry_multiplicity
 _atom_site_fract_x
 _atom_site_fract_y
 _atom_site_fract_z
 _atom_site_occupancy
  Y  Y0  1  0.292815  0.086694  0.377184  1
  Y  Y1  1  0.292815  0.913306  0.877184  1
  Y  Y2  1  0.707189  0.086785  0.877296  1
  Y  Y3  1  0.707189  0.913215  0.377296  1
  Y  Y4  1  0.586911  0.792815  0.877073  1
  Y  Y5  1  0.586911  0.207185  0.377073  1
  Y  Y6  1  0.413438  0.793071  0.377519  1
  Y  Y7  1  0.413438  0.206929  0.877519  1
  Y  Y8  1  0.206511  0.413374  0.622629  1
  Y  Y9  1  0.206511  0.586626  0.122629  1
  Ho  Ho10  1  0.793792  0.413615  0.122258  1
  Ho  Ho11  1  0.793792  0.586385  0.622258  1
  Ho  Ho12  1  0.913504  0.706276  0.122136  1
  Ho  Ho13  1  0.913504  0.293724  0.622136  1
  Ho  Ho14  1  0.086119  0.706379  0.622147  1
  Ho  Ho15  1  0.086119  0.293621  0.122147  1
  Ho  Ho16  1  0.999990  0.999901  0.500011  1
  Ho  Ho17  1  0.999990  0.000099  0.000011  1
  Ho  Ho18  1  0.500279  0.500041  0.999945  1
  Ho  Ho19  1  0.500279  0.499959  0.499945  1
  Ir  Ir20  1  0.849054  0.152834  0.250397  1
  Ir  Ir21  1  0.849054  0.847166  0.750397  1
  Ir  Ir22  1  0.150916  0.152097  0.750989  1
  Ir  Ir23  1  0.150916  0.847903  0.250989  1
  Ir  Ir24  1  0.652887  0.349032  0.750528  1
  Ir  Ir25  1  0.652887  0.650968  0.250528  1
  Ir  Ir26  1  0.347832  0.348332  0.249715  1
  Ir  Ir27  1  0.347832  0.651668  0.749715  1
  Ru  Ru28  1  0.499903  0.000141  0.122311  1
  Ru  Ru29  1  0.499903  0.999859  0.622311  1
  Ru  Ru30  1  0.998860  0.500020  0.877861  1
  Ru  Ru31  1  0.998860  0.499980  0.377861  1
