# generated using pymatgen
data_Dy10Ga3Bi2Ir
_symmetry_space_group_name_H-M   'P 1'
_cell_length_a   8.66243211
_cell_length_b   8.66243096
_cell_length_c   8.79214005
_cell_angle_alpha   124.81346580
_cell_angle_beta   124.81347207
_cell_angle_gamma   80.85635534
_symmetry_Int_Tables_number   1
_chemical_formula_structural   Dy10Ga3Bi2Ir
_chemical_formula_sum   'Dy10 Ga3 Bi2 Ir1'
_cell_volume   430.84115112
_cell_formula_units_Z   1
loop_
 _symmetry_equiv_pos_site_id
 _symmetry_equiv_pos_as_xyz
  1  'x, y, z'
loop_
 _atom_site_type_symbol
 _atom_site_label
 _atom_site_symmetry_multiplicity
 _atom_site_fract_x
 _atom_site_fract_y
 _atom_site_fract_z
 _atom_site_occupancy
  Dy  Dy0  1  0.999708  0.999540  0.999250  1
  Dy  Dy1  1  0.500460  0.500292  0.000750  1
  Dy  Dy2  1  0.016059  0.500552  0.798705  1
  Dy  Dy3  1  0.717353  0.201845  0.201295  1
  Dy  Dy4  1  0.515954  0.705624  0.500000  1
  Dy  Dy5  1  0.195033  0.039071  0.500000  1
  Dy  Dy6  1  0.999448  0.483941  0.201295  1
  Dy  Dy7  1  0.298155  0.782647  0.798705  1
  Dy  Dy8  1  0.460929  0.304967  0.500000  1
  Dy  Dy9  1  0.794376  0.984046  0.500000  1
  Ga  Ga10  1  0.356963  0.855158  0.212120  1
  Ga  Ga11  1  0.644842  0.143037  0.787880  1
  Ga  Ga12  1  0.864066  0.635934  0.500000  1
  Bi  Bi13  1  0.755515  0.744485  0.000000  1
  Bi  Bi14  1  0.255515  0.244485  0.000000  1
  Ir  Ir15  1  0.125628  0.374372  0.500000  1
