# generated using pymatgen
data_TbDy5InCoRu
_symmetry_space_group_name_H-M   'P 1'
_cell_length_a   8.42323203
_cell_length_b   8.41739262
_cell_length_c   8.41739210
_cell_angle_alpha   112.64694745
_cell_angle_beta   110.28814605
_cell_angle_gamma   105.53222303
_symmetry_Int_Tables_number   1
_chemical_formula_structural   TbDy5InCoRu
_chemical_formula_sum   'Tb2 Dy10 In2 Co2 Ru2'
_cell_volume   457.75317534
_cell_formula_units_Z   2
loop_
 _symmetry_equiv_pos_site_id
 _symmetry_equiv_pos_as_xyz
  1  'x, y, z'
loop_
 _atom_site_type_symbol
 _atom_site_label
 _atom_site_symmetry_multiplicity
 _atom_site_fract_x
 _atom_site_fract_y
 _atom_site_fract_z
 _atom_site_occupancy
  Tb  Tb0  1  0.442907  0.241346  0.201562  1
  Tb  Tb1  1  0.557093  0.758654  0.798438  1
  Dy  Dy2  1  0.039364  0.241231  0.798134  1
  Dy  Dy3  1  0.960636  0.758769  0.201866  1
  Dy  Dy4  1  0.183773  0.285337  0.469518  1
  Dy  Dy5  1  0.816227  0.714663  0.530482  1
  Dy  Dy6  1  0.183773  0.714256  0.898436  1
  Dy  Dy7  1  0.816227  0.285744  0.101564  1
  Dy  Dy8  1  0.321732  0.637029  0.314513  1
  Dy  Dy9  1  0.678268  0.362971  0.685487  1
  Dy  Dy10  1  0.321732  0.007218  0.684702  1
  Dy  Dy11  1  0.678268  0.992782  0.315298  1
  In  In12  1  0.500000  0.500000  0.000000  1
  In  In13  1  0.000000  0.000000  0.000000  1
  Co  Co14  1  0.110701  0.611169  0.499532  1
  Co  Co15  1  0.889299  0.388831  0.500468  1
  Ru  Ru16  1  0.330791  0.999840  0.330951  1
  Ru  Ru17  1  0.669209  0.000160  0.669049  1
