# generated using pymatgen
data_Zn4Co3Cu(Mo3N)4
_symmetry_space_group_name_H-M   'P 1'
_cell_length_a   6.74248577
_cell_length_b   6.73368235
_cell_length_c   6.74465421
_cell_angle_alpha   90.12674613
_cell_angle_beta   90.21712378
_cell_angle_gamma   90.03450938
_symmetry_Int_Tables_number   1
_chemical_formula_structural   Zn4Co3Cu(Mo3N)4
_chemical_formula_sum   'Zn4 Co3 Cu1 Mo12 N4'
_cell_volume   306.21614949
_cell_formula_units_Z   1
loop_
 _symmetry_equiv_pos_site_id
 _symmetry_equiv_pos_as_xyz
  1  'x, y, z'
loop_
 _atom_site_type_symbol
 _atom_site_label
 _atom_site_symmetry_multiplicity
 _atom_site_fract_x
 _atom_site_fract_y
 _atom_site_fract_z
 _atom_site_occupancy
  Zn  Zn0  1  0.070258  0.067678  0.068310  1
  Zn  Zn1  1  0.319629  0.181920  0.818407  1
  Zn  Zn2  1  0.819333  0.321278  0.182636  1
  Zn  Zn3  1  0.181505  0.817253  0.321535  1
  Co  Co4  1  0.569290  0.433117  0.931402  1
  Co  Co5  1  0.931055  0.568214  0.437564  1
  Co  Co6  1  0.684081  0.681839  0.685077  1
  Cu  Cu7  1  0.432674  0.932282  0.568972  1
  Mo  Mo8  1  0.123712  0.210401  0.456981  1
  Mo  Mo9  1  0.383626  0.784272  0.948515  1
  Mo  Mo10  1  0.872146  0.697524  0.039582  1
  Mo  Mo11  1  0.203292  0.459650  0.126294  1
  Mo  Mo12  1  0.790032  0.945792  0.382990  1
  Mo  Mo13  1  0.035702  0.867811  0.696486  1
  Mo  Mo14  1  0.460911  0.128349  0.200782  1
  Mo  Mo15  1  0.304540  0.544030  0.629224  1
  Mo  Mo16  1  0.942717  0.386181  0.785677  1
  Mo  Mo17  1  0.550302  0.624408  0.300358  1
  Mo  Mo18  1  0.702109  0.043768  0.876140  1
  Mo  Mo19  1  0.626694  0.306901  0.548371  1
  N  N20  1  0.374789  0.375897  0.373840  1
  N  N21  1  0.625895  0.872033  0.124574  1
  N  N22  1  0.124410  0.624442  0.871015  1
  N  N23  1  0.871298  0.124964  0.625265  1
