# generated using pymatgen
data_LiTm3Lu13In3Rh4
_symmetry_space_group_name_H-M   'P 1'
_cell_length_a   9.47931395
_cell_length_b   9.47859542
_cell_length_c   9.47859598
_cell_angle_alpha   59.64590608
_cell_angle_beta   59.68278789
_cell_angle_gamma   59.68279411
_symmetry_Int_Tables_number   1
_chemical_formula_structural   LiTm3Lu13In3Rh4
_chemical_formula_sum   'Li1 Tm3 Lu13 In3 Rh4'
_cell_volume   597.70436180
_cell_formula_units_Z   1
loop_
 _symmetry_equiv_pos_site_id
 _symmetry_equiv_pos_as_xyz
  1  'x, y, z'
loop_
 _atom_site_type_symbol
 _atom_site_label
 _atom_site_symmetry_multiplicity
 _atom_site_fract_x
 _atom_site_fract_y
 _atom_site_fract_z
 _atom_site_occupancy
  Li  Li0  1  0.823065  0.822600  0.822600  1
  Tm  Tm1  1  0.599463  0.599623  0.599623  1
  Tm  Tm2  1  0.600326  0.600428  0.201165  1
  Tm  Tm3  1  0.600326  0.201165  0.600428  1
  Lu  Lu4  1  0.201781  0.600163  0.600163  1
  Lu  Lu5  1  0.059486  0.440472  0.440472  1
  Lu  Lu6  1  0.436885  0.063324  0.063324  1
  Lu  Lu7  1  0.440213  0.059563  0.440355  1
  Lu  Lu8  1  0.063299  0.437139  0.063010  1
  Lu  Lu9  1  0.440213  0.440355  0.059563  1
  Lu  Lu10  1  0.063299  0.063010  0.437139  1
  Lu  Lu11  1  0.185595  0.813325  0.813325  1
  Lu  Lu12  1  0.813059  0.187598  0.187598  1
  Lu  Lu13  1  0.813544  0.185421  0.813409  1
  Lu  Lu14  1  0.187646  0.812903  0.187823  1
  Lu  Lu15  1  0.813544  0.813409  0.185421  1
  Lu  Lu16  1  0.187646  0.187823  0.812903  1
  In  In17  1  0.833781  0.833296  0.502448  1
  In  In18  1  0.833781  0.502448  0.833296  1
  In  In19  1  0.502525  0.833470  0.833470  1
  Rh  Rh20  1  0.392331  0.393157  0.393157  1
  Rh  Rh21  1  0.391680  0.392842  0.824278  1
  Rh  Rh22  1  0.391680  0.824278  0.392842  1
  Rh  Rh23  1  0.824835  0.392192  0.392192  1
