# generated using pymatgen
data_Rb2Ho(TeO4)3
_symmetry_space_group_name_H-M   'P 1'
_cell_length_a   7.56222424
_cell_length_b   7.56284277
_cell_length_c   7.55890666
_cell_angle_alpha   58.76707852
_cell_angle_beta   58.76356022
_cell_angle_gamma   58.72835244
_symmetry_Int_Tables_number   1
_chemical_formula_structural   Rb2Ho(TeO4)3
_chemical_formula_sum   'Rb2 Ho1 Te3 O12'
_cell_volume   296.98042459
_cell_formula_units_Z   1
loop_
 _symmetry_equiv_pos_site_id
 _symmetry_equiv_pos_as_xyz
  1  'x, y, z'
loop_
 _atom_site_type_symbol
 _atom_site_label
 _atom_site_symmetry_multiplicity
 _atom_site_fract_x
 _atom_site_fract_y
 _atom_site_fract_z
 _atom_site_occupancy
  Rb  Rb0  1  0.855943  0.892759  0.378754  1
  Rb  Rb1  1  0.107199  0.144126  0.621176  1
  Ho  Ho2  1  0.495793  0.504197  0.999995  1
  Te  Te3  1  0.997525  0.502328  0.000131  1
  Te  Te4  1  0.497652  0.002476  0.999882  1
  Te  Te5  1  0.497769  0.502228  0.499986  1
  O  O6  1  0.182980  0.187268  0.081647  1
  O  O7  1  0.576543  0.578713  0.644196  1
  O  O8  1  0.141041  0.578102  0.080137  1
  O  O9  1  0.582888  0.187484  0.685215  1
  O  O10  1  0.573425  0.148134  0.077557  1
  O  O11  1  0.183327  0.584343  0.685545  1
  O  O12  1  0.812723  0.817054  0.918358  1
  O  O13  1  0.421292  0.423435  0.355812  1
  O  O14  1  0.851876  0.426598  0.922473  1
  O  O15  1  0.415626  0.816689  0.314486  1
  O  O16  1  0.421928  0.858931  0.919865  1
  O  O17  1  0.812470  0.417130  0.314785  1
