# generated using pymatgen
data_Nd3Th(B2Ir5)2
_symmetry_space_group_name_H-M   'P 1'
_cell_length_a   11.17458526
_cell_length_b   11.17458477
_cell_length_c   11.17458550
_cell_angle_alpha   28.71162180
_cell_angle_beta   28.71162300
_cell_angle_gamma   28.71162598
_symmetry_Int_Tables_number   1
_chemical_formula_structural   Nd3Th(B2Ir5)2
_chemical_formula_sum   'Nd3 Th1 B4 Ir10'
_cell_volume   284.71931267
_cell_formula_units_Z   1
loop_
 _symmetry_equiv_pos_site_id
 _symmetry_equiv_pos_as_xyz
  1  'x, y, z'
loop_
 _atom_site_type_symbol
 _atom_site_label
 _atom_site_symmetry_multiplicity
 _atom_site_fract_x
 _atom_site_fract_y
 _atom_site_fract_z
 _atom_site_occupancy
  Nd  Nd0  1  0.153492  0.153492  0.153492  1
  Nd  Nd1  1  0.948960  0.948960  0.948960  1
  Nd  Nd2  1  0.848132  0.848132  0.848132  1
  Th  Th3  1  0.050549  0.050549  0.050549  1
  B  B4  1  0.617939  0.617939  0.617939  1
  B  B5  1  0.716445  0.716445  0.716445  1
  B  B6  1  0.381725  0.381725  0.381725  1
  B  B7  1  0.283143  0.283143  0.283143  1
  Ir  Ir8  1  0.408699  0.897942  0.408699  1
  Ir  Ir9  1  0.897942  0.408699  0.408699  1
  Ir  Ir10  1  0.499898  0.499898  0.999991  1
  Ir  Ir11  1  0.499898  0.999991  0.499898  1
  Ir  Ir12  1  0.999991  0.499898  0.499898  1
  Ir  Ir13  1  0.500048  0.500048  0.500048  1
  Ir  Ir14  1  0.591265  0.101913  0.591265  1
  Ir  Ir15  1  0.591265  0.591265  0.101913  1
  Ir  Ir16  1  0.101913  0.591265  0.591265  1
  Ir  Ir17  1  0.408699  0.408699  0.897942  1
