# generated using pymatgen
data_AlZnRhO4
_symmetry_space_group_name_H-M   'P 1'
_cell_length_a   5.94587552
_cell_length_b   5.94587582
_cell_length_c   5.94587598
_cell_angle_alpha   121.05365330
_cell_angle_beta   118.90832666
_cell_angle_gamma   90.04296301
_symmetry_Int_Tables_number   1
_chemical_formula_structural   AlZnRhO4
_chemical_formula_sum   'Al2 Zn2 Rh2 O8'
_cell_volume   148.61648483
_cell_formula_units_Z   2
loop_
 _symmetry_equiv_pos_site_id
 _symmetry_equiv_pos_as_xyz
  1  'x, y, z'
loop_
 _atom_site_type_symbol
 _atom_site_label
 _atom_site_symmetry_multiplicity
 _atom_site_fract_x
 _atom_site_fract_y
 _atom_site_fract_z
 _atom_site_occupancy
  Al  Al0  1  0.500000  0.000000  0.000000  1
  Al  Al1  1  0.500000  0.500000  0.500000  1
  Zn  Zn2  1  0.880169  0.630169  0.250000  1
  Zn  Zn3  1  0.119831  0.369831  0.750000  1
  Rh  Rh4  1  0.500000  0.000000  0.500000  1
  Rh  Rh5  1  0.000000  0.000000  0.000000  1
  O  O6  1  0.727017  0.740558  0.513541  1
  O  O7  1  0.727017  0.213475  0.986459  1
  O  O8  1  0.717962  0.753176  0.964786  1
  O  O9  1  0.288389  0.753176  0.535214  1
  O  O10  1  0.272983  0.259442  0.486459  1
  O  O11  1  0.272983  0.786525  0.013541  1
  O  O12  1  0.282038  0.246824  0.035214  1
  O  O13  1  0.711611  0.246824  0.464786  1
