# generated using pymatgen
data_Y3Er9Co5Sb
_symmetry_space_group_name_H-M   'P 1'
_cell_length_a   8.22856383
_cell_length_b   8.22856231
_cell_length_c   8.22107100
_cell_angle_alpha   110.83730837
_cell_angle_beta   110.67721462
_cell_angle_gamma   106.96735922
_symmetry_Int_Tables_number   1
_chemical_formula_structural   Y3Er9Co5Sb
_chemical_formula_sum   'Y3 Er9 Co5 Sb1'
_cell_volume   427.67849510
_cell_formula_units_Z   1
loop_
 _symmetry_equiv_pos_site_id
 _symmetry_equiv_pos_as_xyz
  1  'x, y, z'
loop_
 _atom_site_type_symbol
 _atom_site_label
 _atom_site_symmetry_multiplicity
 _atom_site_fract_x
 _atom_site_fract_y
 _atom_site_fract_z
 _atom_site_occupancy
  Y  Y0  1  0.288674  0.185971  0.474644  1
  Y  Y1  1  0.712534  0.815201  0.527736  1
  Y  Y2  1  0.288536  0.814015  0.102551  1
  Er  Er3  1  0.711953  0.184822  0.896775  1
  Er  Er4  1  0.622257  0.312940  0.308207  1
  Er  Er5  1  0.378187  0.687393  0.691009  1
  Er  Er6  1  0.003617  0.312822  0.691009  1
  Er  Er7  1  0.995266  0.685948  0.308207  1
  Er  Er8  1  0.208738  0.402440  0.192492  1
  Er  Er9  1  0.790057  0.595672  0.806617  1
  Er  Er10  1  0.210946  0.016560  0.806617  1
  Er  Er11  1  0.790051  0.983753  0.192492  1
  Co  Co12  1  0.998587  0.373814  0.372400  1
  Co  Co13  1  0.000108  0.626011  0.626120  1
  Co  Co14  1  0.388217  0.888701  0.502251  1
  Co  Co15  1  0.613550  0.114034  0.502251  1
  Co  Co16  1  0.998812  0.999696  0.998509  1
  Sb  Sb17  1  0.499908  0.500208  0.000115  1
