# generated using pymatgen
data_Y3Ho3ScCo17P12
_symmetry_space_group_name_H-M   'P 1'
_cell_length_a   3.70592700
_cell_length_b   10.57249603
_cell_length_c   12.26132004
_cell_angle_alpha   89.99113784
_cell_angle_beta   90.00000000
_cell_angle_gamma   90.00000000
_symmetry_Int_Tables_number   1
_chemical_formula_structural   Y3Ho3ScCo17P12
_chemical_formula_sum   'Y3 Ho3 Sc1 Co17 P12'
_cell_volume   480.40953010
_cell_formula_units_Z   1
loop_
 _symmetry_equiv_pos_site_id
 _symmetry_equiv_pos_as_xyz
  1  'x, y, z'
loop_
 _atom_site_type_symbol
 _atom_site_label
 _atom_site_symmetry_multiplicity
 _atom_site_fract_x
 _atom_site_fract_y
 _atom_site_fract_z
 _atom_site_occupancy
  Y  Y0  1  0.000000  0.499941  0.527666  1
  Y  Y1  1  0.500000  0.000067  0.478009  1
  Y  Y2  1  0.500000  0.821299  0.207142  1
  Ho  Ho3  1  0.500000  0.178619  0.207269  1
  Ho  Ho4  1  0.000000  0.682350  0.795749  1
  Ho  Ho5  1  0.000000  0.317654  0.795721  1
  Sc  Sc6  1  0.500000  0.499733  0.152515  1
  Co  Co7  1  0.000000  0.499749  0.984324  1
  Co  Co8  1  0.500000  0.000277  0.012919  1
  Co  Co9  1  0.500000  0.294499  0.434046  1
  Co  Co10  1  0.500000  0.705396  0.434379  1
  Co  Co11  1  0.000000  0.202200  0.570716  1
  Co  Co12  1  0.000000  0.797831  0.570905  1
  Co  Co13  1  0.500000  0.880169  0.708168  1
  Co  Co14  1  0.500000  0.119861  0.708092  1
  Co  Co15  1  0.000000  0.622258  0.296507  1
  Co  Co16  1  0.000000  0.377154  0.296005  1
  Co  Co17  1  0.500000  0.326769  0.989668  1
  Co  Co18  1  0.500000  0.672953  0.989409  1
  Co  Co19  1  0.000000  0.162393  0.001398  1
  Co  Co20  1  0.000000  0.837914  0.001333  1
  Co  Co21  1  0.000000  0.000057  0.837337  1
  Co  Co22  1  0.500000  0.499938  0.704059  1
  Co  Co23  1  0.000000  0.000807  0.295672  1
  P  P24  1  0.500000  0.309050  0.618303  1
  P  P25  1  0.500000  0.690868  0.618451  1
  P  P26  1  0.000000  0.189173  0.385830  1
  P  P27  1  0.000000  0.811016  0.386323  1
  P  P28  1  0.500000  0.499890  0.882894  1
  P  P29  1  0.000000  0.000573  0.115884  1
  P  P30  1  0.500000  0.851386  0.888845  1
  P  P31  1  0.500000  0.148737  0.888724  1
  P  P32  1  0.000000  0.663058  0.101024  1
  P  P33  1  0.000000  0.336343  0.101569  1
  P  P34  1  0.500000  0.499999  0.357739  1
  P  P35  1  0.000000  0.000018  0.655402  1
