# generated using pymatgen
data_Ti17Re(Si8W)2
_symmetry_space_group_name_H-M   'P 1'
_cell_length_a   6.65917122
_cell_length_b   6.66034291
_cell_length_c   12.17710071
_cell_angle_alpha   90.24259405
_cell_angle_beta   90.26063126
_cell_angle_gamma   90.00118617
_symmetry_Int_Tables_number   1
_chemical_formula_structural   Ti17Re(Si8W)2
_chemical_formula_sum   'Ti17 Re1 Si16 W2'
_cell_volume   540.07277167
_cell_formula_units_Z   1
loop_
 _symmetry_equiv_pos_site_id
 _symmetry_equiv_pos_as_xyz
  1  'x, y, z'
loop_
 _atom_site_type_symbol
 _atom_site_label
 _atom_site_symmetry_multiplicity
 _atom_site_fract_x
 _atom_site_fract_y
 _atom_site_fract_z
 _atom_site_occupancy
  Ti  Ti0  1  0.349653  0.493918  0.870785  1
  Ti  Ti1  1  0.652061  0.504450  0.372029  1
  Ti  Ti2  1  0.494857  0.349520  0.129044  1
  Ti  Ti3  1  0.503373  0.649053  0.627600  1
  Ti  Ti4  1  0.005050  0.849894  0.121428  1
  Ti  Ti5  1  0.150292  0.997140  0.377506  1
  Ti  Ti6  1  0.851565  0.004153  0.878865  1
  Ti  Ti7  1  0.003876  0.342401  0.221158  1
  Ti  Ti8  1  0.156066  0.504133  0.470868  1
  Ti  Ti9  1  0.841113  0.496069  0.970579  1
  Ti  Ti10  1  0.501912  0.158749  0.529205  1
  Ti  Ti11  1  0.497448  0.843248  0.028627  1
  Ti  Ti12  1  0.999510  0.657606  0.720618  1
  Ti  Ti13  1  0.345618  0.002812  0.778920  1
  Ti  Ti14  1  0.659413  0.997468  0.280096  1
  Ti  Ti15  1  0.669639  0.327810  0.749660  1
  Ti  Ti16  1  0.830677  0.829497  0.500328  1
  Re  Re17  1  0.991803  0.149630  0.622852  1
  Si  Si18  1  0.042749  0.302508  0.813699  1
  Si  Si19  1  0.198128  0.543175  0.062970  1
  Si  Si20  1  0.800378  0.455593  0.563890  1
  Si  Si21  1  0.544718  0.198930  0.935858  1
  Si  Si22  1  0.455515  0.801668  0.436648  1
  Si  Si23  1  0.956360  0.699180  0.314106  1
  Si  Si24  1  0.302564  0.043155  0.186614  1
  Si  Si25  1  0.697714  0.954411  0.686441  1
  Si  Si26  1  0.291843  0.358183  0.672536  1
  Si  Si27  1  0.142609  0.793811  0.921819  1
  Si  Si28  1  0.858841  0.206088  0.423679  1
  Si  Si29  1  0.793850  0.141356  0.077818  1
  Si  Si30  1  0.205364  0.860740  0.576880  1
  Si  Si31  1  0.705729  0.641780  0.172312  1
  Si  Si32  1  0.359048  0.295420  0.328123  1
  Si  Si33  1  0.641306  0.705984  0.826753  1
  W  W34  1  0.171308  0.169618  0.000114  1
  W  W35  1  0.328050  0.670851  0.249571  1
