# generated using pymatgen
data_LuZr3Sb2
_symmetry_space_group_name_H-M   'P 1'
_cell_length_a   4.18606938
_cell_length_b   4.18606893
_cell_length_c   8.62552256
_cell_angle_alpha   104.04336326
_cell_angle_beta   104.04335899
_cell_angle_gamma   90.00000085
_symmetry_Int_Tables_number   1
_chemical_formula_structural   LuZr3Sb2
_chemical_formula_sum   'Lu1 Zr3 Sb2'
_cell_volume   141.96804427
_cell_formula_units_Z   1
loop_
 _symmetry_equiv_pos_site_id
 _symmetry_equiv_pos_as_xyz
  1  'x, y, z'
loop_
 _atom_site_type_symbol
 _atom_site_label
 _atom_site_symmetry_multiplicity
 _atom_site_fract_x
 _atom_site_fract_y
 _atom_site_fract_z
 _atom_site_occupancy
  Lu  Lu0  1  0.678171  0.678171  0.356342  1
  Zr  Zr1  1  0.498426  0.998426  0.996852  1
  Zr  Zr2  1  0.998426  0.498426  0.996852  1
  Zr  Zr3  1  0.324758  0.324758  0.649516  1
  Sb  Sb4  1  0.137320  0.137320  0.274641  1
  Sb  Sb5  1  0.862900  0.862900  0.725798  1
