# generated using pymatgen
data_Y2MnFe2Tc14C3
_symmetry_space_group_name_H-M   'P 1'
_cell_length_a   6.90878438
_cell_length_b   6.89793387
_cell_length_c   6.89793437
_cell_angle_alpha   82.40324204
_cell_angle_beta   82.34751021
_cell_angle_gamma   82.34749616
_symmetry_Int_Tables_number   1
_chemical_formula_structural   Y2MnFe2Tc14C3
_chemical_formula_sum   'Y2 Mn1 Fe2 Tc14 C3'
_cell_volume   320.70096470
_cell_formula_units_Z   1
loop_
 _symmetry_equiv_pos_site_id
 _symmetry_equiv_pos_as_xyz
  1  'x, y, z'
loop_
 _atom_site_type_symbol
 _atom_site_label
 _atom_site_symmetry_multiplicity
 _atom_site_fract_x
 _atom_site_fract_y
 _atom_site_fract_z
 _atom_site_occupancy
  Y  Y0  1  0.651805  0.651493  0.651493  1
  Y  Y1  1  0.348195  0.348507  0.348507  1
  Mn  Mn2  1  0.500000  0.000000  0.000000  1
  Fe  Fe3  1  0.000000  0.000000  0.500000  1
  Fe  Fe4  1  0.000000  0.500000  0.000000  1
  Tc  Tc5  1  0.724183  0.276849  0.000296  1
  Tc  Tc6  1  0.000000  0.724043  0.275957  1
  Tc  Tc7  1  0.275817  0.999704  0.723151  1
  Tc  Tc8  1  0.000000  0.275957  0.724043  1
  Tc  Tc9  1  0.724183  0.000296  0.276849  1
  Tc  Tc10  1  0.275817  0.723151  0.999704  1
  Tc  Tc11  1  0.347951  0.348594  0.859630  1
  Tc  Tc12  1  0.860077  0.348745  0.348745  1
  Tc  Tc13  1  0.347951  0.859630  0.348594  1
  Tc  Tc14  1  0.652049  0.651406  0.140370  1
  Tc  Tc15  1  0.139923  0.651255  0.651255  1
  Tc  Tc16  1  0.652049  0.140370  0.651406  1
  Tc  Tc17  1  0.900264  0.899193  0.899193  1
  Tc  Tc18  1  0.099736  0.100807  0.100807  1
  C  C19  1  0.500000  0.500000  0.000000  1
  C  C20  1  0.000000  0.500000  0.500000  1
  C  C21  1  0.500000  0.000000  0.500000  1
