# generated using pymatgen
data_PuZnSiIr2
_symmetry_space_group_name_H-M   'P 1'
_cell_length_a   4.03610700
_cell_length_b   4.03610700
_cell_length_c   10.78932900
_cell_angle_alpha   90.00000000
_cell_angle_beta   90.00000000
_cell_angle_gamma   90.00000000
_symmetry_Int_Tables_number   1
_chemical_formula_structural   PuZnSiIr2
_chemical_formula_sum   'Pu2 Zn2 Si2 Ir4'
_cell_volume   175.75989263
_cell_formula_units_Z   2
loop_
 _symmetry_equiv_pos_site_id
 _symmetry_equiv_pos_as_xyz
  1  'x, y, z'
loop_
 _atom_site_type_symbol
 _atom_site_label
 _atom_site_symmetry_multiplicity
 _atom_site_fract_x
 _atom_site_fract_y
 _atom_site_fract_z
 _atom_site_occupancy
  Pu  Pu0  1  0.000000  0.500000  0.754380  1
  Pu  Pu1  1  0.500000  0.000000  0.245620  1
  Zn  Zn2  1  0.000000  0.000000  0.000000  1
  Zn  Zn3  1  0.500000  0.500000  0.000000  1
  Si  Si4  1  0.000000  0.500000  0.380663  1
  Si  Si5  1  0.500000  0.000000  0.619337  1
  Ir  Ir6  1  0.500000  0.000000  0.837513  1
  Ir  Ir7  1  0.000000  0.000000  0.500000  1
  Ir  Ir8  1  0.500000  0.500000  0.500000  1
  Ir  Ir9  1  0.000000  0.500000  0.162487  1
