# generated using pymatgen
data_RuBr(OF3)2
_symmetry_space_group_name_H-M   'P 1'
_cell_length_a   6.00162800
_cell_length_b   7.24198190
_cell_length_c   10.27558955
_cell_angle_alpha   48.78740919
_cell_angle_beta   90.00000000
_cell_angle_gamma   90.00000000
_symmetry_Int_Tables_number   1
_chemical_formula_structural   RuBr(OF3)2
_chemical_formula_sum   'Ru2 Br2 O4 F12'
_cell_volume   335.97509226
_cell_formula_units_Z   2
loop_
 _symmetry_equiv_pos_site_id
 _symmetry_equiv_pos_as_xyz
  1  'x, y, z'
loop_
 _atom_site_type_symbol
 _atom_site_label
 _atom_site_symmetry_multiplicity
 _atom_site_fract_x
 _atom_site_fract_y
 _atom_site_fract_z
 _atom_site_occupancy
  Ru  Ru0  1  0.501703  0.000000  0.750000  1
  Ru  Ru1  1  0.498297  0.000000  0.250000  1
  Br  Br2  1  0.823847  0.500000  0.250000  1
  Br  Br3  1  0.176153  0.500000  0.750000  1
  O  O4  1  0.976033  0.641754  0.077995  1
  O  O5  1  0.023967  0.358246  0.922005  1
  O  O6  1  0.976033  0.358246  0.422005  1
  O  O7  1  0.023967  0.641754  0.577995  1
  F  F8  1  0.496251  0.725736  0.990774  1
  F  F9  1  0.264620  0.150065  0.782487  1
  F  F10  1  0.264620  0.849935  0.717513  1
  F  F11  1  0.503749  0.274264  0.009226  1
  F  F12  1  0.715781  0.847072  0.717488  1
  F  F13  1  0.496251  0.274264  0.509226  1
  F  F14  1  0.735380  0.150065  0.282487  1
  F  F15  1  0.284219  0.847072  0.217488  1
  F  F16  1  0.503749  0.725736  0.490774  1
  F  F17  1  0.715781  0.152928  0.782512  1
  F  F18  1  0.735380  0.849935  0.217513  1
  F  F19  1  0.284219  0.152928  0.282512  1
