# generated using pymatgen
data_BaYb(AlI4)4
_symmetry_space_group_name_H-M   'P 1'
_cell_length_a   8.95684781
_cell_length_b   8.41027202
_cell_length_c   15.75264200
_cell_angle_alpha   89.73101731
_cell_angle_beta   92.31685434
_cell_angle_gamma   90.28203962
_symmetry_Int_Tables_number   1
_chemical_formula_structural   BaYb(AlI4)4
_chemical_formula_sum   'Ba1 Yb1 Al4 I16'
_cell_volume   1185.64267482
_cell_formula_units_Z   1
loop_
 _symmetry_equiv_pos_site_id
 _symmetry_equiv_pos_as_xyz
  1  'x, y, z'
loop_
 _atom_site_type_symbol
 _atom_site_label
 _atom_site_symmetry_multiplicity
 _atom_site_fract_x
 _atom_site_fract_y
 _atom_site_fract_z
 _atom_site_occupancy
  Ba  Ba0  1  0.800864  0.129656  0.829863  1
  Yb  Yb1  1  0.240278  0.087725  0.314982  1
  Al  Al2  1  0.956071  0.212606  0.569732  1
  Al  Al3  1  0.053807  0.175070  0.084040  1
  Al  Al4  1  0.567304  0.667382  0.782690  1
  Al  Al5  1  0.414281  0.650601  0.281957  1
  I  I6  1  0.434733  0.629980  0.641189  1
  I  I7  1  0.540122  0.610463  0.144676  1
  I  I8  1  0.852007  0.715805  0.772082  1
  I  I9  1  0.137243  0.735996  0.260440  1
  I  I10  1  0.953189  0.467141  0.486106  1
  I  I11  1  0.013959  0.399655  0.975801  1
  I  I12  1  0.929934  0.926279  0.018500  1
  I  I13  1  0.071857  0.984985  0.481403  1
  I  I14  1  0.690164  0.127794  0.610446  1
  I  I15  1  0.333565  0.129214  0.122009  1
  I  I16  1  0.530297  0.420953  0.880258  1
  I  I17  1  0.425282  0.397959  0.379256  1
  I  I18  1  0.465606  0.911698  0.861630  1
  I  I19  1  0.532631  0.889617  0.365922  1
  I  I20  1  0.944155  0.234698  0.230070  1
  I  I21  1  0.112649  0.229523  0.711352  1
