# generated using pymatgen
data_NdLu3(MgIr)4
_symmetry_space_group_name_H-M   'P 1'
_cell_length_a   6.99797240
_cell_length_b   4.04229700
_cell_length_c   8.57369000
_cell_angle_alpha   90.00000000
_cell_angle_beta   90.42043102
_cell_angle_gamma   90.00000000
_symmetry_Int_Tables_number   1
_chemical_formula_structural   NdLu3(MgIr)4
_chemical_formula_sum   'Nd1 Lu3 Mg4 Ir4'
_cell_volume   242.52500876
_cell_formula_units_Z   1
loop_
 _symmetry_equiv_pos_site_id
 _symmetry_equiv_pos_as_xyz
  1  'x, y, z'
loop_
 _atom_site_type_symbol
 _atom_site_label
 _atom_site_symmetry_multiplicity
 _atom_site_fract_x
 _atom_site_fract_y
 _atom_site_fract_z
 _atom_site_occupancy
  Nd  Nd0  1  0.538872  0.750000  0.675049  1
  Lu  Lu1  1  0.960424  0.250000  0.172765  1
  Lu  Lu2  1  0.458679  0.250000  0.322873  1
  Lu  Lu3  1  0.042795  0.750000  0.831318  1
  Mg  Mg4  1  0.865492  0.250000  0.554378  1
  Mg  Mg5  1  0.363678  0.250000  0.944877  1
  Mg  Mg6  1  0.132696  0.750000  0.438018  1
  Mg  Mg7  1  0.636120  0.750000  0.059972  1
  Ir  Ir8  1  0.761906  0.250000  0.872828  1
  Ir  Ir9  1  0.238586  0.250000  0.633427  1
  Ir  Ir10  1  0.250761  0.750000  0.133066  1
  Ir  Ir11  1  0.749994  0.750000  0.361429  1
