# generated using pymatgen
data_Rb4P4PdPt
_symmetry_space_group_name_H-M   'P 1'
_cell_length_a   8.00174602
_cell_length_b   8.00174588
_cell_length_c   6.19264364
_cell_angle_alpha   89.66435570
_cell_angle_beta   90.33564335
_cell_angle_gamma   130.86932318
_symmetry_Int_Tables_number   1
_chemical_formula_structural   Rb4P4PdPt
_chemical_formula_sum   'Rb4 P4 Pd1 Pt1'
_cell_volume   299.83030022
_cell_formula_units_Z   1
loop_
 _symmetry_equiv_pos_site_id
 _symmetry_equiv_pos_as_xyz
  1  'x, y, z'
loop_
 _atom_site_type_symbol
 _atom_site_label
 _atom_site_symmetry_multiplicity
 _atom_site_fract_x
 _atom_site_fract_y
 _atom_site_fract_z
 _atom_site_occupancy
  Rb  Rb0  1  0.787061  0.212939  0.250013  1
  Rb  Rb1  1  0.212939  0.787061  0.749987  1
  Rb  Rb2  1  0.421553  0.578447  0.248624  1
  Rb  Rb3  1  0.578447  0.421553  0.751376  1
  P  P4  1  0.940473  0.730992  0.249369  1
  P  P5  1  0.059527  0.269008  0.750631  1
  P  P6  1  0.269008  0.059527  0.249369  1
  P  P7  1  0.730992  0.940473  0.750631  1
  Pd  Pd8  1  0.000000  0.000000  0.500000  1
  Pt  Pt9  1  0.000000  0.000000  0.000000  1
