# generated using pymatgen
data_Ac7Nd9(HoPb4)4
_symmetry_space_group_name_H-M   'P 1'
_cell_length_a   8.57064883
_cell_length_b   16.55447731
_cell_length_c   8.67925400
_cell_angle_alpha   90.09217111
_cell_angle_beta   89.61070934
_cell_angle_gamma   90.29793827
_symmetry_Int_Tables_number   1
_chemical_formula_structural   Ac7Nd9(HoPb4)4
_chemical_formula_sum   'Ac7 Nd9 Ho4 Pb16'
_cell_volume   1231.38862681
_cell_formula_units_Z   1
loop_
 _symmetry_equiv_pos_site_id
 _symmetry_equiv_pos_as_xyz
  1  'x, y, z'
loop_
 _atom_site_type_symbol
 _atom_site_label
 _atom_site_symmetry_multiplicity
 _atom_site_fract_x
 _atom_site_fract_y
 _atom_site_fract_z
 _atom_site_occupancy
  Ac  Ac0  1  0.978381  0.901144  0.821634  1
  Ac  Ac1  1  0.521238  0.097030  0.322515  1
  Ac  Ac2  1  0.023291  0.403738  0.178785  1
  Ac  Ac3  1  0.522959  0.403381  0.324638  1
  Ac  Ac4  1  0.021033  0.096748  0.177576  1
  Ac  Ac5  1  0.479373  0.902668  0.677299  1
  Ac  Ac6  1  0.977339  0.597189  0.820087  1
  Nd  Nd7  1  0.634937  0.621175  0.155229  1
  Nd  Nd8  1  0.137829  0.878226  0.344571  1
  Nd  Nd9  1  0.363164  0.122169  0.843805  1
  Nd  Nd10  1  0.864832  0.380982  0.654089  1
  Nd  Nd11  1  0.366666  0.379470  0.844358  1
  Nd  Nd12  1  0.862501  0.121112  0.655553  1
  Nd  Nd13  1  0.636434  0.876278  0.156112  1
  Nd  Nd14  1  0.136099  0.619569  0.345523  1
  Nd  Nd15  1  0.474051  0.600515  0.676870  1
  Ho  Ho16  1  0.800805  0.748572  0.495574  1
  Ho  Ho17  1  0.301233  0.748543  0.002505  1
  Ho  Ho18  1  0.199151  0.251090  0.505042  1
  Ho  Ho19  1  0.699312  0.250183  0.996120  1
  Pb  Pb20  1  0.702640  0.453314  0.959616  1
  Pb  Pb21  1  0.201479  0.046807  0.542916  1
  Pb  Pb22  1  0.299430  0.952061  0.040717  1
  Pb  Pb23  1  0.787937  0.549543  0.464657  1
  Pb  Pb24  1  0.299309  0.548606  0.034742  1
  Pb  Pb25  1  0.798724  0.952708  0.456522  1
  Pb  Pb26  1  0.700722  0.046324  0.958764  1
  Pb  Pb27  1  0.208963  0.456384  0.545969  1
  Pb  Pb28  1  0.441544  0.747816  0.369220  1
  Pb  Pb29  1  0.943529  0.748930  0.132859  1
  Pb  Pb30  1  0.558433  0.250478  0.633155  1
  Pb  Pb31  1  0.056449  0.251382  0.866358  1
  Pb  Pb32  1  0.662750  0.746666  0.846906  1
  Pb  Pb33  1  0.172591  0.748646  0.647773  1
  Pb  Pb34  1  0.332329  0.250247  0.150051  1
  Pb  Pb35  1  0.832544  0.250303  0.351886  1
