# generated using pymatgen
data_ErTm7B24(OsW)2
_symmetry_space_group_name_H-M   'P 1'
_cell_length_a   3.59613900
_cell_length_b   9.16304693
_cell_length_c   11.54931719
_cell_angle_alpha   89.84328330
_cell_angle_beta   90.00000000
_cell_angle_gamma   90.00000000
_symmetry_Int_Tables_number   1
_chemical_formula_structural   ErTm7B24(OsW)2
_chemical_formula_sum   'Er1 Tm7 B24 Os2 W2'
_cell_volume   380.56694599
_cell_formula_units_Z   1
loop_
 _symmetry_equiv_pos_site_id
 _symmetry_equiv_pos_as_xyz
  1  'x, y, z'
loop_
 _atom_site_type_symbol
 _atom_site_label
 _atom_site_symmetry_multiplicity
 _atom_site_fract_x
 _atom_site_fract_y
 _atom_site_fract_z
 _atom_site_occupancy
  Er  Er0  1  0.000000  0.321258  0.413892  1
  Tm  Tm1  1  0.000000  0.678721  0.586114  1
  Tm  Tm2  1  0.000000  0.821161  0.086366  1
  Tm  Tm3  1  0.000000  0.178826  0.913621  1
  Tm  Tm4  1  0.000000  0.944879  0.371707  1
  Tm  Tm5  1  0.000000  0.054992  0.628353  1
  Tm  Tm6  1  0.000000  0.442173  0.127474  1
  Tm  Tm7  1  0.000000  0.557892  0.872519  1
  B  B8  1  0.500000  0.550975  0.434989  1
  B  B9  1  0.500000  0.449362  0.565159  1
  B  B10  1  0.500000  0.053420  0.066313  1
  B  B11  1  0.500000  0.946548  0.933657  1
  B  B12  1  0.500000  0.751988  0.422025  1
  B  B13  1  0.500000  0.247964  0.578256  1
  B  B14  1  0.500000  0.248732  0.080809  1
  B  B15  1  0.500000  0.751268  0.919148  1
  B  B16  1  0.500000  0.796200  0.262887  1
  B  B17  1  0.500000  0.203812  0.737132  1
  B  B18  1  0.500000  0.290264  0.233421  1
  B  B19  1  0.500000  0.709682  0.766423  1
  B  B20  1  0.500000  0.631944  0.180999  1
  B  B21  1  0.500000  0.368090  0.819007  1
  B  B22  1  0.500000  0.130355  0.313513  1
  B  B23  1  0.500000  0.869459  0.686360  1
  B  B24  1  0.500000  0.982913  0.211480  1
  B  B25  1  0.500000  0.017017  0.788505  1
  B  B26  1  0.500000  0.476889  0.286063  1
  B  B27  1  0.500000  0.523421  0.713793  1
  B  B28  1  0.500000  0.603427  0.027911  1
  B  B29  1  0.500000  0.396594  0.972080  1
  B  B30  1  0.500000  0.102714  0.470501  1
  B  B31  1  0.500000  0.896986  0.529585  1
  Os  Os32  1  0.000000  0.137642  0.177503  1
  Os  Os33  1  0.000000  0.862273  0.822394  1
  W  W34  1  0.000000  0.639051  0.319458  1
  W  W35  1  0.000000  0.361109  0.680587  1
