# generated using pymatgen
data_PrGe4(PtRh)3
_symmetry_space_group_name_H-M   'P 1'
_cell_length_a   7.32157700
_cell_length_b   7.32157840
_cell_length_c   3.94401100
_cell_angle_alpha   90.00000000
_cell_angle_beta   90.00000000
_cell_angle_gamma   119.99999821
_symmetry_Int_Tables_number   1
_chemical_formula_structural   PrGe4(PtRh)3
_chemical_formula_sum   'Pr1 Ge4 Pt3 Rh3'
_cell_volume   183.09568443
_cell_formula_units_Z   1
loop_
 _symmetry_equiv_pos_site_id
 _symmetry_equiv_pos_as_xyz
  1  'x, y, z'
loop_
 _atom_site_type_symbol
 _atom_site_label
 _atom_site_symmetry_multiplicity
 _atom_site_fract_x
 _atom_site_fract_y
 _atom_site_fract_z
 _atom_site_occupancy
  Pr  Pr0  1  0.000000  0.000000  0.000000  1
  Ge  Ge1  1  0.333333  0.666667  0.000000  1
  Ge  Ge2  1  0.800202  0.199798  0.500000  1
  Ge  Ge3  1  0.800202  0.600405  0.500000  1
  Ge  Ge4  1  0.399595  0.199798  0.500000  1
  Pt  Pt5  1  0.196367  0.803633  0.500000  1
  Pt  Pt6  1  0.196367  0.392735  0.500000  1
  Pt  Pt7  1  0.607265  0.803633  0.500000  1
  Rh  Rh8  1  0.534526  0.465474  0.000000  1
  Rh  Rh9  1  0.534526  0.069051  0.000000  1
  Rh  Rh10  1  0.930949  0.465474  0.000000  1
