# generated using pymatgen
data_Ca2YbAlN3
_symmetry_space_group_name_H-M   'P 1'
_cell_length_a   6.12433200
_cell_length_b   6.85873301
_cell_length_c   9.79722245
_cell_angle_alpha   86.44903759
_cell_angle_beta   90.00000000
_cell_angle_gamma   90.00000000
_symmetry_Int_Tables_number   1
_chemical_formula_structural   Ca2YbAlN3
_chemical_formula_sum   'Ca8 Yb4 Al4 N12'
_cell_volume   410.74377492
_cell_formula_units_Z   4
loop_
 _symmetry_equiv_pos_site_id
 _symmetry_equiv_pos_as_xyz
  1  'x, y, z'
loop_
 _atom_site_type_symbol
 _atom_site_label
 _atom_site_symmetry_multiplicity
 _atom_site_fract_x
 _atom_site_fract_y
 _atom_site_fract_z
 _atom_site_occupancy
  Ca  Ca0  1  0.792866  0.374190  0.077007  1
  Ca  Ca1  1  0.292866  0.625810  0.422993  1
  Ca  Ca2  1  0.207134  0.625810  0.922993  1
  Ca  Ca3  1  0.707134  0.374190  0.577007  1
  Ca  Ca4  1  0.640862  0.075520  0.349674  1
  Ca  Ca5  1  0.140862  0.924480  0.150326  1
  Ca  Ca6  1  0.359138  0.924480  0.650326  1
  Ca  Ca7  1  0.859138  0.075520  0.849674  1
  Yb  Yb8  1  0.782057  0.646997  0.305853  1
  Yb  Yb9  1  0.282057  0.353003  0.194147  1
  Yb  Yb10  1  0.217943  0.353003  0.694147  1
  Yb  Yb11  1  0.717943  0.646997  0.805853  1
  Al  Al12  1  0.909175  0.839528  0.560791  1
  Al  Al13  1  0.409175  0.160472  0.939209  1
  Al  Al14  1  0.090825  0.160472  0.439209  1
  Al  Al15  1  0.590825  0.839528  0.060791  1
  N  N16  1  0.567202  0.341417  0.822536  1
  N  N17  1  0.067202  0.658583  0.677464  1
  N  N18  1  0.432798  0.658583  0.177464  1
  N  N19  1  0.932798  0.341417  0.322536  1
  N  N20  1  0.623941  0.739642  0.528711  1
  N  N21  1  0.123941  0.260358  0.971289  1
  N  N22  1  0.376059  0.260358  0.471289  1
  N  N23  1  0.876059  0.739642  0.028711  1
  N  N24  1  0.536362  0.105121  0.118250  1
  N  N25  1  0.036362  0.894879  0.381750  1
  N  N26  1  0.463638  0.894879  0.881750  1
  N  N27  1  0.963638  0.105121  0.618250  1
