# generated using pymatgen
data_LaNd5YRh3
_symmetry_space_group_name_H-M   'P 1'
_cell_length_a   6.44985741
_cell_length_b   10.15706418
_cell_length_c   10.11232164
_cell_angle_alpha   120.40986787
_cell_angle_beta   90.06585662
_cell_angle_gamma   89.99811143
_symmetry_Int_Tables_number   1
_chemical_formula_structural   LaNd5YRh3
_chemical_formula_sum   'La2 Nd10 Y2 Rh6'
_cell_volume   571.33509888
_cell_formula_units_Z   2
loop_
 _symmetry_equiv_pos_site_id
 _symmetry_equiv_pos_as_xyz
  1  'x, y, z'
loop_
 _atom_site_type_symbol
 _atom_site_label
 _atom_site_symmetry_multiplicity
 _atom_site_fract_x
 _atom_site_fract_y
 _atom_site_fract_z
 _atom_site_occupancy
  La  La0  1  0.254572  0.126880  0.875327  1
  La  La1  1  0.253966  0.748136  0.875548  1
  Nd  Nd2  1  0.253139  0.126441  0.253381  1
  Nd  Nd3  1  0.754580  0.875657  0.126879  1
  Nd  Nd4  1  0.752983  0.251157  0.126598  1
  Nd  Nd5  1  0.752577  0.873718  0.747319  1
  Nd  Nd6  1  0.441170  0.540064  0.458299  1
  Nd  Nd7  1  0.437032  0.918018  0.458306  1
  Nd  Nd8  1  0.438869  0.540816  0.081875  1
  Nd  Nd9  1  0.940256  0.458497  0.539928  1
  Nd  Nd10  1  0.935924  0.081560  0.540186  1
  Nd  Nd11  1  0.934349  0.459493  0.918696  1
  Y  Y12  1  0.466352  0.331987  0.666046  1
  Y  Y13  1  0.967860  0.667660  0.333377  1
  Rh  Rh14  1  0.184913  0.809289  0.186172  1
  Rh  Rh15  1  0.184827  0.378317  0.187956  1
  Rh  Rh16  1  0.185761  0.811260  0.624022  1
  Rh  Rh17  1  0.681684  0.189365  0.810578  1
  Rh  Rh18  1  0.681116  0.620487  0.809276  1
  Rh  Rh19  1  0.684068  0.191196  0.380229  1
