# generated using pymatgen
data_Lu4BBr6
_symmetry_space_group_name_H-M   'P 1'
_cell_length_a   3.88112800
_cell_length_b   12.92106600
_cell_length_c   13.38131300
_cell_angle_alpha   90.00000000
_cell_angle_beta   90.00000000
_cell_angle_gamma   90.00000000
_symmetry_Int_Tables_number   1
_chemical_formula_structural   Lu4BBr6
_chemical_formula_sum   'Lu8 B2 Br12'
_cell_volume   671.05024648
_cell_formula_units_Z   2
loop_
 _symmetry_equiv_pos_site_id
 _symmetry_equiv_pos_as_xyz
  1  'x, y, z'
loop_
 _atom_site_type_symbol
 _atom_site_label
 _atom_site_symmetry_multiplicity
 _atom_site_fract_x
 _atom_site_fract_y
 _atom_site_fract_z
 _atom_site_occupancy
  Lu  Lu0  1  0.000000  0.099775  0.079212  1
  Lu  Lu1  1  0.000000  0.900225  0.920788  1
  Lu  Lu2  1  0.000000  0.599775  0.420788  1
  Lu  Lu3  1  0.000000  0.400225  0.579212  1
  Lu  Lu4  1  0.500000  0.121254  0.857464  1
  Lu  Lu5  1  0.500000  0.878746  0.142536  1
  Lu  Lu6  1  0.500000  0.621254  0.642536  1
  Lu  Lu7  1  0.500000  0.378746  0.357464  1
  B  B8  1  0.500000  0.000000  0.000000  1
  B  B9  1  0.500000  0.500000  0.500000  1
  Br  Br10  1  0.500000  0.267812  0.681972  1
  Br  Br11  1  0.500000  0.732188  0.318028  1
  Br  Br12  1  0.500000  0.767812  0.818028  1
  Br  Br13  1  0.500000  0.232188  0.181972  1
  Br  Br14  1  0.000000  0.259955  0.930486  1
  Br  Br15  1  0.000000  0.740045  0.069514  1
  Br  Br16  1  0.000000  0.479822  0.240265  1
  Br  Br17  1  0.000000  0.520178  0.759735  1
  Br  Br18  1  0.000000  0.979822  0.259735  1
  Br  Br19  1  0.000000  0.020178  0.740265  1
  Br  Br20  1  0.000000  0.240045  0.430486  1
  Br  Br21  1  0.000000  0.759955  0.569514  1
