# generated using pymatgen
data_Tm6TcRh
_symmetry_space_group_name_H-M   'P 1'
_cell_length_a   6.20937700
_cell_length_b   7.28151200
_cell_length_c   9.04139100
_cell_angle_alpha   90.00000000
_cell_angle_beta   90.00000000
_cell_angle_gamma   90.00000000
_symmetry_Int_Tables_number   1
_chemical_formula_structural   Tm6TcRh
_chemical_formula_sum   'Tm12 Tc2 Rh2'
_cell_volume   408.79431656
_cell_formula_units_Z   2
loop_
 _symmetry_equiv_pos_site_id
 _symmetry_equiv_pos_as_xyz
  1  'x, y, z'
loop_
 _atom_site_type_symbol
 _atom_site_label
 _atom_site_symmetry_multiplicity
 _atom_site_fract_x
 _atom_site_fract_y
 _atom_site_fract_z
 _atom_site_occupancy
  Tm  Tm0  1  0.330709  0.676959  0.066757  1
  Tm  Tm1  1  0.169291  0.176959  0.433243  1
  Tm  Tm2  1  0.663422  0.323485  0.558889  1
  Tm  Tm3  1  0.836578  0.823485  0.941111  1
  Tm  Tm4  1  0.663422  0.323485  0.941111  1
  Tm  Tm5  1  0.836578  0.823485  0.558889  1
  Tm  Tm6  1  0.330709  0.676959  0.433243  1
  Tm  Tm7  1  0.169291  0.176959  0.066757  1
  Tm  Tm8  1  0.873538  0.539049  0.250000  1
  Tm  Tm9  1  0.626462  0.039049  0.250000  1
  Tm  Tm10  1  0.134164  0.459406  0.750000  1
  Tm  Tm11  1  0.365836  0.959406  0.750000  1
  Tc  Tc12  1  0.035596  0.885030  0.250000  1
  Tc  Tc13  1  0.464404  0.385030  0.250000  1
  Rh  Rh14  1  0.955906  0.115627  0.750000  1
  Rh  Rh15  1  0.544094  0.615627  0.750000  1
