# generated using pymatgen
data_Sm2Mg(ScSn2)2
_symmetry_space_group_name_H-M   'P 1'
_cell_length_a   7.65824900
_cell_length_b   8.07565600
_cell_length_c   14.98938900
_cell_angle_alpha   90.00000000
_cell_angle_beta   90.00000000
_cell_angle_gamma   90.00000000
_symmetry_Int_Tables_number   1
_chemical_formula_structural   Sm2Mg(ScSn2)2
_chemical_formula_sum   'Sm8 Mg4 Sc8 Sn16'
_cell_volume   927.02452592
_cell_formula_units_Z   4
loop_
 _symmetry_equiv_pos_site_id
 _symmetry_equiv_pos_as_xyz
  1  'x, y, z'
loop_
 _atom_site_type_symbol
 _atom_site_label
 _atom_site_symmetry_multiplicity
 _atom_site_fract_x
 _atom_site_fract_y
 _atom_site_fract_z
 _atom_site_occupancy
  Sm  Sm0  1  0.503788  0.322354  0.904895  1
  Sm  Sm1  1  0.003788  0.177646  0.595105  1
  Sm  Sm2  1  0.496212  0.677646  0.404895  1
  Sm  Sm3  1  0.996212  0.822354  0.095105  1
  Sm  Sm4  1  0.496212  0.677646  0.095105  1
  Sm  Sm5  1  0.996212  0.822354  0.404895  1
  Sm  Sm6  1  0.503788  0.322354  0.595105  1
  Sm  Sm7  1  0.003788  0.177646  0.904895  1
  Mg  Mg8  1  0.175817  0.500852  0.750000  1
  Mg  Mg9  1  0.675817  0.999148  0.750000  1
  Mg  Mg10  1  0.824183  0.499148  0.250000  1
  Mg  Mg11  1  0.324183  0.000852  0.250000  1
  Sc  Sc12  1  0.344355  0.829123  0.874583  1
  Sc  Sc13  1  0.844355  0.670877  0.625417  1
  Sc  Sc14  1  0.655645  0.170877  0.374583  1
  Sc  Sc15  1  0.155645  0.329123  0.125417  1
  Sc  Sc16  1  0.655645  0.170877  0.125417  1
  Sc  Sc17  1  0.155645  0.329123  0.374583  1
  Sc  Sc18  1  0.344355  0.829123  0.625417  1
  Sc  Sc19  1  0.844355  0.670877  0.874583  1
  Sn  Sn20  1  0.319405  0.042518  0.037830  1
  Sn  Sn21  1  0.819405  0.457482  0.462170  1
  Sn  Sn22  1  0.680595  0.957482  0.537830  1
  Sn  Sn23  1  0.180595  0.542518  0.962170  1
  Sn  Sn24  1  0.680595  0.957482  0.962170  1
  Sn  Sn25  1  0.180595  0.542518  0.537830  1
  Sn  Sn26  1  0.319405  0.042518  0.462170  1
  Sn  Sn27  1  0.819405  0.457482  0.037830  1
  Sn  Sn28  1  0.541988  0.622151  0.750000  1
  Sn  Sn29  1  0.041988  0.877849  0.750000  1
  Sn  Sn30  1  0.458012  0.377849  0.250000  1
  Sn  Sn31  1  0.958012  0.122151  0.250000  1
  Sn  Sn32  1  0.310861  0.133728  0.750000  1
  Sn  Sn33  1  0.810861  0.366272  0.750000  1
  Sn  Sn34  1  0.689139  0.866272  0.250000  1
  Sn  Sn35  1  0.189139  0.633728  0.250000  1
