# generated using pymatgen
data_Tm6NpFe22
_symmetry_space_group_name_H-M   'P 1'
_cell_length_a   8.46130215
_cell_length_b   8.45679460
_cell_length_c   8.46130237
_cell_angle_alpha   120.01981737
_cell_angle_beta   89.94941098
_cell_angle_gamma   120.01981722
_symmetry_Int_Tables_number   1
_chemical_formula_structural   Tm6NpFe22
_chemical_formula_sum   'Tm6 Np1 Fe22'
_cell_volume   428.05205422
_cell_formula_units_Z   1
loop_
 _symmetry_equiv_pos_site_id
 _symmetry_equiv_pos_as_xyz
  1  'x, y, z'
loop_
 _atom_site_type_symbol
 _atom_site_label
 _atom_site_symmetry_multiplicity
 _atom_site_fract_x
 _atom_site_fract_y
 _atom_site_fract_z
 _atom_site_occupancy
  Tm  Tm0  1  0.706090  0.000157  0.294248  1
  Tm  Tm1  1  0.294018  0.000069  0.294018  1
  Tm  Tm2  1  0.294063  0.588028  0.294063  1
  Tm  Tm3  1  0.705973  0.000240  0.705973  1
  Tm  Tm4  1  0.294248  0.000157  0.706090  1
  Tm  Tm5  1  0.705991  0.411713  0.705991  1
  Np  Np6  1  0.000457  0.000399  0.000457  1
  Fe  Fe7  1  0.499992  0.000119  0.999998  1
  Fe  Fe8  1  0.999877  0.499898  0.999877  1
  Fe  Fe9  1  0.500016  0.499889  0.000004  1
  Fe  Fe10  1  0.674509  0.348907  0.023456  1
  Fe  Fe11  1  0.366195  0.244073  0.122046  1
  Fe  Fe12  1  0.877876  0.244108  0.121985  1
  Fe  Fe13  1  0.877970  0.755856  0.122066  1
  Fe  Fe14  1  0.674327  0.348819  0.325384  1
  Fe  Fe15  1  0.674497  0.651057  0.325544  1
  Fe  Fe16  1  0.976516  0.651044  0.325397  1
  Fe  Fe17  1  0.122046  0.244073  0.366195  1
  Fe  Fe18  1  0.999998  0.000119  0.499992  1
  Fe  Fe19  1  0.000004  0.499889  0.500016  1
  Fe  Fe20  1  0.499886  0.499886  0.499886  1
  Fe  Fe21  1  0.877894  0.755849  0.633719  1
  Fe  Fe22  1  0.023456  0.348907  0.674509  1
  Fe  Fe23  1  0.325384  0.348819  0.674327  1
  Fe  Fe24  1  0.325544  0.651057  0.674497  1
  Fe  Fe25  1  0.121985  0.244108  0.877876  1
  Fe  Fe26  1  0.122066  0.755856  0.877970  1
  Fe  Fe27  1  0.633719  0.755849  0.877894  1
  Fe  Fe28  1  0.325397  0.651044  0.976516  1
