# generated using pymatgen
data_TbHo3Al24ZnPd8
_symmetry_space_group_name_H-M   'P 1'
_cell_length_a   7.56961516
_cell_length_b   7.59059567
_cell_length_c   13.15393543
_cell_angle_alpha   84.50083220
_cell_angle_beta   78.95783141
_cell_angle_gamma   59.91946123
_symmetry_Int_Tables_number   1
_chemical_formula_structural   TbHo3Al24ZnPd8
_chemical_formula_sum   'Tb1 Ho3 Al24 Zn1 Pd8'
_cell_volume   641.89986283
_cell_formula_units_Z   1
loop_
 _symmetry_equiv_pos_site_id
 _symmetry_equiv_pos_as_xyz
  1  'x, y, z'
loop_
 _atom_site_type_symbol
 _atom_site_label
 _atom_site_symmetry_multiplicity
 _atom_site_fract_x
 _atom_site_fract_y
 _atom_site_fract_z
 _atom_site_occupancy
  Tb  Tb0  1  0.389426  0.172263  0.808339  1
  Ho  Ho1  1  0.606111  0.831540  0.191777  1
  Ho  Ho2  1  0.737440  0.498224  0.808141  1
  Ho  Ho3  1  0.267110  0.501449  0.190947  1
  Al  Al4  1  0.682070  0.834786  0.945587  1
  Al  Al5  1  0.315841  0.166334  0.056249  1
  Al  Al6  1  0.145908  0.838622  0.560028  1
  Al  Al7  1  0.856409  0.165816  0.433410  1
  Al  Al8  1  0.489090  0.159486  0.558227  1
  Al  Al9  1  0.520431  0.833165  0.436981  1
  Al  Al10  1  0.219000  0.164026  0.327829  1
  Al  Al11  1  0.779343  0.837252  0.674836  1
  Al  Al12  1  0.437371  0.507904  0.675165  1
  Al  Al13  1  0.563676  0.494022  0.327594  1
  Al  Al14  1  0.108630  0.154176  0.672438  1
  Al  Al15  1  0.889500  0.840192  0.329195  1
  Al  Al16  1  0.354382  0.499056  0.944933  1
  Al  Al17  1  0.647499  0.500966  0.056096  1
  Al  Al18  1  0.014309  0.167479  0.956253  1
  Al  Al19  1  0.984204  0.832006  0.046541  1
  Al  Al20  1  0.188238  0.499901  0.436350  1
  Al  Al21  1  0.805717  0.500133  0.558169  1
  Al  Al22  1  0.732830  0.164231  0.184097  1
  Al  Al23  1  0.268630  0.835880  0.816989  1
  Al  Al24  1  0.060533  0.634398  0.817304  1
  Al  Al25  1  0.938745  0.369449  0.185508  1
  Al  Al26  1  0.852872  0.043888  0.816687  1
  Al  Al27  1  0.144215  0.957694  0.184270  1
  Zn  Zn28  1  0.119794  0.488703  0.640085  1
  Pd  Pd29  1  0.881272  0.507087  0.362360  1
  Pd  Pd30  1  0.656951  0.171778  0.999689  1
  Pd  Pd31  1  0.343046  0.828273  0.000028  1
  Pd  Pd32  1  0.536196  0.168308  0.362448  1
  Pd  Pd33  1  0.462615  0.833097  0.636953  1
  Pd  Pd34  1  0.779495  0.174998  0.636359  1
  Pd  Pd35  1  0.220692  0.823452  0.362507  1
  Pd  Pd36  1  0.000410  0.499967  0.999632  1
