# generated using pymatgen
data_Tb2PrCo8ReP6
_symmetry_space_group_name_H-M   'P 1'
_cell_length_a   3.74050000
_cell_length_b   10.55205800
_cell_length_c   12.29274800
_cell_angle_alpha   90.00000000
_cell_angle_beta   90.00000000
_cell_angle_gamma   90.00000000
_symmetry_Int_Tables_number   1
_chemical_formula_structural   Tb2PrCo8ReP6
_chemical_formula_sum   'Tb4 Pr2 Co16 Re2 P12'
_cell_volume   485.19443103
_cell_formula_units_Z   2
loop_
 _symmetry_equiv_pos_site_id
 _symmetry_equiv_pos_as_xyz
  1  'x, y, z'
loop_
 _atom_site_type_symbol
 _atom_site_label
 _atom_site_symmetry_multiplicity
 _atom_site_fract_x
 _atom_site_fract_y
 _atom_site_fract_z
 _atom_site_occupancy
  Tb  Tb0  1  0.500000  0.817558  0.204315  1
  Tb  Tb1  1  0.500000  0.182442  0.204315  1
  Tb  Tb2  1  0.000000  0.682442  0.795685  1
  Tb  Tb3  1  0.000000  0.317558  0.795685  1
  Pr  Pr4  1  0.000000  0.500000  0.523971  1
  Pr  Pr5  1  0.500000  0.000000  0.476029  1
  Co  Co6  1  0.500000  0.500000  0.705604  1
  Co  Co7  1  0.000000  0.000000  0.294396  1
  Co  Co8  1  0.000000  0.500000  0.987528  1
  Co  Co9  1  0.500000  0.000000  0.012472  1
  Co  Co10  1  0.500000  0.332138  0.990187  1
  Co  Co11  1  0.500000  0.667862  0.990187  1
  Co  Co12  1  0.000000  0.167862  0.009813  1
  Co  Co13  1  0.000000  0.832138  0.009813  1
  Co  Co14  1  0.500000  0.296132  0.429055  1
  Co  Co15  1  0.500000  0.703868  0.429055  1
  Co  Co16  1  0.000000  0.203868  0.570945  1
  Co  Co17  1  0.000000  0.796132  0.570945  1
  Co  Co18  1  0.500000  0.880183  0.711991  1
  Co  Co19  1  0.500000  0.119817  0.711991  1
  Co  Co20  1  0.000000  0.619817  0.288009  1
  Co  Co21  1  0.000000  0.380183  0.288009  1
  Re  Re22  1  0.500000  0.500000  0.153281  1
  Re  Re23  1  0.000000  0.000000  0.846719  1
  P  P24  1  0.500000  0.500000  0.882051  1
  P  P25  1  0.000000  0.000000  0.117949  1
  P  P26  1  0.500000  0.500000  0.343735  1
  P  P27  1  0.000000  0.000000  0.656265  1
  P  P28  1  0.500000  0.307429  0.617549  1
  P  P29  1  0.500000  0.692571  0.617549  1
  P  P30  1  0.000000  0.192571  0.382451  1
  P  P31  1  0.000000  0.807429  0.382451  1
  P  P32  1  0.500000  0.846151  0.893929  1
  P  P33  1  0.500000  0.153849  0.893929  1
  P  P34  1  0.000000  0.653849  0.106071  1
  P  P35  1  0.000000  0.346151  0.106071  1
