# generated using pymatgen
data_YNp7CrS17
_symmetry_space_group_name_H-M   'P 1'
_cell_length_a   7.81651124
_cell_length_b   7.82132548
_cell_length_c   10.37815200
_cell_angle_alpha   80.42343705
_cell_angle_beta   80.48968023
_cell_angle_gamma   65.25190361
_symmetry_Int_Tables_number   1
_chemical_formula_structural   YNp7CrS17
_chemical_formula_sum   'Y1 Np7 Cr1 S17'
_cell_volume   564.92599466
_cell_formula_units_Z   1
loop_
 _symmetry_equiv_pos_site_id
 _symmetry_equiv_pos_as_xyz
  1  'x, y, z'
loop_
 _atom_site_type_symbol
 _atom_site_label
 _atom_site_symmetry_multiplicity
 _atom_site_fract_x
 _atom_site_fract_y
 _atom_site_fract_z
 _atom_site_occupancy
  Y  Y0  1  0.320909  0.320695  0.022037  1
  Np  Np1  1  0.817755  0.302386  0.298134  1
  Np  Np2  1  0.698355  0.181587  0.702908  1
  Np  Np3  1  0.181502  0.698364  0.703139  1
  Np  Np4  1  0.302368  0.818134  0.298262  1
  Np  Np5  1  0.206757  0.206812  0.544101  1
  Np  Np6  1  0.793900  0.793864  0.454312  1
  Np  Np7  1  0.678676  0.678589  0.978261  1
  Cr  Cr8  1  0.999199  0.998586  0.998234  1
  S  S9  1  0.824772  0.429514  0.534474  1
  S  S10  1  0.570905  0.174236  0.465084  1
  S  S11  1  0.174517  0.571011  0.465393  1
  S  S12  1  0.429549  0.824877  0.534664  1
  S  S13  1  0.941324  0.320022  0.031014  1
  S  S14  1  0.681095  0.052012  0.969138  1
  S  S15  1  0.052010  0.680774  0.969540  1
  S  S16  1  0.320184  0.941641  0.031340  1
  S  S17  1  0.207879  0.208355  0.282398  1
  S  S18  1  0.790008  0.790028  0.717892  1
  S  S19  1  0.056423  0.055836  0.771870  1
  S  S20  1  0.945352  0.945277  0.226893  1
  S  S21  1  0.302596  0.302551  0.753182  1
  S  S22  1  0.699714  0.699649  0.244649  1
  S  S23  1  0.522737  0.523113  0.827406  1
  S  S24  1  0.482450  0.483264  0.174579  1
  S  S25  1  0.999064  0.998824  0.501097  1
