# generated using pymatgen
data_Li2Dy3HoAs4
_symmetry_space_group_name_H-M   'P 1'
_cell_length_a   4.17139600
_cell_length_b   4.17139522
_cell_length_c   14.13432000
_cell_angle_alpha   90.00000000
_cell_angle_beta   90.00000000
_cell_angle_gamma   120.00000622
_symmetry_Int_Tables_number   1
_chemical_formula_structural   Li2Dy3HoAs4
_chemical_formula_sum   'Li2 Dy3 Ho1 As4'
_cell_volume   212.99444799
_cell_formula_units_Z   1
loop_
 _symmetry_equiv_pos_site_id
 _symmetry_equiv_pos_as_xyz
  1  'x, y, z'
loop_
 _atom_site_type_symbol
 _atom_site_label
 _atom_site_symmetry_multiplicity
 _atom_site_fract_x
 _atom_site_fract_y
 _atom_site_fract_z
 _atom_site_occupancy
  Li  Li0  1  0.000000  0.000000  0.749971  1
  Li  Li1  1  0.000000  0.000000  0.249896  1
  Dy  Dy2  1  0.666667  0.333333  0.389301  1
  Dy  Dy3  1  0.333333  0.666667  0.889359  1
  Dy  Dy4  1  0.333333  0.666667  0.610638  1
  Ho  Ho5  1  0.666667  0.333333  0.110621  1
  As  As6  1  0.333333  0.666667  0.249717  1
  As  As7  1  0.000000  0.000000  0.000447  1
  As  As8  1  0.000000  0.000000  0.499995  1
  As  As9  1  0.666667  0.333333  0.750054  1
