# generated using pymatgen
data_Hf6Re5Ge6Ir
_symmetry_space_group_name_H-M   'P 1'
_cell_length_a   7.84041837
_cell_length_b   7.86684240
_cell_length_c   7.84246052
_cell_angle_alpha   126.71155537
_cell_angle_beta   127.03409074
_cell_angle_gamma   78.38534282
_symmetry_Int_Tables_number   1
_chemical_formula_structural   Hf6Re5Ge6Ir
_chemical_formula_sum   'Hf6 Re5 Ge6 Ir1'
_cell_volume   299.88060126
_cell_formula_units_Z   1
loop_
 _symmetry_equiv_pos_site_id
 _symmetry_equiv_pos_as_xyz
  1  'x, y, z'
loop_
 _atom_site_type_symbol
 _atom_site_label
 _atom_site_symmetry_multiplicity
 _atom_site_fract_x
 _atom_site_fract_y
 _atom_site_fract_z
 _atom_site_occupancy
  Hf  Hf0  1  0.447937  0.660057  0.705343  1
  Hf  Hf1  1  0.547214  0.253203  0.201501  1
  Hf  Hf2  1  0.750189  0.846216  0.600897  1
  Hf  Hf3  1  0.245433  0.846961  0.096089  1
  Hf  Hf4  1  0.053161  0.253120  0.704966  1
  Hf  Hf5  1  0.954273  0.660504  0.212415  1
  Re  Re6  1  0.499929  0.506509  0.005949  1
  Re  Re7  1  0.998763  0.508506  0.509934  1
  Re  Re8  1  0.124150  0.253204  0.121209  1
  Re  Re9  1  0.871460  0.997120  0.126319  1
  Re  Re10  1  0.373356  0.000795  0.626378  1
  Ge  Ge11  1  0.251626  0.253602  0.498226  1
  Ge  Ge12  1  0.753186  0.253198  0.004467  1
  Ge  Ge13  1  0.332790  0.586349  0.253051  1
  Ge  Ge14  1  0.665742  0.919726  0.253239  1
  Ge  Ge15  1  0.165989  0.922528  0.756361  1
  Ge  Ge16  1  0.831473  0.584623  0.753190  1
  Ir  Ir17  1  0.633331  0.253384  0.630070  1
