# generated using pymatgen
data_Tb2CoNiTe
_symmetry_space_group_name_H-M   'P 1'
_cell_length_a   4.03652900
_cell_length_b   4.03652855
_cell_length_c   15.73857800
_cell_angle_alpha   90.00000000
_cell_angle_beta   90.00000000
_cell_angle_gamma   119.99997913
_symmetry_Int_Tables_number   1
_chemical_formula_structural   Tb2CoNiTe
_chemical_formula_sum   'Tb4 Co2 Ni2 Te2'
_cell_volume   222.08146771
_cell_formula_units_Z   2
loop_
 _symmetry_equiv_pos_site_id
 _symmetry_equiv_pos_as_xyz
  1  'x, y, z'
loop_
 _atom_site_type_symbol
 _atom_site_label
 _atom_site_symmetry_multiplicity
 _atom_site_fract_x
 _atom_site_fract_y
 _atom_site_fract_z
 _atom_site_occupancy
  Tb  Tb0  1  0.000000  0.000000  0.114983  1
  Tb  Tb1  1  0.000000  0.000000  0.612745  1
  Tb  Tb2  1  0.000000  0.000000  0.387255  1
  Tb  Tb3  1  0.000000  0.000000  0.885017  1
  Co  Co4  1  0.666667  0.333333  0.501560  1
  Co  Co5  1  0.333333  0.666667  0.498440  1
  Ni  Ni6  1  0.666667  0.333333  0.998579  1
  Ni  Ni7  1  0.333333  0.666667  0.001421  1
  Te  Te8  1  0.666667  0.333333  0.249566  1
  Te  Te9  1  0.333333  0.666667  0.750434  1
