# generated using pymatgen
data_Gd2InPdRh
_symmetry_space_group_name_H-M   'P 1'
_cell_length_a   7.69289464
_cell_length_b   7.69289383
_cell_length_c   3.79493400
_cell_angle_alpha   90.00000000
_cell_angle_beta   90.00000000
_cell_angle_gamma   89.84790456
_symmetry_Int_Tables_number   1
_chemical_formula_structural   Gd2InPdRh
_chemical_formula_sum   'Gd4 In2 Pd2 Rh2'
_cell_volume   224.58576215
_cell_formula_units_Z   2
loop_
 _symmetry_equiv_pos_site_id
 _symmetry_equiv_pos_as_xyz
  1  'x, y, z'
loop_
 _atom_site_type_symbol
 _atom_site_label
 _atom_site_symmetry_multiplicity
 _atom_site_fract_x
 _atom_site_fract_y
 _atom_site_fract_z
 _atom_site_occupancy
  Gd  Gd0  1  0.663224  0.163224  0.500000  1
  Gd  Gd1  1  0.336776  0.836776  0.500000  1
  Gd  Gd2  1  0.176520  0.323480  0.500000  1
  Gd  Gd3  1  0.823480  0.676520  0.500000  1
  In  In4  1  0.000000  0.000000  0.000000  1
  In  In5  1  0.500000  0.500000  0.000000  1
  Pd  Pd6  1  0.131139  0.631139  0.000000  1
  Pd  Pd7  1  0.868861  0.368861  0.000000  1
  Rh  Rh8  1  0.635168  0.864832  0.000000  1
  Rh  Rh9  1  0.364832  0.135168  0.000000  1
