# generated using pymatgen
data_Dy9Tm(OsRu)2
_symmetry_space_group_name_H-M   'P 1'
_cell_length_a   6.33779254
_cell_length_b   7.31435175
_cell_length_c   8.43783860
_cell_angle_alpha   96.78931800
_cell_angle_beta   112.05879227
_cell_angle_gamma   90.00000317
_symmetry_Int_Tables_number   1
_chemical_formula_structural   Dy9Tm(OsRu)2
_chemical_formula_sum   'Dy9 Tm1 Os2 Ru2'
_cell_volume   359.55758436
_cell_formula_units_Z   1
loop_
 _symmetry_equiv_pos_site_id
 _symmetry_equiv_pos_as_xyz
  1  'x, y, z'
loop_
 _atom_site_type_symbol
 _atom_site_label
 _atom_site_symmetry_multiplicity
 _atom_site_fract_x
 _atom_site_fract_y
 _atom_site_fract_z
 _atom_site_occupancy
  Dy  Dy0  1  0.793120  0.082952  0.816675  1
  Dy  Dy1  1  0.976444  0.417048  0.183325  1
  Dy  Dy2  1  0.207972  0.915030  0.185453  1
  Dy  Dy3  1  0.022519  0.584970  0.814547  1
  Dy  Dy4  1  0.205027  0.183515  0.564855  1
  Dy  Dy5  1  0.640172  0.316485  0.435145  1
  Dy  Dy6  1  0.794227  0.816101  0.433922  1
  Dy  Dy7  1  0.360305  0.683899  0.566078  1
  Dy  Dy8  1  0.421383  0.250000  0.000000  1
  Tm  Tm9  1  0.578894  0.750000  0.000000  1
  Os  Os10  1  0.603275  0.424339  0.781776  1
  Os  Os11  1  0.821498  0.075661  0.218224  1
  Ru  Ru12  1  0.397359  0.577976  0.219554  1
  Ru  Ru13  1  0.177806  0.922024  0.780446  1
