# generated using pymatgen
data_Er5ZnIn4Rh
_symmetry_space_group_name_H-M   'P 1'
_cell_length_a   3.58264400
_cell_length_b   8.14568840
_cell_length_c   18.18841479
_cell_angle_alpha   89.31099543
_cell_angle_beta   90.00000000
_cell_angle_gamma   90.00000000
_symmetry_Int_Tables_number   1
_chemical_formula_structural   Er5ZnIn4Rh
_chemical_formula_sum   'Er10 Zn2 In8 Rh2'
_cell_volume   530.75597966
_cell_formula_units_Z   2
loop_
 _symmetry_equiv_pos_site_id
 _symmetry_equiv_pos_as_xyz
  1  'x, y, z'
loop_
 _atom_site_type_symbol
 _atom_site_label
 _atom_site_symmetry_multiplicity
 _atom_site_fract_x
 _atom_site_fract_y
 _atom_site_fract_z
 _atom_site_occupancy
  Er  Er0  1  0.000000  0.118732  0.420006  1
  Er  Er1  1  0.000000  0.881268  0.579994  1
  Er  Er2  1  0.000000  0.384231  0.914874  1
  Er  Er3  1  0.000000  0.615769  0.085126  1
  Er  Er4  1  0.000000  0.259902  0.217427  1
  Er  Er5  1  0.000000  0.740098  0.782573  1
  Er  Er6  1  0.000000  0.283609  0.722796  1
  Er  Er7  1  0.000000  0.716391  0.277204  1
  Er  Er8  1  0.000000  0.000000  0.000000  1
  Er  Er9  1  0.000000  0.500000  0.500000  1
  Zn  Zn10  1  0.500000  0.019168  0.301099  1
  Zn  Zn11  1  0.500000  0.980832  0.698901  1
  In  In12  1  0.500000  0.418850  0.351829  1
  In  In13  1  0.500000  0.581150  0.648171  1
  In  In14  1  0.500000  0.079663  0.849805  1
  In  In15  1  0.500000  0.920337  0.150195  1
  In  In16  1  0.500000  0.293244  0.066799  1
  In  In17  1  0.500000  0.706756  0.933201  1
  In  In18  1  0.500000  0.209166  0.570146  1
  In  In19  1  0.500000  0.790834  0.429854  1
  Rh  Rh20  1  0.500000  0.477951  0.804721  1
  Rh  Rh21  1  0.500000  0.522049  0.195279  1
