# generated using pymatgen
data_Li3Nd8Si12Ag
_symmetry_space_group_name_H-M   'P 1'
_cell_length_a   11.03586571
_cell_length_b   9.32975664
_cell_length_c   8.33151238
_cell_angle_alpha   77.12479193
_cell_angle_beta   55.47086742
_cell_angle_gamma   47.36900698
_symmetry_Int_Tables_number   1
_chemical_formula_structural   Li3Nd8Si12Ag
_chemical_formula_sum   'Li3 Nd8 Si12 Ag1'
_cell_volume   501.25566014
_cell_formula_units_Z   1
loop_
 _symmetry_equiv_pos_site_id
 _symmetry_equiv_pos_as_xyz
  1  'x, y, z'
loop_
 _atom_site_type_symbol
 _atom_site_label
 _atom_site_symmetry_multiplicity
 _atom_site_fract_x
 _atom_site_fract_y
 _atom_site_fract_z
 _atom_site_occupancy
  Li  Li0  1  0.832794  0.167314  0.832872  1
  Li  Li1  1  0.166786  0.833085  0.167287  1
  Li  Li2  1  0.416996  0.082934  0.417293  1
  Nd  Nd3  1  0.378230  0.378013  0.620479  1
  Nd  Nd4  1  0.620645  0.622988  0.378725  1
  Nd  Nd5  1  0.873150  0.873457  0.626924  1
  Nd  Nd6  1  0.626923  0.626579  0.872955  1
  Nd  Nd7  1  0.876395  0.877378  0.124593  1
  Nd  Nd8  1  0.124552  0.121779  0.875577  1
  Nd  Nd9  1  0.374649  0.375761  0.126176  1
  Nd  Nd10  1  0.126038  0.123685  0.375033  1
  Si  Si11  1  0.666288  0.333681  0.666128  1
  Si  Si12  1  0.333960  0.666479  0.333337  1
  Si  Si13  1  0.582754  0.917524  0.582402  1
  Si  Si14  1  0.912670  0.586829  0.912948  1
  Si  Si15  1  0.331136  0.663202  0.834630  1
  Si  Si16  1  0.171256  0.834386  0.663039  1
  Si  Si17  1  0.834627  0.170754  0.331448  1
  Si  Si18  1  0.662518  0.331795  0.171673  1
  Si  Si19  1  0.916882  0.592413  0.420606  1
  Si  Si20  1  0.079635  0.411966  0.587288  1
  Si  Si21  1  0.420332  0.070238  0.916830  1
  Si  Si22  1  0.587996  0.920524  0.078920  1
  Ag  Ag23  1  0.082791  0.417235  0.082837  1
