# generated using pymatgen
data_Dy16Tl6FeNi
_symmetry_space_group_name_H-M   'P 1'
_cell_length_a   10.37500800
_cell_length_b   10.37500707
_cell_length_c   6.98045500
_cell_angle_alpha   90.00000000
_cell_angle_beta   90.00000000
_cell_angle_gamma   119.99999658
_symmetry_Int_Tables_number   1
_chemical_formula_structural   Dy16Tl6FeNi
_chemical_formula_sum   'Dy16 Tl6 Fe1 Ni1'
_cell_volume   650.71560252
_cell_formula_units_Z   1
loop_
 _symmetry_equiv_pos_site_id
 _symmetry_equiv_pos_as_xyz
  1  'x, y, z'
loop_
 _atom_site_type_symbol
 _atom_site_label
 _atom_site_symmetry_multiplicity
 _atom_site_fract_x
 _atom_site_fract_y
 _atom_site_fract_z
 _atom_site_occupancy
  Dy  Dy0  1  0.537683  0.075364  0.792460  1
  Dy  Dy1  1  0.924636  0.462317  0.792460  1
  Dy  Dy2  1  0.537683  0.462317  0.792460  1
  Dy  Dy3  1  0.466387  0.932775  0.294196  1
  Dy  Dy4  1  0.067225  0.533613  0.294196  1
  Dy  Dy5  1  0.466387  0.533613  0.294196  1
  Dy  Dy6  1  0.822551  0.645102  0.498972  1
  Dy  Dy7  1  0.354898  0.177449  0.498972  1
  Dy  Dy8  1  0.822551  0.177449  0.498972  1
  Dy  Dy9  1  0.177085  0.354172  0.996572  1
  Dy  Dy10  1  0.645828  0.822915  0.996572  1
  Dy  Dy11  1  0.177085  0.822915  0.996572  1
  Dy  Dy12  1  0.666667  0.333333  0.180653  1
  Dy  Dy13  1  0.333333  0.666667  0.679972  1
  Dy  Dy14  1  0.000000  0.000000  0.780262  1
  Dy  Dy15  1  0.000000  0.000000  0.277836  1
  Tl  Tl16  1  0.837424  0.674849  0.040778  1
  Tl  Tl17  1  0.325151  0.162576  0.040778  1
  Tl  Tl18  1  0.837424  0.162576  0.040778  1
  Tl  Tl19  1  0.163644  0.327287  0.539072  1
  Tl  Tl20  1  0.672713  0.836356  0.539072  1
  Tl  Tl21  1  0.163644  0.836356  0.539072  1
  Fe  Fe22  1  0.666667  0.333333  0.564662  1
  Ni  Ni23  1  0.333333  0.666667  0.066373  1
