# generated using pymatgen
data_Gd8Tm2Si5As
_symmetry_space_group_name_H-M   'P 1'
_cell_length_a   8.48203328
_cell_length_b   8.48203281
_cell_length_c   6.32964900
_cell_angle_alpha   90.01485415
_cell_angle_beta   90.01484740
_cell_angle_gamma   120.11702066
_symmetry_Int_Tables_number   1
_chemical_formula_structural   Gd8Tm2Si5As
_chemical_formula_sum   'Gd8 Tm2 Si5 As1'
_cell_volume   393.90981503
_cell_formula_units_Z   1
loop_
 _symmetry_equiv_pos_site_id
 _symmetry_equiv_pos_as_xyz
  1  'x, y, z'
loop_
 _atom_site_type_symbol
 _atom_site_label
 _atom_site_symmetry_multiplicity
 _atom_site_fract_x
 _atom_site_fract_y
 _atom_site_fract_z
 _atom_site_occupancy
  Gd  Gd0  1  0.669676  0.333101  0.500378  1
  Gd  Gd1  1  0.333101  0.669676  0.500378  1
  Gd  Gd2  1  0.755560  0.755560  0.248846  1
  Gd  Gd3  1  0.245971  0.996311  0.248843  1
  Gd  Gd4  1  0.996311  0.245971  0.248843  1
  Gd  Gd5  1  0.246269  0.246269  0.751335  1
  Gd  Gd6  1  0.753417  0.999863  0.751267  1
  Gd  Gd7  1  0.999863  0.753417  0.751267  1
  Tm  Tm8  1  0.333230  0.669011  0.999333  1
  Tm  Tm9  1  0.669011  0.333230  0.999333  1
  Si  Si10  1  0.604681  0.999225  0.242639  1
  Si  Si11  1  0.999225  0.604681  0.242639  1
  Si  Si12  1  0.605115  0.605115  0.756348  1
  Si  Si13  1  0.395245  0.001801  0.757958  1
  Si  Si14  1  0.001801  0.395245  0.757958  1
  As  As15  1  0.391521  0.391521  0.242634  1
