# generated using pymatgen
data_NaSm(NbSe2)8
_symmetry_space_group_name_H-M   'P 1'
_cell_length_a   7.01460700
_cell_length_b   7.01460737
_cell_length_c   14.93967200
_cell_angle_alpha   90.00000000
_cell_angle_beta   90.00000000
_cell_angle_gamma   120.00000296
_symmetry_Int_Tables_number   1
_chemical_formula_structural   NaSm(NbSe2)8
_chemical_formula_sum   'Na1 Sm1 Nb8 Se16'
_cell_volume   636.61723642
_cell_formula_units_Z   1
loop_
 _symmetry_equiv_pos_site_id
 _symmetry_equiv_pos_as_xyz
  1  'x, y, z'
loop_
 _atom_site_type_symbol
 _atom_site_label
 _atom_site_symmetry_multiplicity
 _atom_site_fract_x
 _atom_site_fract_y
 _atom_site_fract_z
 _atom_site_occupancy
  Na  Na0  1  0.000000  0.000000  0.000000  1
  Sm  Sm1  1  0.000000  0.000000  0.500000  1
  Nb  Nb2  1  0.000000  0.000000  0.258175  1
  Nb  Nb3  1  0.000000  0.000000  0.741825  1
  Nb  Nb4  1  0.508183  0.016369  0.256319  1
  Nb  Nb5  1  0.983631  0.491817  0.256319  1
  Nb  Nb6  1  0.508183  0.491817  0.256319  1
  Nb  Nb7  1  0.491817  0.983631  0.743681  1
  Nb  Nb8  1  0.016369  0.508183  0.743681  1
  Nb  Nb9  1  0.491817  0.508183  0.743681  1
  Se  Se10  1  0.333333  0.666667  0.859766  1
  Se  Se11  1  0.666667  0.333333  0.140234  1
  Se  Se12  1  0.666667  0.333333  0.373460  1
  Se  Se13  1  0.333333  0.666667  0.626540  1
  Se  Se14  1  0.171138  0.828862  0.367414  1
  Se  Se15  1  0.171138  0.342275  0.367414  1
  Se  Se16  1  0.657725  0.828862  0.367414  1
  Se  Se17  1  0.828862  0.171138  0.632586  1
  Se  Se18  1  0.828862  0.657725  0.632586  1
  Se  Se19  1  0.342275  0.171138  0.632586  1
  Se  Se20  1  0.832333  0.167667  0.852903  1
  Se  Se21  1  0.832333  0.664668  0.852903  1
  Se  Se22  1  0.335332  0.167667  0.852903  1
  Se  Se23  1  0.167667  0.832333  0.147097  1
  Se  Se24  1  0.167667  0.335332  0.147097  1
  Se  Se25  1  0.664668  0.832333  0.147097  1
