# generated using pymatgen
data_Sm2Y4Pt5Rh13
_symmetry_space_group_name_H-M   'P 1'
_cell_length_a   5.33242400
_cell_length_b   5.33242517
_cell_length_c   17.58518200
_cell_angle_alpha   90.00000000
_cell_angle_beta   90.00000000
_cell_angle_gamma   119.99999274
_symmetry_Int_Tables_number   1
_chemical_formula_structural   Sm2Y4Pt5Rh13
_chemical_formula_sum   'Sm2 Y4 Pt5 Rh13'
_cell_volume   433.03896407
_cell_formula_units_Z   1
loop_
 _symmetry_equiv_pos_site_id
 _symmetry_equiv_pos_as_xyz
  1  'x, y, z'
loop_
 _atom_site_type_symbol
 _atom_site_label
 _atom_site_symmetry_multiplicity
 _atom_site_fract_x
 _atom_site_fract_y
 _atom_site_fract_z
 _atom_site_occupancy
  Sm  Sm0  1  0.333333  0.666667  0.750000  1
  Sm  Sm1  1  0.666667  0.333333  0.250000  1
  Y  Y2  1  0.333333  0.666667  0.957003  1
  Y  Y3  1  0.666667  0.333333  0.042313  1
  Y  Y4  1  0.666667  0.333333  0.457687  1
  Y  Y5  1  0.333333  0.666667  0.542997  1
  Pt  Pt6  1  0.333333  0.666667  0.250000  1
  Pt  Pt7  1  0.666667  0.333333  0.750000  1
  Pt  Pt8  1  0.000000  0.000000  0.250000  1
  Pt  Pt9  1  0.000000  0.000000  0.500670  1
  Pt  Pt10  1  0.000000  0.000000  0.999330  1
  Rh  Rh11  1  0.168285  0.831715  0.375946  1
  Rh  Rh12  1  0.168285  0.336569  0.375946  1
  Rh  Rh13  1  0.663431  0.831715  0.375946  1
  Rh  Rh14  1  0.832361  0.167639  0.625786  1
  Rh  Rh15  1  0.832361  0.664723  0.625786  1
  Rh  Rh16  1  0.335277  0.167639  0.625786  1
  Rh  Rh17  1  0.832361  0.167639  0.874214  1
  Rh  Rh18  1  0.832361  0.664723  0.874214  1
  Rh  Rh19  1  0.335277  0.167639  0.874214  1
  Rh  Rh20  1  0.168285  0.831715  0.124054  1
  Rh  Rh21  1  0.168285  0.336569  0.124054  1
  Rh  Rh22  1  0.663431  0.831715  0.124054  1
  Rh  Rh23  1  0.000000  0.000000  0.750000  1
