# generated using pymatgen
data_AcLa2CoI3
_symmetry_space_group_name_H-M   'P 1'
_cell_length_a   4.59834000
_cell_length_b   9.72785290
_cell_length_c   12.22111019
_cell_angle_alpha   85.36941225
_cell_angle_beta   90.00000000
_cell_angle_gamma   90.00000000
_symmetry_Int_Tables_number   1
_chemical_formula_structural   AcLa2CoI3
_chemical_formula_sum   'Ac2 La4 Co2 I6'
_cell_volume   544.89000854
_cell_formula_units_Z   2
loop_
 _symmetry_equiv_pos_site_id
 _symmetry_equiv_pos_as_xyz
  1  'x, y, z'
loop_
 _atom_site_type_symbol
 _atom_site_label
 _atom_site_symmetry_multiplicity
 _atom_site_fract_x
 _atom_site_fract_y
 _atom_site_fract_z
 _atom_site_occupancy
  Ac  Ac0  1  0.250000  0.315036  0.879691  1
  Ac  Ac1  1  0.750000  0.684964  0.120309  1
  La  La2  1  0.750000  0.111064  0.677586  1
  La  La3  1  0.250000  0.888936  0.322414  1
  La  La4  1  0.750000  0.088572  0.092708  1
  La  La5  1  0.250000  0.911428  0.907292  1
  Co  Co6  1  0.750000  0.109552  0.870931  1
  Co  Co7  1  0.250000  0.890448  0.129069  1
  I  I8  1  0.750000  0.119044  0.375216  1
  I  I9  1  0.250000  0.880956  0.624784  1
  I  I10  1  0.250000  0.350261  0.606125  1
  I  I11  1  0.750000  0.649739  0.393875  1
  I  I12  1  0.750000  0.613148  0.853730  1
  I  I13  1  0.250000  0.386852  0.146270  1
