# generated using pymatgen
data_HoTm3(Si2Rh)2
_symmetry_space_group_name_H-M   'P 1'
_cell_length_a   5.63999521
_cell_length_b   5.63999510
_cell_length_c   9.97426014
_cell_angle_alpha   63.77101542
_cell_angle_beta   63.77101777
_cell_angle_gamma   43.50027283
_symmetry_Int_Tables_number   1
_chemical_formula_structural   HoTm3(Si2Rh)2
_chemical_formula_sum   'Ho1 Tm3 Si4 Rh2'
_cell_volume   192.09030511
_cell_formula_units_Z   1
loop_
 _symmetry_equiv_pos_site_id
 _symmetry_equiv_pos_as_xyz
  1  'x, y, z'
loop_
 _atom_site_type_symbol
 _atom_site_label
 _atom_site_symmetry_multiplicity
 _atom_site_fract_x
 _atom_site_fract_y
 _atom_site_fract_z
 _atom_site_occupancy
  Ho  Ho0  1  0.814505  0.814505  0.108867  1
  Tm  Tm1  1  0.000415  0.000415  0.325934  1
  Tm  Tm2  1  0.185231  0.185231  0.889762  1
  Tm  Tm3  1  0.998701  0.998701  0.674714  1
  Si  Si4  1  0.362257  0.362257  0.565662  1
  Si  Si5  1  0.488210  0.488210  0.878801  1
  Si  Si6  1  0.637573  0.637573  0.435343  1
  Si  Si7  1  0.513001  0.513001  0.120043  1
  Rh  Rh8  1  0.726024  0.726024  0.629213  1
  Rh  Rh9  1  0.274085  0.274085  0.371659  1
