# generated using pymatgen
data_HoEr15Cd4TcPd3
_symmetry_space_group_name_H-M   'P 1'
_cell_length_a   9.65738862
_cell_length_b   9.65738750
_cell_length_c   9.65738870
_cell_angle_alpha   59.20131786
_cell_angle_beta   59.20132303
_cell_angle_gamma   59.20132201
_symmetry_Int_Tables_number   1
_chemical_formula_structural   HoEr15Cd4TcPd3
_chemical_formula_sum   'Ho1 Er15 Cd4 Tc1 Pd3'
_cell_volume   625.30021508
_cell_formula_units_Z   1
loop_
 _symmetry_equiv_pos_site_id
 _symmetry_equiv_pos_as_xyz
  1  'x, y, z'
loop_
 _atom_site_type_symbol
 _atom_site_label
 _atom_site_symmetry_multiplicity
 _atom_site_fract_x
 _atom_site_fract_y
 _atom_site_fract_z
 _atom_site_occupancy
  Ho  Ho0  1  0.352995  0.352995  0.352995  1
  Er  Er1  1  0.351863  0.351863  0.943459  1
  Er  Er2  1  0.351863  0.943459  0.351863  1
  Er  Er3  1  0.943459  0.351863  0.351863  1
  Er  Er4  1  0.817163  0.187168  0.187168  1
  Er  Er5  1  0.188412  0.810796  0.810796  1
  Er  Er6  1  0.187168  0.817163  0.187168  1
  Er  Er7  1  0.810796  0.188412  0.810796  1
  Er  Er8  1  0.187168  0.187168  0.817163  1
  Er  Er9  1  0.810796  0.810796  0.188412  1
  Er  Er10  1  0.934577  0.566339  0.566339  1
  Er  Er11  1  0.556545  0.937816  0.937816  1
  Er  Er12  1  0.566339  0.934577  0.566339  1
  Er  Er13  1  0.937816  0.556545  0.937816  1
  Er  Er14  1  0.566339  0.566339  0.934577  1
  Er  Er15  1  0.937816  0.937816  0.556545  1
  Cd  Cd16  1  0.580550  0.580550  0.580550  1
  Cd  Cd17  1  0.581294  0.581294  0.253762  1
  Cd  Cd18  1  0.581294  0.253762  0.581294  1
  Cd  Cd19  1  0.253762  0.581294  0.581294  1
  Tc  Tc20  1  0.145079  0.145079  0.145079  1
  Pd  Pd21  1  0.144781  0.144781  0.567341  1
  Pd  Pd22  1  0.144781  0.567341  0.144781  1
  Pd  Pd23  1  0.567341  0.144781  0.144781  1
