# generated using pymatgen
data_TmTh2Al2Pt3Au
_symmetry_space_group_name_H-M   'P 1'
_cell_length_a   7.29593863
_cell_length_b   7.29593830
_cell_length_c   4.01110500
_cell_angle_alpha   90.00000000
_cell_angle_beta   90.00000000
_cell_angle_gamma   117.46465748
_symmetry_Int_Tables_number   1
_chemical_formula_structural   TmTh2Al2Pt3Au
_chemical_formula_sum   'Tm1 Th2 Al2 Pt3 Au1'
_cell_volume   189.45000896
_cell_formula_units_Z   1
loop_
 _symmetry_equiv_pos_site_id
 _symmetry_equiv_pos_as_xyz
  1  'x, y, z'
loop_
 _atom_site_type_symbol
 _atom_site_label
 _atom_site_symmetry_multiplicity
 _atom_site_fract_x
 _atom_site_fract_y
 _atom_site_fract_z
 _atom_site_occupancy
  Tm  Tm0  1  0.414989  0.414989  0.500000  1
  Th  Th1  1  0.592954  0.988754  0.500000  1
  Th  Th2  1  0.988754  0.592954  0.500000  1
  Al  Al3  1  0.247112  0.013098  0.000000  1
  Al  Al4  1  0.013098  0.247112  0.000000  1
  Pt  Pt5  1  0.660088  0.305219  0.000000  1
  Pt  Pt6  1  0.305219  0.660088  0.000000  1
  Pt  Pt7  1  0.036309  0.036309  0.500000  1
  Au  Au8  1  0.741478  0.741478  0.000000  1
