# generated using pymatgen
data_KLiThSe3
_symmetry_space_group_name_H-M   'P 1'
_cell_length_a   7.61605000
_cell_length_b   7.61605017
_cell_length_c   11.17903800
_cell_angle_alpha   90.00000000
_cell_angle_beta   90.00000000
_cell_angle_gamma   146.75606065
_symmetry_Int_Tables_number   1
_chemical_formula_structural   KLiThSe3
_chemical_formula_sum   'K2 Li2 Th2 Se6'
_cell_volume   355.47316582
_cell_formula_units_Z   2
loop_
 _symmetry_equiv_pos_site_id
 _symmetry_equiv_pos_as_xyz
  1  'x, y, z'
loop_
 _atom_site_type_symbol
 _atom_site_label
 _atom_site_symmetry_multiplicity
 _atom_site_fract_x
 _atom_site_fract_y
 _atom_site_fract_z
 _atom_site_occupancy
  K  K0  1  0.761414  0.238583  0.250000  1
  K  K1  1  0.238583  0.761414  0.750000  1
  Li  Li2  1  0.035666  0.964332  0.250000  1
  Li  Li3  1  0.964332  0.035666  0.750000  1
  Th  Th4  1  0.499999  0.499999  0.000000  1
  Th  Th5  1  0.499999  0.499999  0.500000  1
  Se  Se6  1  0.126451  0.873547  0.057640  1
  Se  Se7  1  0.440214  0.559783  0.250000  1
  Se  Se8  1  0.126451  0.873547  0.442359  1
  Se  Se9  1  0.873547  0.126451  0.557641  1
  Se  Se10  1  0.559783  0.440214  0.750000  1
  Se  Se11  1  0.873547  0.126451  0.942359  1
