# generated using pymatgen
data_Y3GeSe2O10F
_symmetry_space_group_name_H-M   'P 1'
_cell_length_a   6.05044500
_cell_length_b   10.55294600
_cell_length_c   15.75918700
_cell_angle_alpha   90.00000000
_cell_angle_beta   90.00000000
_cell_angle_gamma   90.00000000
_symmetry_Int_Tables_number   1
_chemical_formula_structural   Y3GeSe2O10F
_chemical_formula_sum   'Y12 Ge4 Se8 O40 F4'
_cell_volume   1006.22439506
_cell_formula_units_Z   4
loop_
 _symmetry_equiv_pos_site_id
 _symmetry_equiv_pos_as_xyz
  1  'x, y, z'
loop_
 _atom_site_type_symbol
 _atom_site_label
 _atom_site_symmetry_multiplicity
 _atom_site_fract_x
 _atom_site_fract_y
 _atom_site_fract_z
 _atom_site_occupancy
  Y  Y0  1  0.924942  0.886306  0.655659  1
  Y  Y1  1  0.075058  0.113694  0.344341  1
  Y  Y2  1  0.250000  0.374836  0.500000  1
  Y  Y3  1  0.750000  0.625164  0.500000  1
  Y  Y4  1  0.424942  0.113694  0.655659  1
  Y  Y5  1  0.424942  0.386306  0.844341  1
  Y  Y6  1  0.575058  0.613694  0.155659  1
  Y  Y7  1  0.750000  0.874836  0.000000  1
  Y  Y8  1  0.924942  0.613694  0.844341  1
  Y  Y9  1  0.075058  0.386306  0.155659  1
  Y  Y10  1  0.575058  0.886306  0.344341  1
  Y  Y11  1  0.250000  0.125164  0.000000  1
  Ge  Ge12  1  0.750000  0.357137  0.000000  1
  Ge  Ge13  1  0.250000  0.857137  0.500000  1
  Ge  Ge14  1  0.750000  0.142863  0.500000  1
  Ge  Ge15  1  0.250000  0.642863  0.000000  1
  Se  Se16  1  0.026586  0.884641  0.173983  1
  Se  Se17  1  0.973414  0.115359  0.826017  1
  Se  Se18  1  0.973414  0.384641  0.673983  1
  Se  Se19  1  0.526586  0.115359  0.173983  1
  Se  Se20  1  0.526586  0.384641  0.326017  1
  Se  Se21  1  0.473414  0.615359  0.673983  1
  Se  Se22  1  0.026586  0.615359  0.326017  1
  Se  Se23  1  0.473414  0.884641  0.826017  1
  O  O24  1  0.482793  0.983771  0.913868  1
  O  O25  1  0.982793  0.016229  0.913868  1
  O  O26  1  0.240814  0.550323  0.094480  1
  O  O27  1  0.010259  0.772558  0.531599  1
  O  O28  1  0.381059  0.032992  0.252206  1
  O  O29  1  0.740814  0.449677  0.094480  1
  O  O30  1  0.017207  0.983771  0.086132  1
  O  O31  1  0.740814  0.050323  0.405520  1
  O  O32  1  0.489741  0.727442  0.031599  1
  O  O33  1  0.989741  0.227442  0.468401  1
  O  O34  1  0.489741  0.772558  0.468401  1
  O  O35  1  0.881059  0.967008  0.252206  1
  O  O36  1  0.517207  0.016229  0.086132  1
  O  O37  1  0.820295  0.783248  0.139053  1
  O  O38  1  0.982793  0.483771  0.586132  1
  O  O39  1  0.179705  0.216752  0.860947  1
  O  O40  1  0.881059  0.532992  0.247794  1
  O  O41  1  0.759186  0.050323  0.594480  1
  O  O42  1  0.240814  0.949677  0.405520  1
  O  O43  1  0.118941  0.467008  0.752206  1
  O  O44  1  0.381059  0.467008  0.247794  1
  O  O45  1  0.510259  0.227442  0.531599  1
  O  O46  1  0.320295  0.283248  0.360947  1
  O  O47  1  0.759186  0.449677  0.905520  1
  O  O48  1  0.259186  0.550323  0.905520  1
  O  O49  1  0.320295  0.216752  0.139053  1
  O  O50  1  0.510259  0.272558  0.968401  1
  O  O51  1  0.179705  0.283248  0.639053  1
  O  O52  1  0.482793  0.516229  0.586132  1
  O  O53  1  0.010259  0.727442  0.968401  1
  O  O54  1  0.820295  0.716752  0.360947  1
  O  O55  1  0.618941  0.532992  0.752206  1
  O  O56  1  0.679705  0.783248  0.860947  1
  O  O57  1  0.517207  0.483771  0.413868  1
  O  O58  1  0.259186  0.949677  0.594480  1
  O  O59  1  0.118941  0.032992  0.747794  1
  O  O60  1  0.679705  0.716752  0.639053  1
  O  O61  1  0.017207  0.516229  0.413868  1
  O  O62  1  0.989741  0.272558  0.031599  1
  O  O63  1  0.618941  0.967008  0.747794  1
  F  F64  1  0.436950  0.750000  0.250000  1
  F  F65  1  0.936950  0.250000  0.250000  1
  F  F66  1  0.563050  0.250000  0.750000  1
  F  F67  1  0.063050  0.750000  0.750000  1
