# generated using pymatgen
data_ErTm3V3ReB16
_symmetry_space_group_name_H-M   'P 1'
_cell_length_a   3.47496800
_cell_length_b   5.95682803
_cell_length_c   11.52887101
_cell_angle_alpha   90.00415063
_cell_angle_beta   90.00000000
_cell_angle_gamma   90.00000000
_symmetry_Int_Tables_number   1
_chemical_formula_structural   ErTm3V3ReB16
_chemical_formula_sum   'Er1 Tm3 V3 Re1 B16'
_cell_volume   238.64517123
_cell_formula_units_Z   1
loop_
 _symmetry_equiv_pos_site_id
 _symmetry_equiv_pos_as_xyz
  1  'x, y, z'
loop_
 _atom_site_type_symbol
 _atom_site_label
 _atom_site_symmetry_multiplicity
 _atom_site_fract_x
 _atom_site_fract_y
 _atom_site_fract_z
 _atom_site_occupancy
  Er  Er0  1  0.500000  0.374739  0.348615  1
  Tm  Tm1  1  0.500000  0.124086  0.850078  1
  Tm  Tm2  1  0.500000  0.875416  0.150943  1
  Tm  Tm3  1  0.500000  0.626654  0.651761  1
  V  V4  1  0.500000  0.870873  0.417481  1
  V  V5  1  0.500000  0.627910  0.915855  1
  V  V6  1  0.500000  0.372319  0.082639  1
  Re  Re7  1  0.500000  0.128655  0.583596  1
  B  B8  1  0.000000  0.286799  0.685924  1
  B  B9  1  0.000000  0.714106  0.314147  1
  B  B10  1  0.000000  0.787046  0.814145  1
  B  B11  1  0.000000  0.212455  0.185692  1
  B  B12  1  0.000000  0.366190  0.531912  1
  B  B13  1  0.000000  0.634430  0.467599  1
  B  B14  1  0.000000  0.865408  0.967533  1
  B  B15  1  0.000000  0.134414  0.032445  1
  B  B16  1  0.000000  0.022089  0.306874  1
  B  B17  1  0.000000  0.976438  0.693296  1
  B  B18  1  0.000000  0.523476  0.192803  1
  B  B19  1  0.000000  0.477003  0.807063  1
  B  B20  1  0.000000  0.114184  0.452099  1
  B  B21  1  0.000000  0.884824  0.547556  1
  B  B22  1  0.000000  0.615628  0.047797  1
  B  B23  1  0.000000  0.384860  0.952146  1
