# generated using pymatgen
data_VRuI18
_symmetry_space_group_name_H-M   'P 1'
_cell_length_a   10.05479336
_cell_length_b   10.05479131
_cell_length_c   10.05479063
_cell_angle_alpha   90.79916953
_cell_angle_beta   90.79916797
_cell_angle_gamma   90.79916733
_symmetry_Int_Tables_number   1
_chemical_formula_structural   VRuI18
_chemical_formula_sum   'V1 Ru1 I18'
_cell_volume   1016.22832771
_cell_formula_units_Z   1
loop_
 _symmetry_equiv_pos_site_id
 _symmetry_equiv_pos_as_xyz
  1  'x, y, z'
loop_
 _atom_site_type_symbol
 _atom_site_label
 _atom_site_symmetry_multiplicity
 _atom_site_fract_x
 _atom_site_fract_y
 _atom_site_fract_z
 _atom_site_occupancy
  V  V0  1  0.000000  0.000000  0.000000  1
  Ru  Ru1  1  0.500000  0.500000  0.500000  1
  I  I2  1  0.272052  0.993684  0.023460  1
  I  I3  1  0.023460  0.272052  0.993684  1
  I  I4  1  0.993684  0.023460  0.272052  1
  I  I5  1  0.727948  0.006316  0.976540  1
  I  I6  1  0.976540  0.727948  0.006316  1
  I  I7  1  0.006316  0.976540  0.727948  1
  I  I8  1  0.626264  0.244398  0.120192  1
  I  I9  1  0.120192  0.626264  0.244398  1
  I  I10  1  0.244398  0.120192  0.626264  1
  I  I11  1  0.373736  0.755602  0.879808  1
  I  I12  1  0.879808  0.373736  0.755602  1
  I  I13  1  0.755602  0.879808  0.373736  1
  I  I14  1  0.489005  0.232588  0.516080  1
  I  I15  1  0.516080  0.489005  0.232588  1
  I  I16  1  0.232588  0.516080  0.489005  1
  I  I17  1  0.510995  0.767412  0.483920  1
  I  I18  1  0.483920  0.510995  0.767412  1
  I  I19  1  0.767412  0.483920  0.510995  1
