# generated using pymatgen
data_NaLi15(SiAs4)2
_symmetry_space_group_name_H-M   'P 1'
_cell_length_a   8.93236644
_cell_length_b   8.73295807
_cell_length_c   8.73294270
_cell_angle_alpha   59.75599576
_cell_angle_beta   59.24179531
_cell_angle_gamma   59.24162358
_symmetry_Int_Tables_number   1
_chemical_formula_structural   NaLi15(SiAs4)2
_chemical_formula_sum   'Na1 Li15 Si2 As8'
_cell_volume   475.23796235
_cell_formula_units_Z   1
loop_
 _symmetry_equiv_pos_site_id
 _symmetry_equiv_pos_as_xyz
  1  'x, y, z'
loop_
 _atom_site_type_symbol
 _atom_site_label
 _atom_site_symmetry_multiplicity
 _atom_site_fract_x
 _atom_site_fract_y
 _atom_site_fract_z
 _atom_site_occupancy
  Na  Na0  1  0.213981  0.786019  0.786019  1
  Li  Li1  1  0.623283  0.628850  0.124585  1
  Li  Li2  1  0.623282  0.124585  0.628850  1
  Li  Li3  1  0.124989  0.621957  0.621957  1
  Li  Li4  1  0.631096  0.621957  0.621957  1
  Li  Li5  1  0.018721  0.481279  0.481279  1
  Li  Li6  1  0.766514  0.233486  0.233486  1
  Li  Li7  1  0.487922  0.018700  0.478424  1
  Li  Li8  1  0.487921  0.478423  0.018700  1
  Li  Li9  1  0.014955  0.018700  0.478423  1
  Li  Li10  1  0.014955  0.478424  0.018700  1
  Li  Li11  1  0.484908  0.015092  0.015092  1
  Li  Li12  1  0.764691  0.231974  0.767055  1
  Li  Li13  1  0.236280  0.767055  0.231974  1
  Li  Li14  1  0.236281  0.231976  0.767054  1
  Li  Li15  1  0.764689  0.767054  0.231976  1
  Si  Si16  1  0.752708  0.747292  0.747292  1
  Si  Si17  1  0.498673  0.501327  0.501327  1
  As  As18  1  0.865135  0.860851  0.408880  1
  As  As19  1  0.865135  0.408880  0.860851  1
  As  As20  1  0.389881  0.381394  0.838844  1
  As  As21  1  0.389881  0.838844  0.381394  1
  As  As22  1  0.832828  0.389046  0.389047  1
  As  As23  1  0.847960  0.863895  0.863893  1
  As  As24  1  0.424253  0.863893  0.863895  1
  As  As25  1  0.389077  0.389047  0.389046  1
