# generated using pymatgen
data_VCo20(B3W)2
_symmetry_space_group_name_H-M   'P 1'
_cell_length_a   7.39698842
_cell_length_b   7.39698833
_cell_length_c   7.39698800
_cell_angle_alpha   60.00000150
_cell_angle_beta   60.00000186
_cell_angle_gamma   60.00000604
_symmetry_Int_Tables_number   1
_chemical_formula_structural   VCo20(B3W)2
_chemical_formula_sum   'V1 Co20 B6 W2'
_cell_volume   286.18694559
_cell_formula_units_Z   1
loop_
 _symmetry_equiv_pos_site_id
 _symmetry_equiv_pos_as_xyz
  1  'x, y, z'
loop_
 _atom_site_type_symbol
 _atom_site_label
 _atom_site_symmetry_multiplicity
 _atom_site_fract_x
 _atom_site_fract_y
 _atom_site_fract_z
 _atom_site_occupancy
  V  V0  1  0.000000  0.000000  0.000000  1
  Co  Co1  1  0.617930  0.617930  0.146209  1
  Co  Co2  1  0.617930  0.146209  0.617930  1
  Co  Co3  1  0.146209  0.617930  0.617930  1
  Co  Co4  1  0.617930  0.617930  0.617930  1
  Co  Co5  1  0.382070  0.382070  0.853791  1
  Co  Co6  1  0.382070  0.853791  0.382070  1
  Co  Co7  1  0.853791  0.382070  0.382070  1
  Co  Co8  1  0.382070  0.382070  0.382070  1
  Co  Co9  1  0.000000  0.000000  0.338826  1
  Co  Co10  1  0.661174  0.000000  0.338826  1
  Co  Co11  1  0.000000  0.661174  0.338826  1
  Co  Co12  1  0.661174  0.338826  0.000000  1
  Co  Co13  1  0.000000  0.338826  0.000000  1
  Co  Co14  1  0.000000  0.338826  0.661174  1
  Co  Co15  1  0.338826  0.661174  0.000000  1
  Co  Co16  1  0.338826  0.000000  0.661174  1
  Co  Co17  1  0.338826  0.000000  0.000000  1
  Co  Co18  1  0.000000  0.000000  0.661174  1
  Co  Co19  1  0.000000  0.661174  0.000000  1
  Co  Co20  1  0.661174  0.000000  0.000000  1
  B  B21  1  0.726245  0.726245  0.273755  1
  B  B22  1  0.273755  0.726245  0.273755  1
  B  B23  1  0.726245  0.273755  0.273755  1
  B  B24  1  0.273755  0.273755  0.726245  1
  B  B25  1  0.726245  0.273755  0.726245  1
  B  B26  1  0.273755  0.726245  0.726245  1
  W  W27  1  0.750000  0.750000  0.750000  1
  W  W28  1  0.250000  0.250000  0.250000  1
