# generated using pymatgen
data_Dy2ScCo(BIr2)2
_symmetry_space_group_name_H-M   'P 1'
_cell_length_a   3.15053300
_cell_length_b   9.66943000
_cell_length_c   9.66943000
_cell_angle_alpha   90.00000000
_cell_angle_beta   90.00000000
_cell_angle_gamma   90.00000000
_symmetry_Int_Tables_number   1
_chemical_formula_structural   Dy2ScCo(BIr2)2
_chemical_formula_sum   'Dy4 Sc2 Co2 B4 Ir8'
_cell_volume   294.56814542
_cell_formula_units_Z   2
loop_
 _symmetry_equiv_pos_site_id
 _symmetry_equiv_pos_as_xyz
  1  'x, y, z'
loop_
 _atom_site_type_symbol
 _atom_site_label
 _atom_site_symmetry_multiplicity
 _atom_site_fract_x
 _atom_site_fract_y
 _atom_site_fract_z
 _atom_site_occupancy
  Dy  Dy0  1  0.000000  0.175815  0.675815  1
  Dy  Dy1  1  0.000000  0.824185  0.324185  1
  Dy  Dy2  1  0.000000  0.324185  0.175815  1
  Dy  Dy3  1  0.000000  0.675815  0.824185  1
  Sc  Sc4  1  0.000000  0.000000  0.000000  1
  Sc  Sc5  1  0.000000  0.500000  0.500000  1
  Co  Co6  1  0.500000  0.000000  0.500000  1
  Co  Co7  1  0.500000  0.500000  0.000000  1
  B  B8  1  0.000000  0.610904  0.110904  1
  B  B9  1  0.000000  0.389096  0.889096  1
  B  B10  1  0.000000  0.889096  0.610904  1
  B  B11  1  0.000000  0.110904  0.389096  1
  Ir  Ir12  1  0.500000  0.065454  0.230727  1
  Ir  Ir13  1  0.500000  0.934546  0.769273  1
  Ir  Ir14  1  0.500000  0.769273  0.065454  1
  Ir  Ir15  1  0.500000  0.434546  0.730727  1
  Ir  Ir16  1  0.500000  0.230727  0.934546  1
  Ir  Ir17  1  0.500000  0.565454  0.269273  1
  Ir  Ir18  1  0.500000  0.730727  0.565454  1
  Ir  Ir19  1  0.500000  0.269273  0.434546  1
