# generated using pymatgen
data_RbSe4
_symmetry_space_group_name_H-M   'P 1'
_cell_length_a   6.67503500
_cell_length_b   7.35596844
_cell_length_c   13.27090099
_cell_angle_alpha   83.98847835
_cell_angle_beta   90.00000000
_cell_angle_gamma   90.00000000
_symmetry_Int_Tables_number   1
_chemical_formula_structural   RbSe4
_chemical_formula_sum   'Rb4 Se16'
_cell_volume   648.03576395
_cell_formula_units_Z   4
loop_
 _symmetry_equiv_pos_site_id
 _symmetry_equiv_pos_as_xyz
  1  'x, y, z'
loop_
 _atom_site_type_symbol
 _atom_site_label
 _atom_site_symmetry_multiplicity
 _atom_site_fract_x
 _atom_site_fract_y
 _atom_site_fract_z
 _atom_site_occupancy
  Rb  Rb0  1  0.379306  0.852982  0.854565  1
  Rb  Rb1  1  0.120694  0.852982  0.354565  1
  Rb  Rb2  1  0.879306  0.147018  0.645435  1
  Rb  Rb3  1  0.620694  0.147018  0.145435  1
  Se  Se4  1  0.903627  0.873402  0.974535  1
  Se  Se5  1  0.596373  0.873402  0.474535  1
  Se  Se6  1  0.998514  0.654141  0.713896  1
  Se  Se7  1  0.545140  0.627599  0.624782  1
  Se  Se8  1  0.501486  0.654141  0.213896  1
  Se  Se9  1  0.954860  0.627599  0.124782  1
  Se  Se10  1  0.199466  0.552949  0.583137  1
  Se  Se11  1  0.699466  0.447051  0.916863  1
  Se  Se12  1  0.300534  0.552949  0.083137  1
  Se  Se13  1  0.800534  0.447051  0.416863  1
  Se  Se14  1  0.045140  0.372401  0.875218  1
  Se  Se15  1  0.498514  0.345859  0.786104  1
  Se  Se16  1  0.454860  0.372401  0.375218  1
  Se  Se17  1  0.001486  0.345859  0.286104  1
  Se  Se18  1  0.403627  0.126598  0.525465  1
  Se  Se19  1  0.096373  0.126598  0.025465  1
