# generated using pymatgen
data_Er2Co5Ni5P6
_symmetry_space_group_name_H-M   'P 1'
_cell_length_a   3.66623000
_cell_length_b   10.24544900
_cell_length_c   11.81159600
_cell_angle_alpha   90.00000000
_cell_angle_beta   90.00000000
_cell_angle_gamma   90.00000000
_symmetry_Int_Tables_number   1
_chemical_formula_structural   Er2Co5Ni5P6
_chemical_formula_sum   'Er4 Co10 Ni10 P12'
_cell_volume   443.66920630
_cell_formula_units_Z   2
loop_
 _symmetry_equiv_pos_site_id
 _symmetry_equiv_pos_as_xyz
  1  'x, y, z'
loop_
 _atom_site_type_symbol
 _atom_site_label
 _atom_site_symmetry_multiplicity
 _atom_site_fract_x
 _atom_site_fract_y
 _atom_site_fract_z
 _atom_site_occupancy
  Er  Er0  1  0.250000  0.581491  0.704481  1
  Er  Er1  1  0.250000  0.918509  0.204481  1
  Er  Er2  1  0.750000  0.418954  0.296493  1
  Er  Er3  1  0.750000  0.081046  0.796493  1
  Co  Co4  1  0.750000  0.777133  0.824430  1
  Co  Co5  1  0.750000  0.722867  0.324430  1
  Co  Co6  1  0.250000  0.879295  0.698012  1
  Co  Co7  1  0.250000  0.620705  0.198012  1
  Co  Co8  1  0.750000  0.119623  0.301420  1
  Co  Co9  1  0.750000  0.380377  0.801420  1
  Co  Co10  1  0.250000  0.466256  0.932933  1
  Co  Co11  1  0.250000  0.033744  0.432933  1
  Co  Co12  1  0.750000  0.533661  0.067373  1
  Co  Co13  1  0.750000  0.966339  0.567373  1
  Ni  Ni14  1  0.250000  0.711735  0.987980  1
  Ni  Ni15  1  0.250000  0.788265  0.487980  1
  Ni  Ni16  1  0.750000  0.284419  0.009402  1
  Ni  Ni17  1  0.750000  0.215581  0.509402  1
  Ni  Ni18  1  0.250000  0.409171  0.485542  1
  Ni  Ni19  1  0.250000  0.090829  0.985542  1
  Ni  Ni20  1  0.750000  0.592059  0.515489  1
  Ni  Ni21  1  0.750000  0.907941  0.015489  1
  Ni  Ni22  1  0.250000  0.224100  0.175811  1
  Ni  Ni23  1  0.250000  0.275900  0.675811  1
  P  P24  1  0.250000  0.424750  0.113673  1
  P  P25  1  0.250000  0.075250  0.613673  1
  P  P26  1  0.750000  0.578618  0.886106  1
  P  P27  1  0.750000  0.921382  0.386106  1
  P  P28  1  0.250000  0.270608  0.867637  1
  P  P29  1  0.250000  0.229392  0.367637  1
  P  P30  1  0.750000  0.729592  0.134924  1
  P  P31  1  0.750000  0.770408  0.634924  1
  P  P32  1  0.250000  0.605707  0.387421  1
  P  P33  1  0.250000  0.894293  0.887421  1
  P  P34  1  0.750000  0.398724  0.610874  1
  P  P35  1  0.750000  0.101276  0.110874  1
