# generated using pymatgen
data_NaNd7Te8
_symmetry_space_group_name_H-M   'P 1'
_cell_length_a   9.00626841
_cell_length_b   9.00626868
_cell_length_c   9.00702500
_cell_angle_alpha   60.00276922
_cell_angle_beta   60.00277067
_cell_angle_gamma   60.00000319
_symmetry_Int_Tables_number   1
_chemical_formula_structural   NaNd7Te8
_chemical_formula_sum   'Na1 Nd7 Te8'
_cell_volume   516.62372640
_cell_formula_units_Z   1
loop_
 _symmetry_equiv_pos_site_id
 _symmetry_equiv_pos_as_xyz
  1  'x, y, z'
loop_
 _atom_site_type_symbol
 _atom_site_label
 _atom_site_symmetry_multiplicity
 _atom_site_fract_x
 _atom_site_fract_y
 _atom_site_fract_z
 _atom_site_occupancy
  Na  Na0  1  0.125000  0.125000  0.625000  1
  Nd  Nd1  1  0.625000  0.125000  0.625000  1
  Nd  Nd2  1  0.625000  0.625000  0.625000  1
  Nd  Nd3  1  0.125000  0.625000  0.625000  1
  Nd  Nd4  1  0.625000  0.625000  0.125000  1
  Nd  Nd5  1  0.125000  0.625000  0.125000  1
  Nd  Nd6  1  0.625000  0.125000  0.125000  1
  Nd  Nd7  1  0.125000  0.125000  0.125000  1
  Te  Te8  1  0.372245  0.877925  0.377585  1
  Te  Te9  1  0.877755  0.372075  0.872415  1
  Te  Te10  1  0.875087  0.875087  0.374739  1
  Te  Te11  1  0.877755  0.877755  0.872415  1
  Te  Te12  1  0.877925  0.372245  0.377585  1
  Te  Te13  1  0.374913  0.374913  0.875261  1
  Te  Te14  1  0.372245  0.372245  0.377585  1
  Te  Te15  1  0.372075  0.877755  0.872415  1
