# generated using pymatgen
data_Cr2Pt3RhO12
_symmetry_space_group_name_H-M   'P 1'
_cell_length_a   4.55929564
_cell_length_b   18.79388200
_cell_length_c   4.58650013
_cell_angle_alpha   90.00113720
_cell_angle_beta   89.89613822
_cell_angle_gamma   89.99985064
_symmetry_Int_Tables_number   1
_chemical_formula_structural   Cr2Pt3RhO12
_chemical_formula_sum   'Cr4 Pt6 Rh2 O24'
_cell_volume   393.00216868
_cell_formula_units_Z   2
loop_
 _symmetry_equiv_pos_site_id
 _symmetry_equiv_pos_as_xyz
  1  'x, y, z'
loop_
 _atom_site_type_symbol
 _atom_site_label
 _atom_site_symmetry_multiplicity
 _atom_site_fract_x
 _atom_site_fract_y
 _atom_site_fract_z
 _atom_site_occupancy
  Cr  Cr0  1  0.000016  0.500795  0.999998  1
  Cr  Cr1  1  0.499983  0.749368  0.500029  1
  Cr  Cr2  1  0.999988  0.000802  0.999997  1
  Cr  Cr3  1  0.500028  0.249383  0.499985  1
  Pt  Pt4  1  0.499972  0.416014  0.499995  1
  Pt  Pt5  1  0.499923  0.916030  0.500008  1
  Pt  Pt6  1  0.500058  0.084332  0.499985  1
  Pt  Pt7  1  0.500058  0.584332  0.500004  1
  Pt  Pt8  1  0.999976  0.333402  0.999983  1
  Pt  Pt9  1  0.999921  0.833397  0.000015  1
  Rh  Rh10  1  0.000069  0.166090  0.999991  1
  Rh  Rh11  1  0.000045  0.666070  0.000024  1
  O  O12  1  0.803280  0.249326  0.190025  1
  O  O13  1  0.803208  0.749305  0.190108  1
  O  O14  1  0.302731  0.000108  0.310133  1
  O  O15  1  0.302815  0.500079  0.310179  1
  O  O16  1  0.697218  0.500074  0.689811  1
  O  O17  1  0.697260  0.000103  0.689841  1
  O  O18  1  0.196771  0.249329  0.809954  1
  O  O19  1  0.196760  0.749310  0.809955  1
  O  O20  1  0.804407  0.418241  0.188165  1
  O  O21  1  0.804412  0.918276  0.188115  1
  O  O22  1  0.804639  0.082545  0.188686  1
  O  O23  1  0.804654  0.582542  0.188734  1
  O  O24  1  0.302661  0.168287  0.309160  1
  O  O25  1  0.302637  0.668288  0.309207  1
  O  O26  1  0.304189  0.331502  0.311771  1
  O  O27  1  0.304171  0.831494  0.311832  1
  O  O28  1  0.697556  0.168285  0.690737  1
  O  O29  1  0.697516  0.668290  0.690777  1
  O  O30  1  0.695669  0.331504  0.688292  1
  O  O31  1  0.695580  0.831497  0.688292  1
  O  O32  1  0.195441  0.418241  0.811727  1
  O  O33  1  0.195340  0.918272  0.811810  1
  O  O34  1  0.195527  0.082540  0.811337  1
  O  O35  1  0.195521  0.582544  0.811334  1
