# generated using pymatgen
data_SbTe(PtI)2
_symmetry_space_group_name_H-M   'P 1'
_cell_length_a   8.15894235
_cell_length_b   8.15894263
_cell_length_c   5.62122600
_cell_angle_alpha   90.00000000
_cell_angle_beta   90.00000000
_cell_angle_gamma   90.03940298
_symmetry_Int_Tables_number   1
_chemical_formula_structural   SbTe(PtI)2
_chemical_formula_sum   'Sb2 Te2 Pt4 I4'
_cell_volume   374.19560969
_cell_formula_units_Z   2
loop_
 _symmetry_equiv_pos_site_id
 _symmetry_equiv_pos_as_xyz
  1  'x, y, z'
loop_
 _atom_site_type_symbol
 _atom_site_label
 _atom_site_symmetry_multiplicity
 _atom_site_fract_x
 _atom_site_fract_y
 _atom_site_fract_z
 _atom_site_occupancy
  Sb  Sb0  1  0.001422  0.211044  0.000000  1
  Sb  Sb1  1  0.211044  0.001422  0.500000  1
  Te  Te2  1  0.798179  0.000124  0.500000  1
  Te  Te3  1  0.000124  0.798179  0.000000  1
  Pt  Pt4  1  0.249098  0.000866  0.000000  1
  Pt  Pt5  1  0.001470  0.751463  0.500000  1
  Pt  Pt6  1  0.000866  0.249098  0.500000  1
  Pt  Pt7  1  0.751463  0.001470  0.000000  1
  I  I8  1  0.499334  0.225439  0.000000  1
  I  I9  1  0.225439  0.499334  0.500000  1
  I  I10  1  0.762183  0.499378  0.500000  1
  I  I11  1  0.499378  0.762183  0.000000  1
