# generated using pymatgen
data_Li2PrP2Pd
_symmetry_space_group_name_H-M   'P 1'
_cell_length_a   4.13796800
_cell_length_b   4.13796951
_cell_length_c   6.84759900
_cell_angle_alpha   90.00000000
_cell_angle_beta   90.00000000
_cell_angle_gamma   120.00001988
_symmetry_Int_Tables_number   1
_chemical_formula_structural   Li2PrP2Pd
_chemical_formula_sum   'Li2 Pr1 P2 Pd1'
_cell_volume   101.54143086
_cell_formula_units_Z   1
loop_
 _symmetry_equiv_pos_site_id
 _symmetry_equiv_pos_as_xyz
  1  'x, y, z'
loop_
 _atom_site_type_symbol
 _atom_site_label
 _atom_site_symmetry_multiplicity
 _atom_site_fract_x
 _atom_site_fract_y
 _atom_site_fract_z
 _atom_site_occupancy
  Li  Li0  1  0.000000  0.000000  0.510904  1
  Li  Li1  1  0.333333  0.666667  0.640662  1
  Pr  Pr2  1  0.000000  0.000000  0.004400  1
  P  P3  1  0.333333  0.666667  0.261811  1
  P  P4  1  0.666667  0.333333  0.730548  1
  Pd  Pd5  1  0.666667  0.333333  0.351675  1
