# generated using pymatgen
data_Nd3ZnSn3Ir2
_symmetry_space_group_name_H-M   'P 1'
_cell_length_a   7.57085000
_cell_length_b   7.57084913
_cell_length_c   4.19128200
_cell_angle_alpha   90.00000000
_cell_angle_beta   90.00000000
_cell_angle_gamma   119.99999507
_symmetry_Int_Tables_number   1
_chemical_formula_structural   Nd3ZnSn3Ir2
_chemical_formula_sum   'Nd3 Zn1 Sn3 Ir2'
_cell_volume   208.04954431
_cell_formula_units_Z   1
loop_
 _symmetry_equiv_pos_site_id
 _symmetry_equiv_pos_as_xyz
  1  'x, y, z'
loop_
 _atom_site_type_symbol
 _atom_site_label
 _atom_site_symmetry_multiplicity
 _atom_site_fract_x
 _atom_site_fract_y
 _atom_site_fract_z
 _atom_site_occupancy
  Nd  Nd0  1  0.597393  0.011711  0.000000  1
  Nd  Nd1  1  0.988289  0.585682  0.000000  1
  Nd  Nd2  1  0.414318  0.402607  0.000000  1
  Zn  Zn3  1  0.333333  0.666667  0.500000  1
  Sn  Sn4  1  0.251222  0.003895  0.500000  1
  Sn  Sn5  1  0.996105  0.247327  0.500000  1
  Sn  Sn6  1  0.752673  0.748778  0.500000  1
  Ir  Ir7  1  0.666667  0.333333  0.500000  1
  Ir  Ir8  1  0.000000  0.000000  0.000000  1
