# generated using pymatgen
data_PrDyCo3P7Ru9
_symmetry_space_group_name_H-M   'P 1'
_cell_length_a   9.37259500
_cell_length_b   9.37259406
_cell_length_c   3.85006000
_cell_angle_alpha   90.00000000
_cell_angle_beta   90.00000000
_cell_angle_gamma   120.00000683
_symmetry_Int_Tables_number   1
_chemical_formula_structural   PrDyCo3P7Ru9
_chemical_formula_sum   'Pr1 Dy1 Co3 P7 Ru9'
_cell_volume   292.89891189
_cell_formula_units_Z   1
loop_
 _symmetry_equiv_pos_site_id
 _symmetry_equiv_pos_as_xyz
  1  'x, y, z'
loop_
 _atom_site_type_symbol
 _atom_site_label
 _atom_site_symmetry_multiplicity
 _atom_site_fract_x
 _atom_site_fract_y
 _atom_site_fract_z
 _atom_site_occupancy
  Pr  Pr0  1  0.333333  0.666667  0.000000  1
  Dy  Dy1  1  0.666667  0.333333  0.500000  1
  Co  Co2  1  0.157521  0.889671  0.000000  1
  Co  Co3  1  0.110329  0.267850  0.000000  1
  Co  Co4  1  0.732150  0.842479  0.000000  1
  P  P5  1  0.411922  0.109279  0.000000  1
  P  P6  1  0.890721  0.302643  0.000000  1
  P  P7  1  0.697357  0.588078  0.000000  1
  P  P8  1  0.112077  0.715422  0.500000  1
  P  P9  1  0.284578  0.396655  0.500000  1
  P  P10  1  0.603345  0.887923  0.500000  1
  P  P11  1  0.000000  0.000000  0.000000  1
  Ru  Ru12  1  0.424478  0.361707  0.000000  1
  Ru  Ru13  1  0.638293  0.062770  0.000000  1
  Ru  Ru14  1  0.937230  0.575522  0.000000  1
  Ru  Ru15  1  0.383658  0.951723  0.500000  1
  Ru  Ru16  1  0.048277  0.431935  0.500000  1
  Ru  Ru17  1  0.568065  0.616342  0.500000  1
  Ru  Ru18  1  0.204751  0.119526  0.500000  1
  Ru  Ru19  1  0.880474  0.085225  0.500000  1
  Ru  Ru20  1  0.914775  0.795249  0.500000  1
