# generated using pymatgen
data_Hf16IrPt7N4
_symmetry_space_group_name_H-M   'P 1'
_cell_length_a   8.77567098
_cell_length_b   8.78181250
_cell_length_c   8.78181300
_cell_angle_alpha   60.00000188
_cell_angle_beta   59.97684882
_cell_angle_gamma   59.97684608
_symmetry_Int_Tables_number   1
_chemical_formula_structural   Hf16IrPt7N4
_chemical_formula_sum   'Hf16 Ir1 Pt7 N4'
_cell_volume   478.38947402
_cell_formula_units_Z   1
loop_
 _symmetry_equiv_pos_site_id
 _symmetry_equiv_pos_as_xyz
  1  'x, y, z'
loop_
 _atom_site_type_symbol
 _atom_site_label
 _atom_site_symmetry_multiplicity
 _atom_site_fract_x
 _atom_site_fract_y
 _atom_site_fract_z
 _atom_site_occupancy
  Hf  Hf0  1  0.125030  0.624990  0.624990  1
  Hf  Hf1  1  0.626077  0.127002  0.623461  1
  Hf  Hf2  1  0.626077  0.623461  0.127002  1
  Hf  Hf3  1  0.626077  0.623461  0.623461  1
  Hf  Hf4  1  0.817582  0.816739  0.182839  1
  Hf  Hf5  1  0.182703  0.182442  0.817428  1
  Hf  Hf6  1  0.817582  0.182839  0.816739  1
  Hf  Hf7  1  0.182703  0.817428  0.182442  1
  Hf  Hf8  1  0.182703  0.817428  0.817428  1
  Hf  Hf9  1  0.817582  0.182839  0.182839  1
  Hf  Hf10  1  0.432112  0.432507  0.067690  1
  Hf  Hf11  1  0.064604  0.071028  0.432184  1
  Hf  Hf12  1  0.432112  0.067690  0.432507  1
  Hf  Hf13  1  0.064604  0.432184  0.071028  1
  Hf  Hf14  1  0.064604  0.432184  0.432184  1
  Hf  Hf15  1  0.432112  0.067690  0.067690  1
  Ir  Ir16  1  0.783151  0.405616  0.405616  1
  Pt  Pt17  1  0.406866  0.781484  0.405825  1
  Pt  Pt18  1  0.406866  0.405825  0.781484  1
  Pt  Pt19  1  0.406866  0.405825  0.405825  1
  Pt  Pt20  1  0.467648  0.844117  0.844117  1
  Pt  Pt21  1  0.844108  0.468304  0.843794  1
  Pt  Pt22  1  0.844108  0.843794  0.468304  1
  Pt  Pt23  1  0.844108  0.843794  0.843794  1
  N  N24  1  0.625854  0.124715  0.124715  1
  N  N25  1  0.125387  0.625381  0.124616  1
  N  N26  1  0.125387  0.124616  0.625381  1
  N  N27  1  0.125387  0.124616  0.124616  1
