# generated using pymatgen
data_Tb5Pa3(ReB6)4
_symmetry_space_group_name_H-M   'P 1'
_cell_length_a   3.71890200
_cell_length_b   9.21826250
_cell_length_c   11.54986030
_cell_angle_alpha   90.17344991
_cell_angle_beta   90.00000000
_cell_angle_gamma   90.00000000
_symmetry_Int_Tables_number   1
_chemical_formula_structural   Tb5Pa3(ReB6)4
_chemical_formula_sum   'Tb5 Pa3 Re4 B24'
_cell_volume   395.94835822
_cell_formula_units_Z   1
loop_
 _symmetry_equiv_pos_site_id
 _symmetry_equiv_pos_as_xyz
  1  'x, y, z'
loop_
 _atom_site_type_symbol
 _atom_site_label
 _atom_site_symmetry_multiplicity
 _atom_site_fract_x
 _atom_site_fract_y
 _atom_site_fract_z
 _atom_site_occupancy
  Tb  Tb0  1  0.000000  0.177405  0.912607  1
  Tb  Tb1  1  0.000000  0.945699  0.375468  1
  Tb  Tb2  1  0.000000  0.055155  0.626638  1
  Tb  Tb3  1  0.000000  0.443895  0.124584  1
  Tb  Tb4  1  0.000000  0.553393  0.874507  1
  Pa  Pa5  1  0.000000  0.322713  0.413004  1
  Pa  Pa6  1  0.000000  0.676635  0.587519  1
  Pa  Pa7  1  0.000000  0.824472  0.086472  1
  Re  Re8  1  0.000000  0.638184  0.322472  1
  Re  Re9  1  0.000000  0.364641  0.674159  1
  Re  Re10  1  0.000000  0.137622  0.180723  1
  Re  Re11  1  0.000000  0.859307  0.821692  1
  B  B12  1  0.500000  0.553050  0.432332  1
  B  B13  1  0.500000  0.447885  0.566250  1
  B  B14  1  0.500000  0.052381  0.068414  1
  B  B15  1  0.500000  0.945925  0.933068  1
  B  B16  1  0.500000  0.746889  0.420825  1
  B  B17  1  0.500000  0.253758  0.579525  1
  B  B18  1  0.500000  0.246373  0.079453  1
  B  B19  1  0.500000  0.753432  0.920890  1
  B  B20  1  0.500000  0.792660  0.266618  1
  B  B21  1  0.500000  0.208533  0.732574  1
  B  B22  1  0.500000  0.292510  0.232735  1
  B  B23  1  0.500000  0.707035  0.766781  1
  B  B24  1  0.500000  0.634180  0.185713  1
  B  B25  1  0.500000  0.366555  0.813322  1
  B  B26  1  0.500000  0.134381  0.314331  1
  B  B27  1  0.500000  0.865732  0.686961  1
  B  B28  1  0.500000  0.983249  0.213441  1
  B  B29  1  0.500000  0.016402  0.786664  1
  B  B30  1  0.500000  0.483635  0.285977  1
  B  B31  1  0.500000  0.516276  0.713540  1
  B  B32  1  0.500000  0.615093  0.032075  1
  B  B33  1  0.500000  0.384928  0.967778  1
  B  B34  1  0.500000  0.117549  0.467967  1
  B  B35  1  0.500000  0.882468  0.532922  1
