# generated using pymatgen
data_ErMg(Si7Rh3)2
_symmetry_space_group_name_H-M   'P 1'
_cell_length_a   7.96496417
_cell_length_b   7.96496484
_cell_length_c   7.96496511
_cell_angle_alpha   56.99410258
_cell_angle_beta   56.99409702
_cell_angle_gamma   56.99409403
_symmetry_Int_Tables_number   1
_chemical_formula_structural   ErMg(Si7Rh3)2
_chemical_formula_sum   'Er1 Mg1 Si14 Rh6'
_cell_volume   332.53781976
_cell_formula_units_Z   1
loop_
 _symmetry_equiv_pos_site_id
 _symmetry_equiv_pos_as_xyz
  1  'x, y, z'
loop_
 _atom_site_type_symbol
 _atom_site_label
 _atom_site_symmetry_multiplicity
 _atom_site_fract_x
 _atom_site_fract_y
 _atom_site_fract_z
 _atom_site_occupancy
  Er  Er0  1  0.500000  0.500000  0.500000  1
  Mg  Mg1  1  0.000000  0.000000  0.000000  1
  Si  Si2  1  0.749775  0.749775  0.749775  1
  Si  Si3  1  0.250225  0.250225  0.250225  1
  Si  Si4  1  0.852103  0.064725  0.673802  1
  Si  Si5  1  0.673802  0.852103  0.064725  1
  Si  Si6  1  0.064725  0.673802  0.852103  1
  Si  Si7  1  0.649524  0.828588  0.433804  1
  Si  Si8  1  0.433804  0.649524  0.828588  1
  Si  Si9  1  0.828588  0.433804  0.649524  1
  Si  Si10  1  0.171412  0.566196  0.350476  1
  Si  Si11  1  0.566196  0.350476  0.171412  1
  Si  Si12  1  0.350476  0.171412  0.566196  1
  Si  Si13  1  0.935275  0.326198  0.147897  1
  Si  Si14  1  0.326198  0.147897  0.935275  1
  Si  Si15  1  0.147897  0.935275  0.326198  1
  Rh  Rh16  1  0.072188  0.427680  0.750232  1
  Rh  Rh17  1  0.249768  0.927812  0.572320  1
  Rh  Rh18  1  0.572320  0.249768  0.927812  1
  Rh  Rh19  1  0.927812  0.572320  0.249768  1
  Rh  Rh20  1  0.427680  0.750232  0.072188  1
  Rh  Rh21  1  0.750232  0.072188  0.427680  1
