# generated using pymatgen
data_Tb3Er2P12Pd2Ru17
_symmetry_space_group_name_H-M   'P 1'
_cell_length_a   3.97523600
_cell_length_b   12.53907441
_cell_length_c   12.53915650
_cell_angle_alpha   119.36289818
_cell_angle_beta   90.00000000
_cell_angle_gamma   90.00000000
_symmetry_Int_Tables_number   1
_chemical_formula_structural   Tb3Er2P12Pd2Ru17
_chemical_formula_sum   'Tb3 Er2 P12 Pd2 Ru17'
_cell_volume   544.72814374
_cell_formula_units_Z   1
loop_
 _symmetry_equiv_pos_site_id
 _symmetry_equiv_pos_as_xyz
  1  'x, y, z'
loop_
 _atom_site_type_symbol
 _atom_site_label
 _atom_site_symmetry_multiplicity
 _atom_site_fract_x
 _atom_site_fract_y
 _atom_site_fract_z
 _atom_site_occupancy
  Tb  Tb0  1  0.500000  0.999487  0.181805  1
  Tb  Tb1  1  0.500000  0.181805  0.999488  1
  Tb  Tb2  1  0.500000  0.816767  0.816768  1
  Er  Er3  1  0.000000  0.335535  0.663750  1
  Er  Er4  1  0.000000  0.663731  0.335534  1
  P  P5  1  0.000000  0.001254  0.813576  1
  P  P6  1  0.000000  0.813574  0.001255  1
  P  P7  1  0.000000  0.183126  0.183131  1
  P  P8  1  0.500000  0.307055  0.477842  1
  P  P9  1  0.500000  0.182492  0.698985  1
  P  P10  1  0.500000  0.522129  0.822010  1
  P  P11  1  0.500000  0.822008  0.522129  1
  P  P12  1  0.500000  0.477838  0.307058  1
  P  P13  1  0.500000  0.698986  0.182494  1
  P  P14  1  0.000000  0.999206  0.365339  1
  P  P15  1  0.000000  0.365337  0.999209  1
  P  P16  1  0.000000  0.625757  0.625757  1
  Pd  Pd17  1  0.000000  0.000361  0.552861  1
  Pd  Pd18  1  0.000000  0.552856  0.000362  1
  Ru  Ru19  1  0.000000  0.444766  0.444769  1
  Ru  Ru20  1  0.500000  0.001955  0.713237  1
  Ru  Ru21  1  0.500000  0.713232  0.001956  1
  Ru  Ru22  1  0.500000  0.282859  0.282864  1
  Ru  Ru23  1  0.000000  0.192175  0.377314  1
  Ru  Ru24  1  0.000000  0.187099  0.805136  1
  Ru  Ru25  1  0.000000  0.623181  0.814850  1
  Ru  Ru26  1  0.000000  0.814850  0.623184  1
  Ru  Ru27  1  0.000000  0.377311  0.192177  1
  Ru  Ru28  1  0.000000  0.805133  0.187100  1
  Ru  Ru29  1  0.500000  0.128644  0.494476  1
  Ru  Ru30  1  0.500000  0.370410  0.877218  1
  Ru  Ru31  1  0.500000  0.507169  0.631828  1
  Ru  Ru32  1  0.500000  0.631827  0.507176  1
  Ru  Ru33  1  0.500000  0.494470  0.128643  1
  Ru  Ru34  1  0.500000  0.877215  0.370413  1
  Ru  Ru35  1  0.000000  0.998298  0.998301  1
