# generated using pymatgen
data_Tb12CoTc2Ir
_symmetry_space_group_name_H-M   'P 1'
_cell_length_a   6.37451418
_cell_length_b   7.29783527
_cell_length_c   9.29238900
_cell_angle_alpha   90.00000000
_cell_angle_beta   90.00000000
_cell_angle_gamma   90.11871504
_symmetry_Int_Tables_number   1
_chemical_formula_structural   Tb12CoTc2Ir
_chemical_formula_sum   'Tb12 Co1 Tc2 Ir1'
_cell_volume   432.28244334
_cell_formula_units_Z   1
loop_
 _symmetry_equiv_pos_site_id
 _symmetry_equiv_pos_as_xyz
  1  'x, y, z'
loop_
 _atom_site_type_symbol
 _atom_site_label
 _atom_site_symmetry_multiplicity
 _atom_site_fract_x
 _atom_site_fract_y
 _atom_site_fract_z
 _atom_site_occupancy
  Tb  Tb0  1  0.327521  0.678714  0.065828  1
  Tb  Tb1  1  0.167511  0.178868  0.439044  1
  Tb  Tb2  1  0.667802  0.325756  0.565760  1
  Tb  Tb3  1  0.827013  0.819797  0.933151  1
  Tb  Tb4  1  0.667802  0.325756  0.934240  1
  Tb  Tb5  1  0.827013  0.819797  0.566849  1
  Tb  Tb6  1  0.327521  0.678714  0.434172  1
  Tb  Tb7  1  0.167511  0.178868  0.060956  1
  Tb  Tb8  1  0.866752  0.538381  0.250000  1
  Tb  Tb9  1  0.632548  0.042019  0.250000  1
  Tb  Tb10  1  0.142487  0.460074  0.750000  1
  Tb  Tb11  1  0.371602  0.951958  0.750000  1
  Co  Co12  1  0.541418  0.615211  0.750000  1
  Tc  Tc13  1  0.458654  0.390317  0.250000  1
  Tc  Tc14  1  0.965249  0.108817  0.750000  1
  Ir  Ir15  1  0.041597  0.886951  0.250000  1
