# generated using pymatgen
data_Y3Th(Al8Pd3)3
_symmetry_space_group_name_H-M   'P 1'
_cell_length_a   7.57447746
_cell_length_b   7.59952480
_cell_length_c   13.19071985
_cell_angle_alpha   84.51105782
_cell_angle_beta   78.98771009
_cell_angle_gamma   59.94408544
_symmetry_Int_Tables_number   1
_chemical_formula_structural   Y3Th(Al8Pd3)3
_chemical_formula_sum   'Y3 Th1 Al24 Pd9'
_cell_volume   645.09210880
_cell_formula_units_Z   1
loop_
 _symmetry_equiv_pos_site_id
 _symmetry_equiv_pos_as_xyz
  1  'x, y, z'
loop_
 _atom_site_type_symbol
 _atom_site_label
 _atom_site_symmetry_multiplicity
 _atom_site_fract_x
 _atom_site_fract_y
 _atom_site_fract_z
 _atom_site_occupancy
  Y  Y0  1  0.606161  0.831131  0.192791  1
  Y  Y1  1  0.733310  0.498660  0.808239  1
  Y  Y2  1  0.266026  0.501990  0.192825  1
  Th  Th3  1  0.393489  0.167940  0.808145  1
  Al  Al4  1  0.686965  0.830606  0.947604  1
  Al  Al5  1  0.315045  0.166267  0.058944  1
  Al  Al6  1  0.146363  0.833577  0.560107  1
  Al  Al7  1  0.855041  0.166519  0.436927  1
  Al  Al8  1  0.480521  0.166595  0.556956  1
  Al  Al9  1  0.520756  0.832350  0.439821  1
  Al  Al10  1  0.217773  0.165378  0.328859  1
  Al  Al11  1  0.787410  0.831365  0.666830  1
  Al  Al12  1  0.437517  0.510403  0.667519  1
  Al  Al13  1  0.563554  0.493288  0.328556  1
  Al  Al14  1  0.106908  0.159438  0.665790  1
  Al  Al15  1  0.890930  0.840283  0.329960  1
  Al  Al16  1  0.351412  0.502999  0.947514  1
  Al  Al17  1  0.645995  0.501373  0.056672  1
  Al  Al18  1  0.011425  0.167092  0.958446  1
  Al  Al19  1  0.983802  0.831705  0.048429  1
  Al  Al20  1  0.186437  0.500437  0.439934  1
  Al  Al21  1  0.813376  0.500151  0.558577  1
  Al  Al22  1  0.733332  0.164166  0.183878  1
  Al  Al23  1  0.265678  0.832519  0.816288  1
  Al  Al24  1  0.058532  0.634538  0.815008  1
  Al  Al25  1  0.937520  0.369969  0.185548  1
  Al  Al26  1  0.859307  0.041272  0.816341  1
  Al  Al27  1  0.144367  0.957712  0.184508  1
  Pd  Pd28  1  0.120997  0.491928  0.637745  1
  Pd  Pd29  1  0.880356  0.507469  0.361662  1
  Pd  Pd30  1  0.656615  0.171484  0.000272  1
  Pd  Pd31  1  0.342587  0.829383  0.000520  1
  Pd  Pd32  1  0.537933  0.166869  0.361440  1
  Pd  Pd33  1  0.461930  0.833865  0.637622  1
  Pd  Pd34  1  0.778174  0.174625  0.637244  1
  Pd  Pd35  1  0.221722  0.825250  0.362026  1
  Pd  Pd36  1  0.000738  0.499405  0.000456  1
