# generated using pymatgen
data_SrAc3(AsPt)4
_symmetry_space_group_name_H-M   'P 1'
_cell_length_a   4.45440600
_cell_length_b   4.45440571
_cell_length_c   17.03749900
_cell_angle_alpha   90.00000000
_cell_angle_beta   90.00000000
_cell_angle_gamma   119.99998728
_symmetry_Int_Tables_number   1
_chemical_formula_structural   SrAc3(AsPt)4
_chemical_formula_sum   'Sr1 Ac3 As4 Pt4'
_cell_volume   292.76294001
_cell_formula_units_Z   1
loop_
 _symmetry_equiv_pos_site_id
 _symmetry_equiv_pos_as_xyz
  1  'x, y, z'
loop_
 _atom_site_type_symbol
 _atom_site_label
 _atom_site_symmetry_multiplicity
 _atom_site_fract_x
 _atom_site_fract_y
 _atom_site_fract_z
 _atom_site_occupancy
  Sr  Sr0  1  0.000000  0.000000  0.000000  1
  Ac  Ac1  1  0.000000  0.000000  0.500000  1
  Ac  Ac2  1  0.000000  0.000000  0.250003  1
  Ac  Ac3  1  0.000000  0.000000  0.749997  1
  As  As4  1  0.333333  0.666667  0.875507  1
  As  As5  1  0.666667  0.333333  0.378220  1
  As  As6  1  0.666667  0.333333  0.124493  1
  As  As7  1  0.333333  0.666667  0.621780  1
  Pt  Pt8  1  0.333333  0.666667  0.374388  1
  Pt  Pt9  1  0.666667  0.333333  0.871426  1
  Pt  Pt10  1  0.666667  0.333333  0.625612  1
  Pt  Pt11  1  0.333333  0.666667  0.128574  1
