# generated using pymatgen
data_Th4ZnSi5Rh2
_symmetry_space_group_name_H-M   'P 1'
_cell_length_a   8.37079900
_cell_length_b   8.37082388
_cell_length_c   8.32960300
_cell_angle_alpha   89.99963723
_cell_angle_beta   90.00034908
_cell_angle_gamma   120.00465581
_symmetry_Int_Tables_number   1
_chemical_formula_structural   Th4ZnSi5Rh2
_chemical_formula_sum   'Th8 Zn2 Si10 Rh4'
_cell_volume   505.44007828
_cell_formula_units_Z   2
loop_
 _symmetry_equiv_pos_site_id
 _symmetry_equiv_pos_as_xyz
  1  'x, y, z'
loop_
 _atom_site_type_symbol
 _atom_site_label
 _atom_site_symmetry_multiplicity
 _atom_site_fract_x
 _atom_site_fract_y
 _atom_site_fract_z
 _atom_site_occupancy
  Th  Th0  1  0.499906  0.500090  0.754344  1
  Th  Th1  1  0.500094  0.499910  0.245656  1
  Th  Th2  1  0.000180  0.500095  0.754421  1
  Th  Th3  1  0.999820  0.499905  0.245579  1
  Th  Th4  1  0.499906  0.999819  0.754421  1
  Th  Th5  1  0.500094  0.000181  0.245579  1
  Th  Th6  1  0.000017  0.999982  0.746161  1
  Th  Th7  1  0.999983  0.000018  0.253839  1
  Zn  Zn8  1  0.836465  0.163536  0.999831  1
  Zn  Zn9  1  0.163535  0.836464  0.000169  1
  Si  Si10  1  0.330796  0.166534  0.999897  1
  Si  Si11  1  0.165966  0.834034  0.499857  1
  Si  Si12  1  0.669204  0.833466  0.000103  1
  Si  Si13  1  0.834034  0.165966  0.500143  1
  Si  Si14  1  0.833465  0.669204  0.999897  1
  Si  Si15  1  0.666336  0.832728  0.499892  1
  Si  Si16  1  0.166535  0.330796  0.000103  1
  Si  Si17  1  0.333664  0.167272  0.500108  1
  Si  Si18  1  0.167272  0.333667  0.499892  1
  Si  Si19  1  0.832728  0.666333  0.500108  1
  Rh  Rh20  1  0.661495  0.338506  0.999804  1
  Rh  Rh21  1  0.338505  0.661494  0.000196  1
  Rh  Rh22  1  0.332522  0.667483  0.499775  1
  Rh  Rh23  1  0.667478  0.332517  0.500225  1
