# generated using pymatgen
data_Tb4InSn7Pd12
_symmetry_space_group_name_H-M   'P 1'
_cell_length_a   4.76285700
_cell_length_b   10.22071560
_cell_length_c   9.79344055
_cell_angle_alpha   89.76485000
_cell_angle_beta   90.00000000
_cell_angle_gamma   90.00000000
_symmetry_Int_Tables_number   1
_chemical_formula_structural   Tb4InSn7Pd12
_chemical_formula_sum   'Tb4 In1 Sn7 Pd12'
_cell_volume   476.73877883
_cell_formula_units_Z   1
loop_
 _symmetry_equiv_pos_site_id
 _symmetry_equiv_pos_as_xyz
  1  'x, y, z'
loop_
 _atom_site_type_symbol
 _atom_site_label
 _atom_site_symmetry_multiplicity
 _atom_site_fract_x
 _atom_site_fract_y
 _atom_site_fract_z
 _atom_site_occupancy
  Tb  Tb0  1  0.250000  0.434005  0.734071  1
  Tb  Tb1  1  0.250000  0.066414  0.235317  1
  Tb  Tb2  1  0.750000  0.566880  0.267306  1
  Tb  Tb3  1  0.750000  0.933876  0.765214  1
  In  In4  1  0.750000  0.652962  0.614137  1
  Sn  Sn5  1  0.250000  0.871290  0.522586  1
  Sn  Sn6  1  0.250000  0.622541  0.023798  1
  Sn  Sn7  1  0.750000  0.125264  0.478040  1
  Sn  Sn8  1  0.750000  0.377350  0.975537  1
  Sn  Sn9  1  0.250000  0.153841  0.888062  1
  Sn  Sn10  1  0.250000  0.345862  0.387158  1
  Sn  Sn11  1  0.750000  0.846338  0.111742  1
  Pd  Pd12  1  0.250000  0.137894  0.603504  1
  Pd  Pd13  1  0.250000  0.357071  0.101806  1
  Pd  Pd14  1  0.750000  0.867107  0.393010  1
  Pd  Pd15  1  0.750000  0.645156  0.900887  1
  Pd  Pd16  1  0.250000  0.728552  0.753673  1
  Pd  Pd17  1  0.250000  0.770958  0.252379  1
  Pd  Pd18  1  0.750000  0.270861  0.245853  1
  Pd  Pd19  1  0.750000  0.228967  0.747369  1
  Pd  Pd20  1  0.250000  0.906664  0.980762  1
  Pd  Pd21  1  0.250000  0.591894  0.478932  1
  Pd  Pd22  1  0.750000  0.093403  0.019698  1
  Pd  Pd23  1  0.750000  0.404849  0.519159  1
