# generated using pymatgen
data_Tb4HgRh
_symmetry_space_group_name_H-M   'P 1'
_cell_length_a   9.64330912
_cell_length_b   9.64330792
_cell_length_c   9.64330900
_cell_angle_alpha   59.99999974
_cell_angle_beta   60.00000385
_cell_angle_gamma   60.00000242
_symmetry_Int_Tables_number   1
_chemical_formula_structural   Tb4HgRh
_chemical_formula_sum   'Tb16 Hg4 Rh4'
_cell_volume   634.10799372
_cell_formula_units_Z   4
loop_
 _symmetry_equiv_pos_site_id
 _symmetry_equiv_pos_as_xyz
  1  'x, y, z'
loop_
 _atom_site_type_symbol
 _atom_site_label
 _atom_site_symmetry_multiplicity
 _atom_site_fract_x
 _atom_site_fract_y
 _atom_site_fract_z
 _atom_site_occupancy
  Tb  Tb0  1  0.303358  0.898881  0.898881  1
  Tb  Tb1  1  0.687120  0.312880  0.687120  1
  Tb  Tb2  1  0.312880  0.687120  0.312880  1
  Tb  Tb3  1  0.060116  0.439884  0.439884  1
  Tb  Tb4  1  0.687120  0.312880  0.312880  1
  Tb  Tb5  1  0.439884  0.060116  0.439884  1
  Tb  Tb6  1  0.439884  0.060116  0.060116  1
  Tb  Tb7  1  0.898881  0.898881  0.898881  1
  Tb  Tb8  1  0.060116  0.439884  0.060116  1
  Tb  Tb9  1  0.898881  0.303358  0.898881  1
  Tb  Tb10  1  0.312880  0.687120  0.687120  1
  Tb  Tb11  1  0.898881  0.898881  0.303358  1
  Tb  Tb12  1  0.439884  0.439884  0.060116  1
  Tb  Tb13  1  0.312880  0.312880  0.687120  1
  Tb  Tb14  1  0.687120  0.687120  0.312880  1
  Tb  Tb15  1  0.060116  0.060116  0.439884  1
  Hg  Hg16  1  0.005096  0.664968  0.664968  1
  Hg  Hg17  1  0.664968  0.005096  0.664968  1
  Hg  Hg18  1  0.664968  0.664968  0.005096  1
  Hg  Hg19  1  0.664968  0.664968  0.664968  1
  Rh  Rh20  1  0.107560  0.107560  0.677319  1
  Rh  Rh21  1  0.107560  0.677319  0.107560  1
  Rh  Rh22  1  0.107560  0.107560  0.107560  1
  Rh  Rh23  1  0.677319  0.107560  0.107560  1
