# generated using pymatgen
data_LiCa(UBr6)2
_symmetry_space_group_name_H-M   'P 1'
_cell_length_a   7.18281915
_cell_length_b   7.18281926
_cell_length_c   13.94788600
_cell_angle_alpha   84.25000592
_cell_angle_beta   84.25000583
_cell_angle_gamma   119.52702509
_symmetry_Int_Tables_number   1
_chemical_formula_structural   LiCa(UBr6)2
_chemical_formula_sum   'Li1 Ca1 U2 Br12'
_cell_volume   613.63334033
_cell_formula_units_Z   1
loop_
 _symmetry_equiv_pos_site_id
 _symmetry_equiv_pos_as_xyz
  1  'x, y, z'
loop_
 _atom_site_type_symbol
 _atom_site_label
 _atom_site_symmetry_multiplicity
 _atom_site_fract_x
 _atom_site_fract_y
 _atom_site_fract_z
 _atom_site_occupancy
  Li  Li0  1  0.084820  0.915180  0.250000  1
  Ca  Ca1  1  0.916020  0.083980  0.750000  1
  U  U2  1  0.419181  0.580819  0.250000  1
  U  U3  1  0.581041  0.418959  0.750000  1
  Br  Br4  1  0.303637  0.454630  0.632947  1
  Br  Br5  1  0.445800  0.304272  0.138754  1
  Br  Br6  1  0.214487  0.062687  0.868952  1
  Br  Br7  1  0.076023  0.221721  0.362521  1
  Br  Br8  1  0.163298  0.643829  0.137017  1
  Br  Br9  1  0.638713  0.155883  0.631077  1
  Br  Br10  1  0.356171  0.836702  0.362983  1
  Br  Br11  1  0.844117  0.361287  0.868923  1
  Br  Br12  1  0.778279  0.923977  0.137479  1
  Br  Br13  1  0.937313  0.785513  0.631048  1
  Br  Br14  1  0.545370  0.696363  0.867053  1
  Br  Br15  1  0.695728  0.554200  0.361246  1
