# generated using pymatgen
data_Y7Th(InNi)2
_symmetry_space_group_name_H-M   'P 1'
_cell_length_a   9.64821498
_cell_length_b   9.64821624
_cell_length_c   9.72447800
_cell_angle_alpha   59.73818375
_cell_angle_beta   59.73817940
_cell_angle_gamma   59.90046716
_symmetry_Int_Tables_number   1
_chemical_formula_structural   Y7Th(InNi)2
_chemical_formula_sum   'Y14 Th2 In4 Ni4'
_cell_volume   637.07432754
_cell_formula_units_Z   2
loop_
 _symmetry_equiv_pos_site_id
 _symmetry_equiv_pos_as_xyz
  1  'x, y, z'
loop_
 _atom_site_type_symbol
 _atom_site_label
 _atom_site_symmetry_multiplicity
 _atom_site_fract_x
 _atom_site_fract_y
 _atom_site_fract_z
 _atom_site_occupancy
  Y  Y0  1  0.599123  0.199021  0.600927  1
  Y  Y1  1  0.199021  0.599123  0.600927  1
  Y  Y2  1  0.061413  0.440854  0.437912  1
  Y  Y3  1  0.440854  0.061413  0.059821  1
  Y  Y4  1  0.440854  0.061413  0.437912  1
  Y  Y5  1  0.061413  0.440854  0.059821  1
  Y  Y6  1  0.439976  0.439976  0.060024  1
  Y  Y7  1  0.061481  0.061481  0.438519  1
  Y  Y8  1  0.188300  0.811922  0.813960  1
  Y  Y9  1  0.811922  0.188300  0.185819  1
  Y  Y10  1  0.811922  0.188300  0.813960  1
  Y  Y11  1  0.188300  0.811922  0.185819  1
  Y  Y12  1  0.810218  0.810218  0.189782  1
  Y  Y13  1  0.186875  0.186875  0.813125  1
  Th  Th14  1  0.592396  0.592396  0.600652  1
  Th  Th15  1  0.592396  0.592396  0.214557  1
  In  In16  1  0.834710  0.834710  0.833305  1
  In  In17  1  0.834710  0.834710  0.497273  1
  In  In18  1  0.835234  0.501647  0.831559  1
  In  In19  1  0.501647  0.835234  0.831559  1
  Ni  Ni20  1  0.394521  0.394521  0.389373  1
  Ni  Ni21  1  0.394521  0.394521  0.821585  1
  Ni  Ni22  1  0.398756  0.819435  0.390905  1
  Ni  Ni23  1  0.819435  0.398756  0.390905  1
