# generated using pymatgen
data_SmDyMn2F14
_symmetry_space_group_name_H-M   'P 1'
_cell_length_a   5.47542400
_cell_length_b   8.80713889
_cell_length_c   11.82393461
_cell_angle_alpha   62.27444091
_cell_angle_beta   90.00000000
_cell_angle_gamma   90.00000000
_symmetry_Int_Tables_number   1
_chemical_formula_structural   SmDyMn2F14
_chemical_formula_sum   'Sm2 Dy2 Mn4 F28'
_cell_volume   504.71852242
_cell_formula_units_Z   2
loop_
 _symmetry_equiv_pos_site_id
 _symmetry_equiv_pos_as_xyz
  1  'x, y, z'
loop_
 _atom_site_type_symbol
 _atom_site_label
 _atom_site_symmetry_multiplicity
 _atom_site_fract_x
 _atom_site_fract_y
 _atom_site_fract_z
 _atom_site_occupancy
  Sm  Sm0  1  0.760975  0.808411  0.764660  1
  Sm  Sm1  1  0.260975  0.191589  0.735340  1
  Dy  Dy2  1  0.238157  0.188874  0.235794  1
  Dy  Dy3  1  0.738157  0.811126  0.264206  1
  Mn  Mn4  1  0.757328  0.271437  0.960824  1
  Mn  Mn5  1  0.257328  0.728563  0.539176  1
  Mn  Mn6  1  0.240631  0.724093  0.046785  1
  Mn  Mn7  1  0.740631  0.275907  0.453215  1
  F  F8  1  0.429943  0.705398  0.925390  1
  F  F9  1  0.929943  0.294602  0.574610  1
  F  F10  1  0.568621  0.292691  0.081012  1
  F  F11  1  0.068621  0.707309  0.418988  1
  F  F12  1  0.457932  0.282675  0.536362  1
  F  F13  1  0.957932  0.717325  0.963638  1
  F  F14  1  0.543113  0.721440  0.457070  1
  F  F15  1  0.043113  0.278560  0.042930  1
  F  F16  1  0.772870  0.507296  0.866229  1
  F  F17  1  0.272870  0.492704  0.633771  1
  F  F18  1  0.228838  0.487624  0.139696  1
  F  F19  1  0.728838  0.512376  0.360304  1
  F  F20  1  0.756832  0.036495  0.049384  1
  F  F21  1  0.256832  0.963505  0.450616  1
  F  F22  1  0.241115  0.959002  0.955634  1
  F  F23  1  0.741115  0.040998  0.544366  1
  F  F24  1  0.979592  0.727366  0.627494  1
  F  F25  1  0.479592  0.272634  0.872506  1
  F  F26  1  0.017013  0.272351  0.364872  1
  F  F27  1  0.517013  0.727649  0.135128  1
  F  F28  1  0.052075  0.741724  0.170780  1
  F  F29  1  0.552075  0.258276  0.329220  1
  F  F30  1  0.941854  0.257121  0.834494  1
  F  F31  1  0.441854  0.742879  0.665506  1
  F  F32  1  0.410062  0.970996  0.228964  1
  F  F33  1  0.910062  0.029004  0.271036  1
  F  F34  1  0.603050  0.035322  0.773238  1
  F  F35  1  0.103050  0.964678  0.726762  1
