# generated using pymatgen
data_DyLu2Zr(Al3Ir)6
_symmetry_space_group_name_H-M   'P 1'
_cell_length_a   7.52145767
_cell_length_b   7.51678982
_cell_length_c   9.38550000
_cell_angle_alpha   90.00000000
_cell_angle_beta   90.00000000
_cell_angle_gamma   119.62587694
_symmetry_Int_Tables_number   1
_chemical_formula_structural   DyLu2Zr(Al3Ir)6
_chemical_formula_sum   'Dy1 Lu2 Zr1 Al18 Ir6'
_cell_volume   461.26171188
_cell_formula_units_Z   1
loop_
 _symmetry_equiv_pos_site_id
 _symmetry_equiv_pos_as_xyz
  1  'x, y, z'
loop_
 _atom_site_type_symbol
 _atom_site_label
 _atom_site_symmetry_multiplicity
 _atom_site_fract_x
 _atom_site_fract_y
 _atom_site_fract_z
 _atom_site_occupancy
  Dy  Dy0  1  0.006220  0.327887  0.750000  1
  Lu  Lu1  1  0.671316  0.995659  0.250000  1
  Lu  Lu2  1  0.328561  0.006629  0.750000  1
  Zr  Zr3  1  0.996509  0.671670  0.250000  1
  Al  Al4  1  0.125307  0.122857  0.250000  1
  Al  Al5  1  0.871123  0.869304  0.750000  1
  Al  Al6  1  0.999705  0.337070  0.079373  1
  Al  Al7  1  0.999949  0.665899  0.928954  1
  Al  Al8  1  0.999949  0.665899  0.571046  1
  Al  Al9  1  0.333033  0.998310  0.421338  1
  Al  Al10  1  0.999705  0.337070  0.420627  1
  Al  Al11  1  0.663582  0.998162  0.574342  1
  Al  Al12  1  0.663582  0.998162  0.925658  1
  Al  Al13  1  0.333033  0.998310  0.078662  1
  Al  Al14  1  0.334240  0.333421  0.552222  1
  Al  Al15  1  0.668838  0.667387  0.442361  1
  Al  Al16  1  0.668838  0.667387  0.057639  1
  Al  Al17  1  0.334240  0.333421  0.947778  1
  Al  Al18  1  0.336486  0.550428  0.250000  1
  Al  Al19  1  0.660089  0.451331  0.750000  1
  Al  Al20  1  0.554651  0.343211  0.250000  1
  Al  Al21  1  0.451543  0.660929  0.750000  1
  Ir  Ir22  1  0.672133  0.327515  0.000740  1
  Ir  Ir23  1  0.328294  0.672862  0.001575  1
  Ir  Ir24  1  0.328294  0.672862  0.498425  1
  Ir  Ir25  1  0.672133  0.327515  0.499260  1
  Ir  Ir26  1  0.999323  0.999421  0.000842  1
  Ir  Ir27  1  0.999323  0.999421  0.499158  1
