# generated using pymatgen
data_Tb10Dy2InCo4Ru
_symmetry_space_group_name_H-M   'P 1'
_cell_length_a   8.34339296
_cell_length_b   8.34696460
_cell_length_c   8.34339388
_cell_angle_alpha   111.07311563
_cell_angle_beta   110.45111219
_cell_angle_gamma   106.90313370
_symmetry_Int_Tables_number   1
_chemical_formula_structural   Tb10Dy2InCo4Ru
_chemical_formula_sum   'Tb10 Dy2 In1 Co4 Ru1'
_cell_volume   446.70537930
_cell_formula_units_Z   1
loop_
 _symmetry_equiv_pos_site_id
 _symmetry_equiv_pos_as_xyz
  1  'x, y, z'
loop_
 _atom_site_type_symbol
 _atom_site_label
 _atom_site_symmetry_multiplicity
 _atom_site_fract_x
 _atom_site_fract_y
 _atom_site_fract_z
 _atom_site_occupancy
  Tb  Tb0  1  0.408117  0.214645  0.192821  1
  Tb  Tb1  1  0.591883  0.785355  0.807179  1
  Tb  Tb2  1  0.021824  0.214645  0.806527  1
  Tb  Tb3  1  0.978176  0.785355  0.193473  1
  Tb  Tb4  1  0.183249  0.287265  0.471163  1
  Tb  Tb5  1  0.816751  0.712735  0.528837  1
  Tb  Tb6  1  0.183898  0.712735  0.895985  1
  Tb  Tb7  1  0.816102  0.287265  0.104015  1
  Tb  Tb8  1  0.315377  0.621187  0.305809  1
  Tb  Tb9  1  0.684623  0.378813  0.694191  1
  Dy  Dy10  1  0.315425  0.009313  0.693889  1
  Dy  Dy11  1  0.684575  0.990687  0.306111  1
  In  In12  1  0.500000  0.500000  0.000000  1
  Co  Co13  1  0.377308  0.000000  0.377308  1
  Co  Co14  1  0.622692  0.000000  0.622692  1
  Co  Co15  1  0.111459  0.611618  0.500158  1
  Co  Co16  1  0.888541  0.388382  0.499842  1
  Ru  Ru17  1  0.000000  0.000000  0.000000  1
