# generated using pymatgen
data_Y2Ge2Os2C
_symmetry_space_group_name_H-M   'P 1'
_cell_length_a   5.90592592
_cell_length_b   5.90592544
_cell_length_c   6.90510119
_cell_angle_alpha   125.13323133
_cell_angle_beta   125.13322570
_cell_angle_gamma   41.11961437
_symmetry_Int_Tables_number   1
_chemical_formula_structural   Y2Ge2Os2C
_chemical_formula_sum   'Y2 Ge2 Os2 C1'
_cell_volume   124.94134662
_cell_formula_units_Z   1
loop_
 _symmetry_equiv_pos_site_id
 _symmetry_equiv_pos_as_xyz
  1  'x, y, z'
loop_
 _atom_site_type_symbol
 _atom_site_label
 _atom_site_symmetry_multiplicity
 _atom_site_fract_x
 _atom_site_fract_y
 _atom_site_fract_z
 _atom_site_occupancy
  Y  Y0  1  0.561568  0.561568  0.293516  1
  Y  Y1  1  0.438432  0.438432  0.706485  1
  Ge  Ge2  1  0.844989  0.844989  0.308290  1
  Ge  Ge3  1  0.155011  0.155011  0.691711  1
  Os  Os4  1  0.201809  0.201809  0.099019  1
  Os  Os5  1  0.798191  0.798191  0.900982  1
  C  C6  1  0.000000  0.000000  0.000000  1
