# generated using pymatgen
data_Tb9(BiO)5
_symmetry_space_group_name_H-M   'P 1'
_cell_length_a   10.07238400
_cell_length_b   10.07238400
_cell_length_c   8.98766500
_cell_angle_alpha   90.00000000
_cell_angle_beta   90.00000000
_cell_angle_gamma   90.00000000
_symmetry_Int_Tables_number   1
_chemical_formula_structural   Tb9(BiO)5
_chemical_formula_sum   'Tb18 Bi10 O10'
_cell_volume   911.82485323
_cell_formula_units_Z   2
loop_
 _symmetry_equiv_pos_site_id
 _symmetry_equiv_pos_as_xyz
  1  'x, y, z'
loop_
 _atom_site_type_symbol
 _atom_site_label
 _atom_site_symmetry_multiplicity
 _atom_site_fract_x
 _atom_site_fract_y
 _atom_site_fract_z
 _atom_site_occupancy
  Tb  Tb0  1  0.206674  0.894874  0.336424  1
  Tb  Tb1  1  0.500000  0.000000  0.678715  1
  Tb  Tb2  1  0.293326  0.605126  0.663576  1
  Tb  Tb3  1  0.706674  0.394874  0.663576  1
  Tb  Tb4  1  0.725593  0.916429  0.002217  1
  Tb  Tb5  1  0.394874  0.293326  0.336424  1
  Tb  Tb6  1  0.105126  0.206674  0.663576  1
  Tb  Tb7  1  0.605126  0.706674  0.336424  1
  Tb  Tb8  1  0.000000  0.500000  0.321285  1
  Tb  Tb9  1  0.894874  0.793326  0.663576  1
  Tb  Tb10  1  0.274407  0.083571  0.002217  1
  Tb  Tb11  1  0.774407  0.583571  0.997783  1
  Tb  Tb12  1  0.225593  0.416429  0.997783  1
  Tb  Tb13  1  0.793326  0.105126  0.336424  1
  Tb  Tb14  1  0.583571  0.225593  0.002217  1
  Tb  Tb15  1  0.916429  0.274407  0.997783  1
  Tb  Tb16  1  0.083571  0.725593  0.997783  1
  Tb  Tb17  1  0.416429  0.774407  0.002217  1
  Bi  Bi18  1  0.595090  0.694192  0.697407  1
  Bi  Bi19  1  0.904910  0.805808  0.302593  1
  Bi  Bi20  1  0.694192  0.404910  0.302593  1
  Bi  Bi21  1  0.000000  0.500000  0.681809  1
  Bi  Bi22  1  0.194192  0.904910  0.697407  1
  Bi  Bi23  1  0.805808  0.095090  0.697407  1
  Bi  Bi24  1  0.305808  0.595090  0.302593  1
  Bi  Bi25  1  0.404910  0.305808  0.697407  1
  Bi  Bi26  1  0.095090  0.194192  0.302593  1
  Bi  Bi27  1  0.500000  0.000000  0.318191  1
  O  O28  1  0.225886  0.879785  0.084782  1
  O  O29  1  0.725886  0.379785  0.915218  1
  O  O30  1  0.500000  0.000000  0.936174  1
  O  O31  1  0.620215  0.725886  0.084782  1
  O  O32  1  0.000000  0.500000  0.063826  1
  O  O33  1  0.879785  0.774114  0.915218  1
  O  O34  1  0.120215  0.225886  0.915218  1
  O  O35  1  0.379785  0.274114  0.084782  1
  O  O36  1  0.774114  0.120215  0.084782  1
  O  O37  1  0.274114  0.620215  0.915218  1
