# generated using pymatgen
data_Tb2Mo3P7(IrRh2)3
_symmetry_space_group_name_H-M   'P 1'
_cell_length_a   3.96190566
_cell_length_b   9.54326228
_cell_length_c   9.54244695
_cell_angle_alpha   120.00162109
_cell_angle_beta   89.99704245
_cell_angle_gamma   90.00372693
_symmetry_Int_Tables_number   1
_chemical_formula_structural   Tb2Mo3P7(IrRh2)3
_chemical_formula_sum   'Tb2 Mo3 P7 Ir3 Rh6'
_cell_volume   312.45269887
_cell_formula_units_Z   1
loop_
 _symmetry_equiv_pos_site_id
 _symmetry_equiv_pos_as_xyz
  1  'x, y, z'
loop_
 _atom_site_type_symbol
 _atom_site_label
 _atom_site_symmetry_multiplicity
 _atom_site_fract_x
 _atom_site_fract_y
 _atom_site_fract_z
 _atom_site_occupancy
  Tb  Tb0  1  0.261476  0.666648  0.333283  1
  Tb  Tb1  1  0.762066  0.333345  0.666692  1
  Mo  Mo2  1  0.761905  0.091962  0.869225  1
  Mo  Mo3  1  0.761938  0.130842  0.222875  1
  Mo  Mo4  1  0.761914  0.777167  0.907945  1
  P  P5  1  0.262403  0.000017  0.999964  1
  P  P6  1  0.761734  0.881797  0.593903  1
  P  P7  1  0.761744  0.406072  0.287886  1
  P  P8  1  0.761733  0.712082  0.118138  1
  P  P9  1  0.262006  0.118919  0.413220  1
  P  P10  1  0.262017  0.586826  0.705748  1
  P  P11  1  0.262010  0.294322  0.881134  1
  Ir  Ir12  1  0.261903  0.885929  0.159424  1
  Ir  Ir13  1  0.261885  0.840521  0.726384  1
  Ir  Ir14  1  0.261891  0.273579  0.114172  1
  Rh  Rh15  1  0.761908  0.611979  0.557197  1
  Rh  Rh16  1  0.761873  0.442699  0.054679  1
  Rh  Rh17  1  0.761904  0.945210  0.387984  1
  Rh  Rh18  1  0.261923  0.371064  0.439877  1
  Rh  Rh19  1  0.261874  0.560222  0.931272  1
  Rh  Rh20  1  0.261895  0.068797  0.628999  1
