# generated using pymatgen
data_Zr4MnRe3Tc4
_symmetry_space_group_name_H-M   'P 1'
_cell_length_a   5.27721538
_cell_length_b   5.21916546
_cell_length_c   8.66068878
_cell_angle_alpha   90.17670519
_cell_angle_beta   90.14818014
_cell_angle_gamma   120.03500722
_symmetry_Int_Tables_number   1
_chemical_formula_structural   Zr4MnRe3Tc4
_chemical_formula_sum   'Zr4 Mn1 Re3 Tc4'
_cell_volume   206.50407856
_cell_formula_units_Z   1
loop_
 _symmetry_equiv_pos_site_id
 _symmetry_equiv_pos_as_xyz
  1  'x, y, z'
loop_
 _atom_site_type_symbol
 _atom_site_label
 _atom_site_symmetry_multiplicity
 _atom_site_fract_x
 _atom_site_fract_y
 _atom_site_fract_z
 _atom_site_occupancy
  Zr  Zr0  1  0.332622  0.666046  0.063798  1
  Zr  Zr1  1  0.668030  0.334467  0.563640  1
  Zr  Zr2  1  0.667469  0.333945  0.936467  1
  Zr  Zr3  1  0.332292  0.665481  0.435716  1
  Mn  Mn4  1  0.998975  0.001297  0.999019  1
  Re  Re5  1  0.169303  0.338141  0.753462  1
  Re  Re6  1  0.831426  0.169446  0.245645  1
  Re  Re7  1  0.831818  0.662262  0.246629  1
  Tc  Tc8  1  0.999049  0.001445  0.501248  1
  Tc  Tc9  1  0.169425  0.829006  0.754207  1
  Tc  Tc10  1  0.659113  0.828492  0.755114  1
  Tc  Tc11  1  0.340480  0.169973  0.245054  1
