# generated using pymatgen
data_Tb8Sc11Si16Hg
_symmetry_space_group_name_H-M   'P 1'
_cell_length_a   7.08831848
_cell_length_b   7.41305362
_cell_length_c   14.06584200
_cell_angle_alpha   90.00000000
_cell_angle_beta   90.00000000
_cell_angle_gamma   89.88661626
_symmetry_Int_Tables_number   1
_chemical_formula_structural   Tb8Sc11Si16Hg
_chemical_formula_sum   'Tb8 Sc11 Si16 Hg1'
_cell_volume   739.10348148
_cell_formula_units_Z   1
loop_
 _symmetry_equiv_pos_site_id
 _symmetry_equiv_pos_as_xyz
  1  'x, y, z'
loop_
 _atom_site_type_symbol
 _atom_site_label
 _atom_site_symmetry_multiplicity
 _atom_site_fract_x
 _atom_site_fract_y
 _atom_site_fract_z
 _atom_site_occupancy
  Tb  Tb0  1  0.010353  0.173437  0.096989  1
  Tb  Tb1  1  0.990856  0.817678  0.901328  1
  Tb  Tb2  1  0.484012  0.672983  0.901341  1
  Tb  Tb3  1  0.990856  0.817678  0.598672  1
  Tb  Tb4  1  0.511410  0.324355  0.097325  1
  Tb  Tb5  1  0.010353  0.173437  0.403011  1
  Tb  Tb6  1  0.511410  0.324355  0.402675  1
  Tb  Tb7  1  0.484012  0.672983  0.598659  1
  Sc  Sc8  1  0.838467  0.498184  0.250000  1
  Sc  Sc9  1  0.339353  0.002613  0.250000  1
  Sc  Sc10  1  0.657984  0.998647  0.750000  1
  Sc  Sc11  1  0.325867  0.183071  0.625535  1
  Sc  Sc12  1  0.671148  0.823863  0.375175  1
  Sc  Sc13  1  0.169767  0.679759  0.373359  1
  Sc  Sc14  1  0.671148  0.823863  0.124825  1
  Sc  Sc15  1  0.837498  0.325262  0.625627  1
  Sc  Sc16  1  0.325867  0.183071  0.874465  1
  Sc  Sc17  1  0.837498  0.325262  0.874373  1
  Sc  Sc18  1  0.169767  0.679759  0.126641  1
  Si  Si19  1  0.028292  0.097813  0.750000  1
  Si  Si20  1  0.967385  0.885645  0.250000  1
  Si  Si21  1  0.466841  0.618477  0.250000  1
  Si  Si22  1  0.544966  0.378246  0.750000  1
  Si  Si23  1  0.291557  0.890666  0.750000  1
  Si  Si24  1  0.713079  0.126609  0.250000  1
  Si  Si25  1  0.212707  0.374173  0.250000  1
  Si  Si26  1  0.770108  0.629660  0.750000  1
  Si  Si27  1  0.160731  0.459367  0.528816  1
  Si  Si28  1  0.843048  0.536221  0.461840  1
  Si  Si29  1  0.344703  0.965774  0.462048  1
  Si  Si30  1  0.843048  0.536221  0.038160  1
  Si  Si31  1  0.657051  0.033264  0.540660  1
  Si  Si32  1  0.160731  0.459367  0.971184  1
  Si  Si33  1  0.657051  0.033264  0.959340  1
  Si  Si34  1  0.344703  0.965774  0.037952  1
  Hg  Hg35  1  0.156371  0.509201  0.750000  1
