# generated using pymatgen
data_Ti4CrSi3N
_symmetry_space_group_name_H-M   'P 1'
_cell_length_a   7.32340800
_cell_length_b   7.32340855
_cell_length_c   5.07165800
_cell_angle_alpha   90.00000000
_cell_angle_beta   90.00000000
_cell_angle_gamma   119.99999754
_symmetry_Int_Tables_number   1
_chemical_formula_structural   Ti4CrSi3N
_chemical_formula_sum   'Ti8 Cr2 Si6 N2'
_cell_volume   235.56300992
_cell_formula_units_Z   2
loop_
 _symmetry_equiv_pos_site_id
 _symmetry_equiv_pos_as_xyz
  1  'x, y, z'
loop_
 _atom_site_type_symbol
 _atom_site_label
 _atom_site_symmetry_multiplicity
 _atom_site_fract_x
 _atom_site_fract_y
 _atom_site_fract_z
 _atom_site_occupancy
  Ti  Ti0  1  0.229738  0.000000  0.749211  1
  Ti  Ti1  1  0.770262  0.000000  0.250789  1
  Ti  Ti2  1  0.000000  0.229738  0.749211  1
  Ti  Ti3  1  0.000000  0.770262  0.250789  1
  Ti  Ti4  1  0.770262  0.770262  0.749211  1
  Ti  Ti5  1  0.229738  0.229738  0.250789  1
  Ti  Ti6  1  0.333333  0.666667  0.500000  1
  Ti  Ti7  1  0.666667  0.333333  0.500000  1
  Cr  Cr8  1  0.666667  0.333333  0.000000  1
  Cr  Cr9  1  0.333333  0.666667  0.000000  1
  Si  Si10  1  0.587497  0.000000  0.772728  1
  Si  Si11  1  0.412503  0.000000  0.227272  1
  Si  Si12  1  0.000000  0.587497  0.772728  1
  Si  Si13  1  0.000000  0.412503  0.227272  1
  Si  Si14  1  0.412503  0.412503  0.772728  1
  Si  Si15  1  0.587497  0.587497  0.227272  1
  N  N16  1  0.000000  0.000000  0.500000  1
  N  N17  1  0.000000  0.000000  0.000000  1
