# generated using pymatgen
data_SrSmY2(Pt2O7)2
_symmetry_space_group_name_H-M   'P 1'
_cell_length_a   7.35672318
_cell_length_b   7.36405916
_cell_length_c   7.35672284
_cell_angle_alpha   60.02147469
_cell_angle_beta   59.87267596
_cell_angle_gamma   60.02147120
_symmetry_Int_Tables_number   1
_chemical_formula_structural   SrSmY2(Pt2O7)2
_chemical_formula_sum   'Sr1 Sm1 Y2 Pt4 O14'
_cell_volume   281.63851538
_cell_formula_units_Z   1
loop_
 _symmetry_equiv_pos_site_id
 _symmetry_equiv_pos_as_xyz
  1  'x, y, z'
loop_
 _atom_site_type_symbol
 _atom_site_label
 _atom_site_symmetry_multiplicity
 _atom_site_fract_x
 _atom_site_fract_y
 _atom_site_fract_z
 _atom_site_occupancy
  Sr  Sr0  1  0.125000  0.625000  0.125000  1
  Sm  Sm1  1  0.125000  0.125000  0.125000  1
  Y  Y2  1  0.125000  0.125000  0.625000  1
  Y  Y3  1  0.625000  0.125000  0.125000  1
  Pt  Pt4  1  0.625000  0.625000  0.625000  1
  Pt  Pt5  1  0.125000  0.625000  0.625000  1
  Pt  Pt6  1  0.625000  0.625000  0.125000  1
  Pt  Pt7  1  0.625000  0.125000  0.625000  1
  O  O8  1  0.292084  0.721212  0.694539  1
  O  O9  1  0.540534  0.962423  0.960711  1
  O  O10  1  0.694539  0.721212  0.292084  1
  O  O11  1  0.289289  0.287577  0.709466  1
  O  O12  1  0.990385  0.019481  0.990385  1
  O  O13  1  0.292919  0.718092  0.292919  1
  O  O14  1  0.712067  0.287055  0.712067  1
  O  O15  1  0.957081  0.531908  0.957081  1
  O  O16  1  0.555461  0.528788  0.957916  1
  O  O17  1  0.960711  0.962423  0.540534  1
  O  O18  1  0.259615  0.230519  0.259615  1
  O  O19  1  0.537933  0.962945  0.537933  1
  O  O20  1  0.709466  0.287577  0.289289  1
  O  O21  1  0.957916  0.528788  0.555461  1
