# generated using pymatgen
data_Ta5Be4AsRu10
_symmetry_space_group_name_H-M   'P 1'
_cell_length_a   9.38329300
_cell_length_b   9.38329300
_cell_length_c   3.10740400
_cell_angle_alpha   90.00000000
_cell_angle_beta   90.00000000
_cell_angle_gamma   90.00000000
_symmetry_Int_Tables_number   1
_chemical_formula_structural   Ta5Be4AsRu10
_chemical_formula_sum   'Ta5 Be4 As1 Ru10'
_cell_volume   273.59507530
_cell_formula_units_Z   1
loop_
 _symmetry_equiv_pos_site_id
 _symmetry_equiv_pos_as_xyz
  1  'x, y, z'
loop_
 _atom_site_type_symbol
 _atom_site_label
 _atom_site_symmetry_multiplicity
 _atom_site_fract_x
 _atom_site_fract_y
 _atom_site_fract_z
 _atom_site_occupancy
  Ta  Ta0  1  0.829416  0.675858  0.000000  1
  Ta  Ta1  1  0.170584  0.324142  0.000000  1
  Ta  Ta2  1  0.324142  0.829416  0.000000  1
  Ta  Ta3  1  0.675858  0.170584  0.000000  1
  Ta  Ta4  1  0.000000  0.000000  0.000000  1
  Be  Be5  1  0.619009  0.874785  0.000000  1
  Be  Be6  1  0.380991  0.125215  0.000000  1
  Be  Be7  1  0.125215  0.619009  0.000000  1
  Be  Be8  1  0.874785  0.380991  0.000000  1
  As  As9  1  0.500000  0.500000  0.000000  1
  Ru  Ru10  1  0.569975  0.704334  0.500000  1
  Ru  Ru11  1  0.430025  0.295666  0.500000  1
  Ru  Ru12  1  0.075239  0.787417  0.500000  1
  Ru  Ru13  1  0.924761  0.212583  0.500000  1
  Ru  Ru14  1  0.295666  0.569975  0.500000  1
  Ru  Ru15  1  0.704334  0.430025  0.500000  1
  Ru  Ru16  1  0.212583  0.075239  0.500000  1
  Ru  Ru17  1  0.787417  0.924761  0.500000  1
  Ru  Ru18  1  0.500000  0.000000  0.500000  1
  Ru  Ru19  1  0.000000  0.500000  0.500000  1
