# generated using pymatgen
data_Bi(S8Cl)3
_symmetry_space_group_name_H-M   'P 1'
_cell_length_a   15.00045963
_cell_length_b   15.00045960
_cell_length_c   15.00046000
_cell_angle_alpha   118.77507676
_cell_angle_beta   118.77507734
_cell_angle_gamma   118.77507525
_symmetry_Int_Tables_number   1
_chemical_formula_structural   Bi(S8Cl)3
_chemical_formula_sum   'Bi1 S24 Cl3'
_cell_volume   965.09705090
_cell_formula_units_Z   1
loop_
 _symmetry_equiv_pos_site_id
 _symmetry_equiv_pos_as_xyz
  1  'x, y, z'
loop_
 _atom_site_type_symbol
 _atom_site_label
 _atom_site_symmetry_multiplicity
 _atom_site_fract_x
 _atom_site_fract_y
 _atom_site_fract_z
 _atom_site_occupancy
  Bi  Bi0  1  0.269179  0.269179  0.269179  1
  S  S1  1  0.012176  0.608948  0.608948  1
  S  S2  1  0.608948  0.608948  0.012176  1
  S  S3  1  0.608948  0.012176  0.608948  1
  S  S4  1  0.234568  0.846460  0.716947  1
  S  S5  1  0.846460  0.716947  0.234568  1
  S  S6  1  0.716947  0.234568  0.846460  1
  S  S7  1  0.846460  0.234568  0.716947  1
  S  S8  1  0.234568  0.716947  0.846460  1
  S  S9  1  0.716947  0.846460  0.234568  1
  S  S10  1  0.099788  0.628737  0.445331  1
  S  S11  1  0.628737  0.445331  0.099788  1
  S  S12  1  0.445331  0.099788  0.628737  1
  S  S13  1  0.628737  0.099788  0.445331  1
  S  S14  1  0.099788  0.445331  0.628737  1
  S  S15  1  0.445331  0.628737  0.099788  1
  S  S16  1  0.358961  0.746291  0.616025  1
  S  S17  1  0.746291  0.616025  0.358961  1
  S  S18  1  0.616025  0.358961  0.746291  1
  S  S19  1  0.746291  0.358961  0.616025  1
  S  S20  1  0.358961  0.616025  0.746291  1
  S  S21  1  0.616025  0.746291  0.358961  1
  S  S22  1  0.188098  0.466241  0.466241  1
  S  S23  1  0.466241  0.466241  0.188098  1
  S  S24  1  0.466241  0.188098  0.466241  1
  Cl  Cl25  1  0.108733  0.966161  0.966161  1
  Cl  Cl26  1  0.966161  0.966161  0.108733  1
  Cl  Cl27  1  0.966161  0.108733  0.966161  1
