# generated using pymatgen
data_Ho2Er2Zr3PtF28
_symmetry_space_group_name_H-M   'P 1'
_cell_length_a   5.66317173
_cell_length_b   8.99583868
_cell_length_c   12.13492858
_cell_angle_alpha   62.57379146
_cell_angle_beta   89.94204353
_cell_angle_gamma   89.96816612
_symmetry_Int_Tables_number   1
_chemical_formula_structural   Ho2Er2Zr3PtF28
_chemical_formula_sum   'Ho2 Er2 Zr3 Pt1 F28'
_cell_volume   548.72914155
_cell_formula_units_Z   1
loop_
 _symmetry_equiv_pos_site_id
 _symmetry_equiv_pos_as_xyz
  1  'x, y, z'
loop_
 _atom_site_type_symbol
 _atom_site_label
 _atom_site_symmetry_multiplicity
 _atom_site_fract_x
 _atom_site_fract_y
 _atom_site_fract_z
 _atom_site_occupancy
  Ho  Ho0  1  0.757671  0.817369  0.764918  1
  Ho  Ho1  1  0.258067  0.183914  0.732209  1
  Er  Er2  1  0.241599  0.182690  0.239261  1
  Er  Er3  1  0.744097  0.814416  0.266985  1
  Zr  Zr4  1  0.756835  0.272798  0.957511  1
  Zr  Zr5  1  0.256232  0.725936  0.543057  1
  Zr  Zr6  1  0.244192  0.724381  0.045744  1
  Pt  Pt7  1  0.739322  0.272320  0.455352  1
  F  F8  1  0.459670  0.708497  0.917624  1
  F  F9  1  0.937449  0.295279  0.580141  1
  F  F10  1  0.538796  0.289464  0.084531  1
  F  F11  1  0.039860  0.710492  0.415786  1
  F  F12  1  0.446943  0.277551  0.542986  1
  F  F13  1  0.942534  0.726912  0.950870  1
  F  F14  1  0.558931  0.723375  0.450982  1
  F  F15  1  0.057991  0.271480  0.052414  1
  F  F16  1  0.779386  0.526680  0.860021  1
  F  F17  1  0.271150  0.471533  0.638915  1
  F  F18  1  0.220600  0.470388  0.143476  1
  F  F19  1  0.725313  0.518704  0.358258  1
  F  F20  1  0.757930  0.019323  0.060301  1
  F  F21  1  0.258983  0.979612  0.441913  1
  F  F22  1  0.243184  0.977601  0.939959  1
  F  F23  1  0.744242  0.025866  0.549311  1
  F  F24  1  0.975825  0.733272  0.645766  1
  F  F25  1  0.478959  0.268192  0.852110  1
  F  F26  1  0.023202  0.273343  0.360844  1
  F  F27  1  0.522982  0.731621  0.149046  1
  F  F28  1  0.037994  0.748815  0.175492  1
  F  F29  1  0.545887  0.256334  0.325423  1
  F  F30  1  0.964701  0.251279  0.826086  1
  F  F31  1  0.463958  0.747949  0.673585  1
  F  F32  1  0.426835  0.973297  0.236200  1
  F  F33  1  0.925993  0.027259  0.267288  1
  F  F34  1  0.575994  0.029417  0.764566  1
  F  F35  1  0.076690  0.972645  0.731072  1
