# generated using pymatgen
data_Y3Si2B(Ir2Rh)2
_symmetry_space_group_name_H-M   'P 1'
_cell_length_a   5.53655305
_cell_length_b   5.53883533
_cell_length_c   14.71855146
_cell_angle_alpha   89.97908272
_cell_angle_beta   90.06497231
_cell_angle_gamma   119.91226848
_symmetry_Int_Tables_number   1
_chemical_formula_structural   Y3Si2B(Ir2Rh)2
_chemical_formula_sum   'Y6 Si4 B2 Ir8 Rh4'
_cell_volume   391.23399692
_cell_formula_units_Z   2
loop_
 _symmetry_equiv_pos_site_id
 _symmetry_equiv_pos_as_xyz
  1  'x, y, z'
loop_
 _atom_site_type_symbol
 _atom_site_label
 _atom_site_symmetry_multiplicity
 _atom_site_fract_x
 _atom_site_fract_y
 _atom_site_fract_z
 _atom_site_occupancy
  Y  Y0  1  0.665989  0.331569  0.969467  1
  Y  Y1  1  0.666606  0.332891  0.530060  1
  Y  Y2  1  0.334057  0.665848  0.044497  1
  Y  Y3  1  0.666540  0.332747  0.750846  1
  Y  Y4  1  0.332445  0.665246  0.455061  1
  Y  Y5  1  0.333254  0.665378  0.250176  1
  Si  Si6  1  0.003560  0.007107  0.489360  1
  Si  Si7  1  0.000455  0.000349  0.749815  1
  Si  Si8  1  0.333059  0.666758  0.749487  1
  Si  Si9  1  0.000134  0.007396  0.010777  1
  B  B10  1  0.665481  0.332793  0.250157  1
  B  B11  1  0.001045  0.002542  0.250472  1
  Ir  Ir12  1  0.167449  0.333366  0.874045  1
  Ir  Ir13  1  0.166139  0.332662  0.626171  1
  Ir  Ir14  1  0.666647  0.831882  0.873215  1
  Ir  Ir15  1  0.332890  0.165561  0.352548  1
  Ir  Ir16  1  0.833430  0.666357  0.351591  1
  Ir  Ir17  1  0.832961  0.165960  0.352471  1
  Ir  Ir18  1  0.832512  0.165357  0.148076  1
  Ir  Ir19  1  0.332824  0.164608  0.147916  1
  Rh  Rh20  1  0.666521  0.832122  0.626131  1
  Rh  Rh21  1  0.165288  0.832206  0.626898  1
  Rh  Rh22  1  0.834219  0.666974  0.147318  1
  Rh  Rh23  1  0.166491  0.832323  0.873444  1
