# generated using pymatgen
data_Y3Mg2AlSi2Pd
_symmetry_space_group_name_H-M   'P 1'
_cell_length_a   7.17118864
_cell_length_b   7.08482884
_cell_length_c   4.27046800
_cell_angle_alpha   90.00000000
_cell_angle_beta   90.00000000
_cell_angle_gamma   119.60242449
_symmetry_Int_Tables_number   1
_chemical_formula_structural   Y3Mg2AlSi2Pd
_chemical_formula_sum   'Y3 Mg2 Al1 Si2 Pd1'
_cell_volume   188.64816934
_cell_formula_units_Z   1
loop_
 _symmetry_equiv_pos_site_id
 _symmetry_equiv_pos_as_xyz
  1  'x, y, z'
loop_
 _atom_site_type_symbol
 _atom_site_label
 _atom_site_symmetry_multiplicity
 _atom_site_fract_x
 _atom_site_fract_y
 _atom_site_fract_z
 _atom_site_occupancy
  Y  Y0  1  0.418138  0.002009  0.000000  1
  Y  Y1  1  0.000000  0.421981  0.000000  1
  Y  Y2  1  0.581862  0.583871  0.000000  1
  Mg  Mg3  1  0.759509  0.998172  0.500000  1
  Mg  Mg4  1  0.240491  0.238663  0.500000  1
  Al  Al5  1  0.000000  0.757410  0.500000  1
  Si  Si6  1  0.675964  0.345951  0.500000  1
  Si  Si7  1  0.324037  0.669987  0.500000  1
  Pd  Pd8  1  0.000000  0.981958  0.000000  1
