# generated using pymatgen
data_Pr2Lu2ScGa4
_symmetry_space_group_name_H-M   'P 1'
_cell_length_a   7.52354000
_cell_length_b   7.81027500
_cell_length_c   15.05614900
_cell_angle_alpha   90.00000000
_cell_angle_beta   90.00000000
_cell_angle_gamma   90.00000000
_symmetry_Int_Tables_number   1
_chemical_formula_structural   Pr2Lu2ScGa4
_chemical_formula_sum   'Pr8 Lu8 Sc4 Ga16'
_cell_volume   884.71311230
_cell_formula_units_Z   4
loop_
 _symmetry_equiv_pos_site_id
 _symmetry_equiv_pos_as_xyz
  1  'x, y, z'
loop_
 _atom_site_type_symbol
 _atom_site_label
 _atom_site_symmetry_multiplicity
 _atom_site_fract_x
 _atom_site_fract_y
 _atom_site_fract_z
 _atom_site_occupancy
  Pr  Pr0  1  0.013602  0.176849  0.403423  1
  Pr  Pr1  1  0.513602  0.323151  0.403423  1
  Pr  Pr2  1  0.486398  0.676849  0.903423  1
  Pr  Pr3  1  0.486398  0.676849  0.596577  1
  Pr  Pr4  1  0.986398  0.823151  0.596577  1
  Pr  Pr5  1  0.986398  0.823151  0.903423  1
  Pr  Pr6  1  0.513602  0.323151  0.096577  1
  Pr  Pr7  1  0.013602  0.176849  0.096577  1
  Lu  Lu8  1  0.329149  0.173512  0.624124  1
  Lu  Lu9  1  0.670851  0.826488  0.375876  1
  Lu  Lu10  1  0.170851  0.673512  0.375876  1
  Lu  Lu11  1  0.829149  0.326488  0.875876  1
  Lu  Lu12  1  0.829149  0.326488  0.624124  1
  Lu  Lu13  1  0.329149  0.173512  0.875876  1
  Lu  Lu14  1  0.170851  0.673512  0.124124  1
  Lu  Lu15  1  0.670851  0.826488  0.124124  1
  Sc  Sc16  1  0.662213  0.997797  0.750000  1
  Sc  Sc17  1  0.837787  0.497797  0.250000  1
  Sc  Sc18  1  0.337787  0.002203  0.250000  1
  Sc  Sc19  1  0.162213  0.502203  0.750000  1
  Ga  Ga20  1  0.285263  0.875855  0.750000  1
  Ga  Ga21  1  0.469821  0.616679  0.250000  1
  Ga  Ga22  1  0.030179  0.116679  0.750000  1
  Ga  Ga23  1  0.530179  0.383321  0.750000  1
  Ga  Ga24  1  0.156261  0.464789  0.540443  1
  Ga  Ga25  1  0.969821  0.883321  0.250000  1
  Ga  Ga26  1  0.714737  0.124145  0.250000  1
  Ga  Ga27  1  0.843739  0.535211  0.040443  1
  Ga  Ga28  1  0.343739  0.964789  0.040443  1
  Ga  Ga29  1  0.156261  0.464789  0.959557  1
  Ga  Ga30  1  0.656261  0.035211  0.540443  1
  Ga  Ga31  1  0.343739  0.964789  0.459557  1
  Ga  Ga32  1  0.843739  0.535211  0.459557  1
  Ga  Ga33  1  0.785263  0.624145  0.750000  1
  Ga  Ga34  1  0.214737  0.375855  0.250000  1
  Ga  Ga35  1  0.656261  0.035211  0.959557  1
