# generated using pymatgen
data_La12Th2IrRh5
_symmetry_space_group_name_H-M   'P 1'
_cell_length_a   6.55366697
_cell_length_b   10.21782884
_cell_length_c   10.22539227
_cell_angle_alpha   119.97264217
_cell_angle_beta   89.91216161
_cell_angle_gamma   89.99467281
_symmetry_Int_Tables_number   1
_chemical_formula_structural   La12Th2IrRh5
_chemical_formula_sum   'La12 Th2 Ir1 Rh5'
_cell_volume   593.16092742
_cell_formula_units_Z   1
loop_
 _symmetry_equiv_pos_site_id
 _symmetry_equiv_pos_as_xyz
  1  'x, y, z'
loop_
 _atom_site_type_symbol
 _atom_site_label
 _atom_site_symmetry_multiplicity
 _atom_site_fract_x
 _atom_site_fract_y
 _atom_site_fract_z
 _atom_site_occupancy
  La  La0  1  0.250781  0.127243  0.873113  1
  La  La1  1  0.250909  0.745873  0.873106  1
  La  La2  1  0.251233  0.127638  0.255249  1
  La  La3  1  0.750002  0.874688  0.128170  1
  La  La4  1  0.749975  0.253518  0.128190  1
  La  La5  1  0.750596  0.872861  0.745661  1
  La  La6  1  0.440663  0.538294  0.460811  1
  La  La7  1  0.440613  0.922453  0.460781  1
  La  La8  1  0.440137  0.538570  0.077142  1
  La  La9  1  0.939645  0.461122  0.538591  1
  La  La10  1  0.939520  0.077419  0.538505  1
  La  La11  1  0.940137  0.461389  0.922778  1
  Th  Th12  1  0.475396  0.332971  0.665953  1
  Th  Th13  1  0.975770  0.666642  0.333297  1
  Ir  Ir14  1  0.682927  0.191633  0.383207  1
  Rh  Rh15  1  0.184927  0.806798  0.192050  1
  Rh  Rh16  1  0.184966  0.385244  0.192069  1
  Rh  Rh17  1  0.184725  0.807741  0.615511  1
  Rh  Rh18  1  0.684564  0.192189  0.807911  1
  Rh  Rh19  1  0.684511  0.615716  0.807904  1
