# generated using pymatgen
data_LaGd2Tm(MoN3)4
_symmetry_space_group_name_H-M   'P 1'
_cell_length_a   7.28657840
_cell_length_b   7.28658889
_cell_length_c   6.24107300
_cell_angle_alpha   74.74049932
_cell_angle_beta   74.74045238
_cell_angle_gamma   82.35003628
_symmetry_Int_Tables_number   1
_chemical_formula_structural   LaGd2Tm(MoN3)4
_chemical_formula_sum   'La1 Gd2 Tm1 Mo4 N12'
_cell_volume   307.68518384
_cell_formula_units_Z   1
loop_
 _symmetry_equiv_pos_site_id
 _symmetry_equiv_pos_as_xyz
  1  'x, y, z'
loop_
 _atom_site_type_symbol
 _atom_site_label
 _atom_site_symmetry_multiplicity
 _atom_site_fract_x
 _atom_site_fract_y
 _atom_site_fract_z
 _atom_site_occupancy
  La  La0  1  0.693422  0.306578  0.249999  1
  Gd  Gd1  1  0.090594  0.909406  0.250000  1
  Gd  Gd2  1  0.303674  0.696326  0.750000  1
  Tm  Tm3  1  0.916158  0.083842  0.750000  1
  Mo  Mo4  1  0.801843  0.621112  0.748538  1
  Mo  Mo5  1  0.196339  0.379848  0.250600  1
  Mo  Mo6  1  0.620152  0.803661  0.249400  1
  Mo  Mo7  1  0.378889  0.198157  0.751463  1
  N  N8  1  0.217883  0.998417  0.847827  1
  N  N9  1  0.344592  0.368415  0.474001  1
  N  N10  1  0.651551  0.634881  0.527722  1
  N  N11  1  0.620635  0.109848  0.669008  1
  N  N12  1  0.001583  0.782117  0.652174  1
  N  N13  1  0.788062  0.996043  0.140402  1
  N  N14  1  0.101834  0.618024  0.155441  1
  N  N15  1  0.890151  0.379366  0.830992  1
  N  N16  1  0.003956  0.211938  0.359596  1
  N  N17  1  0.365119  0.348449  0.972278  1
  N  N18  1  0.631584  0.655408  0.025999  1
  N  N19  1  0.381975  0.898165  0.344560  1
