# generated using pymatgen
data_SrAcPr2(Si5Pt3)2
_symmetry_space_group_name_H-M   'P 1'
_cell_length_a   8.36592189
_cell_length_b   8.36896902
_cell_length_c   8.36896815
_cell_angle_alpha   136.84772362
_cell_angle_beta   105.59183398
_cell_angle_gamma   90.10183900
_symmetry_Int_Tables_number   1
_chemical_formula_structural   SrAcPr2(Si5Pt3)2
_chemical_formula_sum   'Sr1 Ac1 Pr2 Si10 Pt6'
_cell_volume   368.18180477
_cell_formula_units_Z   1
loop_
 _symmetry_equiv_pos_site_id
 _symmetry_equiv_pos_as_xyz
  1  'x, y, z'
loop_
 _atom_site_type_symbol
 _atom_site_label
 _atom_site_symmetry_multiplicity
 _atom_site_fract_x
 _atom_site_fract_y
 _atom_site_fract_z
 _atom_site_occupancy
  Sr  Sr0  1  0.862828  0.627626  0.235201  1
  Ac  Ac1  1  0.136049  0.370863  0.765186  1
  Pr  Pr2  1  0.395908  0.128506  0.267403  1
  Pr  Pr3  1  0.605495  0.872300  0.733196  1
  Si  Si4  1  0.501461  0.750326  0.250925  1
  Si  Si5  1  0.501461  0.250536  0.751136  1
  Si  Si6  1  0.230881  0.980611  0.751860  1
  Si  Si7  1  0.768154  0.522014  0.751551  1
  Si  Si8  1  0.768154  0.016605  0.246141  1
  Si  Si9  1  0.230881  0.479021  0.250271  1
  Si  Si10  1  0.036203  0.888933  0.147270  1
  Si  Si11  1  0.961576  0.110002  0.851572  1
  Si  Si12  1  0.739043  0.386450  0.352592  1
  Si  Si13  1  0.262259  0.615584  0.646675  1
  Pt  Pt14  1  0.000704  0.750315  0.750211  1
  Pt  Pt15  1  0.000704  0.250494  0.250389  1
  Pt  Pt16  1  0.254727  0.863999  0.390730  1
  Pt  Pt17  1  0.742990  0.134824  0.608165  1
  Pt  Pt18  1  0.475789  0.364137  0.111652  1
  Pt  Pt19  1  0.524728  0.636854  0.887875  1
