# generated using pymatgen
data_La4AgSb8Ir5
_symmetry_space_group_name_H-M   'P 1'
_cell_length_a   4.62572200
_cell_length_b   11.33372500
_cell_length_c   16.32610500
_cell_angle_alpha   90.00000000
_cell_angle_beta   90.00000000
_cell_angle_gamma   90.00000000
_symmetry_Int_Tables_number   1
_chemical_formula_structural   La4AgSb8Ir5
_chemical_formula_sum   'La8 Ag2 Sb16 Ir10'
_cell_volume   855.92317350
_cell_formula_units_Z   2
loop_
 _symmetry_equiv_pos_site_id
 _symmetry_equiv_pos_as_xyz
  1  'x, y, z'
loop_
 _atom_site_type_symbol
 _atom_site_label
 _atom_site_symmetry_multiplicity
 _atom_site_fract_x
 _atom_site_fract_y
 _atom_site_fract_z
 _atom_site_occupancy
  La  La0  1  0.250000  0.753602  0.504397  1
  La  La1  1  0.250000  0.746398  0.004397  1
  La  La2  1  0.750000  0.247984  0.490404  1
  La  La3  1  0.750000  0.252016  0.990404  1
  La  La4  1  0.250000  0.592000  0.754482  1
  La  La5  1  0.250000  0.908000  0.254482  1
  La  La6  1  0.750000  0.409238  0.248992  1
  La  La7  1  0.750000  0.090762  0.748992  1
  Ag  Ag8  1  0.250000  0.463240  0.558537  1
  Ag  Ag9  1  0.250000  0.036760  0.058537  1
  Sb  Sb10  1  0.250000  0.263179  0.652560  1
  Sb  Sb11  1  0.250000  0.236821  0.152560  1
  Sb  Sb12  1  0.750000  0.722253  0.351684  1
  Sb  Sb13  1  0.750000  0.777747  0.851684  1
  Sb  Sb14  1  0.250000  0.889557  0.711599  1
  Sb  Sb15  1  0.250000  0.610443  0.211599  1
  Sb  Sb16  1  0.750000  0.111822  0.289599  1
  Sb  Sb17  1  0.750000  0.388178  0.789599  1
  Sb  Sb18  1  0.250000  0.061472  0.888935  1
  Sb  Sb19  1  0.250000  0.438528  0.388935  1
  Sb  Sb20  1  0.750000  0.914655  0.103379  1
  Sb  Sb21  1  0.750000  0.585345  0.603379  1
  Sb  Sb22  1  0.250000  0.449930  0.930896  1
  Sb  Sb23  1  0.250000  0.050070  0.430896  1
  Sb  Sb24  1  0.750000  0.553721  0.066904  1
  Sb  Sb25  1  0.750000  0.946279  0.566904  1
  Ir  Ir26  1  0.750000  0.529612  0.444412  1
  Ir  Ir27  1  0.750000  0.970388  0.944412  1
  Ir  Ir28  1  0.250000  0.050991  0.592303  1
  Ir  Ir29  1  0.250000  0.449009  0.092303  1
  Ir  Ir30  1  0.750000  0.942172  0.405772  1
  Ir  Ir31  1  0.750000  0.557828  0.905772  1
  Ir  Ir32  1  0.250000  0.278249  0.819668  1
  Ir  Ir33  1  0.250000  0.221751  0.319668  1
  Ir  Ir34  1  0.750000  0.715019  0.185477  1
  Ir  Ir35  1  0.750000  0.784981  0.685477  1
