# generated using pymatgen
data_LaLu2Pa(ReB6)2
_symmetry_space_group_name_H-M   'P 1'
_cell_length_a   3.71098100
_cell_length_b   9.17222038
_cell_length_c   11.59483360
_cell_angle_alpha   90.19324898
_cell_angle_beta   90.00000000
_cell_angle_gamma   90.00000000
_symmetry_Int_Tables_number   1
_chemical_formula_structural   LaLu2Pa(ReB6)2
_chemical_formula_sum   'La2 Lu4 Pa2 Re4 B24'
_cell_volume   394.66195414
_cell_formula_units_Z   2
loop_
 _symmetry_equiv_pos_site_id
 _symmetry_equiv_pos_as_xyz
  1  'x, y, z'
loop_
 _atom_site_type_symbol
 _atom_site_label
 _atom_site_symmetry_multiplicity
 _atom_site_fract_x
 _atom_site_fract_y
 _atom_site_fract_z
 _atom_site_occupancy
  La  La0  1  0.000000  0.823412  0.085809  1
  La  La1  1  0.000000  0.176588  0.914191  1
  Lu  Lu2  1  0.000000  0.945063  0.373916  1
  Lu  Lu3  1  0.000000  0.054937  0.626084  1
  Lu  Lu4  1  0.000000  0.444763  0.128264  1
  Lu  Lu5  1  0.000000  0.555237  0.871736  1
  Pa  Pa6  1  0.000000  0.320997  0.414025  1
  Pa  Pa7  1  0.000000  0.679003  0.585975  1
  Re  Re8  1  0.000000  0.635087  0.325517  1
  Re  Re9  1  0.000000  0.364913  0.674483  1
  Re  Re10  1  0.000000  0.144425  0.186682  1
  Re  Re11  1  0.000000  0.855575  0.813318  1
  B  B12  1  0.500000  0.554174  0.433501  1
  B  B13  1  0.500000  0.445826  0.566499  1
  B  B14  1  0.500000  0.057557  0.073129  1
  B  B15  1  0.500000  0.942443  0.926871  1
  B  B16  1  0.500000  0.749353  0.420123  1
  B  B17  1  0.500000  0.250647  0.579877  1
  B  B18  1  0.500000  0.251618  0.085532  1
  B  B19  1  0.500000  0.748382  0.914468  1
  B  B20  1  0.500000  0.790902  0.268502  1
  B  B21  1  0.500000  0.209098  0.731498  1
  B  B22  1  0.500000  0.293942  0.237250  1
  B  B23  1  0.500000  0.706058  0.762750  1
  B  B24  1  0.500000  0.628993  0.187633  1
  B  B25  1  0.500000  0.371007  0.812367  1
  B  B26  1  0.500000  0.132584  0.317498  1
  B  B27  1  0.500000  0.867416  0.682502  1
  B  B28  1  0.500000  0.985234  0.216779  1
  B  B29  1  0.500000  0.014766  0.783221  1
  B  B30  1  0.500000  0.482905  0.288268  1
  B  B31  1  0.500000  0.517095  0.711732  1
  B  B32  1  0.500000  0.597322  0.026827  1
  B  B33  1  0.500000  0.402678  0.973173  1
  B  B34  1  0.500000  0.107127  0.471258  1
  B  B35  1  0.500000  0.892873  0.528742  1
