# generated using pymatgen
data_DyPd6IO8
_symmetry_space_group_name_H-M   'P 1'
_cell_length_a   6.90361478
_cell_length_b   6.90361501
_cell_length_c   6.90361600
_cell_angle_alpha   60.00000482
_cell_angle_beta   60.00000373
_cell_angle_gamma   59.99999528
_symmetry_Int_Tables_number   1
_chemical_formula_structural   DyPd6IO8
_chemical_formula_sum   'Dy1 Pd6 I1 O8'
_cell_volume   232.65626681
_cell_formula_units_Z   1
loop_
 _symmetry_equiv_pos_site_id
 _symmetry_equiv_pos_as_xyz
  1  'x, y, z'
loop_
 _atom_site_type_symbol
 _atom_site_label
 _atom_site_symmetry_multiplicity
 _atom_site_fract_x
 _atom_site_fract_y
 _atom_site_fract_z
 _atom_site_occupancy
  Dy  Dy0  1  0.000000  0.000000  0.000000  1
  Pd  Pd1  1  0.000000  0.000000  0.500000  1
  Pd  Pd2  1  0.500000  0.000000  0.500000  1
  Pd  Pd3  1  0.000000  0.500000  0.500000  1
  Pd  Pd4  1  0.500000  0.500000  0.000000  1
  Pd  Pd5  1  0.000000  0.500000  0.000000  1
  Pd  Pd6  1  0.500000  0.000000  0.000000  1
  I  I7  1  0.500000  0.500000  0.500000  1
  O  O8  1  0.860210  0.860210  0.419368  1
  O  O9  1  0.860210  0.419368  0.860210  1
  O  O10  1  0.419368  0.860210  0.860210  1
  O  O11  1  0.860210  0.860210  0.860210  1
  O  O12  1  0.139790  0.139790  0.580632  1
  O  O13  1  0.139790  0.580632  0.139790  1
  O  O14  1  0.580632  0.139790  0.139790  1
  O  O15  1  0.139790  0.139790  0.139790  1
