# generated using pymatgen
data_Lu4Al4IrPt3
_symmetry_space_group_name_H-M   'P 1'
_cell_length_a   4.35945000
_cell_length_b   6.71115751
_cell_length_c   7.74946754
_cell_angle_alpha   89.95631997
_cell_angle_beta   90.00000000
_cell_angle_gamma   90.00000000
_symmetry_Int_Tables_number   1
_chemical_formula_structural   Lu4Al4IrPt3
_chemical_formula_sum   'Lu4 Al4 Ir1 Pt3'
_cell_volume   226.72576184
_cell_formula_units_Z   1
loop_
 _symmetry_equiv_pos_site_id
 _symmetry_equiv_pos_as_xyz
  1  'x, y, z'
loop_
 _atom_site_type_symbol
 _atom_site_label
 _atom_site_symmetry_multiplicity
 _atom_site_fract_x
 _atom_site_fract_y
 _atom_site_fract_z
 _atom_site_occupancy
  Lu  Lu0  1  0.250000  0.032391  0.676308  1
  Lu  Lu1  1  0.250000  0.530276  0.821216  1
  Lu  Lu2  1  0.750000  0.974829  0.322096  1
  Lu  Lu3  1  0.750000  0.467746  0.180712  1
  Al  Al4  1  0.250000  0.144175  0.061528  1
  Al  Al5  1  0.250000  0.638729  0.439197  1
  Al  Al6  1  0.750000  0.857008  0.940216  1
  Al  Al7  1  0.750000  0.356472  0.558754  1
  Ir  Ir8  1  0.250000  0.264272  0.378543  1
  Pt  Pt9  1  0.250000  0.767600  0.121492  1
  Pt  Pt10  1  0.750000  0.733126  0.621927  1
  Pt  Pt11  1  0.750000  0.233375  0.878010  1
