# generated using pymatgen
data_Sr2VS4I
_symmetry_space_group_name_H-M   'P 1'
_cell_length_a   7.65850700
_cell_length_b   9.33829500
_cell_length_c   13.35837800
_cell_angle_alpha   90.00000000
_cell_angle_beta   90.00000000
_cell_angle_gamma   90.00000000
_symmetry_Int_Tables_number   1
_chemical_formula_structural   Sr2VS4I
_chemical_formula_sum   'Sr8 V4 S16 I4'
_cell_volume   955.35643106
_cell_formula_units_Z   4
loop_
 _symmetry_equiv_pos_site_id
 _symmetry_equiv_pos_as_xyz
  1  'x, y, z'
loop_
 _atom_site_type_symbol
 _atom_site_label
 _atom_site_symmetry_multiplicity
 _atom_site_fract_x
 _atom_site_fract_y
 _atom_site_fract_z
 _atom_site_occupancy
  Sr  Sr0  1  0.620302  0.250000  0.000000  1
  Sr  Sr1  1  0.379698  0.750000  0.000000  1
  Sr  Sr2  1  0.379698  0.750000  0.500000  1
  Sr  Sr3  1  0.620302  0.250000  0.500000  1
  Sr  Sr4  1  0.166908  0.057030  0.250000  1
  Sr  Sr5  1  0.833092  0.942970  0.750000  1
  Sr  Sr6  1  0.833092  0.557030  0.250000  1
  Sr  Sr7  1  0.166908  0.442970  0.750000  1
  V  V8  1  0.124158  0.250000  0.000000  1
  V  V9  1  0.875842  0.750000  0.000000  1
  V  V10  1  0.875842  0.750000  0.500000  1
  V  V11  1  0.124158  0.250000  0.500000  1
  S  S12  1  0.043180  0.775930  0.128153  1
  S  S13  1  0.956820  0.224070  0.871847  1
  S  S14  1  0.956820  0.224070  0.628153  1
  S  S15  1  0.956820  0.275930  0.371847  1
  S  S16  1  0.043180  0.775930  0.371847  1
  S  S17  1  0.043180  0.724070  0.628153  1
  S  S18  1  0.043180  0.724070  0.871847  1
  S  S19  1  0.956820  0.275930  0.128153  1
  S  S20  1  0.290880  0.067805  0.028221  1
  S  S21  1  0.709120  0.932195  0.971779  1
  S  S22  1  0.709120  0.932195  0.528221  1
  S  S23  1  0.709120  0.567805  0.471779  1
  S  S24  1  0.290880  0.067805  0.471779  1
  S  S25  1  0.290880  0.432195  0.528221  1
  S  S26  1  0.290880  0.432195  0.971779  1
  S  S27  1  0.709120  0.567805  0.028221  1
  I  I28  1  0.496126  0.317928  0.250000  1
  I  I29  1  0.503874  0.682072  0.750000  1
  I  I30  1  0.503874  0.817928  0.250000  1
  I  I31  1  0.496126  0.182072  0.750000  1
