# generated using pymatgen
data_Y2ScSbO7
_symmetry_space_group_name_H-M   'P 1'
_cell_length_a   7.38189837
_cell_length_b   7.34262685
_cell_length_c   7.44444500
_cell_angle_alpha   90.00016354
_cell_angle_beta   59.72028052
_cell_angle_gamma   119.82375631
_symmetry_Int_Tables_number   1
_chemical_formula_structural   Y2ScSbO7
_chemical_formula_sum   'Y4 Sc2 Sb2 O14'
_cell_volume   284.87210432
_cell_formula_units_Z   2
loop_
 _symmetry_equiv_pos_site_id
 _symmetry_equiv_pos_as_xyz
  1  'x, y, z'
loop_
 _atom_site_type_symbol
 _atom_site_label
 _atom_site_symmetry_multiplicity
 _atom_site_fract_x
 _atom_site_fract_y
 _atom_site_fract_z
 _atom_site_occupancy
  Y  Y0  1  0.499986  0.499994  0.000019  1
  Y  Y1  1  0.499980  0.999986  0.000000  1
  Y  Y2  1  0.000005  0.000014  0.499998  1
  Y  Y3  1  0.000000  0.999996  0.999998  1
  Sc  Sc4  1  0.500029  0.000023  0.499998  1
  Sc  Sc5  1  0.500037  0.500005  0.499992  1
  Sb  Sb6  1  0.000018  0.500025  0.999990  1
  Sb  Sb7  1  0.000023  0.499994  0.499985  1
  O  O8  1  0.258192  0.129095  0.120902  1
  O  O9  1  0.741798  0.870902  0.879097  1
  O  O10  1  0.697199  0.848606  0.401406  1
  O  O11  1  0.851191  0.425598  0.824402  1
  O  O12  1  0.251002  0.827239  0.844992  1
  O  O13  1  0.251000  0.423756  0.404015  1
  O  O14  1  0.251013  0.423758  0.844993  1
  O  O15  1  0.251012  0.827258  0.403997  1
  O  O16  1  0.302801  0.151405  0.598594  1
  O  O17  1  0.148785  0.574392  0.175606  1
  O  O18  1  0.748971  0.172737  0.155016  1
  O  O19  1  0.748980  0.576235  0.596002  1
  O  O20  1  0.748985  0.576227  0.155015  1
  O  O21  1  0.748993  0.172756  0.595985  1
