# generated using pymatgen
data_Y3Sc2GaPt3
_symmetry_space_group_name_H-M   'P 1'
_cell_length_a   7.25683679
_cell_length_b   7.25683681
_cell_length_c   4.33277800
_cell_angle_alpha   90.00000000
_cell_angle_beta   90.00000000
_cell_angle_gamma   121.28151723
_symmetry_Int_Tables_number   1
_chemical_formula_structural   Y3Sc2GaPt3
_chemical_formula_sum   'Y3 Sc2 Ga1 Pt3'
_cell_volume   195.00127094
_cell_formula_units_Z   1
loop_
 _symmetry_equiv_pos_site_id
 _symmetry_equiv_pos_as_xyz
  1  'x, y, z'
loop_
 _atom_site_type_symbol
 _atom_site_label
 _atom_site_symmetry_multiplicity
 _atom_site_fract_x
 _atom_site_fract_y
 _atom_site_fract_z
 _atom_site_occupancy
  Y  Y0  1  0.588857  0.983639  0.500000  1
  Y  Y1  1  0.432752  0.432752  0.500000  1
  Y  Y2  1  0.983639  0.588857  0.500000  1
  Sc  Sc3  1  0.242908  0.993828  0.000000  1
  Sc  Sc4  1  0.993828  0.242907  0.000000  1
  Ga  Ga5  1  0.755047  0.755047  0.000000  1
  Pt  Pt6  1  0.659764  0.327431  0.000000  1
  Pt  Pt7  1  0.327431  0.659764  0.000000  1
  Pt  Pt8  1  0.015775  0.015775  0.500000  1
