# generated using pymatgen
data_Hf5Co16Si7W
_symmetry_space_group_name_H-M   'P 1'
_cell_length_a   7.95281577
_cell_length_b   7.97729404
_cell_length_c   7.97729444
_cell_angle_alpha   59.79708379
_cell_angle_beta   60.10146107
_cell_angle_gamma   60.10146334
_symmetry_Int_Tables_number   1
_chemical_formula_structural   Hf5Co16Si7W
_chemical_formula_sum   'Hf5 Co16 Si7 W1'
_cell_volume   357.85659004
_cell_formula_units_Z   1
loop_
 _symmetry_equiv_pos_site_id
 _symmetry_equiv_pos_as_xyz
  1  'x, y, z'
loop_
 _atom_site_type_symbol
 _atom_site_label
 _atom_site_symmetry_multiplicity
 _atom_site_fract_x
 _atom_site_fract_y
 _atom_site_fract_z
 _atom_site_occupancy
  Hf  Hf0  1  0.797891  0.795645  0.202109  1
  Hf  Hf1  1  0.791541  0.208459  0.208459  1
  Hf  Hf2  1  0.204355  0.202109  0.795645  1
  Hf  Hf3  1  0.797891  0.202109  0.795645  1
  Hf  Hf4  1  0.204355  0.795645  0.202109  1
  Co  Co5  1  0.620170  0.621053  0.138609  1
  Co  Co6  1  0.168941  0.495515  0.166605  1
  Co  Co7  1  0.861391  0.379830  0.379830  1
  Co  Co8  1  0.504485  0.831059  0.831059  1
  Co  Co9  1  0.490518  0.169615  0.169615  1
  Co  Co10  1  0.830385  0.829746  0.509482  1
  Co  Co11  1  0.168941  0.166605  0.495515  1
  Co  Co12  1  0.144671  0.621363  0.621363  1
  Co  Co13  1  0.170254  0.169615  0.169615  1
  Co  Co14  1  0.378637  0.387395  0.855329  1
  Co  Co15  1  0.612605  0.621363  0.621363  1
  Co  Co16  1  0.378637  0.855329  0.387395  1
  Co  Co17  1  0.378947  0.379830  0.379830  1
  Co  Co18  1  0.833395  0.831059  0.831059  1
  Co  Co19  1  0.620170  0.138609  0.621053  1
  Co  Co20  1  0.830385  0.509482  0.829746  1
  Si  Si21  1  0.498928  0.996552  0.501072  1
  Si  Si22  1  0.498928  0.501072  0.996552  1
  Si  Si23  1  0.504059  0.495941  0.495941  1
  Si  Si24  1  0.003448  0.996552  0.501072  1
  Si  Si25  1  0.003448  0.501072  0.996552  1
  Si  Si26  1  0.000311  0.499689  0.499689  1
  Si  Si27  1  0.500311  0.999689  0.999689  1
  W  W28  1  0.202002  0.797998  0.797998  1
