# generated using pymatgen
data_Sb(IBr4)3
_symmetry_space_group_name_H-M   'P 1'
_cell_length_a   5.48675521
_cell_length_b   11.64696229
_cell_length_c   15.47884630
_cell_angle_alpha   69.85299337
_cell_angle_beta   110.00730933
_cell_angle_gamma   99.96360704
_symmetry_Int_Tables_number   1
_chemical_formula_structural   Sb(IBr4)3
_chemical_formula_sum   'Sb1 I3 Br12'
_cell_volume   870.88306022
_cell_formula_units_Z   1
loop_
 _symmetry_equiv_pos_site_id
 _symmetry_equiv_pos_as_xyz
  1  'x, y, z'
loop_
 _atom_site_type_symbol
 _atom_site_label
 _atom_site_symmetry_multiplicity
 _atom_site_fract_x
 _atom_site_fract_y
 _atom_site_fract_z
 _atom_site_occupancy
  Sb  Sb0  1  0.179802  0.444359  0.995583  1
  I  I1  1  0.948501  0.440941  0.480982  1
  I  I2  1  0.412979  0.986016  0.536222  1
  I  I3  1  0.786901  0.048289  0.037149  1
  Br  Br4  1  0.034845  0.325903  0.378183  1
  Br  Br5  1  0.936497  0.234756  0.623080  1
  Br  Br6  1  0.836451  0.840437  0.182776  1
  Br  Br7  1  0.179095  0.651530  0.868925  1
  Br  Br8  1  0.911263  0.493403  0.082841  1
  Br  Br9  1  0.385660  0.984981  0.911964  1
  Br  Br10  1  0.314750  0.062063  0.347690  1
  Br  Br11  1  0.849918  0.562690  0.598754  1
  Br  Br12  1  0.814649  0.340313  0.884536  1
  Br  Br13  1  0.248241  0.146202  0.154186  1
  Br  Br14  1  0.127079  0.773032  0.566769  1
  Br  Br15  1  0.033368  0.665085  0.350361  1
