# generated using pymatgen
data_Pr3Y5(TmBi)12
_symmetry_space_group_name_H-M   'P 1'
_cell_length_a   8.30554046
_cell_length_b   9.50548200
_cell_length_c   12.16443100
_cell_angle_alpha   90.00000000
_cell_angle_beta   89.98101532
_cell_angle_gamma   90.00000000
_symmetry_Int_Tables_number   1
_chemical_formula_structural   Pr3Y5(TmBi)12
_chemical_formula_sum   'Pr3 Y5 Tm12 Bi12'
_cell_volume   960.35945670
_cell_formula_units_Z   1
loop_
 _symmetry_equiv_pos_site_id
 _symmetry_equiv_pos_as_xyz
  1  'x, y, z'
loop_
 _atom_site_type_symbol
 _atom_site_label
 _atom_site_symmetry_multiplicity
 _atom_site_fract_x
 _atom_site_fract_y
 _atom_site_fract_z
 _atom_site_occupancy
  Pr  Pr0  1  0.182548  0.750000  0.720130  1
  Pr  Pr1  1  0.683346  0.750000  0.779583  1
  Pr  Pr2  1  0.816760  0.250000  0.280003  1
  Y  Y3  1  0.315033  0.250000  0.218340  1
  Y  Y4  1  0.351625  0.750000  0.217766  1
  Y  Y5  1  0.852708  0.750000  0.280837  1
  Y  Y6  1  0.648144  0.250000  0.783798  1
  Y  Y7  1  0.149498  0.250000  0.717286  1
  Tm  Tm8  1  0.023506  0.750000  0.989429  1
  Tm  Tm9  1  0.521107  0.750000  0.510744  1
  Tm  Tm10  1  0.977249  0.250000  0.013364  1
  Tm  Tm11  1  0.477722  0.250000  0.488057  1
  Tm  Tm12  1  0.308048  0.434651  0.940409  1
  Tm  Tm13  1  0.809582  0.066369  0.560046  1
  Tm  Tm14  1  0.692337  0.934803  0.060360  1
  Tm  Tm15  1  0.190176  0.565501  0.438618  1
  Tm  Tm16  1  0.692337  0.565197  0.060360  1
  Tm  Tm17  1  0.190176  0.934499  0.438618  1
  Tm  Tm18  1  0.308048  0.065349  0.940409  1
  Tm  Tm19  1  0.809582  0.433631  0.560046  1
  Bi  Bi20  1  0.434665  0.008787  0.669765  1
  Bi  Bi21  1  0.934444  0.490819  0.831140  1
  Bi  Bi22  1  0.561879  0.506206  0.328760  1
  Bi  Bi23  1  0.070101  0.993796  0.170912  1
  Bi  Bi24  1  0.561879  0.993794  0.328760  1
  Bi  Bi25  1  0.070101  0.506204  0.170912  1
  Bi  Bi26  1  0.434665  0.491213  0.669765  1
  Bi  Bi27  1  0.934444  0.009181  0.831140  1
  Bi  Bi28  1  0.404633  0.750000  0.963175  1
  Bi  Bi29  1  0.902699  0.750000  0.536227  1
  Bi  Bi30  1  0.592131  0.250000  0.040191  1
  Bi  Bi31  1  0.098830  0.250000  0.461052  1
