# generated using pymatgen
data_Lu4Zn2(GaRu)3
_symmetry_space_group_name_H-M   'P 1'
_cell_length_a   5.25653286
_cell_length_b   5.26155837
_cell_length_c   8.91995900
_cell_angle_alpha   90.00000000
_cell_angle_beta   90.00000000
_cell_angle_gamma   119.91026510
_symmetry_Int_Tables_number   1
_chemical_formula_structural   Lu4Zn2(GaRu)3
_chemical_formula_sum   'Lu4 Zn2 Ga3 Ru3'
_cell_volume   213.84507766
_cell_formula_units_Z   1
loop_
 _symmetry_equiv_pos_site_id
 _symmetry_equiv_pos_as_xyz
  1  'x, y, z'
loop_
 _atom_site_type_symbol
 _atom_site_label
 _atom_site_symmetry_multiplicity
 _atom_site_fract_x
 _atom_site_fract_y
 _atom_site_fract_z
 _atom_site_occupancy
  Lu  Lu0  1  0.329064  0.675811  0.436842  1
  Lu  Lu1  1  0.669746  0.332610  0.551768  1
  Lu  Lu2  1  0.669746  0.332610  0.948232  1
  Lu  Lu3  1  0.329064  0.675811  0.063158  1
  Zn  Zn4  1  0.165386  0.821578  0.750000  1
  Zn  Zn5  1  0.670036  0.822693  0.750000  1
  Ga  Ga6  1  0.161330  0.317074  0.750000  1
  Ga  Ga7  1  0.330155  0.176963  0.250000  1
  Ga  Ga8  1  0.827626  0.671075  0.250000  1
  Ru  Ru9  1  0.012677  0.000062  0.000420  1
  Ru  Ru10  1  0.822494  0.173651  0.250000  1
  Ru  Ru11  1  0.012677  0.000062  0.499580  1
