# generated using pymatgen
data_LuPa3(InNi2)2
_symmetry_space_group_name_H-M   'P 1'
_cell_length_a   7.48131463
_cell_length_b   7.48131503
_cell_length_c   3.54003000
_cell_angle_alpha   90.00000000
_cell_angle_beta   90.00000000
_cell_angle_gamma   91.55525403
_symmetry_Int_Tables_number   1
_chemical_formula_structural   LuPa3(InNi2)2
_chemical_formula_sum   'Lu1 Pa3 In2 Ni4'
_cell_volume   198.06274256
_cell_formula_units_Z   1
loop_
 _symmetry_equiv_pos_site_id
 _symmetry_equiv_pos_as_xyz
  1  'x, y, z'
loop_
 _atom_site_type_symbol
 _atom_site_label
 _atom_site_symmetry_multiplicity
 _atom_site_fract_x
 _atom_site_fract_y
 _atom_site_fract_z
 _atom_site_occupancy
  Lu  Lu0  1  0.826680  0.673320  0.500000  1
  Pa  Pa1  1  0.674138  0.172236  0.500000  1
  Pa  Pa2  1  0.327764  0.825862  0.500000  1
  Pa  Pa3  1  0.169943  0.330057  0.500000  1
  In  In4  1  0.506203  0.502568  0.000000  1
  In  In5  1  0.997432  0.993797  0.000000  1
  Ni  Ni6  1  0.139677  0.619610  0.000000  1
  Ni  Ni7  1  0.880390  0.360323  0.000000  1
  Ni  Ni8  1  0.609684  0.890316  0.000000  1
  Ni  Ni9  1  0.368092  0.131908  0.000000  1
