# generated using pymatgen
data_Tm16Cd4TcNi3
_symmetry_space_group_name_H-M   'P 1'
_cell_length_a   9.47805385
_cell_length_b   9.47805547
_cell_length_c   9.47805528
_cell_angle_alpha   59.35539360
_cell_angle_beta   59.35538670
_cell_angle_gamma   59.35539811
_symmetry_Int_Tables_number   1
_chemical_formula_structural   Tm16Cd4TcNi3
_chemical_formula_sum   'Tm16 Cd4 Tc1 Ni3'
_cell_volume   593.22997628
_cell_formula_units_Z   1
loop_
 _symmetry_equiv_pos_site_id
 _symmetry_equiv_pos_as_xyz
  1  'x, y, z'
loop_
 _atom_site_type_symbol
 _atom_site_label
 _atom_site_symmetry_multiplicity
 _atom_site_fract_x
 _atom_site_fract_y
 _atom_site_fract_z
 _atom_site_occupancy
  Tm  Tm0  1  0.346586  0.346586  0.346586  1
  Tm  Tm1  1  0.352309  0.352309  0.953784  1
  Tm  Tm2  1  0.352309  0.953784  0.352309  1
  Tm  Tm3  1  0.953784  0.352309  0.352309  1
  Tm  Tm4  1  0.810338  0.187394  0.187394  1
  Tm  Tm5  1  0.186224  0.811415  0.811415  1
  Tm  Tm6  1  0.187394  0.810338  0.187394  1
  Tm  Tm7  1  0.811415  0.186224  0.811415  1
  Tm  Tm8  1  0.187394  0.187394  0.810338  1
  Tm  Tm9  1  0.811415  0.811415  0.186224  1
  Tm  Tm10  1  0.935607  0.565772  0.565772  1
  Tm  Tm11  1  0.556321  0.939782  0.939782  1
  Tm  Tm12  1  0.565772  0.935607  0.565772  1
  Tm  Tm13  1  0.939782  0.556321  0.939782  1
  Tm  Tm14  1  0.565772  0.565772  0.935607  1
  Tm  Tm15  1  0.939782  0.939782  0.556321  1
  Cd  Cd16  1  0.580005  0.580005  0.580005  1
  Cd  Cd17  1  0.579568  0.579568  0.255779  1
  Cd  Cd18  1  0.579568  0.255779  0.579568  1
  Cd  Cd19  1  0.255779  0.579568  0.579568  1
  Tc  Tc20  1  0.144183  0.144183  0.144183  1
  Ni  Ni21  1  0.141820  0.141820  0.575057  1
  Ni  Ni22  1  0.141820  0.575057  0.141820  1
  Ni  Ni23  1  0.575057  0.141820  0.141820  1
