# generated using pymatgen
data_Tb2ScAuO7
_symmetry_space_group_name_H-M   'P 1'
_cell_length_a   7.36933973
_cell_length_b   7.42602405
_cell_length_c   7.35075900
_cell_angle_alpha   90.00032405
_cell_angle_beta   60.08260384
_cell_angle_gamma   120.25536614
_symmetry_Int_Tables_number   1
_chemical_formula_structural   Tb2ScAuO7
_chemical_formula_sum   'Tb4 Sc2 Au2 O14'
_cell_volume   283.70144170
_cell_formula_units_Z   2
loop_
 _symmetry_equiv_pos_site_id
 _symmetry_equiv_pos_as_xyz
  1  'x, y, z'
loop_
 _atom_site_type_symbol
 _atom_site_label
 _atom_site_symmetry_multiplicity
 _atom_site_fract_x
 _atom_site_fract_y
 _atom_site_fract_z
 _atom_site_occupancy
  Tb  Tb0  1  0.500014  0.500020  0.999998  1
  Tb  Tb1  1  0.500019  0.000014  0.999979  1
  Tb  Tb2  1  0.000028  0.000026  0.499992  1
  Tb  Tb3  1  0.000034  0.000013  0.999980  1
  Sc  Sc4  1  0.499973  0.999940  0.500012  1
  Sc  Sc5  1  0.499951  0.499938  0.500016  1
  Au  Au6  1  0.999958  0.499938  0.000013  1
  Au  Au7  1  0.999950  0.500022  0.500037  1
  O  O8  1  0.258943  0.129477  0.120532  1
  O  O9  1  0.741109  0.870562  0.879452  1
  O  O10  1  0.690978  0.845483  0.404513  1
  O  O11  1  0.829048  0.414530  0.835479  1
  O  O12  1  0.250694  0.834333  0.849487  1
  O  O13  1  0.250688  0.416371  0.399824  1
  O  O14  1  0.250695  0.416338  0.849497  1
  O  O15  1  0.250687  0.834365  0.399808  1
  O  O16  1  0.309067  0.154529  0.595467  1
  O  O17  1  0.170931  0.585473  0.164536  1
  O  O18  1  0.749315  0.165630  0.150496  1
  O  O19  1  0.749306  0.583685  0.600194  1
  O  O20  1  0.749309  0.583649  0.150509  1
  O  O21  1  0.749300  0.165663  0.600183  1
