# generated using pymatgen
data_Ba3MgRhO6
_symmetry_space_group_name_H-M   'P 1'
_cell_length_a   7.05706960
_cell_length_b   7.05707019
_cell_length_c   7.05706924
_cell_angle_alpha   93.70118666
_cell_angle_beta   93.70118723
_cell_angle_gamma   93.70118076
_symmetry_Int_Tables_number   1
_chemical_formula_structural   Ba3MgRhO6
_chemical_formula_sum   'Ba6 Mg2 Rh2 O12'
_cell_volume   349.15893364
_cell_formula_units_Z   2
loop_
 _symmetry_equiv_pos_site_id
 _symmetry_equiv_pos_as_xyz
  1  'x, y, z'
loop_
 _atom_site_type_symbol
 _atom_site_label
 _atom_site_symmetry_multiplicity
 _atom_site_fract_x
 _atom_site_fract_y
 _atom_site_fract_z
 _atom_site_occupancy
  Ba  Ba0  1  0.614726  0.250000  0.885274  1
  Ba  Ba1  1  0.885274  0.614726  0.250000  1
  Ba  Ba2  1  0.750000  0.114726  0.385274  1
  Ba  Ba3  1  0.385274  0.750000  0.114726  1
  Ba  Ba4  1  0.114726  0.385274  0.750000  1
  Ba  Ba5  1  0.250000  0.885274  0.614726  1
  Mg  Mg6  1  0.250000  0.250000  0.250000  1
  Mg  Mg7  1  0.750000  0.750000  0.750000  1
  Rh  Rh8  1  0.000000  0.000000  0.000000  1
  Rh  Rh9  1  0.500000  0.500000  0.500000  1
  O  O10  1  0.596617  0.777848  0.470543  1
  O  O11  1  0.470543  0.596617  0.777848  1
  O  O12  1  0.777848  0.470543  0.596617  1
  O  O13  1  0.903383  0.029457  0.722152  1
  O  O14  1  0.722152  0.903383  0.029457  1
  O  O15  1  0.029457  0.722152  0.903383  1
  O  O16  1  0.403383  0.222152  0.529457  1
  O  O17  1  0.529457  0.403383  0.222152  1
  O  O18  1  0.222152  0.529457  0.403383  1
  O  O19  1  0.096617  0.970543  0.277848  1
  O  O20  1  0.970543  0.277848  0.096617  1
  O  O21  1  0.277848  0.096617  0.970543  1
