# generated using pymatgen
data_Pr5Nd3Cd2IrOs
_symmetry_space_group_name_H-M   'P 1'
_cell_length_a   10.00977043
_cell_length_b   10.01290652
_cell_length_c   10.06144249
_cell_angle_alpha   59.81887134
_cell_angle_beta   59.84974686
_cell_angle_gamma   59.70946135
_symmetry_Int_Tables_number   1
_chemical_formula_structural   Pr5Nd3Cd2IrOs
_chemical_formula_sum   'Pr10 Nd6 Cd4 Ir2 Os2'
_cell_volume   709.70744090
_cell_formula_units_Z   2
loop_
 _symmetry_equiv_pos_site_id
 _symmetry_equiv_pos_as_xyz
  1  'x, y, z'
loop_
 _atom_site_type_symbol
 _atom_site_label
 _atom_site_symmetry_multiplicity
 _atom_site_fract_x
 _atom_site_fract_y
 _atom_site_fract_z
 _atom_site_occupancy
  Pr  Pr0  1  0.191039  0.810423  0.191144  1
  Pr  Pr1  1  0.810423  0.191039  0.807393  1
  Pr  Pr2  1  0.191173  0.191173  0.808827  1
  Pr  Pr3  1  0.808799  0.808799  0.191201  1
  Pr  Pr4  1  0.939696  0.558366  0.561564  1
  Pr  Pr5  1  0.558366  0.939696  0.940374  1
  Pr  Pr6  1  0.558251  0.939726  0.561590  1
  Pr  Pr7  1  0.939726  0.558251  0.940433  1
  Pr  Pr8  1  0.561120  0.561120  0.938880  1
  Pr  Pr9  1  0.941326  0.941326  0.558674  1
  Nd  Nd10  1  0.346437  0.346145  0.348148  1
  Nd  Nd11  1  0.346145  0.346437  0.959268  1
  Nd  Nd12  1  0.344940  0.960851  0.347441  1
  Nd  Nd13  1  0.960851  0.344940  0.346769  1
  Nd  Nd14  1  0.810107  0.191238  0.191254  1
  Nd  Nd15  1  0.191238  0.810107  0.807401  1
  Cd  Cd16  1  0.578974  0.579331  0.579768  1
  Cd  Cd17  1  0.579331  0.578974  0.261926  1
  Cd  Cd18  1  0.579210  0.261164  0.579630  1
  Cd  Cd19  1  0.261164  0.579210  0.579997  1
  Ir  Ir20  1  0.142143  0.578780  0.139121  1
  Ir  Ir21  1  0.578780  0.142143  0.139957  1
  Os  Os22  1  0.140096  0.140666  0.138274  1
  Os  Os23  1  0.140666  0.140096  0.580964  1
