# generated using pymatgen
data_NdPaSnPt2
_symmetry_space_group_name_H-M   'P 1'
_cell_length_a   7.85901800
_cell_length_b   7.84549500
_cell_length_c   3.72725000
_cell_angle_alpha   90.00000000
_cell_angle_beta   90.00000000
_cell_angle_gamma   90.00000000
_symmetry_Int_Tables_number   1
_chemical_formula_structural   NdPaSnPt2
_chemical_formula_sum   'Nd2 Pa2 Sn2 Pt4'
_cell_volume   229.81435717
_cell_formula_units_Z   2
loop_
 _symmetry_equiv_pos_site_id
 _symmetry_equiv_pos_as_xyz
  1  'x, y, z'
loop_
 _atom_site_type_symbol
 _atom_site_label
 _atom_site_symmetry_multiplicity
 _atom_site_fract_x
 _atom_site_fract_y
 _atom_site_fract_z
 _atom_site_occupancy
  Nd  Nd0  1  0.177021  0.674457  0.500000  1
  Nd  Nd1  1  0.677021  0.825542  0.500000  1
  Pa  Pa2  1  0.327965  0.172372  0.500000  1
  Pa  Pa3  1  0.827965  0.327627  0.500000  1
  Sn  Sn4  1  0.997591  0.994975  0.000000  1
  Sn  Sn5  1  0.497591  0.505025  0.000000  1
  Pt  Pt6  1  0.628576  0.148580  0.000000  1
  Pt  Pt7  1  0.128576  0.351419  0.000000  1
  Pt  Pt8  1  0.868846  0.602350  0.000000  1
  Pt  Pt9  1  0.368845  0.897650  0.000000  1
