# generated using pymatgen
data_TbDyLu2Ni13C4
_symmetry_space_group_name_H-M   'P 1'
_cell_length_a   8.36607006
_cell_length_b   8.36607037
_cell_length_c   3.85295300
_cell_angle_alpha   90.00000000
_cell_angle_beta   90.00000000
_cell_angle_gamma   91.04385696
_symmetry_Int_Tables_number   1
_chemical_formula_structural   TbDyLu2Ni13C4
_chemical_formula_sum   'Tb1 Dy1 Lu2 Ni13 C4'
_cell_volume   269.62778369
_cell_formula_units_Z   1
loop_
 _symmetry_equiv_pos_site_id
 _symmetry_equiv_pos_as_xyz
  1  'x, y, z'
loop_
 _atom_site_type_symbol
 _atom_site_label
 _atom_site_symmetry_multiplicity
 _atom_site_fract_x
 _atom_site_fract_y
 _atom_site_fract_z
 _atom_site_occupancy
  Tb  Tb0  1  0.152277  0.152277  0.000000  1
  Dy  Dy1  1  0.847717  0.847717  0.000000  1
  Lu  Lu2  1  0.313020  0.686968  0.000000  1
  Lu  Lu3  1  0.686968  0.313020  0.000000  1
  Ni  Ni4  1  0.500007  0.500007  0.500000  1
  Ni  Ni5  1  0.714925  0.071704  0.500000  1
  Ni  Ni6  1  0.285088  0.928277  0.500000  1
  Ni  Ni7  1  0.928277  0.285088  0.500000  1
  Ni  Ni8  1  0.071704  0.714925  0.500000  1
  Ni  Ni9  1  0.500011  0.999993  0.000000  1
  Ni  Ni10  1  0.999993  0.500011  0.000000  1
  Ni  Ni11  1  0.571577  0.790196  0.500000  1
  Ni  Ni12  1  0.428454  0.209801  0.500000  1
  Ni  Ni13  1  0.209801  0.428454  0.500000  1
  Ni  Ni14  1  0.790196  0.571577  0.500000  1
  Ni  Ni15  1  0.621462  0.621462  0.000000  1
  Ni  Ni16  1  0.378566  0.378566  0.000000  1
  C  C17  1  0.499986  0.000003  0.500000  1
  C  C18  1  0.000003  0.499986  0.500000  1
  C  C19  1  0.942922  0.057047  0.500000  1
  C  C20  1  0.057047  0.942922  0.500000  1
