# generated using pymatgen
data_TbSm5Zn4Pt13
_symmetry_space_group_name_H-M   'P 1'
_cell_length_a   8.33433317
_cell_length_b   8.33431848
_cell_length_c   8.33431800
_cell_angle_alpha   109.48080105
_cell_angle_beta   109.46640778
_cell_angle_gamma   109.46640982
_symmetry_Int_Tables_number   1
_chemical_formula_structural   TbSm5Zn4Pt13
_chemical_formula_sum   'Tb1 Sm5 Zn4 Pt13'
_cell_volume   445.64532092
_cell_formula_units_Z   1
loop_
 _symmetry_equiv_pos_site_id
 _symmetry_equiv_pos_as_xyz
  1  'x, y, z'
loop_
 _atom_site_type_symbol
 _atom_site_label
 _atom_site_symmetry_multiplicity
 _atom_site_fract_x
 _atom_site_fract_y
 _atom_site_fract_z
 _atom_site_occupancy
  Tb  Tb0  1  0.000000  0.697654  0.697654  1
  Sm  Sm1  1  0.699892  0.699750  0.999876  1
  Sm  Sm2  1  0.300108  0.999858  0.299984  1
  Sm  Sm3  1  0.000000  0.300344  0.300344  1
  Sm  Sm4  1  0.300108  0.299984  0.999858  1
  Sm  Sm5  1  0.699892  0.999876  0.699750  1
  Zn  Zn6  1  0.000000  0.000145  0.500459  1
  Zn  Zn7  1  0.000000  0.500459  0.000145  1
  Zn  Zn8  1  0.499687  0.000146  0.000146  1
  Zn  Zn9  1  0.500314  0.500459  0.500459  1
  Pt  Pt10  1  0.331744  0.331683  0.663428  1
  Pt  Pt11  1  0.668257  0.999940  0.331683  1
  Pt  Pt12  1  0.000000  0.667839  0.333394  1
  Pt  Pt13  1  0.668257  0.331683  0.999940  1
  Pt  Pt14  1  0.331744  0.663428  0.331683  1
  Pt  Pt15  1  0.000000  0.333394  0.667839  1
  Pt  Pt16  1  0.330872  0.668764  0.999637  1
  Pt  Pt17  1  0.330872  0.999637  0.668764  1
  Pt  Pt18  1  0.665547  0.333388  0.333388  1
  Pt  Pt19  1  0.669127  0.668766  0.337890  1
  Pt  Pt20  1  0.669127  0.337890  0.668766  1
  Pt  Pt21  1  0.334453  0.667842  0.667842  1
  Pt  Pt22  1  0.000000  0.997073  0.997073  1
