# generated using pymatgen
data_LaPrCoB10
_symmetry_space_group_name_H-M   'P 1'
_cell_length_a   4.21889200
_cell_length_b   5.67083502
_cell_length_c   11.28967813
_cell_angle_alpha   89.92853404
_cell_angle_beta   90.00000000
_cell_angle_gamma   90.00000000
_symmetry_Int_Tables_number   1
_chemical_formula_structural   LaPrCoB10
_chemical_formula_sum   'La2 Pr2 Co2 B20'
_cell_volume   270.10128067
_cell_formula_units_Z   2
loop_
 _symmetry_equiv_pos_site_id
 _symmetry_equiv_pos_as_xyz
  1  'x, y, z'
loop_
 _atom_site_type_symbol
 _atom_site_label
 _atom_site_symmetry_multiplicity
 _atom_site_fract_x
 _atom_site_fract_y
 _atom_site_fract_z
 _atom_site_occupancy
  La  La0  1  0.500000  0.300347  0.865144  1
  La  La1  1  0.500000  0.699653  0.134856  1
  Pr  Pr2  1  0.500000  0.800090  0.633660  1
  Pr  Pr3  1  0.500000  0.199910  0.366340  1
  Co  Co4  1  0.000000  0.500000  0.500000  1
  Co  Co5  1  0.000000  0.000000  0.000000  1
  B  B6  1  0.000000  0.127771  0.540471  1
  B  B7  1  0.000000  0.872229  0.459529  1
  B  B8  1  0.000000  0.627786  0.958729  1
  B  B9  1  0.000000  0.372214  0.041271  1
  B  B10  1  0.000000  0.155678  0.696775  1
  B  B11  1  0.000000  0.844322  0.303225  1
  B  B12  1  0.297910  0.200910  0.113204  1
  B  B13  1  0.297910  0.799090  0.886796  1
  B  B14  1  0.701411  0.701286  0.387466  1
  B  B15  1  0.701411  0.298714  0.612534  1
  B  B16  1  0.702090  0.799090  0.886796  1
  B  B17  1  0.702090  0.200910  0.113204  1
  B  B18  1  0.298589  0.298714  0.612534  1
  B  B19  1  0.298589  0.701286  0.387466  1
  B  B20  1  0.000000  0.035700  0.187410  1
  B  B21  1  0.000000  0.964300  0.812590  1
  B  B22  1  0.000000  0.535714  0.313093  1
  B  B23  1  0.000000  0.464286  0.686907  1
  B  B24  1  0.000000  0.344878  0.197401  1
  B  B25  1  0.000000  0.655122  0.802599  1
