# generated using pymatgen
data_La16Cd4CoPt3
_symmetry_space_group_name_H-M   'P 1'
_cell_length_a   10.13912761
_cell_length_b   10.13912733
_cell_length_c   10.13912630
_cell_angle_alpha   60.15153936
_cell_angle_beta   60.15154035
_cell_angle_gamma   60.15154337
_symmetry_Int_Tables_number   1
_chemical_formula_structural   La16Cd4CoPt3
_chemical_formula_sum   'La16 Cd4 Co1 Pt3'
_cell_volume   739.56248321
_cell_formula_units_Z   1
loop_
 _symmetry_equiv_pos_site_id
 _symmetry_equiv_pos_as_xyz
  1  'x, y, z'
loop_
 _atom_site_type_symbol
 _atom_site_label
 _atom_site_symmetry_multiplicity
 _atom_site_fract_x
 _atom_site_fract_y
 _atom_site_fract_z
 _atom_site_occupancy
  La  La0  1  0.939046  0.939046  0.559851  1
  La  La1  1  0.563619  0.939196  0.563619  1
  La  La2  1  0.559851  0.939046  0.939046  1
  La  La3  1  0.693561  0.693561  0.306495  1
  La  La4  1  0.156362  0.156362  0.543020  1
  La  La5  1  0.306495  0.693561  0.693561  1
  La  La6  1  0.149853  0.149853  0.149853  1
  La  La7  1  0.543020  0.156362  0.156362  1
  La  La8  1  0.310431  0.679197  0.310431  1
  La  La9  1  0.310431  0.310431  0.679197  1
  La  La10  1  0.693561  0.306495  0.693561  1
  La  La11  1  0.939196  0.563619  0.563619  1
  La  La12  1  0.563619  0.563619  0.939196  1
  La  La13  1  0.156362  0.543020  0.156362  1
  La  La14  1  0.679197  0.310431  0.310431  1
  La  La15  1  0.939046  0.559851  0.939046  1
  Cd  Cd16  1  0.239213  0.919373  0.919373  1
  Cd  Cd17  1  0.920752  0.920752  0.920752  1
  Cd  Cd18  1  0.919373  0.919373  0.239213  1
  Cd  Cd19  1  0.919373  0.239213  0.919373  1
  Co  Co20  1  0.357847  0.357847  0.357847  1
  Pt  Pt21  1  0.926272  0.356757  0.356757  1
  Pt  Pt22  1  0.356757  0.356757  0.926272  1
  Pt  Pt23  1  0.356757  0.926272  0.356757  1
