# generated using pymatgen
data_Ba4UTi3O12
_symmetry_space_group_name_H-M   'P 1'
_cell_length_a   10.15481961
_cell_length_b   10.15482047
_cell_length_c   10.15481966
_cell_angle_alpha   33.35438699
_cell_angle_beta   33.35437697
_cell_angle_gamma   33.35438150
_symmetry_Int_Tables_number   1
_chemical_formula_structural   Ba4UTi3O12
_chemical_formula_sum   'Ba4 U1 Ti3 O12'
_cell_volume   281.87049862
_cell_formula_units_Z   1
loop_
 _symmetry_equiv_pos_site_id
 _symmetry_equiv_pos_as_xyz
  1  'x, y, z'
loop_
 _atom_site_type_symbol
 _atom_site_label
 _atom_site_symmetry_multiplicity
 _atom_site_fract_x
 _atom_site_fract_y
 _atom_site_fract_z
 _atom_site_occupancy
  Ba  Ba0  1  0.373056  0.373056  0.373056  1
  Ba  Ba1  1  0.121394  0.121394  0.121394  1
  Ba  Ba2  1  0.878606  0.878606  0.878606  1
  Ba  Ba3  1  0.626944  0.626944  0.626944  1
  U  U4  1  0.500000  0.500000  0.500000  1
  Ti  Ti5  1  0.255492  0.255492  0.255492  1
  Ti  Ti6  1  0.000000  0.000000  0.000000  1
  Ti  Ti7  1  0.744508  0.744508  0.744508  1
  O  O8  1  0.126360  0.624720  0.126360  1
  O  O9  1  0.873640  0.375280  0.873640  1
  O  O10  1  0.628129  0.111047  0.628129  1
  O  O11  1  0.371871  0.888953  0.371871  1
  O  O12  1  0.873640  0.873640  0.375280  1
  O  O13  1  0.628129  0.628129  0.111047  1
  O  O14  1  0.371871  0.371871  0.888953  1
  O  O15  1  0.126360  0.126360  0.624720  1
  O  O16  1  0.375280  0.873640  0.873640  1
  O  O17  1  0.111047  0.628129  0.628129  1
  O  O18  1  0.888953  0.371871  0.371871  1
  O  O19  1  0.624720  0.126360  0.126360  1
