# generated using pymatgen
data_Be6Nb4SiGe
_symmetry_space_group_name_H-M   'P 1'
_cell_length_a   4.67654800
_cell_length_b   4.67654855
_cell_length_c   7.79845000
_cell_angle_alpha   90.00000000
_cell_angle_beta   90.00000000
_cell_angle_gamma   119.99999614
_symmetry_Int_Tables_number   1
_chemical_formula_structural   Be6Nb4SiGe
_chemical_formula_sum   'Be6 Nb4 Si1 Ge1'
_cell_volume   147.70315899
_cell_formula_units_Z   1
loop_
 _symmetry_equiv_pos_site_id
 _symmetry_equiv_pos_as_xyz
  1  'x, y, z'
loop_
 _atom_site_type_symbol
 _atom_site_label
 _atom_site_symmetry_multiplicity
 _atom_site_fract_x
 _atom_site_fract_y
 _atom_site_fract_z
 _atom_site_occupancy
  Be  Be0  1  0.823481  0.176519  0.253300  1
  Be  Be1  1  0.823481  0.646963  0.253300  1
  Be  Be2  1  0.353037  0.176519  0.253300  1
  Be  Be3  1  0.176519  0.823481  0.746700  1
  Be  Be4  1  0.176519  0.353037  0.746700  1
  Be  Be5  1  0.646963  0.823481  0.746700  1
  Nb  Nb6  1  0.333333  0.666667  0.434967  1
  Nb  Nb7  1  0.666667  0.333333  0.565033  1
  Nb  Nb8  1  0.666667  0.333333  0.934629  1
  Nb  Nb9  1  0.333333  0.666667  0.065371  1
  Si  Si10  1  0.000000  0.000000  0.500000  1
  Ge  Ge11  1  0.000000  0.000000  0.000000  1
