# generated using pymatgen
data_Nb7Fe5Co3Si14Mo
_symmetry_space_group_name_H-M   'P 1'
_cell_length_a   9.21168611
_cell_length_b   9.21073700
_cell_length_c   9.20992800
_cell_angle_alpha   94.20445097
_cell_angle_beta   94.30921466
_cell_angle_gamma   148.42238636
_symmetry_Int_Tables_number   1
_chemical_formula_structural   Nb7Fe5Co3Si14Mo
_chemical_formula_sum   'Nb7 Fe5 Co3 Si14 Mo1'
_cell_volume   393.67689847
_cell_formula_units_Z   1
loop_
 _symmetry_equiv_pos_site_id
 _symmetry_equiv_pos_as_xyz
  1  'x, y, z'
loop_
 _atom_site_type_symbol
 _atom_site_label
 _atom_site_symmetry_multiplicity
 _atom_site_fract_x
 _atom_site_fract_y
 _atom_site_fract_z
 _atom_site_occupancy
  Nb  Nb0  1  0.864381  0.864745  0.730575  1
  Nb  Nb1  1  0.863823  0.133822  0.998112  1
  Nb  Nb2  1  0.133666  0.863847  0.998273  1
  Nb  Nb3  1  0.499973  0.690750  0.193156  1
  Nb  Nb4  1  0.499886  0.309108  0.809283  1
  Nb  Nb5  1  0.310798  0.501176  0.809210  1
  Nb  Nb6  1  0.691379  0.499883  0.192640  1
  Fe  Fe7  1  0.397768  0.599738  0.498447  1
  Fe  Fe8  1  0.598090  0.400702  0.498733  1
  Fe  Fe9  1  0.901140  0.100121  0.498902  1
  Fe  Fe10  1  0.901759  0.400815  0.801333  1
  Fe  Fe11  1  0.599826  0.098948  0.200388  1
  Co  Co12  1  0.398364  0.899045  0.796834  1
  Co  Co13  1  0.101529  0.602056  0.204189  1
  Co  Co14  1  0.102619  0.899193  0.499336  1
  Si  Si15  1  0.289510  0.289641  0.580877  1
  Si  Si16  1  0.710815  0.711018  0.417400  1
  Si  Si17  1  0.708213  0.290602  0.000554  1
  Si  Si18  1  0.292411  0.709661  0.000670  1
  Si  Si19  1  0.998781  0.292274  0.295751  1
  Si  Si20  1  0.994172  0.695528  0.700516  1
  Si  Si21  1  0.704183  0.002412  0.700728  1
  Si  Si22  1  0.298732  0.005500  0.296306  1
  Si  Si23  1  0.504793  0.911035  0.407856  1
  Si  Si24  1  0.512325  0.107726  0.594631  1
  Si  Si25  1  0.090220  0.495184  0.593213  1
  Si  Si26  1  0.893862  0.487929  0.406627  1
  Si  Si27  1  0.752759  0.752675  0.002901  1
  Si  Si28  1  0.249974  0.249827  0.002953  1
  Mo  Mo29  1  0.134247  0.135038  0.269604  1
