# generated using pymatgen
data_Hf6CoAs5Ru6
_symmetry_space_group_name_H-M   'P 1'
_cell_length_a   7.63897531
_cell_length_b   7.66390148
_cell_length_c   7.63897629
_cell_angle_alpha   128.71745858
_cell_angle_beta   119.24148451
_cell_angle_gamma   83.35971360
_symmetry_Int_Tables_number   1
_chemical_formula_structural   Hf6CoAs5Ru6
_chemical_formula_sum   'Hf6 Co1 As5 Ru6'
_cell_volume   292.38737200
_cell_formula_units_Z   1
loop_
 _symmetry_equiv_pos_site_id
 _symmetry_equiv_pos_as_xyz
  1  'x, y, z'
loop_
 _atom_site_type_symbol
 _atom_site_label
 _atom_site_symmetry_multiplicity
 _atom_site_fract_x
 _atom_site_fract_y
 _atom_site_fract_z
 _atom_site_occupancy
  Hf  Hf0  1  0.439698  0.639348  0.699650  1
  Hf  Hf1  1  0.529540  0.249823  0.220284  1
  Hf  Hf2  1  0.749204  0.841457  0.592253  1
  Hf  Hf3  1  0.249172  0.863181  0.114008  1
  Hf  Hf4  1  0.066032  0.257023  0.690991  1
  Hf  Hf5  1  0.960992  0.671331  0.210339  1
  Co  Co6  1  0.257830  0.251579  0.493751  1
  As  As7  1  0.741017  0.257158  0.016140  1
  As  As8  1  0.333789  0.586675  0.252536  1
  As  As9  1  0.669956  0.919127  0.254895  1
  As  As10  1  0.164233  0.919127  0.749171  1
  As  As11  1  0.834139  0.586675  0.752886  1
  Ru  Ru12  1  0.501929  0.495261  0.996227  1
  Ru  Ru13  1  0.999034  0.495261  0.493331  1
  Ru  Ru14  1  0.102984  0.252745  0.111589  1
  Ru  Ru15  1  0.878267  0.010542  0.129512  1
  Ru  Ru16  1  0.381030  0.010542  0.632276  1
  Ru  Ru17  1  0.641156  0.252745  0.649761  1
