# generated using pymatgen
data_LaSm7(Y3Sn4)4
_symmetry_space_group_name_H-M   'P 1'
_cell_length_a   8.07245862
_cell_length_b   8.23040518
_cell_length_c   15.53378800
_cell_angle_alpha   90.01990983
_cell_angle_beta   89.96370953
_cell_angle_gamma   90.06733706
_symmetry_Int_Tables_number   1
_chemical_formula_structural   LaSm7(Y3Sn4)4
_chemical_formula_sum   'La1 Sm7 Y12 Sn16'
_cell_volume   1032.05776056
_cell_formula_units_Z   1
loop_
 _symmetry_equiv_pos_site_id
 _symmetry_equiv_pos_as_xyz
  1  'x, y, z'
loop_
 _atom_site_type_symbol
 _atom_site_label
 _atom_site_symmetry_multiplicity
 _atom_site_fract_x
 _atom_site_fract_y
 _atom_site_fract_z
 _atom_site_occupancy
  La  La0  1  0.514734  0.321058  0.904257  1
  Sm  Sm1  1  0.016254  0.178650  0.596190  1
  Sm  Sm2  1  0.483652  0.679132  0.403037  1
  Sm  Sm3  1  0.983830  0.821013  0.097097  1
  Sm  Sm4  1  0.484206  0.679706  0.097179  1
  Sm  Sm5  1  0.983615  0.821156  0.402976  1
  Sm  Sm6  1  0.516538  0.320658  0.597011  1
  Sm  Sm7  1  0.016461  0.178217  0.903257  1
  Y  Y8  1  0.362322  0.836538  0.877509  1
  Y  Y9  1  0.863175  0.663585  0.622267  1
  Y  Y10  1  0.636975  0.163622  0.377508  1
  Y  Y11  1  0.137644  0.336110  0.123122  1
  Y  Y12  1  0.637958  0.163288  0.122753  1
  Y  Y13  1  0.136753  0.336409  0.377377  1
  Y  Y14  1  0.363001  0.836265  0.621873  1
  Y  Y15  1  0.862553  0.664048  0.877058  1
  Y  Y16  1  0.195717  0.502581  0.749486  1
  Y  Y17  1  0.696164  0.997498  0.749524  1
  Y  Y18  1  0.804433  0.497763  0.250196  1
  Y  Y19  1  0.304065  0.002199  0.250144  1
  Sn  Sn20  1  0.298475  0.038253  0.041955  1
  Sn  Sn21  1  0.798768  0.461380  0.458352  1
  Sn  Sn22  1  0.701321  0.960976  0.541438  1
  Sn  Sn23  1  0.197079  0.541495  0.959310  1
  Sn  Sn24  1  0.701797  0.959178  0.958748  1
  Sn  Sn25  1  0.201374  0.538288  0.541561  1
  Sn  Sn26  1  0.298655  0.039098  0.458282  1
  Sn  Sn27  1  0.802651  0.462727  0.042761  1
  Sn  Sn28  1  0.561719  0.621806  0.749587  1
  Sn  Sn29  1  0.061653  0.879436  0.749902  1
  Sn  Sn30  1  0.438567  0.379247  0.250049  1
  Sn  Sn31  1  0.938285  0.120282  0.250216  1
  Sn  Sn32  1  0.322885  0.143240  0.748634  1
  Sn  Sn33  1  0.826663  0.354978  0.749321  1
  Sn  Sn34  1  0.674957  0.855265  0.250069  1
  Sn  Sn35  1  0.175101  0.644855  0.249997  1
