# generated using pymatgen
data_Zn4Ga2Pd9Pt
_symmetry_space_group_name_H-M   'P 1'
_cell_length_a   4.11787100
_cell_length_b   5.46310708
_cell_length_c   10.60605616
_cell_angle_alpha   90.01977373
_cell_angle_beta   90.00000000
_cell_angle_gamma   90.00000000
_symmetry_Int_Tables_number   1
_chemical_formula_structural   Zn4Ga2Pd9Pt
_chemical_formula_sum   'Zn4 Ga2 Pd9 Pt1'
_cell_volume   238.59775169
_cell_formula_units_Z   1
loop_
 _symmetry_equiv_pos_site_id
 _symmetry_equiv_pos_as_xyz
  1  'x, y, z'
loop_
 _atom_site_type_symbol
 _atom_site_label
 _atom_site_symmetry_multiplicity
 _atom_site_fract_x
 _atom_site_fract_y
 _atom_site_fract_z
 _atom_site_occupancy
  Zn  Zn0  1  0.000000  0.836994  0.641506  1
  Zn  Zn1  1  0.000000  0.336096  0.858509  1
  Zn  Zn2  1  0.000000  0.163408  0.358823  1
  Zn  Zn3  1  0.000000  0.663382  0.141021  1
  Ga  Ga4  1  0.500000  0.500116  0.499986  1
  Ga  Ga5  1  0.500000  0.000248  0.000234  1
  Pd  Pd6  1  0.000000  0.685095  0.393217  1
  Pd  Pd7  1  0.000000  0.315476  0.606357  1
  Pd  Pd8  1  0.500000  0.907521  0.235757  1
  Pd  Pd9  1  0.500000  0.407427  0.264700  1
  Pd  Pd10  1  0.500000  0.592467  0.735366  1
  Pd  Pd11  1  0.500000  0.092754  0.763821  1
  Pd  Pd12  1  0.500000  0.498562  0.999933  1
  Pd  Pd13  1  0.500000  0.000228  0.499789  1
  Pd  Pd14  1  0.000000  0.185199  0.107439  1
  Pt  Pt15  1  0.000000  0.815027  0.893542  1
