# generated using pymatgen
data_Yb2ErAl3NiGe2
_symmetry_space_group_name_H-M   'P 1'
_cell_length_a   6.91882522
_cell_length_b   6.91882569
_cell_length_c   4.21734500
_cell_angle_alpha   90.00000000
_cell_angle_beta   90.00000000
_cell_angle_gamma   120.43560116
_symmetry_Int_Tables_number   1
_chemical_formula_structural   Yb2ErAl3NiGe2
_chemical_formula_sum   'Yb2 Er1 Al3 Ni1 Ge2'
_cell_volume   174.06499101
_cell_formula_units_Z   1
loop_
 _symmetry_equiv_pos_site_id
 _symmetry_equiv_pos_as_xyz
  1  'x, y, z'
loop_
 _atom_site_type_symbol
 _atom_site_label
 _atom_site_symmetry_multiplicity
 _atom_site_fract_x
 _atom_site_fract_y
 _atom_site_fract_z
 _atom_site_occupancy
  Yb  Yb0  1  0.412347  0.000101  0.500001  1
  Yb  Yb1  1  0.000101  0.412348  0.500001  1
  Er  Er2  1  0.589999  0.589998  0.500001  1
  Al  Al3  1  0.770271  0.997507  0.000000  1
  Al  Al4  1  0.231255  0.231255  0.000000  1
  Al  Al5  1  0.997507  0.770271  0.000000  1
  Ni  Ni6  1  0.995970  0.995970  0.500001  1
  Ge  Ge7  1  0.665478  0.336970  0.000000  1
  Ge  Ge8  1  0.336969  0.665477  0.000000  1
