# generated using pymatgen
data_YbTm7(Si4W3)4
_symmetry_space_group_name_H-M   'P 1'
_cell_length_a   6.72587660
_cell_length_b   6.90772806
_cell_length_c   12.86403103
_cell_angle_alpha   90.08671398
_cell_angle_beta   89.97497052
_cell_angle_gamma   90.10739049
_symmetry_Int_Tables_number   1
_chemical_formula_structural   YbTm7(Si4W3)4
_chemical_formula_sum   'Yb1 Tm7 Si16 W12'
_cell_volume   597.66786446
_cell_formula_units_Z   1
loop_
 _symmetry_equiv_pos_site_id
 _symmetry_equiv_pos_as_xyz
  1  'x, y, z'
loop_
 _atom_site_type_symbol
 _atom_site_label
 _atom_site_symmetry_multiplicity
 _atom_site_fract_x
 _atom_site_fract_y
 _atom_site_fract_z
 _atom_site_occupancy
  Yb  Yb0  1  0.997234  0.167191  0.090823  1
  Tm  Tm1  1  0.497281  0.331038  0.093697  1
  Tm  Tm2  1  0.997021  0.169004  0.406232  1
  Tm  Tm3  1  0.504039  0.668614  0.593164  1
  Tm  Tm4  1  0.003583  0.832836  0.907842  1
  Tm  Tm5  1  0.503399  0.668297  0.906969  1
  Tm  Tm6  1  0.003813  0.831435  0.593337  1
  Tm  Tm7  1  0.496381  0.331505  0.406436  1
  Si  Si8  1  0.663503  0.040950  0.545644  1
  Si  Si9  1  0.161853  0.458810  0.953611  1
  Si  Si10  1  0.338184  0.959753  0.046478  1
  Si  Si11  1  0.837039  0.541275  0.454464  1
  Si  Si12  1  0.336395  0.959261  0.454208  1
  Si  Si13  1  0.837847  0.540083  0.046584  1
  Si  Si14  1  0.661529  0.041130  0.953937  1
  Si  Si15  1  0.163028  0.458135  0.545507  1
  Si  Si16  1  0.533658  0.372552  0.749946  1
  Si  Si17  1  0.034037  0.128363  0.750607  1
  Si  Si18  1  0.465691  0.626790  0.250389  1
  Si  Si19  1  0.965730  0.873328  0.249924  1
  Si  Si20  1  0.802318  0.636376  0.750276  1
  Si  Si21  1  0.301613  0.864923  0.750033  1
  Si  Si22  1  0.197016  0.363427  0.248953  1
  Si  Si23  1  0.699708  0.134458  0.248944  1
  W  W24  1  0.828999  0.337470  0.624944  1
  W  W25  1  0.331250  0.163440  0.874575  1
  W  W26  1  0.170479  0.664491  0.125929  1
  W  W27  1  0.669042  0.835984  0.374844  1
  W  W28  1  0.170805  0.661847  0.375659  1
  W  W29  1  0.668008  0.833249  0.125170  1
  W  W30  1  0.828000  0.338562  0.873955  1
  W  W31  1  0.330420  0.164107  0.625299  1
  W  W32  1  0.666056  0.999089  0.749434  1
  W  W33  1  0.165041  0.500167  0.749913  1
  W  W34  1  0.334748  0.999564  0.251244  1
  W  W35  1  0.835253  0.502497  0.251027  1
