# generated using pymatgen
data_Pr3GaSn3IrRh
_symmetry_space_group_name_H-M   'P 1'
_cell_length_a   7.55000200
_cell_length_b   7.55000241
_cell_length_c   4.29539000
_cell_angle_alpha   90.00000000
_cell_angle_beta   90.00000000
_cell_angle_gamma   119.99999822
_symmetry_Int_Tables_number   1
_chemical_formula_structural   Pr3GaSn3IrRh
_chemical_formula_sum   'Pr3 Ga1 Sn3 Ir1 Rh1'
_cell_volume   212.04468833
_cell_formula_units_Z   1
loop_
 _symmetry_equiv_pos_site_id
 _symmetry_equiv_pos_as_xyz
  1  'x, y, z'
loop_
 _atom_site_type_symbol
 _atom_site_label
 _atom_site_symmetry_multiplicity
 _atom_site_fract_x
 _atom_site_fract_y
 _atom_site_fract_z
 _atom_site_occupancy
  Pr  Pr0  1  0.593846  0.008835  0.500000  1
  Pr  Pr1  1  0.414989  0.406154  0.500000  1
  Pr  Pr2  1  0.991165  0.585011  0.500000  1
  Ga  Ga3  1  0.333333  0.666667  0.000000  1
  Sn  Sn4  1  0.251949  0.008531  0.000000  1
  Sn  Sn5  1  0.756583  0.748051  0.000000  1
  Sn  Sn6  1  0.991469  0.243417  0.000000  1
  Ir  Ir7  1  0.666667  0.333333  0.000000  1
  Rh  Rh8  1  0.000000  0.000000  0.500000  1
