# generated using pymatgen
data_LuTh7(Ta3Si4)4
_symmetry_space_group_name_H-M   'P 1'
_cell_length_a   7.00708395
_cell_length_b   7.19567315
_cell_length_c   13.54918469
_cell_angle_alpha   90.11081047
_cell_angle_beta   89.87240816
_cell_angle_gamma   90.08547311
_symmetry_Int_Tables_number   1
_chemical_formula_structural   LuTh7(Ta3Si4)4
_chemical_formula_sum   'Lu1 Th7 Ta12 Si16'
_cell_volume   683.15545722
_cell_formula_units_Z   1
loop_
 _symmetry_equiv_pos_site_id
 _symmetry_equiv_pos_as_xyz
  1  'x, y, z'
loop_
 _atom_site_type_symbol
 _atom_site_label
 _atom_site_symmetry_multiplicity
 _atom_site_fract_x
 _atom_site_fract_y
 _atom_site_fract_z
 _atom_site_occupancy
  Lu  Lu0  1  0.997992  0.828652  0.596977  1
  Th  Th1  1  0.500849  0.668645  0.594912  1
  Th  Th2  1  0.999944  0.830631  0.904179  1
  Th  Th3  1  0.501144  0.330600  0.095526  1
  Th  Th4  1  0.999110  0.170447  0.406200  1
  Th  Th5  1  0.498678  0.330400  0.406713  1
  Th  Th6  1  0.001023  0.169600  0.095451  1
  Th  Th7  1  0.499767  0.669968  0.902539  1
  Ta  Ta8  1  0.662001  0.172237  0.623488  1
  Ta  Ta9  1  0.161627  0.327362  0.873779  1
  Ta  Ta10  1  0.337800  0.827828  0.124868  1
  Ta  Ta11  1  0.836350  0.673607  0.376700  1
  Ta  Ta12  1  0.336214  0.828296  0.376040  1
  Ta  Ta13  1  0.837363  0.672113  0.124962  1
  Ta  Ta14  1  0.666267  0.169782  0.874047  1
  Ta  Ta15  1  0.164138  0.327951  0.623957  1
  Ta  Ta16  1  0.837038  0.489388  0.750109  1
  Ta  Ta17  1  0.337540  0.006817  0.748284  1
  Ta  Ta18  1  0.162693  0.509976  0.250909  1
  Ta  Ta19  1  0.662896  0.991352  0.251201  1
  Si  Si20  1  0.661872  0.957067  0.457922  1
  Si  Si21  1  0.161368  0.543349  0.043454  1
  Si  Si22  1  0.340291  0.044407  0.954859  1
  Si  Si23  1  0.843817  0.463753  0.546001  1
  Si  Si24  1  0.330333  0.036963  0.545632  1
  Si  Si25  1  0.838522  0.456225  0.955539  1
  Si  Si26  1  0.661030  0.956174  0.043655  1
  Si  Si27  1  0.158241  0.547444  0.459065  1
  Si  Si28  1  0.458985  0.368392  0.749424  1
  Si  Si29  1  0.961026  0.126446  0.746693  1
  Si  Si30  1  0.541231  0.630180  0.251084  1
  Si  Si31  1  0.041062  0.870400  0.250722  1
  Si  Si32  1  0.704801  0.881951  0.746133  1
  Si  Si33  1  0.195913  0.620620  0.746688  1
  Si  Si34  1  0.300476  0.116712  0.250842  1
  Si  Si35  1  0.800599  0.384265  0.251447  1
