# generated using pymatgen
data_Y4ErIrPd2
_symmetry_space_group_name_H-M   'P 1'
_cell_length_a   11.17099200
_cell_length_b   11.17099200
_cell_length_c   6.29515300
_cell_angle_alpha   90.00000000
_cell_angle_beta   90.00000000
_cell_angle_gamma   90.00000000
_symmetry_Int_Tables_number   1
_chemical_formula_structural   Y4ErIrPd2
_chemical_formula_sum   'Y16 Er4 Ir4 Pd8'
_cell_volume   785.57882998
_cell_formula_units_Z   4
loop_
 _symmetry_equiv_pos_site_id
 _symmetry_equiv_pos_as_xyz
  1  'x, y, z'
loop_
 _atom_site_type_symbol
 _atom_site_label
 _atom_site_symmetry_multiplicity
 _atom_site_fract_x
 _atom_site_fract_y
 _atom_site_fract_z
 _atom_site_occupancy
  Y  Y0  1  0.294796  0.086025  0.366429  1
  Y  Y1  1  0.294796  0.913975  0.866429  1
  Y  Y2  1  0.705204  0.086025  0.866429  1
  Y  Y3  1  0.705204  0.913975  0.366429  1
  Y  Y4  1  0.586025  0.794796  0.866429  1
  Y  Y5  1  0.586025  0.205204  0.366429  1
  Y  Y6  1  0.413975  0.794796  0.366429  1
  Y  Y7  1  0.413975  0.205204  0.866429  1
  Y  Y8  1  0.205204  0.413975  0.633571  1
  Y  Y9  1  0.205204  0.586025  0.133571  1
  Y  Y10  1  0.794796  0.413975  0.133571  1
  Y  Y11  1  0.794796  0.586025  0.633571  1
  Y  Y12  1  0.913975  0.705204  0.133571  1
  Y  Y13  1  0.913975  0.294796  0.633571  1
  Y  Y14  1  0.086025  0.705204  0.633571  1
  Y  Y15  1  0.086025  0.294796  0.133571  1
  Er  Er16  1  0.000000  0.000000  0.500000  1
  Er  Er17  1  0.000000  0.000000  0.000000  1
  Er  Er18  1  0.500000  0.500000  0.000000  1
  Er  Er19  1  0.500000  0.500000  0.500000  1
  Ir  Ir20  1  0.500000  0.000000  0.116678  1
  Ir  Ir21  1  0.500000  0.000000  0.616678  1
  Ir  Ir22  1  0.000000  0.500000  0.883322  1
  Ir  Ir23  1  0.000000  0.500000  0.383322  1
  Pd  Pd24  1  0.848602  0.151398  0.250000  1
  Pd  Pd25  1  0.848602  0.848602  0.750000  1
  Pd  Pd26  1  0.151398  0.151398  0.750000  1
  Pd  Pd27  1  0.151398  0.848602  0.250000  1
  Pd  Pd28  1  0.651398  0.348602  0.750000  1
  Pd  Pd29  1  0.651398  0.651398  0.250000  1
  Pd  Pd30  1  0.348602  0.348602  0.250000  1
  Pd  Pd31  1  0.348602  0.651398  0.750000  1
