# generated using pymatgen
data_Pr3Dy5(AgIr)2
_symmetry_space_group_name_H-M   'P 1'
_cell_length_a   9.68267703
_cell_length_b   9.68267668
_cell_length_c   9.68267700
_cell_angle_alpha   59.99999550
_cell_angle_beta   59.99999667
_cell_angle_gamma   59.99999661
_symmetry_Int_Tables_number   1
_chemical_formula_structural   Pr3Dy5(AgIr)2
_chemical_formula_sum   'Pr6 Dy10 Ag4 Ir4'
_cell_volume   641.90577995
_cell_formula_units_Z   2
loop_
 _symmetry_equiv_pos_site_id
 _symmetry_equiv_pos_as_xyz
  1  'x, y, z'
loop_
 _atom_site_type_symbol
 _atom_site_label
 _atom_site_symmetry_multiplicity
 _atom_site_fract_x
 _atom_site_fract_y
 _atom_site_fract_z
 _atom_site_occupancy
  Pr  Pr0  1  0.939857  0.560143  0.560143  1
  Pr  Pr1  1  0.560143  0.939857  0.939857  1
  Pr  Pr2  1  0.560143  0.939857  0.560143  1
  Pr  Pr3  1  0.939857  0.560143  0.939857  1
  Pr  Pr4  1  0.560143  0.560143  0.939857  1
  Pr  Pr5  1  0.939857  0.939857  0.560143  1
  Dy  Dy6  1  0.349315  0.349315  0.349315  1
  Dy  Dy7  1  0.349315  0.349315  0.952054  1
  Dy  Dy8  1  0.349315  0.952054  0.349315  1
  Dy  Dy9  1  0.952054  0.349315  0.349315  1
  Dy  Dy10  1  0.813027  0.186973  0.186973  1
  Dy  Dy11  1  0.186973  0.813027  0.813027  1
  Dy  Dy12  1  0.186973  0.813027  0.186973  1
  Dy  Dy13  1  0.813027  0.186973  0.813027  1
  Dy  Dy14  1  0.186973  0.186973  0.813027  1
  Dy  Dy15  1  0.813027  0.813027  0.186973  1
  Ag  Ag16  1  0.579280  0.579280  0.579280  1
  Ag  Ag17  1  0.579280  0.579280  0.262158  1
  Ag  Ag18  1  0.579280  0.262158  0.579280  1
  Ag  Ag19  1  0.262158  0.579280  0.579280  1
  Ir  Ir20  1  0.141884  0.141884  0.141884  1
  Ir  Ir21  1  0.141884  0.141884  0.574349  1
  Ir  Ir22  1  0.141884  0.574349  0.141884  1
  Ir  Ir23  1  0.574349  0.141884  0.141884  1
