# generated using pymatgen
data_La12Th4Cd4IrOs3
_symmetry_space_group_name_H-M   'P 1'
_cell_length_a   10.09089364
_cell_length_b   10.12499120
_cell_length_c   10.12499200
_cell_angle_alpha   60.00000393
_cell_angle_beta   59.88816302
_cell_angle_gamma   59.88816217
_symmetry_Int_Tables_number   1
_chemical_formula_structural   La12Th4Cd4IrOs3
_chemical_formula_sum   'La12 Th4 Cd4 Ir1 Os3'
_cell_volume   730.24362455
_cell_formula_units_Z   1
loop_
 _symmetry_equiv_pos_site_id
 _symmetry_equiv_pos_as_xyz
  1  'x, y, z'
loop_
 _atom_site_type_symbol
 _atom_site_label
 _atom_site_symmetry_multiplicity
 _atom_site_fract_x
 _atom_site_fract_y
 _atom_site_fract_z
 _atom_site_occupancy
  La  La0  1  0.059730  0.442131  0.442131  1
  La  La1  1  0.441616  0.058719  0.058719  1
  La  La2  1  0.441616  0.058719  0.440945  1
  La  La3  1  0.059730  0.442131  0.056009  1
  La  La4  1  0.441616  0.440945  0.058719  1
  La  La5  1  0.059730  0.056009  0.442131  1
  La  La6  1  0.189971  0.808933  0.808933  1
  La  La7  1  0.806823  0.191571  0.191571  1
  La  La8  1  0.806823  0.191571  0.810037  1
  La  La9  1  0.189971  0.808933  0.192162  1
  La  La10  1  0.806823  0.810037  0.191571  1
  La  La11  1  0.189971  0.192162  0.808933  1
  Th  Th12  1  0.592397  0.594502  0.594502  1
  Th  Th13  1  0.592397  0.594502  0.218600  1
  Th  Th14  1  0.592397  0.218600  0.594502  1
  Th  Th15  1  0.221599  0.592800  0.592800  1
  Cd  Cd16  1  0.828743  0.828740  0.828740  1
  Cd  Cd17  1  0.828743  0.828740  0.513775  1
  Cd  Cd18  1  0.828743  0.513775  0.828740  1
  Cd  Cd19  1  0.513438  0.828854  0.828854  1
  Ir  Ir20  1  0.818459  0.393847  0.393847  1
  Os  Os21  1  0.396221  0.393439  0.393439  1
  Os  Os22  1  0.396221  0.393439  0.816900  1
  Os  Os23  1  0.396221  0.816900  0.393439  1
