# generated using pymatgen
data_TbDy5Al24Os7Pt
_symmetry_space_group_name_H-M   'P 1'
_cell_length_a   8.81852443
_cell_length_b   8.81099424
_cell_length_c   9.59065174
_cell_angle_alpha   89.94617637
_cell_angle_beta   89.89300984
_cell_angle_gamma   119.61335768
_symmetry_Int_Tables_number   1
_chemical_formula_structural   TbDy5Al24Os7Pt
_chemical_formula_sum   'Tb1 Dy5 Al24 Os7 Pt1'
_cell_volume   647.85337829
_cell_formula_units_Z   1
loop_
 _symmetry_equiv_pos_site_id
 _symmetry_equiv_pos_as_xyz
  1  'x, y, z'
loop_
 _atom_site_type_symbol
 _atom_site_label
 _atom_site_symmetry_multiplicity
 _atom_site_fract_x
 _atom_site_fract_y
 _atom_site_fract_z
 _atom_site_occupancy
  Tb  Tb0  1  0.806037  0.190511  0.749577  1
  Dy  Dy1  1  0.191213  0.384230  0.251762  1
  Dy  Dy2  1  0.808794  0.615736  0.748232  1
  Dy  Dy3  1  0.611975  0.805845  0.252383  1
  Dy  Dy4  1  0.387992  0.194151  0.747607  1
  Dy  Dy5  1  0.194380  0.809328  0.250580  1
  Al  Al6  1  0.337317  0.669474  0.022100  1
  Al  Al7  1  0.662465  0.330537  0.978172  1
  Al  Al8  1  0.667664  0.333185  0.520568  1
  Al  Al9  1  0.332284  0.666919  0.479187  1
  Al  Al10  1  0.164112  0.327775  0.575255  1
  Al  Al11  1  0.836071  0.672383  0.424492  1
  Al  Al12  1  0.671757  0.834849  0.575367  1
  Al  Al13  1  0.831801  0.674119  0.077981  1
  Al  Al14  1  0.328127  0.164998  0.424380  1
  Al  Al15  1  0.168353  0.325970  0.922236  1
  Al  Al16  1  0.163601  0.835436  0.574560  1
  Al  Al17  1  0.327165  0.164553  0.076313  1
  Al  Al18  1  0.836399  0.164624  0.425097  1
  Al  Al19  1  0.672681  0.835263  0.923942  1
  Al  Al20  1  0.831794  0.158499  0.076707  1
  Al  Al21  1  0.168143  0.841473  0.923659  1
  Al  Al22  1  0.561450  0.123742  0.249758  1
  Al  Al23  1  0.438214  0.876063  0.750268  1
  Al  Al24  1  0.875623  0.438210  0.252465  1
  Al  Al25  1  0.124631  0.562146  0.747446  1
  Al  Al26  1  0.561369  0.437977  0.249673  1
  Al  Al27  1  0.438634  0.562013  0.750312  1
  Al  Al28  1  0.999418  0.000434  0.250041  1
  Al  Al29  1  0.000823  0.999297  0.749948  1
  Os  Os30  1  0.499820  0.999876  0.000151  1
  Os  Os31  1  0.499862  0.999917  0.499883  1
  Os  Os32  1  0.499933  0.500070  0.000048  1
  Os  Os33  1  0.000121  0.500188  0.499837  1
  Os  Os34  1  0.499961  0.500047  0.499935  1
  Os  Os35  1  0.999969  0.999990  0.000011  1
  Os  Os36  1  0.999992  0.000030  0.499973  1
  Pt  Pt37  1  0.000052  0.500143  0.000091  1
