# generated using pymatgen
data_Lu5P12Ir10Ru9
_symmetry_space_group_name_H-M   'P 1'
_cell_length_a   12.60313600
_cell_length_b   12.60313655
_cell_length_c   3.92812100
_cell_angle_alpha   90.00000000
_cell_angle_beta   90.00000000
_cell_angle_gamma   120.00000381
_symmetry_Int_Tables_number   1
_chemical_formula_structural   Lu5P12Ir10Ru9
_chemical_formula_sum   'Lu5 P12 Ir10 Ru9'
_cell_volume   540.34698997
_cell_formula_units_Z   1
loop_
 _symmetry_equiv_pos_site_id
 _symmetry_equiv_pos_as_xyz
  1  'x, y, z'
loop_
 _atom_site_type_symbol
 _atom_site_label
 _atom_site_symmetry_multiplicity
 _atom_site_fract_x
 _atom_site_fract_y
 _atom_site_fract_z
 _atom_site_occupancy
  Lu  Lu0  1  0.333333  0.666667  0.000000  1
  Lu  Lu1  1  0.666667  0.333333  0.000000  1
  Lu  Lu2  1  0.812492  0.000000  0.500000  1
  Lu  Lu3  1  0.000000  0.812492  0.500000  1
  Lu  Lu4  1  0.187508  0.187508  0.500000  1
  P  P5  1  0.180444  0.000000  0.000000  1
  P  P6  1  0.000000  0.180444  0.000000  1
  P  P7  1  0.819556  0.819556  0.000000  1
  P  P8  1  0.172533  0.480991  0.500000  1
  P  P9  1  0.519009  0.691541  0.500000  1
  P  P10  1  0.308459  0.827467  0.500000  1
  P  P11  1  0.691541  0.519009  0.500000  1
  P  P12  1  0.827467  0.308459  0.500000  1
  P  P13  1  0.480991  0.172533  0.500000  1
  P  P14  1  0.638231  0.000000  0.000000  1
  P  P15  1  0.000000  0.638231  0.000000  1
  P  P16  1  0.361769  0.361769  0.000000  1
  Ir  Ir17  1  0.363240  0.494281  0.500000  1
  Ir  Ir18  1  0.505719  0.868957  0.500000  1
  Ir  Ir19  1  0.131043  0.636760  0.500000  1
  Ir  Ir20  1  0.868957  0.505719  0.500000  1
  Ir  Ir21  1  0.636760  0.131043  0.500000  1
  Ir  Ir22  1  0.494281  0.363240  0.500000  1
  Ir  Ir23  1  0.285282  0.000000  0.500000  1
  Ir  Ir24  1  0.000000  0.285282  0.500000  1
  Ir  Ir25  1  0.714718  0.714718  0.500000  1
  Ir  Ir26  1  0.000000  0.000000  0.000000  1
  Ru  Ru27  1  0.453192  0.000000  0.000000  1
  Ru  Ru28  1  0.000000  0.453192  0.000000  1
  Ru  Ru29  1  0.546808  0.546808  0.000000  1
  Ru  Ru30  1  0.181940  0.376553  0.000000  1
  Ru  Ru31  1  0.623447  0.805388  0.000000  1
  Ru  Ru32  1  0.194612  0.818060  0.000000  1
  Ru  Ru33  1  0.805388  0.623447  0.000000  1
  Ru  Ru34  1  0.818060  0.194612  0.000000  1
  Ru  Ru35  1  0.376553  0.181940  0.000000  1
