# generated using pymatgen
data_Tb10Tl2In6Pd3Ru
_symmetry_space_group_name_H-M   'P 1'
_cell_length_a   8.19798534
_cell_length_b   18.44564384
_cell_length_c   3.63375300
_cell_angle_alpha   90.00000000
_cell_angle_beta   90.00000000
_cell_angle_gamma   89.90315510
_symmetry_Int_Tables_number   1
_chemical_formula_structural   Tb10Tl2In6Pd3Ru
_chemical_formula_sum   'Tb10 Tl2 In6 Pd3 Ru1'
_cell_volume   549.48487064
_cell_formula_units_Z   1
loop_
 _symmetry_equiv_pos_site_id
 _symmetry_equiv_pos_as_xyz
  1  'x, y, z'
loop_
 _atom_site_type_symbol
 _atom_site_label
 _atom_site_symmetry_multiplicity
 _atom_site_fract_x
 _atom_site_fract_y
 _atom_site_fract_z
 _atom_site_occupancy
  Tb  Tb0  1  0.500550  0.499206  0.000000  1
  Tb  Tb1  1  0.000326  0.001122  0.000000  1
  Tb  Tb2  1  0.731524  0.278378  0.000000  1
  Tb  Tb3  1  0.257280  0.719150  0.000000  1
  Tb  Tb4  1  0.757300  0.779307  0.000000  1
  Tb  Tb5  1  0.253825  0.221129  0.000000  1
  Tb  Tb6  1  0.616426  0.088339  0.000000  1
  Tb  Tb7  1  0.382396  0.915139  0.000000  1
  Tb  Tb8  1  0.882015  0.582834  0.000000  1
  Tb  Tb9  1  0.119443  0.415076  0.000000  1
  Tl  Tl10  1  0.710013  0.932269  0.500000  1
  Tl  Tl11  1  0.292560  0.069007  0.500000  1
  In  In12  1  0.792742  0.431880  0.500000  1
  In  In13  1  0.207384  0.567558  0.500000  1
  In  In14  1  0.577010  0.649694  0.500000  1
  In  In15  1  0.428170  0.349801  0.500000  1
  In  In16  1  0.921917  0.151368  0.500000  1
  In  In17  1  0.078652  0.849668  0.500000  1
  Pd  Pd18  1  0.472600  0.802665  0.500000  1
  Pd  Pd19  1  0.974783  0.695907  0.500000  1
  Pd  Pd20  1  0.020980  0.303526  0.500000  1
  Ru  Ru21  1  0.522106  0.196976  0.500000  1
