# generated using pymatgen
data_TbDy3Mn2(Co2Si5)2
_symmetry_space_group_name_H-M   'P 1'
_cell_length_a   5.46241628
_cell_length_b   7.98216764
_cell_length_c   7.98297462
_cell_angle_alpha   73.10345814
_cell_angle_beta   69.99335382
_cell_angle_gamma   69.99124378
_symmetry_Int_Tables_number   1
_chemical_formula_structural   TbDy3Mn2(Co2Si5)2
_chemical_formula_sum   'Tb1 Dy3 Mn2 Co4 Si10'
_cell_volume   301.32865013
_cell_formula_units_Z   1
loop_
 _symmetry_equiv_pos_site_id
 _symmetry_equiv_pos_as_xyz
  1  'x, y, z'
loop_
 _atom_site_type_symbol
 _atom_site_label
 _atom_site_symmetry_multiplicity
 _atom_site_fract_x
 _atom_site_fract_y
 _atom_site_fract_z
 _atom_site_occupancy
  Tb  Tb0  1  0.865191  0.867842  0.401778  1
  Dy  Dy1  1  0.134727  0.132250  0.598293  1
  Dy  Dy2  1  0.365199  0.401738  0.867866  1
  Dy  Dy3  1  0.634769  0.598279  0.132181  1
  Mn  Mn4  1  0.250131  0.000031  0.999859  1
  Mn  Mn5  1  0.749980  0.000031  0.999859  1
  Co  Co6  1  0.640649  0.260298  0.458403  1
  Co  Co7  1  0.359178  0.739730  0.541917  1
  Co  Co8  1  0.140852  0.458315  0.259979  1
  Co  Co9  1  0.859191  0.541511  0.740109  1
  Si  Si10  1  0.250230  0.499774  0.500015  1
  Si  Si11  1  0.749981  0.499774  0.500015  1
  Si  Si12  1  0.030820  0.219500  0.219271  1
  Si  Si13  1  0.469175  0.780665  0.780831  1
  Si  Si14  1  0.969329  0.780665  0.780831  1
  Si  Si15  1  0.530409  0.219500  0.219271  1
  Si  Si16  1  0.599552  0.067363  0.733534  1
  Si  Si17  1  0.400405  0.932883  0.266306  1
  Si  Si18  1  0.099855  0.733300  0.066991  1
  Si  Si19  1  0.900378  0.266551  0.932692  1
