# generated using pymatgen
data_HfZr5(GaP)2
_symmetry_space_group_name_H-M   'P 1'
_cell_length_a   7.14225400
_cell_length_b   7.14783800
_cell_length_c   3.66267000
_cell_angle_alpha   90.00000000
_cell_angle_beta   90.00000000
_cell_angle_gamma   89.99801130
_symmetry_Int_Tables_number   1
_chemical_formula_structural   HfZr5(GaP)2
_chemical_formula_sum   'Hf1 Zr5 Ga2 P2'
_cell_volume   186.98543676
_cell_formula_units_Z   1
loop_
 _symmetry_equiv_pos_site_id
 _symmetry_equiv_pos_as_xyz
  1  'x, y, z'
loop_
 _atom_site_type_symbol
 _atom_site_label
 _atom_site_symmetry_multiplicity
 _atom_site_fract_x
 _atom_site_fract_y
 _atom_site_fract_z
 _atom_site_occupancy
  Hf  Hf0  1  0.002586  0.006837  0.000000  1
  Zr  Zr1  1  0.502826  0.493510  0.000000  1
  Zr  Zr2  1  0.669982  0.180541  0.500000  1
  Zr  Zr3  1  0.169425  0.318909  0.500000  1
  Zr  Zr4  1  0.825433  0.660407  0.500000  1
  Zr  Zr5  1  0.324916  0.840231  0.500000  1
  Ga  Ga6  1  0.628977  0.872788  0.000000  1
  Ga  Ga7  1  0.128412  0.628367  0.000000  1
  P  P8  1  0.874647  0.372933  0.000000  1
  P  P9  1  0.372798  0.125477  0.000000  1
