# generated using pymatgen
data_Li4As6RuPt6
_symmetry_space_group_name_H-M   'P 1'
_cell_length_a   7.06397151
_cell_length_b   7.06525798
_cell_length_c   7.06350800
_cell_angle_alpha   109.46844455
_cell_angle_beta   109.46622870
_cell_angle_gamma   109.47533364
_symmetry_Int_Tables_number   1
_chemical_formula_structural   Li4As6RuPt6
_chemical_formula_sum   'Li4 As6 Ru1 Pt6'
_cell_volume   271.39078688
_cell_formula_units_Z   1
loop_
 _symmetry_equiv_pos_site_id
 _symmetry_equiv_pos_as_xyz
  1  'x, y, z'
loop_
 _atom_site_type_symbol
 _atom_site_label
 _atom_site_symmetry_multiplicity
 _atom_site_fract_x
 _atom_site_fract_y
 _atom_site_fract_z
 _atom_site_occupancy
  Li  Li0  1  0.000000  0.000000  0.500000  1
  Li  Li1  1  0.500000  0.000000  0.000000  1
  Li  Li2  1  0.000000  0.500000  0.000000  1
  Li  Li3  1  0.500000  0.500000  0.500000  1
  As  As4  1  0.306537  0.999994  0.306553  1
  As  As5  1  0.999999  0.306551  0.306561  1
  As  As6  1  0.000001  0.693449  0.693439  1
  As  As7  1  0.306531  0.306536  0.999982  1
  As  As8  1  0.693469  0.693464  0.000018  1
  As  As9  1  0.693463  0.000006  0.693447  1
  Ru  Ru10  1  0.000000  0.000000  0.000000  1
  Pt  Pt11  1  0.749953  0.500013  0.249958  1
  Pt  Pt12  1  0.500032  0.750050  0.250036  1
  Pt  Pt13  1  0.499968  0.249950  0.749964  1
  Pt  Pt14  1  0.750016  0.249989  0.499981  1
  Pt  Pt15  1  0.249984  0.750011  0.500019  1
  Pt  Pt16  1  0.250047  0.499987  0.750042  1
