# generated using pymatgen
data_Y4PtBr6
_symmetry_space_group_name_H-M   'P 1'
_cell_length_a   4.06195100
_cell_length_b   13.45736500
_cell_length_c   14.14943700
_cell_angle_alpha   90.00000000
_cell_angle_beta   90.00000000
_cell_angle_gamma   90.00000000
_symmetry_Int_Tables_number   1
_chemical_formula_structural   Y4PtBr6
_chemical_formula_sum   'Y8 Pt2 Br12'
_cell_volume   773.45289929
_cell_formula_units_Z   2
loop_
 _symmetry_equiv_pos_site_id
 _symmetry_equiv_pos_as_xyz
  1  'x, y, z'
loop_
 _atom_site_type_symbol
 _atom_site_label
 _atom_site_symmetry_multiplicity
 _atom_site_fract_x
 _atom_site_fract_y
 _atom_site_fract_z
 _atom_site_occupancy
  Y  Y0  1  0.500000  0.119460  0.340526  1
  Y  Y1  1  0.500000  0.880540  0.659474  1
  Y  Y2  1  0.500000  0.619460  0.159474  1
  Y  Y3  1  0.500000  0.380540  0.840526  1
  Y  Y4  1  0.000000  0.116994  0.578026  1
  Y  Y5  1  0.000000  0.883006  0.421974  1
  Y  Y6  1  0.000000  0.616994  0.921974  1
  Y  Y7  1  0.000000  0.383006  0.078026  1
  Pt  Pt8  1  0.500000  0.000000  0.500000  1
  Pt  Pt9  1  0.500000  0.500000  0.000000  1
  Br  Br10  1  0.500000  0.242526  0.163655  1
  Br  Br11  1  0.500000  0.757474  0.836345  1
  Br  Br12  1  0.500000  0.742526  0.336345  1
  Br  Br13  1  0.500000  0.257474  0.663655  1
  Br  Br14  1  0.000000  0.256251  0.409754  1
  Br  Br15  1  0.000000  0.743749  0.590246  1
  Br  Br16  1  0.000000  0.756251  0.090246  1
  Br  Br17  1  0.000000  0.243749  0.909754  1
  Br  Br18  1  0.000000  0.003140  0.242447  1
  Br  Br19  1  0.000000  0.996860  0.757553  1
  Br  Br20  1  0.000000  0.503140  0.257553  1
  Br  Br21  1  0.000000  0.496860  0.742447  1
