# generated using pymatgen
data_CeTmB6Ru
_symmetry_space_group_name_H-M   'P 1'
_cell_length_a   3.68621400
_cell_length_b   9.15544300
_cell_length_c   11.52978100
_cell_angle_alpha   90.00000000
_cell_angle_beta   90.00000000
_cell_angle_gamma   90.00000000
_symmetry_Int_Tables_number   1
_chemical_formula_structural   CeTmB6Ru
_chemical_formula_sum   'Ce4 Tm4 B24 Ru4'
_cell_volume   389.11768152
_cell_formula_units_Z   4
loop_
 _symmetry_equiv_pos_site_id
 _symmetry_equiv_pos_as_xyz
  1  'x, y, z'
loop_
 _atom_site_type_symbol
 _atom_site_label
 _atom_site_symmetry_multiplicity
 _atom_site_fract_x
 _atom_site_fract_y
 _atom_site_fract_z
 _atom_site_occupancy
  Ce  Ce0  1  0.000000  0.322970  0.413650  1
  Ce  Ce1  1  0.000000  0.677030  0.586350  1
  Ce  Ce2  1  0.000000  0.822970  0.086350  1
  Ce  Ce3  1  0.000000  0.177030  0.913650  1
  Tm  Tm4  1  0.000000  0.944466  0.373633  1
  Tm  Tm5  1  0.000000  0.055534  0.626367  1
  Tm  Tm6  1  0.000000  0.444466  0.126367  1
  Tm  Tm7  1  0.000000  0.555534  0.873633  1
  B  B8  1  0.500000  0.554477  0.432112  1
  B  B9  1  0.500000  0.445523  0.567888  1
  B  B10  1  0.500000  0.054477  0.067888  1
  B  B11  1  0.500000  0.945523  0.932112  1
  B  B12  1  0.500000  0.749873  0.418948  1
  B  B13  1  0.500000  0.250127  0.581052  1
  B  B14  1  0.500000  0.249873  0.081052  1
  B  B15  1  0.500000  0.750127  0.918948  1
  B  B16  1  0.500000  0.792248  0.266470  1
  B  B17  1  0.500000  0.207752  0.733530  1
  B  B18  1  0.500000  0.292248  0.233530  1
  B  B19  1  0.500000  0.707752  0.766470  1
  B  B20  1  0.500000  0.631654  0.184673  1
  B  B21  1  0.500000  0.368346  0.815327  1
  B  B22  1  0.500000  0.131654  0.315327  1
  B  B23  1  0.500000  0.868346  0.684673  1
  B  B24  1  0.500000  0.984223  0.213999  1
  B  B25  1  0.500000  0.015777  0.786001  1
  B  B26  1  0.500000  0.484223  0.286001  1
  B  B27  1  0.500000  0.515777  0.713999  1
  B  B28  1  0.500000  0.606222  0.029118  1
  B  B29  1  0.500000  0.393778  0.970882  1
  B  B30  1  0.500000  0.106222  0.470882  1
  B  B31  1  0.500000  0.893778  0.529118  1
  Ru  Ru32  1  0.000000  0.639282  0.320110  1
  Ru  Ru33  1  0.000000  0.360718  0.679890  1
  Ru  Ru34  1  0.000000  0.139282  0.179890  1
  Ru  Ru35  1  0.000000  0.860718  0.820110  1
