# generated using pymatgen
data_Ba4P4Ir3Pt
_symmetry_space_group_name_H-M   'P 1'
_cell_length_a   6.56226815
_cell_length_b   6.56226815
_cell_length_c   6.56226815
_cell_angle_alpha   89.95205887
_cell_angle_beta   90.04794113
_cell_angle_gamma   89.95205887
_symmetry_Int_Tables_number   1
_chemical_formula_structural   Ba4P4Ir3Pt
_chemical_formula_sum   'Ba4 P4 Ir3 Pt1'
_cell_volume   282.59304018
_cell_formula_units_Z   1
loop_
 _symmetry_equiv_pos_site_id
 _symmetry_equiv_pos_as_xyz
  1  'x, y, z'
loop_
 _atom_site_type_symbol
 _atom_site_label
 _atom_site_symmetry_multiplicity
 _atom_site_fract_x
 _atom_site_fract_y
 _atom_site_fract_z
 _atom_site_occupancy
  Ba  Ba0  1  0.625299  0.377188  0.875680  1
  Ba  Ba1  1  0.375680  0.874701  0.622812  1
  Ba  Ba2  1  0.122812  0.124320  0.125299  1
  Ba  Ba3  1  0.876296  0.623704  0.376296  1
  P  P4  1  0.155640  0.344360  0.655640  1
  P  P5  1  0.655764  0.161795  0.351785  1
  P  P6  1  0.338205  0.648215  0.155764  1
  P  P7  1  0.851785  0.844236  0.838205  1
  Ir  Ir8  1  0.096148  0.595054  0.901421  1
  Ir  Ir9  1  0.401421  0.403852  0.404946  1
  Ir  Ir10  1  0.904946  0.098579  0.596148  1
  Pt  Pt11  1  0.596005  0.903995  0.096005  1
