# generated using pymatgen
data_Tb3CeGa2Rh3
_symmetry_space_group_name_H-M   'P 1'
_cell_length_a   7.35884500
_cell_length_b   7.35884356
_cell_length_c   4.07712300
_cell_angle_alpha   90.00000000
_cell_angle_beta   90.00000000
_cell_angle_gamma   120.70970325
_symmetry_Int_Tables_number   1
_chemical_formula_structural   Tb3CeGa2Rh3
_chemical_formula_sum   'Tb3 Ce1 Ga2 Rh3'
_cell_volume   189.82491047
_cell_formula_units_Z   1
loop_
 _symmetry_equiv_pos_site_id
 _symmetry_equiv_pos_as_xyz
  1  'x, y, z'
loop_
 _atom_site_type_symbol
 _atom_site_label
 _atom_site_symmetry_multiplicity
 _atom_site_fract_x
 _atom_site_fract_y
 _atom_site_fract_z
 _atom_site_occupancy
  Tb  Tb0  1  0.031543  0.585991  0.500000  1
  Tb  Tb1  1  0.373581  0.373581  0.500000  1
  Tb  Tb2  1  0.585991  0.031543  0.500000  1
  Ce  Ce3  1  0.744831  0.744831  0.000000  1
  Ga  Ga4  1  0.994824  0.250383  0.000000  1
  Ga  Ga5  1  0.250383  0.994824  0.000000  1
  Rh  Rh6  1  0.343263  0.671106  0.000000  1
  Rh  Rh7  1  0.004477  0.004477  0.500000  1
  Rh  Rh8  1  0.671106  0.343263  0.000000  1
