# generated using pymatgen
data_Mn3Nb12Fe9N4
_symmetry_space_group_name_H-M   'P 1'
_cell_length_a   8.02528851
_cell_length_b   8.02528847
_cell_length_c   8.02528783
_cell_angle_alpha   59.82978205
_cell_angle_beta   59.82978538
_cell_angle_gamma   59.82978528
_symmetry_Int_Tables_number   1
_chemical_formula_structural   Mn3Nb12Fe9N4
_chemical_formula_sum   'Mn3 Nb12 Fe9 N4'
_cell_volume   364.07080519
_cell_formula_units_Z   1
loop_
 _symmetry_equiv_pos_site_id
 _symmetry_equiv_pos_as_xyz
  1  'x, y, z'
loop_
 _atom_site_type_symbol
 _atom_site_label
 _atom_site_symmetry_multiplicity
 _atom_site_fract_x
 _atom_site_fract_y
 _atom_site_fract_z
 _atom_site_occupancy
  Mn  Mn0  1  0.125000  0.625000  0.625000  1
  Mn  Mn1  1  0.625000  0.125000  0.625000  1
  Mn  Mn2  1  0.625000  0.625000  0.125000  1
  Nb  Nb3  1  0.800973  0.800973  0.199289  1
  Nb  Nb4  1  0.197261  0.197261  0.802411  1
  Nb  Nb5  1  0.800973  0.199289  0.800973  1
  Nb  Nb6  1  0.197261  0.802411  0.197261  1
  Nb  Nb7  1  0.199289  0.800973  0.800973  1
  Nb  Nb8  1  0.802411  0.197261  0.197261  1
  Nb  Nb9  1  0.449027  0.449027  0.050711  1
  Nb  Nb10  1  0.052739  0.052739  0.447589  1
  Nb  Nb11  1  0.449027  0.050711  0.449027  1
  Nb  Nb12  1  0.052739  0.447589  0.052739  1
  Nb  Nb13  1  0.050711  0.449027  0.449027  1
  Nb  Nb14  1  0.447589  0.052739  0.052739  1
  Fe  Fe15  1  0.625000  0.625000  0.625000  1
  Fe  Fe16  1  0.725919  0.424620  0.424620  1
  Fe  Fe17  1  0.424620  0.725919  0.424620  1
  Fe  Fe18  1  0.424620  0.424620  0.725919  1
  Fe  Fe19  1  0.424050  0.424050  0.424050  1
  Fe  Fe20  1  0.524081  0.825380  0.825380  1
  Fe  Fe21  1  0.825380  0.524081  0.825380  1
  Fe  Fe22  1  0.825380  0.825380  0.524081  1
  Fe  Fe23  1  0.825950  0.825950  0.825950  1
  N  N24  1  0.625000  0.125000  0.125000  1
  N  N25  1  0.125000  0.625000  0.125000  1
  N  N26  1  0.125000  0.125000  0.625000  1
  N  N27  1  0.125000  0.125000  0.125000  1
