# generated using pymatgen
data_Ta8Nb3ReOs4
_symmetry_space_group_name_H-M   'P 1'
_cell_length_a   6.47840600
_cell_length_b   4.56121500
_cell_length_c   9.10483500
_cell_angle_alpha   89.99999371
_cell_angle_beta   90.00083475
_cell_angle_gamma   90.00022803
_symmetry_Int_Tables_number   1
_chemical_formula_structural   Ta8Nb3ReOs4
_chemical_formula_sum   'Ta8 Nb3 Re1 Os4'
_cell_volume   269.04243522
_cell_formula_units_Z   1
loop_
 _symmetry_equiv_pos_site_id
 _symmetry_equiv_pos_as_xyz
  1  'x, y, z'
loop_
 _atom_site_type_symbol
 _atom_site_label
 _atom_site_symmetry_multiplicity
 _atom_site_fract_x
 _atom_site_fract_y
 _atom_site_fract_z
 _atom_site_occupancy
  Ta  Ta0  1  0.001115  0.750001  0.123652  1
  Ta  Ta1  1  0.498935  0.750003  0.123653  1
  Ta  Ta2  1  0.999655  0.250001  0.375001  1
  Ta  Ta3  1  0.500406  0.250000  0.374999  1
  Ta  Ta4  1  0.498883  0.750002  0.626360  1
  Ta  Ta5  1  0.001062  0.749999  0.626353  1
  Ta  Ta6  1  0.497776  0.250000  0.875001  1
  Ta  Ta7  1  0.002180  0.250001  0.874993  1
  Nb  Nb8  1  0.750026  0.249999  0.123990  1
  Nb  Nb9  1  0.250023  0.750001  0.374998  1
  Nb  Nb10  1  0.749979  0.250000  0.626000  1
  Re  Re11  1  0.249962  0.750001  0.874982  1
  Os  Os12  1  0.250031  0.250000  0.123814  1
  Os  Os13  1  0.750026  0.750001  0.375015  1
  Os  Os14  1  0.249971  0.249999  0.626185  1
  Os  Os15  1  0.749973  0.750000  0.875001  1
