# generated using pymatgen
data_NdIr5O13
_symmetry_space_group_name_H-M   'P 1'
_cell_length_a   5.47486289
_cell_length_b   5.47486098
_cell_length_c   16.30366200
_cell_angle_alpha   90.00000000
_cell_angle_beta   90.00000000
_cell_angle_gamma   108.17480552
_symmetry_Int_Tables_number   1
_chemical_formula_structural   NdIr5O13
_chemical_formula_sum   'Nd2 Ir10 O26'
_cell_volume   464.30683459
_cell_formula_units_Z   2
loop_
 _symmetry_equiv_pos_site_id
 _symmetry_equiv_pos_as_xyz
  1  'x, y, z'
loop_
 _atom_site_type_symbol
 _atom_site_label
 _atom_site_symmetry_multiplicity
 _atom_site_fract_x
 _atom_site_fract_y
 _atom_site_fract_z
 _atom_site_occupancy
  Nd  Nd0  1  0.884616  0.121988  0.750000  1
  Nd  Nd1  1  0.121988  0.884616  0.250000  1
  Ir  Ir2  1  0.383697  0.618804  0.076046  1
  Ir  Ir3  1  0.618804  0.383697  0.923954  1
  Ir  Ir4  1  0.001197  0.001197  0.000000  1
  Ir  Ir5  1  0.383697  0.618804  0.423954  1
  Ir  Ir6  1  0.618804  0.383697  0.576046  1
  Ir  Ir7  1  0.001197  0.001197  0.500000  1
  Ir  Ir8  1  0.762205  0.241144  0.363426  1
  Ir  Ir9  1  0.762205  0.241144  0.136574  1
  Ir  Ir10  1  0.241144  0.762205  0.863426  1
  Ir  Ir11  1  0.241144  0.762205  0.636574  1
  O  O12  1  0.547776  0.066813  0.856299  1
  O  O13  1  0.066813  0.547776  0.356299  1
  O  O14  1  0.066813  0.547776  0.143701  1
  O  O15  1  0.547776  0.066813  0.643701  1
  O  O16  1  0.309116  0.309116  0.000000  1
  O  O17  1  0.309116  0.309116  0.500000  1
  O  O18  1  0.022468  0.980835  0.620257  1
  O  O19  1  0.172173  0.830537  0.750000  1
  O  O20  1  0.227946  0.775014  0.987550  1
  O  O21  1  0.227946  0.775014  0.512450  1
  O  O22  1  0.458196  0.542592  0.654697  1
  O  O23  1  0.542592  0.458196  0.154697  1
  O  O24  1  0.775014  0.227946  0.487550  1
  O  O25  1  0.980835  0.022468  0.379743  1
  O  O26  1  0.542592  0.458196  0.345303  1
  O  O27  1  0.980835  0.022468  0.120257  1
  O  O28  1  0.830537  0.172173  0.250000  1
  O  O29  1  0.775014  0.227946  0.012450  1
  O  O30  1  0.022468  0.980835  0.879743  1
  O  O31  1  0.458196  0.542592  0.845303  1
  O  O32  1  0.693148  0.693148  0.500000  1
  O  O33  1  0.693148  0.693148  0.000000  1
  O  O34  1  0.455960  0.935956  0.356557  1
  O  O35  1  0.935956  0.455960  0.643443  1
  O  O36  1  0.935956  0.455960  0.856557  1
  O  O37  1  0.455960  0.935956  0.143443  1
