# generated using pymatgen
data_Ce4Ni3PdPb2
_symmetry_space_group_name_H-M   'P 1'
_cell_length_a   7.72767730
_cell_length_b   7.72767730
_cell_length_c   3.67823800
_cell_angle_alpha   90.00000000
_cell_angle_beta   90.00000000
_cell_angle_gamma   89.49749757
_symmetry_Int_Tables_number   1
_chemical_formula_structural   Ce4Ni3PdPb2
_chemical_formula_sum   'Ce4 Ni3 Pd1 Pb2'
_cell_volume   219.64487795
_cell_formula_units_Z   1
loop_
 _symmetry_equiv_pos_site_id
 _symmetry_equiv_pos_as_xyz
  1  'x, y, z'
loop_
 _atom_site_type_symbol
 _atom_site_label
 _atom_site_symmetry_multiplicity
 _atom_site_fract_x
 _atom_site_fract_y
 _atom_site_fract_z
 _atom_site_occupancy
  Ce  Ce0  1  0.664338  0.164338  0.500000  1
  Ce  Ce1  1  0.182190  0.324859  0.500000  1
  Ce  Ce2  1  0.824859  0.682190  0.500000  1
  Ce  Ce3  1  0.325193  0.825193  0.500000  1
  Ni  Ni4  1  0.377835  0.119712  0.000000  1
  Ni  Ni5  1  0.127456  0.627456  0.000000  1
  Ni  Ni6  1  0.619712  0.877835  0.000000  1
  Pd  Pd7  1  0.877537  0.377537  0.000000  1
  Pb  Pb8  1  0.001602  0.999279  0.000000  1
  Pb  Pb9  1  0.499279  0.501602  0.000000  1
