# generated using pymatgen
data_Li2LaErSi4
_symmetry_space_group_name_H-M   'P 1'
_cell_length_a   3.85308900
_cell_length_b   7.70219360
_cell_length_c   10.36911704
_cell_angle_alpha   89.50816731
_cell_angle_beta   90.00000000
_cell_angle_gamma   90.00000000
_symmetry_Int_Tables_number   1
_chemical_formula_structural   Li2LaErSi4
_chemical_formula_sum   'Li4 La2 Er2 Si8'
_cell_volume   307.71541094
_cell_formula_units_Z   2
loop_
 _symmetry_equiv_pos_site_id
 _symmetry_equiv_pos_as_xyz
  1  'x, y, z'
loop_
 _atom_site_type_symbol
 _atom_site_label
 _atom_site_symmetry_multiplicity
 _atom_site_fract_x
 _atom_site_fract_y
 _atom_site_fract_z
 _atom_site_occupancy
  Li  Li0  1  0.250000  0.996254  0.388770  1
  Li  Li1  1  0.750000  0.003746  0.611230  1
  Li  Li2  1  0.250000  0.490506  0.106817  1
  Li  Li3  1  0.750000  0.509494  0.893183  1
  La  La4  1  0.250000  0.639769  0.637424  1
  La  La5  1  0.750000  0.360231  0.362576  1
  Er  Er6  1  0.250000  0.130960  0.865369  1
  Er  Er7  1  0.750000  0.869040  0.134631  1
  Si  Si8  1  0.750000  0.261805  0.061549  1
  Si  Si9  1  0.250000  0.738195  0.938451  1
  Si  Si10  1  0.750000  0.780323  0.421619  1
  Si  Si11  1  0.250000  0.219677  0.578381  1
  Si  Si12  1  0.750000  0.845255  0.828394  1
  Si  Si13  1  0.250000  0.154745  0.171606  1
  Si  Si14  1  0.750000  0.330170  0.685916  1
  Si  Si15  1  0.250000  0.669830  0.314084  1
