# generated using pymatgen
data_YbCuH4
_symmetry_space_group_name_H-M   'P 1'
_cell_length_a   6.10543530
_cell_length_b   6.10543553
_cell_length_c   4.72563100
_cell_angle_alpha   90.00000000
_cell_angle_beta   90.00000000
_cell_angle_gamma   144.72397139
_symmetry_Int_Tables_number   1
_chemical_formula_structural   YbCuH4
_chemical_formula_sum   'Yb2 Cu2 H8'
_cell_volume   101.73191029
_cell_formula_units_Z   2
loop_
 _symmetry_equiv_pos_site_id
 _symmetry_equiv_pos_as_xyz
  1  'x, y, z'
loop_
 _atom_site_type_symbol
 _atom_site_label
 _atom_site_symmetry_multiplicity
 _atom_site_fract_x
 _atom_site_fract_y
 _atom_site_fract_z
 _atom_site_occupancy
  Yb  Yb0  1  0.129625  0.870376  0.250000  1
  Yb  Yb1  1  0.870376  0.129625  0.750001  1
  Cu  Cu2  1  0.399165  0.600837  0.250000  1
  Cu  Cu3  1  0.600837  0.399165  0.750001  1
  H  H4  1  0.500001  0.500001  0.000000  1
  H  H5  1  0.307044  0.692957  0.993950  1
  H  H6  1  0.919819  0.080183  0.250000  1
  H  H7  1  0.307044  0.692957  0.506049  1
  H  H8  1  0.500001  0.500001  0.499999  1
  H  H9  1  0.692957  0.307044  0.493950  1
  H  H10  1  0.080183  0.919819  0.750001  1
  H  H11  1  0.692957  0.307044  0.006050  1
