# generated using pymatgen
data_GdIn2Pt4Rh
_symmetry_space_group_name_H-M   'P 1'
_cell_length_a   11.78862500
_cell_length_b   11.78862662
_cell_length_c   20.32182500
_cell_angle_alpha   90.00000000
_cell_angle_beta   90.00000000
_cell_angle_gamma   120.00003043
_symmetry_Int_Tables_number   1
_chemical_formula_structural   GdIn2Pt4Rh
_chemical_formula_sum   'Gd1 In2 Pt4 Rh1'
_cell_volume   2445.79228752
_cell_formula_units_Z   1
loop_
 _symmetry_equiv_pos_site_id
 _symmetry_equiv_pos_as_xyz
  1  'x, y, z'
loop_
 _atom_site_type_symbol
 _atom_site_label
 _atom_site_symmetry_multiplicity
 _atom_site_fract_x
 _atom_site_fract_y
 _atom_site_fract_z
 _atom_site_occupancy
  Gd  Gd0  1  0.333333  0.666667  0.249894  1
  In  In1  1  0.000000  0.000000  0.502697  1
  In  In2  1  0.000000  0.000000  0.997306  1
  Pt  Pt3  1  0.666667  0.333333  0.089590  1
  Pt  Pt4  1  0.333333  0.666667  0.900937  1
  Pt  Pt5  1  0.333333  0.666667  0.599131  1
  Pt  Pt6  1  0.666667  0.333333  0.410430  1
  Rh  Rh7  1  0.666667  0.333333  0.750016  1
