# generated using pymatgen
data_TbDy9Si16Ge
_symmetry_space_group_name_H-M   'P 1'
_cell_length_a   11.04005298
_cell_length_b   11.02738515
_cell_length_c   11.03988105
_cell_angle_alpha   144.76044548
_cell_angle_beta   135.77677048
_cell_angle_gamma   57.79055446
_symmetry_Int_Tables_number   1
_chemical_formula_structural   TbDy9Si16Ge
_chemical_formula_sum   'Tb1 Dy9 Si16 Ge1'
_cell_volume   536.29112083
_cell_formula_units_Z   1
loop_
 _symmetry_equiv_pos_site_id
 _symmetry_equiv_pos_as_xyz
  1  'x, y, z'
loop_
 _atom_site_type_symbol
 _atom_site_label
 _atom_site_symmetry_multiplicity
 _atom_site_fract_x
 _atom_site_fract_y
 _atom_site_fract_z
 _atom_site_occupancy
  Tb  Tb0  1  0.755447  0.759779  0.515622  1
  Dy  Dy1  1  0.448658  0.963819  0.013307  1
  Dy  Dy2  1  0.848328  0.367484  0.016102  1
  Dy  Dy3  1  0.950512  0.963823  0.515157  1
  Dy  Dy4  1  0.151573  0.166891  0.519382  1
  Dy  Dy5  1  0.351376  0.367482  0.519159  1
  Dy  Dy6  1  0.244176  0.759776  0.004351  1
  Dy  Dy7  1  0.548612  0.561856  0.509036  1
  Dy  Dy8  1  0.052821  0.561861  0.013239  1
  Dy  Dy9  1  0.647502  0.166879  0.015312  1
  Si  Si10  1  0.199443  0.577607  0.378172  1
  Si  Si11  1  0.000238  0.081647  0.081538  1
  Si  Si12  1  0.698956  0.290039  0.591062  1
  Si  Si13  1  0.800729  0.180302  0.379584  1
  Si  Si14  1  0.895745  0.504813  0.609173  1
  Si  Si15  1  0.417612  0.872565  0.454814  1
  Si  Si16  1  0.104425  0.713201  0.608877  1
  Si  Si17  1  0.300756  0.896424  0.595652  1
  Si  Si18  1  0.581396  0.037925  0.456392  1
  Si  Si19  1  0.999915  0.430804  0.431001  1
  Si  Si20  1  0.880572  0.843103  0.962570  1
  Si  Si21  1  0.399769  0.500433  0.100574  1
  Si  Si22  1  0.120356  0.084789  0.964469  1
  Si  Si23  1  0.285569  0.241020  0.955445  1
  Si  Si24  1  0.499579  0.387670  0.888043  1
  Si  Si25  1  0.598626  0.701616  0.102891  1
  Ge  Ge26  1  0.717307  0.677888  0.960575  1
