# generated using pymatgen
data_NdPdAuO4
_symmetry_space_group_name_H-M   'P 1'
_cell_length_a   6.67697612
_cell_length_b   6.65858530
_cell_length_c   6.70691726
_cell_angle_alpha   125.79253306
_cell_angle_beta   126.01446954
_cell_angle_gamma   80.23255343
_symmetry_Int_Tables_number   1
_chemical_formula_structural   NdPdAuO4
_chemical_formula_sum   'Nd2 Pd2 Au2 O8'
_cell_volume   188.61564185
_cell_formula_units_Z   2
loop_
 _symmetry_equiv_pos_site_id
 _symmetry_equiv_pos_as_xyz
  1  'x, y, z'
loop_
 _atom_site_type_symbol
 _atom_site_label
 _atom_site_symmetry_multiplicity
 _atom_site_fract_x
 _atom_site_fract_y
 _atom_site_fract_z
 _atom_site_occupancy
  Nd  Nd0  1  0.502499  0.489321  0.992566  1
  Nd  Nd1  1  0.247501  0.760679  0.507434  1
  Pd  Pd2  1  0.875000  0.125000  0.750000  1
  Pd  Pd3  1  0.875000  0.125000  0.250000  1
  Au  Au4  1  0.875000  0.625000  0.750000  1
  Au  Au5  1  0.375000  0.125000  0.250000  1
  O  O6  1  0.500674  0.459463  0.355820  1
  O  O7  1  0.209153  0.353756  0.456049  1
  O  O8  1  0.896397  0.751039  0.544642  1
  O  O9  1  0.104414  0.150366  0.648559  1
  O  O10  1  0.249326  0.790537  0.144180  1
  O  O11  1  0.540847  0.896244  0.043951  1
  O  O12  1  0.645586  0.099634  0.851441  1
  O  O13  1  0.853603  0.498961  0.955358  1
