# generated using pymatgen
data_Ca2HoU5(ReB6)4
_symmetry_space_group_name_H-M   'P 1'
_cell_length_a   3.64315200
_cell_length_b   9.29453340
_cell_length_c   11.41222400
_cell_angle_alpha   89.95125291
_cell_angle_beta   90.00000000
_cell_angle_gamma   90.00000000
_symmetry_Int_Tables_number   1
_chemical_formula_structural   Ca2HoU5(ReB6)4
_chemical_formula_sum   'Ca2 Ho1 U5 Re4 B24'
_cell_volume   386.43371863
_cell_formula_units_Z   1
loop_
 _symmetry_equiv_pos_site_id
 _symmetry_equiv_pos_as_xyz
  1  'x, y, z'
loop_
 _atom_site_type_symbol
 _atom_site_label
 _atom_site_symmetry_multiplicity
 _atom_site_fract_x
 _atom_site_fract_y
 _atom_site_fract_z
 _atom_site_occupancy
  Ca  Ca0  1  0.000000  0.338574  0.408479  1
  Ca  Ca1  1  0.000000  0.661352  0.590343  1
  Ho  Ho2  1  0.000000  0.835417  0.092668  1
  U  U3  1  0.000000  0.163510  0.907882  1
  U  U4  1  0.000000  0.955639  0.396524  1
  U  U5  1  0.000000  0.043063  0.602897  1
  U  U6  1  0.000000  0.458131  0.104479  1
  U  U7  1  0.000000  0.543590  0.896301  1
  Re  Re8  1  0.000000  0.648423  0.315715  1
  Re  Re9  1  0.000000  0.349677  0.687052  1
  Re  Re10  1  0.000000  0.144953  0.176552  1
  Re  Re11  1  0.000000  0.858461  0.820911  1
  B  B12  1  0.500000  0.552802  0.430417  1
  B  B13  1  0.500000  0.446471  0.570765  1
  B  B14  1  0.500000  0.052384  0.067470  1
  B  B15  1  0.500000  0.950206  0.930901  1
  B  B16  1  0.500000  0.743584  0.422101  1
  B  B17  1  0.500000  0.256174  0.578180  1
  B  B18  1  0.500000  0.242534  0.075995  1
  B  B19  1  0.500000  0.756936  0.922732  1
  B  B20  1  0.500000  0.802921  0.274384  1
  B  B21  1  0.500000  0.196052  0.727315  1
  B  B22  1  0.500000  0.301802  0.224438  1
  B  B23  1  0.500000  0.698986  0.775571  1
  B  B24  1  0.500000  0.644443  0.188091  1
  B  B25  1  0.500000  0.354244  0.812823  1
  B  B26  1  0.500000  0.143487  0.310283  1
  B  B27  1  0.500000  0.856495  0.689046  1
  B  B28  1  0.500000  0.989515  0.218972  1
  B  B29  1  0.500000  0.012868  0.781784  1
  B  B30  1  0.500000  0.490079  0.280417  1
  B  B31  1  0.500000  0.509996  0.719934  1
  B  B32  1  0.500000  0.640466  0.038180  1
  B  B33  1  0.500000  0.357097  0.960961  1
  B  B34  1  0.500000  0.137210  0.461135  1
  B  B35  1  0.500000  0.862455  0.538304  1
