# generated using pymatgen
data_Y2Er2HfSc3Pt4
_symmetry_space_group_name_H-M   'P 1'
_cell_length_a   4.64203000
_cell_length_b   6.97610162
_cell_length_c   8.37197623
_cell_angle_alpha   89.38495272
_cell_angle_beta   90.00000000
_cell_angle_gamma   90.00000000
_symmetry_Int_Tables_number   1
_chemical_formula_structural   Y2Er2HfSc3Pt4
_chemical_formula_sum   'Y2 Er2 Hf1 Sc3 Pt4'
_cell_volume   271.09637144
_cell_formula_units_Z   1
loop_
 _symmetry_equiv_pos_site_id
 _symmetry_equiv_pos_as_xyz
  1  'x, y, z'
loop_
 _atom_site_type_symbol
 _atom_site_label
 _atom_site_symmetry_multiplicity
 _atom_site_fract_x
 _atom_site_fract_y
 _atom_site_fract_z
 _atom_site_occupancy
  Y  Y0  1  0.750000  0.016943  0.674068  1
  Y  Y1  1  0.750000  0.518951  0.823063  1
  Er  Er2  1  0.250000  0.982498  0.323606  1
  Er  Er3  1  0.250000  0.483149  0.178555  1
  Hf  Hf4  1  0.750000  0.141017  0.073288  1
  Sc  Sc5  1  0.250000  0.356118  0.574038  1
  Sc  Sc6  1  0.250000  0.858567  0.925362  1
  Sc  Sc7  1  0.750000  0.639673  0.426994  1
  Pt  Pt8  1  0.250000  0.242030  0.910861  1
  Pt  Pt9  1  0.250000  0.743130  0.598200  1
  Pt  Pt10  1  0.750000  0.762312  0.099162  1
  Pt  Pt11  1  0.750000  0.255612  0.392805  1
