# generated using pymatgen
data_Sc4CoBi2
_symmetry_space_group_name_H-M   'P 1'
_cell_length_a   8.26693587
_cell_length_b   8.26693557
_cell_length_c   8.26693589
_cell_angle_alpha   96.14321080
_cell_angle_beta   96.14321016
_cell_angle_gamma   141.81066929
_symmetry_Int_Tables_number   1
_chemical_formula_structural   Sc4CoBi2
_chemical_formula_sum   'Sc8 Co2 Bi4'
_cell_volume   330.08715931
_cell_formula_units_Z   2
loop_
 _symmetry_equiv_pos_site_id
 _symmetry_equiv_pos_as_xyz
  1  'x, y, z'
loop_
 _atom_site_type_symbol
 _atom_site_label
 _atom_site_symmetry_multiplicity
 _atom_site_fract_x
 _atom_site_fract_y
 _atom_site_fract_z
 _atom_site_occupancy
  Sc  Sc0  1  0.692732  0.580062  0.272794  1
  Sc  Sc1  1  0.580062  0.307268  0.887330  1
  Sc  Sc2  1  0.080062  0.192732  0.272794  1
  Sc  Sc3  1  0.919938  0.807268  0.727206  1
  Sc  Sc4  1  0.192732  0.919938  0.112670  1
  Sc  Sc5  1  0.807268  0.080062  0.887330  1
  Sc  Sc6  1  0.307268  0.419938  0.727206  1
  Sc  Sc7  1  0.419938  0.692732  0.112670  1
  Co  Co8  1  0.250000  0.250000  0.000000  1
  Co  Co9  1  0.750000  0.750000  0.000000  1
  Bi  Bi10  1  0.139264  0.639264  0.778530  1
  Bi  Bi11  1  0.360736  0.139264  0.500000  1
  Bi  Bi12  1  0.639264  0.860736  0.500000  1
  Bi  Bi13  1  0.860736  0.360736  0.221470  1
