# generated using pymatgen
data_MgMn4AlPd10
_symmetry_space_group_name_H-M   'P 1'
_cell_length_a   4.13458700
_cell_length_b   5.45964229
_cell_length_c   10.74362684
_cell_angle_alpha   89.68741113
_cell_angle_beta   90.00000000
_cell_angle_gamma   90.00000000
_symmetry_Int_Tables_number   1
_chemical_formula_structural   MgMn4AlPd10
_chemical_formula_sum   'Mg1 Mn4 Al1 Pd10'
_cell_volume   242.51621212
_cell_formula_units_Z   1
loop_
 _symmetry_equiv_pos_site_id
 _symmetry_equiv_pos_as_xyz
  1  'x, y, z'
loop_
 _atom_site_type_symbol
 _atom_site_label
 _atom_site_symmetry_multiplicity
 _atom_site_fract_x
 _atom_site_fract_y
 _atom_site_fract_z
 _atom_site_occupancy
  Mg  Mg0  1  0.000000  0.000000  0.000000  1
  Mn  Mn1  1  0.500000  0.175508  0.362238  1
  Mn  Mn2  1  0.500000  0.824492  0.637762  1
  Mn  Mn3  1  0.500000  0.679813  0.137165  1
  Mn  Mn4  1  0.500000  0.320187  0.862835  1
  Al  Al5  1  0.000000  0.500000  0.500000  1
  Pd  Pd6  1  0.500000  0.192344  0.114145  1
  Pd  Pd7  1  0.500000  0.807656  0.885855  1
  Pd  Pd8  1  0.500000  0.682923  0.392494  1
  Pd  Pd9  1  0.500000  0.317077  0.607506  1
  Pd  Pd10  1  0.000000  0.000000  0.500000  1
  Pd  Pd11  1  0.000000  0.500000  0.000000  1
  Pd  Pd12  1  0.000000  0.916077  0.244334  1
  Pd  Pd13  1  0.000000  0.083923  0.755666  1
  Pd  Pd14  1  0.000000  0.417604  0.260957  1
  Pd  Pd15  1  0.000000  0.582396  0.739043  1
