# generated using pymatgen
data_LuHfReB6
_symmetry_space_group_name_H-M   'P 1'
_cell_length_a   3.58603600
_cell_length_b   8.97065700
_cell_length_c   11.34272200
_cell_angle_alpha   90.00000000
_cell_angle_beta   90.00000000
_cell_angle_gamma   90.00000000
_symmetry_Int_Tables_number   1
_chemical_formula_structural   LuHfReB6
_chemical_formula_sum   'Lu4 Hf4 Re4 B24'
_cell_volume   364.88514633
_cell_formula_units_Z   4
loop_
 _symmetry_equiv_pos_site_id
 _symmetry_equiv_pos_as_xyz
  1  'x, y, z'
loop_
 _atom_site_type_symbol
 _atom_site_label
 _atom_site_symmetry_multiplicity
 _atom_site_fract_x
 _atom_site_fract_y
 _atom_site_fract_z
 _atom_site_occupancy
  Lu  Lu0  1  0.000000  0.320704  0.412792  1
  Lu  Lu1  1  0.000000  0.679296  0.587208  1
  Lu  Lu2  1  0.000000  0.820704  0.087208  1
  Lu  Lu3  1  0.000000  0.179296  0.912792  1
  Hf  Hf4  1  0.000000  0.944695  0.373457  1
  Hf  Hf5  1  0.000000  0.055305  0.626543  1
  Hf  Hf6  1  0.000000  0.444695  0.126543  1
  Hf  Hf7  1  0.000000  0.555305  0.873457  1
  Re  Re8  1  0.000000  0.640687  0.318312  1
  Re  Re9  1  0.000000  0.359313  0.681688  1
  Re  Re10  1  0.000000  0.140687  0.181688  1
  Re  Re11  1  0.000000  0.859313  0.818312  1
  B  B12  1  0.500000  0.553310  0.433718  1
  B  B13  1  0.500000  0.446690  0.566282  1
  B  B14  1  0.500000  0.053310  0.066282  1
  B  B15  1  0.500000  0.946690  0.933718  1
  B  B16  1  0.500000  0.752402  0.419185  1
  B  B17  1  0.500000  0.247598  0.580815  1
  B  B18  1  0.500000  0.252402  0.080815  1
  B  B19  1  0.500000  0.747598  0.919185  1
  B  B20  1  0.500000  0.794894  0.264555  1
  B  B21  1  0.500000  0.205106  0.735445  1
  B  B22  1  0.500000  0.294894  0.235445  1
  B  B23  1  0.500000  0.705106  0.764555  1
  B  B24  1  0.500000  0.630236  0.183127  1
  B  B25  1  0.500000  0.369764  0.816873  1
  B  B26  1  0.500000  0.130236  0.316873  1
  B  B27  1  0.500000  0.869764  0.683127  1
  B  B28  1  0.500000  0.980948  0.212874  1
  B  B29  1  0.500000  0.019052  0.787126  1
  B  B30  1  0.500000  0.480948  0.287126  1
  B  B31  1  0.500000  0.519052  0.712874  1
  B  B32  1  0.500000  0.600771  0.027226  1
  B  B33  1  0.500000  0.399229  0.972774  1
  B  B34  1  0.500000  0.100771  0.472774  1
  B  B35  1  0.500000  0.899229  0.527226  1
