# generated using pymatgen
data_HoIn2Cl5
_symmetry_space_group_name_H-M   'P 1'
_cell_length_a   8.11973000
_cell_length_b   8.55057500
_cell_length_c   13.12308400
_cell_angle_alpha   90.00000000
_cell_angle_beta   90.00000000
_cell_angle_gamma   90.00000000
_symmetry_Int_Tables_number   1
_chemical_formula_structural   HoIn2Cl5
_chemical_formula_sum   'Ho4 In8 Cl20'
_cell_volume   911.11420479
_cell_formula_units_Z   4
loop_
 _symmetry_equiv_pos_site_id
 _symmetry_equiv_pos_as_xyz
  1  'x, y, z'
loop_
 _atom_site_type_symbol
 _atom_site_label
 _atom_site_symmetry_multiplicity
 _atom_site_fract_x
 _atom_site_fract_y
 _atom_site_fract_z
 _atom_site_occupancy
  Ho  Ho0  1  0.571719  0.750000  0.502446  1
  Ho  Ho1  1  0.428281  0.250000  0.497554  1
  Ho  Ho2  1  0.071719  0.250000  0.997554  1
  Ho  Ho3  1  0.928281  0.750000  0.002446  1
  In  In4  1  0.533691  0.501221  0.825441  1
  In  In5  1  0.466309  0.498779  0.174559  1
  In  In6  1  0.033691  0.498779  0.674559  1
  In  In7  1  0.466309  0.001221  0.174559  1
  In  In8  1  0.966309  0.501221  0.325441  1
  In  In9  1  0.533691  0.998779  0.825441  1
  In  In10  1  0.966309  0.998779  0.325441  1
  In  In11  1  0.033691  0.001221  0.674559  1
  Cl  Cl12  1  0.834099  0.750000  0.805733  1
  Cl  Cl13  1  0.165901  0.250000  0.194267  1
  Cl  Cl14  1  0.334099  0.250000  0.694267  1
  Cl  Cl15  1  0.665901  0.750000  0.305733  1
  Cl  Cl16  1  0.370375  0.750000  0.663774  1
  Cl  Cl17  1  0.629625  0.250000  0.336226  1
  Cl  Cl18  1  0.870375  0.250000  0.836226  1
  Cl  Cl19  1  0.129625  0.750000  0.163774  1
  Cl  Cl20  1  0.905684  0.750000  0.513817  1
  Cl  Cl21  1  0.094316  0.250000  0.486183  1
  Cl  Cl22  1  0.405684  0.250000  0.986183  1
  Cl  Cl23  1  0.594316  0.750000  0.013817  1
  Cl  Cl24  1  0.652311  0.040584  0.578114  1
  Cl  Cl25  1  0.347689  0.959416  0.421886  1
  Cl  Cl26  1  0.152311  0.959416  0.921886  1
  Cl  Cl27  1  0.347689  0.540584  0.421886  1
  Cl  Cl28  1  0.847689  0.040584  0.078114  1
  Cl  Cl29  1  0.652311  0.459416  0.578114  1
  Cl  Cl30  1  0.847689  0.459416  0.078114  1
  Cl  Cl31  1  0.152311  0.540584  0.921886  1
