# generated using pymatgen
data_Dy3Tm3Cr2(Co4P3)4
_symmetry_space_group_name_H-M   'P 1'
_cell_length_a   3.67483100
_cell_length_b   10.48222211
_cell_length_c   12.13761515
_cell_angle_alpha   89.98262904
_cell_angle_beta   90.00000000
_cell_angle_gamma   90.00000000
_symmetry_Int_Tables_number   1
_chemical_formula_structural   Dy3Tm3Cr2(Co4P3)4
_chemical_formula_sum   'Dy3 Tm3 Cr2 Co16 P12'
_cell_volume   467.54570559
_cell_formula_units_Z   1
loop_
 _symmetry_equiv_pos_site_id
 _symmetry_equiv_pos_as_xyz
  1  'x, y, z'
loop_
 _atom_site_type_symbol
 _atom_site_label
 _atom_site_symmetry_multiplicity
 _atom_site_fract_x
 _atom_site_fract_y
 _atom_site_fract_z
 _atom_site_occupancy
  Dy  Dy0  1  0.000000  0.500189  0.522572  1
  Dy  Dy1  1  0.500000  0.999958  0.477019  1
  Dy  Dy2  1  0.000000  0.318085  0.795657  1
  Tm  Tm3  1  0.500000  0.818163  0.204631  1
  Tm  Tm4  1  0.500000  0.181806  0.203991  1
  Tm  Tm5  1  0.000000  0.682130  0.795724  1
  Cr  Cr6  1  0.500000  0.499559  0.155281  1
  Cr  Cr7  1  0.000000  0.000387  0.845179  1
  Co  Co8  1  0.500000  0.500871  0.702315  1
  Co  Co9  1  0.000000  0.999786  0.297297  1
  Co  Co10  1  0.000000  0.500657  0.987267  1
  Co  Co11  1  0.500000  0.999398  0.013733  1
  Co  Co12  1  0.500000  0.332543  0.992658  1
  Co  Co13  1  0.500000  0.667885  0.992377  1
  Co  Co14  1  0.000000  0.167042  0.008682  1
  Co  Co15  1  0.000000  0.832473  0.008200  1
  Co  Co16  1  0.500000  0.296149  0.429627  1
  Co  Co17  1  0.500000  0.703989  0.430359  1
  Co  Co18  1  0.000000  0.203708  0.568644  1
  Co  Co19  1  0.000000  0.796251  0.569629  1
  Co  Co20  1  0.500000  0.878634  0.709338  1
  Co  Co21  1  0.500000  0.120367  0.708520  1
  Co  Co22  1  0.000000  0.621241  0.290929  1
  Co  Co23  1  0.000000  0.378748  0.290517  1
  P  P24  1  0.500000  0.500916  0.881718  1
  P  P25  1  0.000000  0.999738  0.119103  1
  P  P26  1  0.500000  0.499959  0.343300  1
  P  P27  1  0.000000  0.000035  0.656654  1
  P  P28  1  0.500000  0.311483  0.615673  1
  P  P29  1  0.500000  0.688676  0.616948  1
  P  P30  1  0.000000  0.188302  0.382425  1
  P  P31  1  0.000000  0.811645  0.383091  1
  P  P32  1  0.500000  0.847494  0.891637  1
  P  P33  1  0.500000  0.151545  0.892266  1
  P  P34  1  0.000000  0.652808  0.108819  1
  P  P35  1  0.000000  0.347378  0.108217  1
