# generated using pymatgen
data_Zn2Ni3SbO8
_symmetry_space_group_name_H-M   'P 1'
_cell_length_a   6.10180240
_cell_length_b   6.10177852
_cell_length_c   6.10181058
_cell_angle_alpha   58.74904753
_cell_angle_beta   58.74968496
_cell_angle_gamma   58.74977811
_symmetry_Int_Tables_number   1
_chemical_formula_structural   Zn2Ni3SbO8
_chemical_formula_sum   'Zn2 Ni3 Sb1 O8'
_cell_volume   156.05285317
_cell_formula_units_Z   1
loop_
 _symmetry_equiv_pos_site_id
 _symmetry_equiv_pos_as_xyz
  1  'x, y, z'
loop_
 _atom_site_type_symbol
 _atom_site_label
 _atom_site_symmetry_multiplicity
 _atom_site_fract_x
 _atom_site_fract_y
 _atom_site_fract_z
 _atom_site_occupancy
  Zn  Zn0  1  0.134012  0.134021  0.134007  1
  Zn  Zn1  1  0.865989  0.865979  0.865993  1
  Ni  Ni2  1  0.999999  0.499995  0.500003  1
  Ni  Ni3  1  0.500004  0.000001  0.499999  1
  Ni  Ni4  1  0.499992  0.500008  0.000001  1
  Sb  Sb5  1  0.500002  0.500001  0.499996  1
  O  O6  1  0.264870  0.264876  0.264853  1
  O  O7  1  0.264052  0.264027  0.724257  1
  O  O8  1  0.264031  0.724269  0.264044  1
  O  O9  1  0.724267  0.264051  0.264025  1
  O  O10  1  0.275731  0.735952  0.735971  1
  O  O11  1  0.735964  0.275732  0.735959  1
  O  O12  1  0.735950  0.735971  0.275745  1
  O  O13  1  0.735137  0.735120  0.735146  1
