# generated using pymatgen
data_PrPa7(ZnRh)8
_symmetry_space_group_name_H-M   'P 1'
_cell_length_a   3.82098900
_cell_length_b   7.43904156
_cell_length_c   16.34383637
_cell_angle_alpha   90.51134244
_cell_angle_beta   90.00000000
_cell_angle_gamma   90.00000000
_symmetry_Int_Tables_number   1
_chemical_formula_structural   PrPa7(ZnRh)8
_chemical_formula_sum   'Pr1 Pa7 Zn8 Rh8'
_cell_volume   464.54681030
_cell_formula_units_Z   1
loop_
 _symmetry_equiv_pos_site_id
 _symmetry_equiv_pos_as_xyz
  1  'x, y, z'
loop_
 _atom_site_type_symbol
 _atom_site_label
 _atom_site_symmetry_multiplicity
 _atom_site_fract_x
 _atom_site_fract_y
 _atom_site_fract_z
 _atom_site_occupancy
  Pr  Pr0  1  0.250000  0.553756  0.786684  1
  Pa  Pa1  1  0.250000  0.168306  0.939912  1
  Pa  Pa2  1  0.250000  0.676564  0.560166  1
  Pa  Pa3  1  0.750000  0.335468  0.439638  1
  Pa  Pa4  1  0.750000  0.942365  0.285038  1
  Pa  Pa5  1  0.750000  0.829579  0.061880  1
  Pa  Pa6  1  0.750000  0.440982  0.215694  1
  Pa  Pa7  1  0.250000  0.053329  0.714853  1
  Zn  Zn8  1  0.750000  0.014219  0.556616  1
  Zn  Zn9  1  0.250000  0.613271  0.343874  1
  Zn  Zn10  1  0.750000  0.388242  0.656364  1
  Zn  Zn11  1  0.250000  0.492731  0.062536  1
  Zn  Zn12  1  0.750000  0.502515  0.939925  1
  Zn  Zn13  1  0.250000  0.997436  0.438252  1
  Zn  Zn14  1  0.250000  0.114370  0.156075  1
  Zn  Zn15  1  0.750000  0.874355  0.845109  1
  Rh  Rh16  1  0.750000  0.736513  0.440699  1
  Rh  Rh17  1  0.250000  0.242222  0.314529  1
  Rh  Rh18  1  0.750000  0.223257  0.815989  1
  Rh  Rh19  1  0.750000  0.780284  0.675577  1
  Rh  Rh20  1  0.250000  0.272549  0.557075  1
  Rh  Rh21  1  0.250000  0.743574  0.187115  1
  Rh  Rh22  1  0.750000  0.234537  0.057386  1
  Rh  Rh23  1  0.250000  0.769577  0.949015  1
