# generated using pymatgen
data_Ho7Tm(Ga3Pt)4
_symmetry_space_group_name_H-M   'P 1'
_cell_length_a   8.84956900
_cell_length_b   8.86925730
_cell_length_c   7.01362200
_cell_angle_alpha   90.00000000
_cell_angle_beta   90.00000000
_cell_angle_gamma   120.07058635
_symmetry_Int_Tables_number   1
_chemical_formula_structural   Ho7Tm(Ga3Pt)4
_chemical_formula_sum   'Ho7 Tm1 Ga12 Pt4'
_cell_volume   476.40138878
_cell_formula_units_Z   1
loop_
 _symmetry_equiv_pos_site_id
 _symmetry_equiv_pos_as_xyz
  1  'x, y, z'
loop_
 _atom_site_type_symbol
 _atom_site_label
 _atom_site_symmetry_multiplicity
 _atom_site_fract_x
 _atom_site_fract_y
 _atom_site_fract_z
 _atom_site_occupancy
  Ho  Ho0  1  0.000211  0.999989  0.250000  1
  Ho  Ho1  1  0.999734  0.999991  0.750000  1
  Ho  Ho2  1  0.520067  0.040345  0.250000  1
  Ho  Ho3  1  0.519978  0.479890  0.250000  1
  Ho  Ho4  1  0.960247  0.480167  0.250000  1
  Ho  Ho5  1  0.479684  0.959514  0.750000  1
  Ho  Ho6  1  0.479759  0.519999  0.750000  1
  Tm  Tm7  1  0.040662  0.520284  0.750000  1
  Ga  Ga8  1  0.166591  0.333709  0.046423  1
  Ga  Ga9  1  0.166753  0.832825  0.453574  1
  Ga  Ga10  1  0.665673  0.832885  0.453076  1
  Ga  Ga11  1  0.665673  0.832885  0.046924  1
  Ga  Ga12  1  0.166753  0.832825  0.046426  1
  Ga  Ga13  1  0.833602  0.665997  0.952335  1
  Ga  Ga14  1  0.833443  0.167668  0.952344  1
  Ga  Ga15  1  0.334227  0.167068  0.953191  1
  Ga  Ga16  1  0.166591  0.333709  0.453577  1
  Ga  Ga17  1  0.334227  0.167068  0.546809  1
  Ga  Ga18  1  0.833602  0.665997  0.547665  1
  Ga  Ga19  1  0.833443  0.167668  0.547656  1
  Pt  Pt20  1  0.332137  0.665972  0.029225  1
  Pt  Pt21  1  0.332137  0.665972  0.470775  1
  Pt  Pt22  1  0.667405  0.333787  0.968970  1
  Pt  Pt23  1  0.667405  0.333787  0.531030  1
