# generated using pymatgen
data_Dy2Y2Ga12Ir
_symmetry_space_group_name_H-M   'P 1'
_cell_length_a   7.46081168
_cell_length_b   7.47142709
_cell_length_c   7.46081114
_cell_angle_alpha   109.45720859
_cell_angle_beta   109.44163141
_cell_angle_gamma   109.45721693
_symmetry_Int_Tables_number   1
_chemical_formula_structural   Dy2Y2Ga12Ir
_chemical_formula_sum   'Dy2 Y2 Ga12 Ir1'
_cell_volume   320.37760783
_cell_formula_units_Z   1
loop_
 _symmetry_equiv_pos_site_id
 _symmetry_equiv_pos_as_xyz
  1  'x, y, z'
loop_
 _atom_site_type_symbol
 _atom_site_label
 _atom_site_symmetry_multiplicity
 _atom_site_fract_x
 _atom_site_fract_y
 _atom_site_fract_z
 _atom_site_occupancy
  Dy  Dy0  1  0.000000  0.000000  0.500000  1
  Dy  Dy1  1  0.500000  0.000000  0.000000  1
  Y  Y2  1  0.000000  0.500000  0.000000  1
  Y  Y3  1  0.500000  0.500000  0.500000  1
  Ga  Ga4  1  0.749936  0.249640  0.499704  1
  Ga  Ga5  1  0.750000  0.500000  0.250000  1
  Ga  Ga6  1  0.499704  0.249640  0.749936  1
  Ga  Ga7  1  0.250000  0.500000  0.750000  1
  Ga  Ga8  1  0.250064  0.750360  0.500296  1
  Ga  Ga9  1  0.500296  0.750360  0.250064  1
  Ga  Ga10  1  0.707849  0.708210  0.000361  1
  Ga  Ga11  1  0.292253  0.000000  0.292253  1
  Ga  Ga12  1  0.999639  0.291790  0.292151  1
  Ga  Ga13  1  0.292151  0.291790  0.999639  1
  Ga  Ga14  1  0.707747  0.000000  0.707747  1
  Ga  Ga15  1  0.000361  0.708210  0.707849  1
  Ir  Ir16  1  0.000000  0.000000  0.000000  1
