# generated using pymatgen
data_NpF18
_symmetry_space_group_name_H-M   'P 1'
_cell_length_a   5.95421389
_cell_length_b   9.53245960
_cell_length_c   13.78572800
_cell_angle_alpha   101.85032885
_cell_angle_beta   93.26313715
_cell_angle_gamma   102.74165284
_symmetry_Int_Tables_number   1
_chemical_formula_structural   NpF18
_chemical_formula_sum   'Np2 F36'
_cell_volume   742.62644576
_cell_formula_units_Z   2
loop_
 _symmetry_equiv_pos_site_id
 _symmetry_equiv_pos_as_xyz
  1  'x, y, z'
loop_
 _atom_site_type_symbol
 _atom_site_label
 _atom_site_symmetry_multiplicity
 _atom_site_fract_x
 _atom_site_fract_y
 _atom_site_fract_z
 _atom_site_occupancy
  Np  Np0  1  0.162673  0.987952  0.286485  1
  Np  Np1  1  0.837327  0.012048  0.713515  1
  F  F2  1  0.677222  0.622640  0.373870  1
  F  F3  1  0.322778  0.377360  0.626130  1
  F  F4  1  0.031492  0.382936  0.367425  1
  F  F5  1  0.968508  0.617064  0.632575  1
  F  F6  1  0.212126  0.892437  0.944710  1
  F  F7  1  0.787874  0.107563  0.055290  1
  F  F8  1  0.891778  0.073193  0.322595  1
  F  F9  1  0.108222  0.926807  0.677405  1
  F  F10  1  0.973867  0.789119  0.293996  1
  F  F11  1  0.026133  0.210881  0.706004  1
  F  F12  1  0.574666  0.488979  0.401941  1
  F  F13  1  0.425334  0.511021  0.598059  1
  F  F14  1  0.044228  0.949545  0.142057  1
  F  F15  1  0.955772  0.050455  0.857943  1
  F  F16  1  0.274992  0.037423  0.432512  1
  F  F17  1  0.725008  0.962577  0.567488  1
  F  F18  1  0.073532  0.404684  0.270246  1
  F  F19  1  0.926468  0.595316  0.729754  1
  F  F20  1  0.716516  0.663630  0.060275  1
  F  F21  1  0.283484  0.336370  0.939725  1
  F  F22  1  0.857384  0.584289  0.001876  1
  F  F23  1  0.142616  0.415711  0.998124  1
  F  F24  1  0.541171  0.569371  0.846402  1
  F  F25  1  0.458829  0.430629  0.153598  1
  F  F26  1  0.353326  0.184903  0.277334  1
  F  F27  1  0.646674  0.815097  0.722666  1
  F  F28  1  0.278134  0.795394  0.493238  1
  F  F29  1  0.721866  0.204606  0.506762  1
  F  F30  1  0.363267  0.835901  0.002065  1
  F  F31  1  0.636733  0.164099  0.997935  1
  F  F32  1  0.427522  0.896185  0.248785  1
  F  F33  1  0.572478  0.103815  0.751215  1
  F  F34  1  0.672588  0.401237  0.185531  1
  F  F35  1  0.327412  0.598763  0.814469  1
  F  F36  1  0.196836  0.638738  0.462140  1
  F  F37  1  0.803164  0.361262  0.537860  1
