# generated using pymatgen
data_Dy5AlCo5
_symmetry_space_group_name_H-M   'P 1'
_cell_length_a   5.50162707
_cell_length_b   5.50162751
_cell_length_c   20.59610100
_cell_angle_alpha   90.00000000
_cell_angle_beta   90.00000000
_cell_angle_gamma   42.70618981
_symmetry_Int_Tables_number   1
_chemical_formula_structural   Dy5AlCo5
_chemical_formula_sum   'Dy10 Al2 Co10'
_cell_volume   422.81476191
_cell_formula_units_Z   2
loop_
 _symmetry_equiv_pos_site_id
 _symmetry_equiv_pos_as_xyz
  1  'x, y, z'
loop_
 _atom_site_type_symbol
 _atom_site_label
 _atom_site_symmetry_multiplicity
 _atom_site_fract_x
 _atom_site_fract_y
 _atom_site_fract_z
 _atom_site_occupancy
  Dy  Dy0  1  0.290259  0.290259  0.250000  1
  Dy  Dy1  1  0.709741  0.709741  0.750000  1
  Dy  Dy2  1  0.292282  0.292282  0.066185  1
  Dy  Dy3  1  0.707718  0.707718  0.566185  1
  Dy  Dy4  1  0.707718  0.707718  0.933816  1
  Dy  Dy5  1  0.292282  0.292282  0.433816  1
  Dy  Dy6  1  0.004577  0.004577  0.157508  1
  Dy  Dy7  1  0.995424  0.995424  0.657509  1
  Dy  Dy8  1  0.995424  0.995424  0.842492  1
  Dy  Dy9  1  0.004577  0.004577  0.342491  1
  Al  Al10  1  0.000000  0.000000  0.000000  1
  Al  Al11  1  0.000000  0.000000  0.500000  1
  Co  Co12  1  0.588003  0.588003  0.250000  1
  Co  Co13  1  0.411997  0.411997  0.750000  1
  Co  Co14  1  0.581943  0.581943  0.058361  1
  Co  Co15  1  0.418056  0.418056  0.558361  1
  Co  Co16  1  0.418056  0.418056  0.941639  1
  Co  Co17  1  0.581943  0.581943  0.441639  1
  Co  Co18  1  0.707180  0.707180  0.154357  1
  Co  Co19  1  0.292820  0.292820  0.654357  1
  Co  Co20  1  0.292820  0.292820  0.845643  1
  Co  Co21  1  0.707180  0.707180  0.345643  1
