# generated using pymatgen
data_Na4YAs12Rh19
_symmetry_space_group_name_H-M   'P 1'
_cell_length_a   13.16676891
_cell_length_b   13.13130500
_cell_length_c   3.97935900
_cell_angle_alpha   90.00000000
_cell_angle_beta   90.00000000
_cell_angle_gamma   119.91093874
_symmetry_Int_Tables_number   1
_chemical_formula_structural   Na4YAs12Rh19
_chemical_formula_sum   'Na4 Y1 As12 Rh19'
_cell_volume   596.37565809
_cell_formula_units_Z   1
loop_
 _symmetry_equiv_pos_site_id
 _symmetry_equiv_pos_as_xyz
  1  'x, y, z'
loop_
 _atom_site_type_symbol
 _atom_site_label
 _atom_site_symmetry_multiplicity
 _atom_site_fract_x
 _atom_site_fract_y
 _atom_site_fract_z
 _atom_site_occupancy
  Na  Na0  1  0.817315  0.815624  0.500000  1
  Na  Na1  1  0.182685  0.998309  0.500000  1
  Na  Na2  1  0.667641  0.334361  0.000000  1
  Na  Na3  1  0.332359  0.666721  0.000000  1
  Y  Y4  1  0.000000  0.177286  0.500000  1
  As  As5  1  0.487201  0.319764  0.500000  1
  As  As6  1  0.816544  0.994829  0.000000  1
  As  As7  1  0.183456  0.178285  0.000000  1
  As  As8  1  0.000000  0.821173  0.000000  1
  As  As9  1  0.362050  0.000179  0.000000  1
  As  As10  1  0.680274  0.166843  0.500000  1
  As  As11  1  0.833875  0.514938  0.500000  1
  As  As12  1  0.512799  0.832563  0.500000  1
  As  As13  1  0.166125  0.681062  0.500000  1
  As  As14  1  0.319726  0.486569  0.500000  1
  As  As15  1  0.000000  0.362192  0.000000  1
  As  As16  1  0.637950  0.638130  0.000000  1
  Rh  Rh17  1  0.805197  0.177406  0.000000  1
  Rh  Rh18  1  0.379304  0.199205  0.000000  1
  Rh  Rh19  1  0.645357  0.519141  0.500000  1
  Rh  Rh20  1  0.872676  0.353296  0.500000  1
  Rh  Rh21  1  0.354643  0.873784  0.500000  1
  Rh  Rh22  1  0.518258  0.645842  0.500000  1
  Rh  Rh23  1  0.127324  0.480620  0.500000  1
  Rh  Rh24  1  0.820886  0.623848  0.000000  1
  Rh  Rh25  1  0.620696  0.819900  0.000000  1
  Rh  Rh26  1  0.179114  0.802961  0.000000  1
  Rh  Rh27  1  0.194803  0.372209  0.000000  1
  Rh  Rh28  1  0.000000  0.714417  0.500000  1
  Rh  Rh29  1  0.286569  0.286938  0.500000  1
  Rh  Rh30  1  0.713431  0.000369  0.500000  1
  Rh  Rh31  1  0.000000  0.546541  0.000000  1
  Rh  Rh32  1  0.450801  0.456445  0.000000  1
  Rh  Rh33  1  0.549199  0.005644  0.000000  1
  Rh  Rh34  1  0.000000  0.005024  0.000000  1
  Rh  Rh35  1  0.481742  0.127584  0.500000  1
