# generated using pymatgen
data_Sm4Bi(RuO6)2
_symmetry_space_group_name_H-M   'P 1'
_cell_length_a   6.99485863
_cell_length_b   6.99485894
_cell_length_c   7.60036304
_cell_angle_alpha   74.18957900
_cell_angle_beta   74.18958006
_cell_angle_gamma   50.33053552
_symmetry_Int_Tables_number   1
_chemical_formula_structural   Sm4Bi(RuO6)2
_chemical_formula_sum   'Sm4 Bi1 Ru2 O12'
_cell_volume   272.96662084
_cell_formula_units_Z   1
loop_
 _symmetry_equiv_pos_site_id
 _symmetry_equiv_pos_as_xyz
  1  'x, y, z'
loop_
 _atom_site_type_symbol
 _atom_site_label
 _atom_site_symmetry_multiplicity
 _atom_site_fract_x
 _atom_site_fract_y
 _atom_site_fract_z
 _atom_site_occupancy
  Sm  Sm0  1  0.305307  0.305307  0.357817  1
  Sm  Sm1  1  0.694693  0.694693  0.642183  1
  Sm  Sm2  1  0.690794  0.690794  0.167799  1
  Sm  Sm3  1  0.309206  0.309206  0.832201  1
  Bi  Bi4  1  0.000000  0.000000  0.500000  1
  Ru  Ru5  1  0.763792  0.236208  0.000000  1
  Ru  Ru6  1  0.236208  0.763792  0.000000  1
  O  O7  1  0.096279  0.590185  0.578530  1
  O  O8  1  0.999070  0.999070  0.188091  1
  O  O9  1  0.409815  0.903721  0.421470  1
  O  O10  1  0.499833  0.499833  0.177314  1
  O  O11  1  0.095752  0.580766  0.079992  1
  O  O12  1  0.903721  0.409815  0.421470  1
  O  O13  1  0.000930  0.000930  0.811909  1
  O  O14  1  0.590185  0.096278  0.578530  1
  O  O15  1  0.500167  0.500167  0.822686  1
  O  O16  1  0.580766  0.095752  0.079992  1
  O  O17  1  0.419234  0.904248  0.920008  1
  O  O18  1  0.904248  0.419234  0.920008  1
