# generated using pymatgen
data_Nd4Cd2RhAu3
_symmetry_space_group_name_H-M   'P 1'
_cell_length_a   8.05175860
_cell_length_b   8.05175860
_cell_length_c   3.90151500
_cell_angle_alpha   90.00000000
_cell_angle_beta   90.00000000
_cell_angle_gamma   89.69997766
_symmetry_Int_Tables_number   1
_chemical_formula_structural   Nd4Cd2RhAu3
_chemical_formula_sum   'Nd4 Cd2 Rh1 Au3'
_cell_volume   252.93493532
_cell_formula_units_Z   1
loop_
 _symmetry_equiv_pos_site_id
 _symmetry_equiv_pos_as_xyz
  1  'x, y, z'
loop_
 _atom_site_type_symbol
 _atom_site_label
 _atom_site_symmetry_multiplicity
 _atom_site_fract_x
 _atom_site_fract_y
 _atom_site_fract_z
 _atom_site_occupancy
  Nd  Nd0  1  0.653012  0.177193  0.500000  1
  Nd  Nd1  1  0.322807  0.846988  0.500000  1
  Nd  Nd2  1  0.185667  0.314333  0.500000  1
  Nd  Nd3  1  0.830139  0.669861  0.500000  1
  Cd  Cd4  1  0.004017  0.002346  0.000000  1
  Cd  Cd5  1  0.497654  0.495983  0.000000  1
  Rh  Rh6  1  0.373089  0.126911  0.000000  1
  Au  Au7  1  0.132021  0.625702  0.000000  1
  Au  Au8  1  0.874298  0.367979  0.000000  1
  Au  Au9  1  0.627295  0.872705  0.000000  1
