# generated using pymatgen
data_Cs6DyTm3Br18
_symmetry_space_group_name_H-M   'P 1'
_cell_length_a   10.45245938
_cell_length_b   10.45246054
_cell_length_c   10.45245971
_cell_angle_alpha   83.17942412
_cell_angle_beta   83.17942087
_cell_angle_gamma   83.17941752
_symmetry_Int_Tables_number   1
_chemical_formula_structural   Cs6DyTm3Br18
_chemical_formula_sum   'Cs6 Dy1 Tm3 Br18'
_cell_volume   1119.50427440
_cell_formula_units_Z   1
loop_
 _symmetry_equiv_pos_site_id
 _symmetry_equiv_pos_as_xyz
  1  'x, y, z'
loop_
 _atom_site_type_symbol
 _atom_site_label
 _atom_site_symmetry_multiplicity
 _atom_site_fract_x
 _atom_site_fract_y
 _atom_site_fract_z
 _atom_site_occupancy
  Cs  Cs0  1  0.589571  0.910386  0.250135  1
  Cs  Cs1  1  0.250135  0.589571  0.910386  1
  Cs  Cs2  1  0.910386  0.250135  0.589571  1
  Cs  Cs3  1  0.749974  0.410292  0.089647  1
  Cs  Cs4  1  0.089647  0.749974  0.410292  1
  Cs  Cs5  1  0.410292  0.089647  0.749974  1
  Dy  Dy6  1  0.846691  0.846691  0.846691  1
  Tm  Tm7  1  0.346172  0.346172  0.346172  1
  Tm  Tm8  1  0.153847  0.153847  0.153847  1
  Tm  Tm9  1  0.653546  0.653546  0.653546  1
  Br  Br10  1  0.096348  0.403626  0.250009  1
  Br  Br11  1  0.250009  0.096348  0.403626  1
  Br  Br12  1  0.403626  0.250009  0.096348  1
  Br  Br13  1  0.749138  0.903884  0.594329  1
  Br  Br14  1  0.594329  0.749138  0.903884  1
  Br  Br15  1  0.903884  0.594329  0.749138  1
  Br  Br16  1  0.235876  0.414634  0.576890  1
  Br  Br17  1  0.576890  0.235876  0.414634  1
  Br  Br18  1  0.414634  0.576890  0.235876  1
  Br  Br19  1  0.080004  0.915569  0.734309  1
  Br  Br20  1  0.734309  0.080004  0.915569  1
  Br  Br21  1  0.915569  0.734309  0.080004  1
  Br  Br22  1  0.764100  0.585324  0.423120  1
  Br  Br23  1  0.423120  0.764100  0.585324  1
  Br  Br24  1  0.585324  0.423120  0.764100  1
  Br  Br25  1  0.923111  0.085359  0.264110  1
  Br  Br26  1  0.264110  0.923111  0.085359  1
  Br  Br27  1  0.085359  0.264110  0.923111  1
