# generated using pymatgen
data_Sc10In8GaAgRh2
_symmetry_space_group_name_H-M   'P 1'
_cell_length_a   3.38797900
_cell_length_b   7.82333846
_cell_length_c   17.74611395
_cell_angle_alpha   89.32711765
_cell_angle_beta   90.00000000
_cell_angle_gamma   90.00000000
_symmetry_Int_Tables_number   1
_chemical_formula_structural   Sc10In8GaAgRh2
_chemical_formula_sum   'Sc10 In8 Ga1 Ag1 Rh2'
_cell_volume   470.33375144
_cell_formula_units_Z   1
loop_
 _symmetry_equiv_pos_site_id
 _symmetry_equiv_pos_as_xyz
  1  'x, y, z'
loop_
 _atom_site_type_symbol
 _atom_site_label
 _atom_site_symmetry_multiplicity
 _atom_site_fract_x
 _atom_site_fract_y
 _atom_site_fract_z
 _atom_site_occupancy
  Sc  Sc0  1  0.000000  0.000198  0.000274  1
  Sc  Sc1  1  0.000000  0.500119  0.498924  1
  Sc  Sc2  1  0.000000  0.732003  0.784515  1
  Sc  Sc3  1  0.000000  0.264153  0.216587  1
  Sc  Sc4  1  0.000000  0.274639  0.722691  1
  Sc  Sc5  1  0.000000  0.725975  0.276257  1
  Sc  Sc6  1  0.000000  0.873781  0.575120  1
  Sc  Sc7  1  0.000000  0.127363  0.423137  1
  Sc  Sc8  1  0.000000  0.375438  0.917288  1
  Sc  Sc9  1  0.000000  0.624253  0.083105  1
  In  In10  1  0.500000  0.793160  0.431230  1
  In  In11  1  0.500000  0.208065  0.568921  1
  In  In12  1  0.500000  0.297520  0.065692  1
  In  In13  1  0.500000  0.703458  0.934449  1
  In  In14  1  0.500000  0.922658  0.148346  1
  In  In15  1  0.500000  0.076645  0.851912  1
  In  In16  1  0.500000  0.425256  0.352164  1
  In  In17  1  0.500000  0.577829  0.647898  1
  Ga  Ga18  1  0.500000  0.031530  0.303777  1
  Ag  Ag19  1  0.500000  0.967503  0.696875  1
  Rh  Rh20  1  0.500000  0.465359  0.806750  1
  Rh  Rh21  1  0.500000  0.533095  0.194088  1
