# generated using pymatgen
data_Pu2Co7(TcP2)3
_symmetry_space_group_name_H-M   'P 1'
_cell_length_a   3.70582200
_cell_length_b   10.50524100
_cell_length_c   11.90037900
_cell_angle_alpha   90.00000000
_cell_angle_beta   90.00000000
_cell_angle_gamma   90.00000000
_symmetry_Int_Tables_number   1
_chemical_formula_structural   Pu2Co7(TcP2)3
_chemical_formula_sum   'Pu4 Co14 Tc6 P12'
_cell_volume   463.28833792
_cell_formula_units_Z   2
loop_
 _symmetry_equiv_pos_site_id
 _symmetry_equiv_pos_as_xyz
  1  'x, y, z'
loop_
 _atom_site_type_symbol
 _atom_site_label
 _atom_site_symmetry_multiplicity
 _atom_site_fract_x
 _atom_site_fract_y
 _atom_site_fract_z
 _atom_site_occupancy
  Pu  Pu0  1  0.250000  0.585319  0.704678  1
  Pu  Pu1  1  0.250000  0.914681  0.204678  1
  Pu  Pu2  1  0.750000  0.415742  0.293161  1
  Pu  Pu3  1  0.750000  0.084258  0.793161  1
  Co  Co4  1  0.750000  0.599860  0.514963  1
  Co  Co5  1  0.750000  0.900140  0.014963  1
  Co  Co6  1  0.250000  0.223671  0.178994  1
  Co  Co7  1  0.250000  0.276329  0.678994  1
  Co  Co8  1  0.750000  0.781020  0.823268  1
  Co  Co9  1  0.750000  0.718980  0.323268  1
  Co  Co10  1  0.250000  0.879819  0.696713  1
  Co  Co11  1  0.250000  0.620181  0.196713  1
  Co  Co12  1  0.750000  0.113898  0.301500  1
  Co  Co13  1  0.750000  0.386102  0.801500  1
  Co  Co14  1  0.250000  0.464826  0.933359  1
  Co  Co15  1  0.250000  0.035174  0.433359  1
  Co  Co16  1  0.750000  0.539087  0.064650  1
  Co  Co17  1  0.750000  0.960913  0.564650  1
  Tc  Tc18  1  0.250000  0.708952  0.984672  1
  Tc  Tc19  1  0.250000  0.791048  0.484672  1
  Tc  Tc20  1  0.750000  0.294031  0.016418  1
  Tc  Tc21  1  0.750000  0.205969  0.516418  1
  Tc  Tc22  1  0.250000  0.409102  0.489086  1
  Tc  Tc23  1  0.250000  0.090898  0.989086  1
  P  P24  1  0.250000  0.422506  0.115020  1
  P  P25  1  0.250000  0.077494  0.615020  1
  P  P26  1  0.750000  0.581272  0.883615  1
  P  P27  1  0.750000  0.918728  0.383615  1
  P  P28  1  0.250000  0.272532  0.865297  1
  P  P29  1  0.250000  0.227468  0.365297  1
  P  P30  1  0.750000  0.730593  0.134391  1
  P  P31  1  0.750000  0.769407  0.634391  1
  P  P32  1  0.250000  0.602293  0.385404  1
  P  P33  1  0.250000  0.897707  0.885404  1
  P  P34  1  0.750000  0.401239  0.614811  1
  P  P35  1  0.750000  0.098761  0.114811  1
