# generated using pymatgen
data_Pr3Mg2CdAg2Ru
_symmetry_space_group_name_H-M   'P 1'
_cell_length_a   7.87304611
_cell_length_b   7.84271622
_cell_length_c   4.13269400
_cell_angle_alpha   90.00000000
_cell_angle_beta   90.00000000
_cell_angle_gamma   119.61965624
_symmetry_Int_Tables_number   1
_chemical_formula_structural   Pr3Mg2CdAg2Ru
_chemical_formula_sum   'Pr3 Mg2 Cd1 Ag2 Ru1'
_cell_volume   221.83237366
_cell_formula_units_Z   1
loop_
 _symmetry_equiv_pos_site_id
 _symmetry_equiv_pos_as_xyz
  1  'x, y, z'
loop_
 _atom_site_type_symbol
 _atom_site_label
 _atom_site_symmetry_multiplicity
 _atom_site_fract_x
 _atom_site_fract_y
 _atom_site_fract_z
 _atom_site_occupancy
  Pr  Pr0  1  0.435370  0.407221  0.500000  1
  Pr  Pr1  1  0.599394  0.025026  0.500000  1
  Pr  Pr2  1  0.966122  0.568746  0.500000  1
  Mg  Mg3  1  0.252293  0.003254  0.000000  1
  Mg  Mg4  1  0.996364  0.247844  0.000000  1
  Cd  Cd5  1  0.750293  0.747912  0.000000  1
  Ag  Ag6  1  0.327106  0.664980  0.000000  1
  Ag  Ag7  1  0.010094  0.009727  0.500000  1
  Ru  Ru8  1  0.662963  0.325292  0.000000  1
