# generated using pymatgen
data_Sm3Tm(Si3Ni5)4
_symmetry_space_group_name_H-M   'P 1'
_cell_length_a   3.82332400
_cell_length_b   18.85308595
_cell_length_c   6.58541941
_cell_angle_alpha   90.04613623
_cell_angle_beta   90.00000000
_cell_angle_gamma   90.00000000
_symmetry_Int_Tables_number   1
_chemical_formula_structural   Sm3Tm(Si3Ni5)4
_chemical_formula_sum   'Sm3 Tm1 Si12 Ni20'
_cell_volume   474.68646503
_cell_formula_units_Z   1
loop_
 _symmetry_equiv_pos_site_id
 _symmetry_equiv_pos_as_xyz
  1  'x, y, z'
loop_
 _atom_site_type_symbol
 _atom_site_label
 _atom_site_symmetry_multiplicity
 _atom_site_fract_x
 _atom_site_fract_y
 _atom_site_fract_z
 _atom_site_occupancy
  Sm  Sm0  1  0.750000  0.643541  0.123446  1
  Sm  Sm1  1  0.250000  0.355651  0.875605  1
  Sm  Sm2  1  0.250000  0.857277  0.624516  1
  Tm  Tm3  1  0.750000  0.144113  0.377882  1
  Si  Si4  1  0.750000  0.736566  0.617855  1
  Si  Si5  1  0.250000  0.261759  0.383498  1
  Si  Si6  1  0.250000  0.764219  0.116802  1
  Si  Si7  1  0.750000  0.235329  0.883795  1
  Si  Si8  1  0.750000  0.927186  0.340409  1
  Si  Si9  1  0.250000  0.073846  0.654203  1
  Si  Si10  1  0.250000  0.572363  0.840060  1
  Si  Si11  1  0.750000  0.426665  0.158874  1
  Si  Si12  1  0.750000  0.915529  0.925889  1
  Si  Si13  1  0.250000  0.087865  0.081276  1
  Si  Si14  1  0.250000  0.586531  0.426821  1
  Si  Si15  1  0.750000  0.411950  0.571555  1
  Ni  Ni16  1  0.750000  0.801223  0.310674  1
  Ni  Ni17  1  0.250000  0.197676  0.687187  1
  Ni  Ni18  1  0.250000  0.699079  0.810784  1
  Ni  Ni19  1  0.750000  0.299872  0.190645  1
  Ni  Ni20  1  0.750000  0.995438  0.633911  1
  Ni  Ni21  1  0.250000  0.006415  0.363734  1
  Ni  Ni22  1  0.250000  0.505036  0.135944  1
  Ni  Ni23  1  0.750000  0.493704  0.862311  1
  Ni  Ni24  1  0.750000  0.516106  0.388906  1
  Ni  Ni25  1  0.250000  0.482718  0.610474  1
  Ni  Ni26  1  0.250000  0.986286  0.889645  1
  Ni  Ni27  1  0.750000  0.018531  0.116625  1
  Ni  Ni28  1  0.750000  0.793696  0.926985  1
  Ni  Ni29  1  0.250000  0.206964  0.074803  1
  Ni  Ni30  1  0.250000  0.707934  0.427140  1
  Ni  Ni31  1  0.750000  0.290294  0.572753  1
  Ni  Ni32  1  0.750000  0.615549  0.645893  1
  Ni  Ni33  1  0.250000  0.383125  0.353572  1
  Ni  Ni34  1  0.250000  0.885169  0.143977  1
  Ni  Ni35  1  0.750000  0.114797  0.851551  1
