# generated using pymatgen
data_Er7Ag(Sn11Ru3)2
_symmetry_space_group_name_H-M   'P 1'
_cell_length_a   9.81469000
_cell_length_b   9.81469061
_cell_length_c   10.01915200
_cell_angle_alpha   90.00000000
_cell_angle_beta   90.00000000
_cell_angle_gamma   120.00000468
_symmetry_Int_Tables_number   1
_chemical_formula_structural   Er7Ag(Sn11Ru3)2
_chemical_formula_sum   'Er7 Ag1 Sn22 Ru6'
_cell_volume   835.82388433
_cell_formula_units_Z   1
loop_
 _symmetry_equiv_pos_site_id
 _symmetry_equiv_pos_as_xyz
  1  'x, y, z'
loop_
 _atom_site_type_symbol
 _atom_site_label
 _atom_site_symmetry_multiplicity
 _atom_site_fract_x
 _atom_site_fract_y
 _atom_site_fract_z
 _atom_site_occupancy
  Er  Er0  1  0.484714  0.515286  0.304193  1
  Er  Er1  1  0.515286  0.484714  0.695807  1
  Er  Er2  1  0.484714  0.969428  0.304193  1
  Er  Er3  1  0.515286  0.030572  0.695807  1
  Er  Er4  1  0.030572  0.515286  0.304193  1
  Er  Er5  1  0.969428  0.484714  0.695807  1
  Er  Er6  1  0.000000  0.000000  0.000000  1
  Ag  Ag7  1  0.000000  0.000000  0.500000  1
  Sn  Sn8  1  0.119240  0.880760  0.275727  1
  Sn  Sn9  1  0.880760  0.119240  0.724273  1
  Sn  Sn10  1  0.119240  0.238480  0.275727  1
  Sn  Sn11  1  0.880760  0.761520  0.724273  1
  Sn  Sn12  1  0.761520  0.880760  0.275727  1
  Sn  Sn13  1  0.238480  0.119240  0.724273  1
  Sn  Sn14  1  0.779552  0.220448  0.463929  1
  Sn  Sn15  1  0.220448  0.779552  0.536071  1
  Sn  Sn16  1  0.779552  0.559105  0.463929  1
  Sn  Sn17  1  0.220448  0.440895  0.536071  1
  Sn  Sn18  1  0.440895  0.220448  0.463929  1
  Sn  Sn19  1  0.559105  0.779552  0.536071  1
  Sn  Sn20  1  0.348930  0.000000  0.000000  1
  Sn  Sn21  1  0.651070  0.000000  0.000000  1
  Sn  Sn22  1  0.000000  0.348930  0.000000  1
  Sn  Sn23  1  0.000000  0.651070  0.000000  1
  Sn  Sn24  1  0.651070  0.651070  0.000000  1
  Sn  Sn25  1  0.348930  0.348930  0.000000  1
  Sn  Sn26  1  0.333333  0.666667  0.129925  1
  Sn  Sn27  1  0.666667  0.333333  0.870075  1
  Sn  Sn28  1  0.333333  0.666667  0.824654  1
  Sn  Sn29  1  0.666667  0.333333  0.175346  1
  Ru  Ru30  1  0.830881  0.169119  0.204449  1
  Ru  Ru31  1  0.169119  0.830881  0.795551  1
  Ru  Ru32  1  0.830881  0.661764  0.204449  1
  Ru  Ru33  1  0.169119  0.338236  0.795551  1
  Ru  Ru34  1  0.338236  0.169119  0.204449  1
  Ru  Ru35  1  0.661764  0.830881  0.795551  1
