# generated using pymatgen
data_La3TbTl5
_symmetry_space_group_name_H-M   'P 1'
_cell_length_a   8.85164418
_cell_length_b   8.85164211
_cell_length_c   8.85164310
_cell_angle_alpha   66.14117866
_cell_angle_beta   66.14118067
_cell_angle_gamma   66.14115610
_symmetry_Int_Tables_number   1
_chemical_formula_structural   La3TbTl5
_chemical_formula_sum   'La6 Tb2 Tl10'
_cell_volume   555.49520436
_cell_formula_units_Z   2
loop_
 _symmetry_equiv_pos_site_id
 _symmetry_equiv_pos_as_xyz
  1  'x, y, z'
loop_
 _atom_site_type_symbol
 _atom_site_label
 _atom_site_symmetry_multiplicity
 _atom_site_fract_x
 _atom_site_fract_y
 _atom_site_fract_z
 _atom_site_occupancy
  La  La0  1  0.891436  0.181852  0.627500  1
  La  La1  1  0.627500  0.891436  0.181852  1
  La  La2  1  0.181852  0.627500  0.891436  1
  La  La3  1  0.108564  0.818148  0.372500  1
  La  La4  1  0.372500  0.108564  0.818148  1
  La  La5  1  0.818148  0.372500  0.108564  1
  Tb  Tb6  1  0.656544  0.656544  0.656544  1
  Tb  Tb7  1  0.343456  0.343456  0.343456  1
  Tl  Tl8  1  0.000000  0.000000  0.000000  1
  Tl  Tl9  1  0.500000  0.500000  0.500000  1
  Tl  Tl10  1  0.809487  0.809487  0.809487  1
  Tl  Tl11  1  0.190513  0.190513  0.190513  1
  Tl  Tl12  1  0.947886  0.562305  0.305949  1
  Tl  Tl13  1  0.305949  0.947886  0.562305  1
  Tl  Tl14  1  0.562305  0.305949  0.947886  1
  Tl  Tl15  1  0.052114  0.437695  0.694051  1
  Tl  Tl16  1  0.694051  0.052114  0.437695  1
  Tl  Tl17  1  0.437695  0.694051  0.052114  1
