# generated using pymatgen
data_Dy5Zr5Co2(Si10Ir3)2
_symmetry_space_group_name_H-M   'P 1'
_cell_length_a   12.46517090
_cell_length_b   12.45206480
_cell_length_c   4.14810400
_cell_angle_alpha   90.00000000
_cell_angle_beta   90.00000000
_cell_angle_gamma   90.37538482
_symmetry_Int_Tables_number   1
_chemical_formula_structural   Dy5Zr5Co2(Si10Ir3)2
_chemical_formula_sum   'Dy5 Zr5 Co2 Si20 Ir6'
_cell_volume   643.84292000
_cell_formula_units_Z   1
loop_
 _symmetry_equiv_pos_site_id
 _symmetry_equiv_pos_as_xyz
  1  'x, y, z'
loop_
 _atom_site_type_symbol
 _atom_site_label
 _atom_site_symmetry_multiplicity
 _atom_site_fract_x
 _atom_site_fract_y
 _atom_site_fract_z
 _atom_site_occupancy
  Dy  Dy0  1  0.000000  0.000000  0.000000  1
  Dy  Dy1  1  0.884176  0.385974  0.500000  1
  Dy  Dy2  1  0.115824  0.614026  0.500000  1
  Dy  Dy3  1  0.384920  0.116670  0.500000  1
  Dy  Dy4  1  0.615080  0.883330  0.500000  1
  Zr  Zr5  1  0.500000  0.500000  0.000000  1
  Zr  Zr6  1  0.675037  0.178156  0.500000  1
  Zr  Zr7  1  0.324963  0.821844  0.500000  1
  Zr  Zr8  1  0.176779  0.329379  0.500000  1
  Zr  Zr9  1  0.823221  0.670621  0.500000  1
  Co  Co10  1  0.739908  0.522166  0.000000  1
  Co  Co11  1  0.260092  0.477834  0.000000  1
  Si  Si12  1  0.566162  0.068415  0.000000  1
  Si  Si13  1  0.433838  0.931585  0.000000  1
  Si  Si14  1  0.073159  0.437458  0.000000  1
  Si  Si15  1  0.926841  0.562542  0.000000  1
  Si  Si16  1  0.664990  0.691645  0.000000  1
  Si  Si17  1  0.335010  0.308355  0.000000  1
  Si  Si18  1  0.164548  0.797169  0.000000  1
  Si  Si19  1  0.835452  0.202831  0.000000  1
  Si  Si20  1  0.300522  0.655327  0.000000  1
  Si  Si21  1  0.699478  0.344673  0.000000  1
  Si  Si22  1  0.200975  0.166908  0.000000  1
  Si  Si23  1  0.799025  0.833092  0.000000  1
  Si  Si24  1  0.661380  0.506523  0.500000  1
  Si  Si25  1  0.338620  0.493477  0.500000  1
  Si  Si26  1  0.156994  0.992096  0.500000  1
  Si  Si27  1  0.843006  0.007904  0.500000  1
  Si  Si28  1  0.492609  0.652681  0.500000  1
  Si  Si29  1  0.507391  0.347319  0.500000  1
  Si  Si30  1  0.006765  0.158391  0.500000  1
  Si  Si31  1  0.993235  0.841609  0.500000  1
  Ir  Ir32  1  0.246631  0.979263  0.000000  1
  Ir  Ir33  1  0.753369  0.020737  0.000000  1
  Ir  Ir34  1  0.479096  0.741803  0.000000  1
  Ir  Ir35  1  0.520904  0.258197  0.000000  1
  Ir  Ir36  1  0.022391  0.248049  0.000000  1
  Ir  Ir37  1  0.977609  0.751951  0.000000  1
