# generated using pymatgen
data_Tb2Ce2ZnIn2Rh3
_symmetry_space_group_name_H-M   'P 1'
_cell_length_a   7.73293415
_cell_length_b   7.73293492
_cell_length_c   3.74350700
_cell_angle_alpha   90.00000000
_cell_angle_beta   90.00000000
_cell_angle_gamma   87.16857491
_symmetry_Int_Tables_number   1
_chemical_formula_structural   Tb2Ce2ZnIn2Rh3
_chemical_formula_sum   'Tb2 Ce2 Zn1 In2 Rh3'
_cell_volume   223.58198294
_cell_formula_units_Z   1
loop_
 _symmetry_equiv_pos_site_id
 _symmetry_equiv_pos_as_xyz
  1  'x, y, z'
loop_
 _atom_site_type_symbol
 _atom_site_label
 _atom_site_symmetry_multiplicity
 _atom_site_fract_x
 _atom_site_fract_y
 _atom_site_fract_z
 _atom_site_occupancy
  Tb  Tb0  1  0.674600  0.174600  0.500000  1
  Tb  Tb1  1  0.341494  0.841494  0.500000  1
  Ce  Ce2  1  0.165531  0.303469  0.500000  1
  Ce  Ce3  1  0.803469  0.665531  0.500000  1
  Zn  Zn4  1  0.127812  0.627812  0.000000  1
  In  In5  1  0.994044  0.992390  0.000000  1
  In  In6  1  0.492390  0.494044  0.000000  1
  Rh  Rh7  1  0.894471  0.394471  0.000000  1
  Rh  Rh8  1  0.640869  0.865321  0.000000  1
  Rh  Rh9  1  0.365321  0.140869  0.000000  1
