# generated using pymatgen
data_Ca5Yb5SnSb5
_symmetry_space_group_name_H-M   'P 1'
_cell_length_a   9.11596600
_cell_length_b   9.12098159
_cell_length_c   6.92643300
_cell_angle_alpha   90.00000000
_cell_angle_beta   90.00000000
_cell_angle_gamma   119.98098933
_symmetry_Int_Tables_number   1
_chemical_formula_structural   Ca5Yb5SnSb5
_chemical_formula_sum   'Ca5 Yb5 Sn1 Sb5'
_cell_volume   498.84739515
_cell_formula_units_Z   1
loop_
 _symmetry_equiv_pos_site_id
 _symmetry_equiv_pos_as_xyz
  1  'x, y, z'
loop_
 _atom_site_type_symbol
 _atom_site_label
 _atom_site_symmetry_multiplicity
 _atom_site_fract_x
 _atom_site_fract_y
 _atom_site_fract_z
 _atom_site_occupancy
  Ca  Ca0  1  0.003458  0.736296  0.750000  1
  Ca  Ca1  1  0.000334  0.262378  0.250000  1
  Ca  Ca2  1  0.737858  0.737585  0.250000  1
  Ca  Ca3  1  0.733154  0.000037  0.750000  1
  Ca  Ca4  1  0.260591  0.000075  0.250000  1
  Yb  Yb5  1  0.268201  0.264144  0.750000  1
  Yb  Yb6  1  0.333131  0.668984  0.501467  1
  Yb  Yb7  1  0.663858  0.330892  0.998481  1
  Yb  Yb8  1  0.663858  0.330892  0.501519  1
  Yb  Yb9  1  0.333131  0.668984  0.998533  1
  Sn  Sn10  1  0.383579  0.000420  0.750000  1
  Sb  Sb11  1  0.384863  0.387189  0.250000  1
  Sb  Sb12  1  0.997645  0.612511  0.250000  1
  Sb  Sb13  1  0.000886  0.380725  0.750000  1
  Sb  Sb14  1  0.619942  0.618976  0.750000  1
  Sb  Sb15  1  0.615513  0.999910  0.250000  1
