# generated using pymatgen
data_Zr10GaSnBi4
_symmetry_space_group_name_H-M   'P 1'
_cell_length_a   5.63433706
_cell_length_b   8.54960240
_cell_length_c   8.54960474
_cell_angle_alpha   96.23988880
_cell_angle_beta   109.23898767
_cell_angle_gamma   70.76105602
_symmetry_Int_Tables_number   1
_chemical_formula_structural   Zr10GaSnBi4
_chemical_formula_sum   'Zr10 Ga1 Sn1 Bi4'
_cell_volume   367.12931751
_cell_formula_units_Z   1
loop_
 _symmetry_equiv_pos_site_id
 _symmetry_equiv_pos_as_xyz
  1  'x, y, z'
loop_
 _atom_site_type_symbol
 _atom_site_label
 _atom_site_symmetry_multiplicity
 _atom_site_fract_x
 _atom_site_fract_y
 _atom_site_fract_z
 _atom_site_occupancy
  Zr  Zr0  1  0.431426  0.860239  0.710438  1
  Zr  Zr1  1  0.581228  0.139760  0.289561  1
  Zr  Zr2  1  0.918773  0.289562  0.139761  1
  Zr  Zr3  1  0.068573  0.710439  0.860240  1
  Zr  Zr4  1  0.720994  0.710444  0.139779  1
  Zr  Zr5  1  0.291659  0.289556  0.860219  1
  Zr  Zr6  1  0.779005  0.139781  0.710444  1
  Zr  Zr7  1  0.208339  0.860221  0.289556  1
  Zr  Zr8  1  0.249999  0.500001  0.499999  1
  Zr  Zr9  1  0.750000  0.500000  0.500000  1
  Ga  Ga10  1  0.750001  0.999999  0.000001  1
  Sn  Sn11  1  0.250001  0.999999  0.000001  1
  Bi  Bi12  1  0.335256  0.499998  0.170503  1
  Bi  Bi13  1  0.664748  0.500003  0.829498  1
  Bi  Bi14  1  0.835250  0.829497  0.500002  1
  Bi  Bi15  1  0.164747  0.170502  0.499997  1
