# generated using pymatgen
data_HoU(CoB4)2
_symmetry_space_group_name_H-M   'P 1'
_cell_length_a   3.36804700
_cell_length_b   5.90004351
_cell_length_c   11.42454002
_cell_angle_alpha   90.07395642
_cell_angle_beta   90.00000000
_cell_angle_gamma   90.00000000
_symmetry_Int_Tables_number   1
_chemical_formula_structural   HoU(CoB4)2
_chemical_formula_sum   'Ho2 U2 Co4 B16'
_cell_volume   227.02397272
_cell_formula_units_Z   2
loop_
 _symmetry_equiv_pos_site_id
 _symmetry_equiv_pos_as_xyz
  1  'x, y, z'
loop_
 _atom_site_type_symbol
 _atom_site_label
 _atom_site_symmetry_multiplicity
 _atom_site_fract_x
 _atom_site_fract_y
 _atom_site_fract_z
 _atom_site_occupancy
  Ho  Ho0  1  0.000000  0.627618  0.350967  1
  Ho  Ho1  1  0.000000  0.372382  0.649033  1
  U  U2  1  0.000000  0.127063  0.150477  1
  U  U3  1  0.000000  0.872937  0.849523  1
  Co  Co4  1  0.000000  0.633495  0.089047  1
  Co  Co5  1  0.000000  0.366505  0.910953  1
  Co  Co6  1  0.000000  0.133503  0.409920  1
  Co  Co7  1  0.000000  0.866497  0.590080  1
  B  B8  1  0.500000  0.783680  0.185137  1
  B  B9  1  0.500000  0.216320  0.814863  1
  B  B10  1  0.500000  0.282162  0.314510  1
  B  B11  1  0.500000  0.717838  0.685490  1
  B  B12  1  0.500000  0.864172  0.033962  1
  B  B13  1  0.500000  0.135828  0.966038  1
  B  B14  1  0.500000  0.361246  0.466942  1
  B  B15  1  0.500000  0.638754  0.533058  1
  B  B16  1  0.500000  0.887798  0.454319  1
  B  B17  1  0.500000  0.112202  0.545681  1
  B  B18  1  0.500000  0.386668  0.046080  1
  B  B19  1  0.500000  0.613332  0.953920  1
  B  B20  1  0.500000  0.976826  0.309481  1
  B  B21  1  0.500000  0.023174  0.690519  1
  B  B22  1  0.500000  0.476983  0.190660  1
  B  B23  1  0.500000  0.523017  0.809340  1
