# generated using pymatgen
data_Tb10Bi9Te
_symmetry_space_group_name_H-M   'P 1'
_cell_length_a   7.76956865
_cell_length_b   9.01448906
_cell_length_c   10.01161100
_cell_angle_alpha   103.02070001
_cell_angle_beta   97.34697308
_cell_angle_gamma   106.99306816
_symmetry_Int_Tables_number   1
_chemical_formula_structural   Tb10Bi9Te
_chemical_formula_sum   'Tb10 Bi9 Te1'
_cell_volume   639.06678419
_cell_formula_units_Z   1
loop_
 _symmetry_equiv_pos_site_id
 _symmetry_equiv_pos_as_xyz
  1  'x, y, z'
loop_
 _atom_site_type_symbol
 _atom_site_label
 _atom_site_symmetry_multiplicity
 _atom_site_fract_x
 _atom_site_fract_y
 _atom_site_fract_z
 _atom_site_occupancy
  Tb  Tb0  1  0.901055  0.550083  0.800070  1
  Tb  Tb1  1  0.697187  0.150860  0.399469  1
  Tb  Tb2  1  0.500491  0.750212  0.000602  1
  Tb  Tb3  1  0.698043  0.647580  0.399356  1
  Tb  Tb4  1  0.301957  0.352420  0.600644  1
  Tb  Tb5  1  0.100346  0.948983  0.197666  1
  Tb  Tb6  1  0.499509  0.249788  0.999398  1
  Tb  Tb7  1  0.302813  0.849140  0.600531  1
  Tb  Tb8  1  0.098945  0.449917  0.199930  1
  Tb  Tb9  1  0.899654  0.051017  0.802334  1
  Bi  Bi10  1  0.799805  0.600721  0.101010  1
  Bi  Bi11  1  0.599404  0.199326  0.699867  1
  Bi  Bi12  1  0.400596  0.800674  0.300133  1
  Bi  Bi13  1  0.800621  0.099790  0.101107  1
  Bi  Bi14  1  0.200195  0.399279  0.898990  1
  Bi  Bi15  1  0.600860  0.700758  0.699606  1
  Bi  Bi16  1  0.399140  0.299242  0.300394  1
  Bi  Bi17  1  0.199379  0.900210  0.898893  1
  Bi  Bi18  1  0.000000  0.500000  0.500000  1
  Te  Te19  1  0.000000  0.000000  0.500000  1
