# generated using pymatgen
data_Ho4ErTm3(B6Os)4
_symmetry_space_group_name_H-M   'P 1'
_cell_length_a   3.62990100
_cell_length_b   9.10091701
_cell_length_c   11.48188902
_cell_angle_alpha   90.00650837
_cell_angle_beta   90.00000000
_cell_angle_gamma   90.00000000
_symmetry_Int_Tables_number   1
_chemical_formula_structural   Ho4ErTm3(B6Os)4
_chemical_formula_sum   'Ho4 Er1 Tm3 B24 Os4'
_cell_volume   379.30911292
_cell_formula_units_Z   1
loop_
 _symmetry_equiv_pos_site_id
 _symmetry_equiv_pos_as_xyz
  1  'x, y, z'
loop_
 _atom_site_type_symbol
 _atom_site_label
 _atom_site_symmetry_multiplicity
 _atom_site_fract_x
 _atom_site_fract_y
 _atom_site_fract_z
 _atom_site_occupancy
  Ho  Ho0  1  0.000000  0.321664  0.414017  1
  Ho  Ho1  1  0.000000  0.678358  0.586118  1
  Ho  Ho2  1  0.000000  0.821526  0.085947  1
  Ho  Ho3  1  0.000000  0.178484  0.913948  1
  Er  Er4  1  0.000000  0.944012  0.373060  1
  Tm  Tm5  1  0.000000  0.056046  0.627142  1
  Tm  Tm6  1  0.000000  0.444020  0.126868  1
  Tm  Tm7  1  0.000000  0.555980  0.873045  1
  B  B8  1  0.500000  0.553827  0.433186  1
  B  B9  1  0.500000  0.445998  0.566873  1
  B  B10  1  0.500000  0.054017  0.066735  1
  B  B11  1  0.500000  0.946025  0.933147  1
  B  B12  1  0.500000  0.748435  0.419925  1
  B  B13  1  0.500000  0.251275  0.580159  1
  B  B14  1  0.500000  0.248877  0.080055  1
  B  B15  1  0.500000  0.751197  0.919891  1
  B  B16  1  0.500000  0.791292  0.266116  1
  B  B17  1  0.500000  0.208424  0.733801  1
  B  B18  1  0.500000  0.291760  0.233710  1
  B  B19  1  0.500000  0.708382  0.766244  1
  B  B20  1  0.500000  0.631079  0.184754  1
  B  B21  1  0.500000  0.368832  0.815181  1
  B  B22  1  0.500000  0.131491  0.315045  1
  B  B23  1  0.500000  0.868781  0.684895  1
  B  B24  1  0.500000  0.982706  0.213085  1
  B  B25  1  0.500000  0.017469  0.786680  1
  B  B26  1  0.500000  0.482426  0.286614  1
  B  B27  1  0.500000  0.517486  0.713353  1
  B  B28  1  0.500000  0.605922  0.029258  1
  B  B29  1  0.500000  0.394072  0.970695  1
  B  B30  1  0.500000  0.106460  0.470876  1
  B  B31  1  0.500000  0.893793  0.529641  1
  Os  Os32  1  0.000000  0.637152  0.320960  1
  Os  Os33  1  0.000000  0.362539  0.679101  1
  Os  Os34  1  0.000000  0.137730  0.178850  1
  Os  Os35  1  0.000000  0.862462  0.821023  1
