# generated using pymatgen
data_Nd3YCS3
_symmetry_space_group_name_H-M   'P 1'
_cell_length_a   6.88102215
_cell_length_b   6.88102307
_cell_length_c   6.88456400
_cell_angle_alpha   79.89079356
_cell_angle_beta   79.89078374
_cell_angle_gamma   32.72722696
_symmetry_Int_Tables_number   1
_chemical_formula_structural   Nd3YCS3
_chemical_formula_sum   'Nd3 Y1 C1 S3'
_cell_volume   173.26044920
_cell_formula_units_Z   1
loop_
 _symmetry_equiv_pos_site_id
 _symmetry_equiv_pos_as_xyz
  1  'x, y, z'
loop_
 _atom_site_type_symbol
 _atom_site_label
 _atom_site_symmetry_multiplicity
 _atom_site_fract_x
 _atom_site_fract_y
 _atom_site_fract_z
 _atom_site_occupancy
  Nd  Nd0  1  0.234375  0.234375  0.234072  1
  Nd  Nd1  1  0.506969  0.506969  0.470893  1
  Nd  Nd2  1  0.743449  0.743449  0.777667  1
  Y  Y3  1  0.015556  0.015556  0.017278  1
  C  C4  1  0.621475  0.621475  0.120708  1
  S  S5  1  0.870334  0.870334  0.369677  1
  S  S6  1  0.122753  0.122753  0.631891  1
  S  S7  1  0.385088  0.385088  0.877813  1
