# generated using pymatgen
data_Tm2NiIr3
_symmetry_space_group_name_H-M   'P 1'
_cell_length_a   5.15509533
_cell_length_b   5.35896559
_cell_length_c   5.35896600
_cell_angle_alpha   59.99999749
_cell_angle_beta   58.68292671
_cell_angle_gamma   58.68293283
_symmetry_Int_Tables_number   1
_chemical_formula_structural   Tm2NiIr3
_chemical_formula_sum   'Tm2 Ni1 Ir3'
_cell_volume   102.55215249
_cell_formula_units_Z   1
loop_
 _symmetry_equiv_pos_site_id
 _symmetry_equiv_pos_as_xyz
  1  'x, y, z'
loop_
 _atom_site_type_symbol
 _atom_site_label
 _atom_site_symmetry_multiplicity
 _atom_site_fract_x
 _atom_site_fract_y
 _atom_site_fract_z
 _atom_site_occupancy
  Tm  Tm0  1  0.747240  0.750920  0.750920  1
  Tm  Tm1  1  0.502760  0.499080  0.499080  1
  Ni  Ni2  1  0.625000  0.125000  0.125000  1
  Ir  Ir3  1  0.125000  0.625000  0.125000  1
  Ir  Ir4  1  0.125000  0.125000  0.625000  1
  Ir  Ir5  1  0.125000  0.125000  0.125000  1
