# generated using pymatgen
data_ErPa3(SiOs)4
_symmetry_space_group_name_H-M   'P 1'
_cell_length_a   4.27244700
_cell_length_b   7.12100283
_cell_length_c   7.07067300
_cell_angle_alpha   89.73040079
_cell_angle_beta   90.00000000
_cell_angle_gamma   90.00000000
_symmetry_Int_Tables_number   1
_chemical_formula_structural   ErPa3(SiOs)4
_chemical_formula_sum   'Er1 Pa3 Si4 Os4'
_cell_volume   215.11653179
_cell_formula_units_Z   1
loop_
 _symmetry_equiv_pos_site_id
 _symmetry_equiv_pos_as_xyz
  1  'x, y, z'
loop_
 _atom_site_type_symbol
 _atom_site_label
 _atom_site_symmetry_multiplicity
 _atom_site_fract_x
 _atom_site_fract_y
 _atom_site_fract_z
 _atom_site_occupancy
  Er  Er0  1  0.750000  0.508797  0.320535  1
  Pa  Pa1  1  0.250000  0.990555  0.829017  1
  Pa  Pa2  1  0.750000  0.011036  0.172869  1
  Pa  Pa3  1  0.250000  0.488359  0.680305  1
  Si  Si4  1  0.250000  0.304967  0.120309  1
  Si  Si5  1  0.750000  0.704151  0.890407  1
  Si  Si6  1  0.250000  0.792000  0.388191  1
  Si  Si7  1  0.750000  0.204573  0.607263  1
  Os  Os8  1  0.750000  0.856762  0.566237  1
  Os  Os9  1  0.250000  0.140981  0.434744  1
  Os  Os10  1  0.750000  0.348269  0.930279  1
  Os  Os11  1  0.250000  0.649552  0.059844  1
