# generated using pymatgen
data_Tb3Dy(GaPd2)4
_symmetry_space_group_name_H-M   'P 1'
_cell_length_a   5.64267951
_cell_length_b   7.16461500
_cell_length_c   7.41055100
_cell_angle_alpha   90.00000000
_cell_angle_beta   89.95806397
_cell_angle_gamma   90.00000000
_symmetry_Int_Tables_number   1
_chemical_formula_structural   Tb3Dy(GaPd2)4
_chemical_formula_sum   'Tb3 Dy1 Ga4 Pd8'
_cell_volume   299.59090602
_cell_formula_units_Z   1
loop_
 _symmetry_equiv_pos_site_id
 _symmetry_equiv_pos_as_xyz
  1  'x, y, z'
loop_
 _atom_site_type_symbol
 _atom_site_label
 _atom_site_symmetry_multiplicity
 _atom_site_fract_x
 _atom_site_fract_y
 _atom_site_fract_z
 _atom_site_occupancy
  Tb  Tb0  1  0.354003  0.750000  0.030906  1
  Tb  Tb1  1  0.145699  0.750000  0.531020  1
  Tb  Tb2  1  0.646041  0.250000  0.968896  1
  Dy  Dy3  1  0.854308  0.250000  0.469158  1
  Ga  Ga4  1  0.644238  0.750000  0.385071  1
  Ga  Ga5  1  0.855801  0.750000  0.885137  1
  Ga  Ga6  1  0.356029  0.250000  0.614827  1
  Ga  Ga7  1  0.144150  0.250000  0.115205  1
  Pd  Pd8  1  0.910783  0.551095  0.183069  1
  Pd  Pd9  1  0.589366  0.948799  0.682933  1
  Pd  Pd10  1  0.088894  0.051418  0.816761  1
  Pd  Pd11  1  0.410823  0.448689  0.317128  1
  Pd  Pd12  1  0.088894  0.448582  0.816761  1
  Pd  Pd13  1  0.410823  0.051311  0.317128  1
  Pd  Pd14  1  0.910783  0.948905  0.183069  1
  Pd  Pd15  1  0.589366  0.551201  0.682933  1
