# generated using pymatgen
data_YEr2Lu7(Si5Ir2)4
_symmetry_space_group_name_H-M   'P 1'
_cell_length_a   12.56714300
_cell_length_b   12.56792138
_cell_length_c   4.21640800
_cell_angle_alpha   90.00000000
_cell_angle_beta   90.00000000
_cell_angle_gamma   89.90955152
_symmetry_Int_Tables_number   1
_chemical_formula_structural   YEr2Lu7(Si5Ir2)4
_chemical_formula_sum   'Y1 Er2 Lu7 Si20 Ir8'
_cell_volume   665.95073039
_cell_formula_units_Z   1
loop_
 _symmetry_equiv_pos_site_id
 _symmetry_equiv_pos_as_xyz
  1  'x, y, z'
loop_
 _atom_site_type_symbol
 _atom_site_label
 _atom_site_symmetry_multiplicity
 _atom_site_fract_x
 _atom_site_fract_y
 _atom_site_fract_z
 _atom_site_occupancy
  Y  Y0  1  0.616062  0.883908  0.500000  1
  Er  Er1  1  0.116199  0.616220  0.500000  1
  Er  Er2  1  0.383751  0.116227  0.500000  1
  Lu  Lu3  1  0.500271  0.499788  0.000000  1
  Lu  Lu4  1  0.999938  0.000340  0.000000  1
  Lu  Lu5  1  0.676248  0.176296  0.500000  1
  Lu  Lu6  1  0.323707  0.823811  0.500000  1
  Lu  Lu7  1  0.175659  0.324104  0.500000  1
  Lu  Lu8  1  0.824206  0.675590  0.500000  1
  Lu  Lu9  1  0.883326  0.383316  0.500000  1
  Si  Si10  1  0.566102  0.066234  0.000000  1
  Si  Si11  1  0.433777  0.933940  0.000000  1
  Si  Si12  1  0.065851  0.434258  0.000000  1
  Si  Si13  1  0.934304  0.565860  0.000000  1
  Si  Si14  1  0.663494  0.700634  0.000000  1
  Si  Si15  1  0.336489  0.298729  0.000000  1
  Si  Si16  1  0.163312  0.798751  0.000000  1
  Si  Si17  1  0.836509  0.201561  0.000000  1
  Si  Si18  1  0.298620  0.663214  0.000000  1
  Si  Si19  1  0.701417  0.336442  0.000000  1
  Si  Si20  1  0.200848  0.163658  0.000000  1
  Si  Si21  1  0.798995  0.836672  0.000000  1
  Si  Si22  1  0.654874  0.503097  0.500000  1
  Si  Si23  1  0.345638  0.496441  0.500000  1
  Si  Si24  1  0.154379  0.996944  0.500000  1
  Si  Si25  1  0.845685  0.003743  0.500000  1
  Si  Si26  1  0.496836  0.654279  0.500000  1
  Si  Si27  1  0.503722  0.345531  0.500000  1
  Si  Si28  1  0.003241  0.154873  0.500000  1
  Si  Si29  1  0.996515  0.845680  0.500000  1
  Ir  Ir30  1  0.746290  0.521212  0.000000  1
  Ir  Ir31  1  0.254473  0.477957  0.000000  1
  Ir  Ir32  1  0.245097  0.978312  0.000000  1
  Ir  Ir33  1  0.755606  0.022711  0.000000  1
  Ir  Ir34  1  0.477438  0.744267  0.000000  1
  Ir  Ir35  1  0.521871  0.254651  0.000000  1
  Ir  Ir36  1  0.021239  0.246228  0.000000  1
  Ir  Ir37  1  0.978010  0.754518  0.000000  1
