# generated using pymatgen
data_AcPm(BeSi)2
_symmetry_space_group_name_H-M   'P 1'
_cell_length_a   5.97322943
_cell_length_b   5.97322995
_cell_length_c   5.97323087
_cell_angle_alpha   140.83786557
_cell_angle_beta   108.69804360
_cell_angle_gamma   84.49442124
_symmetry_Int_Tables_number   1
_chemical_formula_structural   AcPm(BeSi)2
_chemical_formula_sum   'Ac1 Pm1 Be2 Si2'
_cell_volume   123.26710647
_cell_formula_units_Z   1
loop_
 _symmetry_equiv_pos_site_id
 _symmetry_equiv_pos_as_xyz
  1  'x, y, z'
loop_
 _atom_site_type_symbol
 _atom_site_label
 _atom_site_symmetry_multiplicity
 _atom_site_fract_x
 _atom_site_fract_y
 _atom_site_fract_z
 _atom_site_occupancy
  Ac  Ac0  1  0.999741  0.000000  0.999741  1
  Pm  Pm1  1  0.500042  0.500000  0.000042  1
  Be  Be2  1  0.578257  0.244912  0.333346  1
  Be  Be3  1  0.088435  0.755088  0.333346  1
  Si  Si4  1  0.912191  0.245429  0.666762  1
  Si  Si5  1  0.421335  0.754571  0.666762  1
