# generated using pymatgen
data_ErZnGa3Ni
_symmetry_space_group_name_H-M   'P 1'
_cell_length_a   7.87432060
_cell_length_b   7.87431963
_cell_length_c   6.50175600
_cell_angle_alpha   90.00000000
_cell_angle_beta   90.00000000
_cell_angle_gamma   149.94149972
_symmetry_Int_Tables_number   1
_chemical_formula_structural   ErZnGa3Ni
_chemical_formula_sum   'Er2 Zn2 Ga6 Ni2'
_cell_volume   201.92678619
_cell_formula_units_Z   2
loop_
 _symmetry_equiv_pos_site_id
 _symmetry_equiv_pos_as_xyz
  1  'x, y, z'
loop_
 _atom_site_type_symbol
 _atom_site_label
 _atom_site_symmetry_multiplicity
 _atom_site_fract_x
 _atom_site_fract_y
 _atom_site_fract_z
 _atom_site_occupancy
  Er  Er0  1  0.875261  0.124739  0.750000  1
  Er  Er1  1  0.124739  0.875261  0.250000  1
  Zn  Zn2  1  0.500000  0.500000  0.000000  1
  Zn  Zn3  1  0.500000  0.500000  0.500000  1
  Ga  Ga4  1  0.067409  0.932591  0.750000  1
  Ga  Ga5  1  0.932591  0.067409  0.250000  1
  Ga  Ga6  1  0.682614  0.317386  0.949597  1
  Ga  Ga7  1  0.317386  0.682614  0.050403  1
  Ga  Ga8  1  0.682614  0.317386  0.550403  1
  Ga  Ga9  1  0.317386  0.682614  0.449597  1
  Ni  Ni10  1  0.222872  0.777128  0.750000  1
  Ni  Ni11  1  0.777128  0.222872  0.250000  1
