# generated using pymatgen
data_DyHo(OsO3)6
_symmetry_space_group_name_H-M   'P 1'
_cell_length_a   7.36531900
_cell_length_b   5.19567715
_cell_length_c   8.21584932
_cell_angle_alpha   85.44035208
_cell_angle_beta   90.00000000
_cell_angle_gamma   90.00000000
_symmetry_Int_Tables_number   1
_chemical_formula_structural   DyHo(OsO3)6
_chemical_formula_sum   'Dy1 Ho1 Os6 O18'
_cell_volume   313.40759135
_cell_formula_units_Z   1
loop_
 _symmetry_equiv_pos_site_id
 _symmetry_equiv_pos_as_xyz
  1  'x, y, z'
loop_
 _atom_site_type_symbol
 _atom_site_label
 _atom_site_symmetry_multiplicity
 _atom_site_fract_x
 _atom_site_fract_y
 _atom_site_fract_z
 _atom_site_occupancy
  Dy  Dy0  1  0.250000  0.972007  0.427271  1
  Ho  Ho1  1  0.750000  0.028858  0.572508  1
  Os  Os2  1  0.999871  0.000178  0.999889  1
  Os  Os3  1  0.500129  0.000178  0.999889  1
  Os  Os4  1  0.495706  0.538841  0.692507  1
  Os  Os5  1  0.004294  0.538841  0.692507  1
  Os  Os6  1  0.995148  0.461726  0.307753  1
  Os  Os7  1  0.504852  0.461726  0.307753  1
  O  O8  1  0.250000  0.899160  0.983756  1
  O  O9  1  0.933622  0.852811  0.788844  1
  O  O10  1  0.566378  0.852811  0.788844  1
  O  O11  1  0.958668  0.741109  0.471296  1
  O  O12  1  0.541332  0.741109  0.471296  1
  O  O13  1  0.250000  0.666370  0.664193  1
  O  O14  1  0.955580  0.685239  0.122025  1
  O  O15  1  0.544420  0.685239  0.122025  1
  O  O16  1  0.250000  0.584311  0.313096  1
  O  O17  1  0.750000  0.414049  0.687186  1
  O  O18  1  0.044315  0.315216  0.877752  1
  O  O19  1  0.455685  0.315216  0.877752  1
  O  O20  1  0.750000  0.330954  0.336572  1
  O  O21  1  0.039772  0.258694  0.529270  1
  O  O22  1  0.460228  0.258694  0.529270  1
  O  O23  1  0.065757  0.147807  0.210436  1
  O  O24  1  0.434243  0.147807  0.210436  1
  O  O25  1  0.750000  0.101047  0.015874  1
