# generated using pymatgen
data_Lu8Sc2Ge6C
_symmetry_space_group_name_H-M   'P 1'
_cell_length_a   8.25961100
_cell_length_b   8.25961129
_cell_length_c   6.14728400
_cell_angle_alpha   90.00000000
_cell_angle_beta   90.00000000
_cell_angle_gamma   120.00000284
_symmetry_Int_Tables_number   1
_chemical_formula_structural   Lu8Sc2Ge6C
_chemical_formula_sum   'Lu8 Sc2 Ge6 C1'
_cell_volume   363.18934608
_cell_formula_units_Z   1
loop_
 _symmetry_equiv_pos_site_id
 _symmetry_equiv_pos_as_xyz
  1  'x, y, z'
loop_
 _atom_site_type_symbol
 _atom_site_label
 _atom_site_symmetry_multiplicity
 _atom_site_fract_x
 _atom_site_fract_y
 _atom_site_fract_z
 _atom_site_occupancy
  Lu  Lu0  1  0.000000  0.766132  0.269574  1
  Lu  Lu1  1  0.233868  0.233868  0.269574  1
  Lu  Lu2  1  0.766132  0.000000  0.269574  1
  Lu  Lu3  1  0.000000  0.233868  0.730426  1
  Lu  Lu4  1  0.766132  0.766132  0.730426  1
  Lu  Lu5  1  0.233868  0.000000  0.730426  1
  Lu  Lu6  1  0.333333  0.666667  0.000000  1
  Lu  Lu7  1  0.666667  0.333333  0.000000  1
  Sc  Sc8  1  0.666667  0.333333  0.500000  1
  Sc  Sc9  1  0.333333  0.666667  0.500000  1
  Ge  Ge10  1  0.000000  0.400734  0.255376  1
  Ge  Ge11  1  0.599266  0.599266  0.255376  1
  Ge  Ge12  1  0.400734  0.000000  0.255376  1
  Ge  Ge13  1  0.000000  0.599266  0.744624  1
  Ge  Ge14  1  0.400734  0.400734  0.744624  1
  Ge  Ge15  1  0.599266  0.000000  0.744624  1
  C  C16  1  0.000000  0.000000  0.500000  1
