# generated using pymatgen
data_LiTi2(AgO2)3
_symmetry_space_group_name_H-M   'P 1'
_cell_length_a   5.27795038
_cell_length_b   5.28343439
_cell_length_c   6.51812097
_cell_angle_alpha   74.38629742
_cell_angle_beta   97.74212398
_cell_angle_gamma   120.03437361
_symmetry_Int_Tables_number   1
_chemical_formula_structural   LiTi2(AgO2)3
_chemical_formula_sum   'Li1 Ti2 Ag3 O6'
_cell_volume   151.54957453
_cell_formula_units_Z   1
loop_
 _symmetry_equiv_pos_site_id
 _symmetry_equiv_pos_as_xyz
  1  'x, y, z'
loop_
 _atom_site_type_symbol
 _atom_site_label
 _atom_site_symmetry_multiplicity
 _atom_site_fract_x
 _atom_site_fract_y
 _atom_site_fract_z
 _atom_site_occupancy
  Li  Li0  1  0.333333  0.166667  0.500000  1
  Ti  Ti1  1  0.999771  0.499885  0.500000  1
  Ti  Ti2  1  0.666896  0.833448  0.500000  1
  Ag  Ag3  1  0.667899  0.333948  0.000000  1
  Ag  Ag4  1  0.333333  0.666667  0.000000  1
  Ag  Ag5  1  0.998768  0.999385  0.000000  1
  O  O6  1  0.333333  0.749501  0.665421  1
  O  O7  1  0.973254  0.112625  0.664598  1
  O  O8  1  0.693413  0.472704  0.664598  1
  O  O9  1  0.693413  0.220708  0.335402  1
  O  O10  1  0.333333  0.583833  0.334579  1
  O  O11  1  0.973254  0.860629  0.335402  1
