# generated using pymatgen
data_Yb2Y2FeRu7
_symmetry_space_group_name_H-M   'P 1'
_cell_length_a   5.31346700
_cell_length_b   5.21699350
_cell_length_c   8.82118178
_cell_angle_alpha   89.74610659
_cell_angle_beta   90.00000000
_cell_angle_gamma   120.61363105
_symmetry_Int_Tables_number   1
_chemical_formula_structural   Yb2Y2FeRu7
_chemical_formula_sum   'Yb2 Y2 Fe1 Ru7'
_cell_volume   210.44140195
_cell_formula_units_Z   1
loop_
 _symmetry_equiv_pos_site_id
 _symmetry_equiv_pos_as_xyz
  1  'x, y, z'
loop_
 _atom_site_type_symbol
 _atom_site_label
 _atom_site_symmetry_multiplicity
 _atom_site_fract_x
 _atom_site_fract_y
 _atom_site_fract_z
 _atom_site_occupancy
  Yb  Yb0  1  0.330346  0.660693  0.440093  1
  Yb  Yb1  1  0.667698  0.335397  0.559814  1
  Y  Y2  1  0.669215  0.338429  0.927518  1
  Y  Y3  1  0.331584  0.663170  0.071817  1
  Fe  Fe4  1  0.166194  0.332389  0.750847  1
  Ru  Ru5  1  0.177313  0.830933  0.748900  1
  Ru  Ru6  1  0.346020  0.170234  0.249896  1
  Ru  Ru7  1  0.834071  0.668142  0.250591  1
  Ru  Ru8  1  0.653620  0.830933  0.748900  1
  Ru  Ru9  1  0.001989  0.003977  0.996758  1
  Ru  Ru10  1  0.824212  0.170234  0.249896  1
  Ru  Ru11  1  0.997736  0.995472  0.504970  1
