# generated using pymatgen
data_Ho2URu3
_symmetry_space_group_name_H-M   'P 1'
_cell_length_a   5.84449307
_cell_length_b   5.84449003
_cell_length_c   7.95449900
_cell_angle_alpha   90.00000000
_cell_angle_beta   90.00000000
_cell_angle_gamma   120.00391564
_symmetry_Int_Tables_number   1
_chemical_formula_structural   Ho2URu3
_chemical_formula_sum   'Ho4 U2 Ru6'
_cell_volume   235.29884527
_cell_formula_units_Z   2
loop_
 _symmetry_equiv_pos_site_id
 _symmetry_equiv_pos_as_xyz
  1  'x, y, z'
loop_
 _atom_site_type_symbol
 _atom_site_label
 _atom_site_symmetry_multiplicity
 _atom_site_fract_x
 _atom_site_fract_y
 _atom_site_fract_z
 _atom_site_occupancy
  Ho  Ho0  1  0.666669  0.333331  0.556527  1
  Ho  Ho1  1  0.333331  0.666669  0.443473  1
  Ho  Ho2  1  0.333331  0.666669  0.056527  1
  Ho  Ho3  1  0.666669  0.333331  0.943473  1
  U  U4  1  0.000000  0.000000  0.500000  1
  U  U5  1  0.000000  0.000000  0.000000  1
  Ru  Ru6  1  0.165030  0.329996  0.750000  1
  Ru  Ru7  1  0.165030  0.834970  0.750000  1
  Ru  Ru8  1  0.670004  0.834970  0.750000  1
  Ru  Ru9  1  0.834970  0.670004  0.250000  1
  Ru  Ru10  1  0.834970  0.165030  0.250000  1
  Ru  Ru11  1  0.329996  0.165030  0.250000  1
