# generated using pymatgen
data_Dy4Ho2Al24Os7Au
_symmetry_space_group_name_H-M   'P 1'
_cell_length_a   8.87206860
_cell_length_b   8.87206958
_cell_length_c   9.57170962
_cell_angle_alpha   89.80051360
_cell_angle_beta   90.19948660
_cell_angle_gamma   119.98105220
_symmetry_Int_Tables_number   1
_chemical_formula_structural   Dy4Ho2Al24Os7Au
_chemical_formula_sum   'Dy4 Ho2 Al24 Os7 Au1'
_cell_volume   652.60343383
_cell_formula_units_Z   1
loop_
 _symmetry_equiv_pos_site_id
 _symmetry_equiv_pos_as_xyz
  1  'x, y, z'
loop_
 _atom_site_type_symbol
 _atom_site_label
 _atom_site_symmetry_multiplicity
 _atom_site_fract_x
 _atom_site_fract_y
 _atom_site_fract_z
 _atom_site_occupancy
  Dy  Dy0  1  0.190482  0.386290  0.251083  1
  Dy  Dy1  1  0.809518  0.613710  0.748917  1
  Dy  Dy2  1  0.613710  0.809518  0.251083  1
  Dy  Dy3  1  0.386290  0.190482  0.748917  1
  Ho  Ho4  1  0.194836  0.805164  0.254184  1
  Ho  Ho5  1  0.805164  0.194836  0.745816  1
  Al  Al6  1  0.328490  0.671510  0.022322  1
  Al  Al7  1  0.671510  0.328490  0.977678  1
  Al  Al8  1  0.666209  0.333791  0.518060  1
  Al  Al9  1  0.333791  0.666209  0.481940  1
  Al  Al10  1  0.162679  0.325847  0.575411  1
  Al  Al11  1  0.837321  0.674153  0.424589  1
  Al  Al12  1  0.674153  0.837321  0.575411  1
  Al  Al13  1  0.848555  0.677631  0.079464  1
  Al  Al14  1  0.325847  0.162679  0.424589  1
  Al  Al15  1  0.151445  0.322369  0.920536  1
  Al  Al16  1  0.163191  0.836809  0.575286  1
  Al  Al17  1  0.322369  0.151445  0.079464  1
  Al  Al18  1  0.836809  0.163191  0.424714  1
  Al  Al19  1  0.677631  0.848555  0.920536  1
  Al  Al20  1  0.836680  0.163320  0.075367  1
  Al  Al21  1  0.163320  0.836680  0.924633  1
  Al  Al22  1  0.560812  0.121490  0.249266  1
  Al  Al23  1  0.439188  0.878510  0.750734  1
  Al  Al24  1  0.878510  0.439188  0.249266  1
  Al  Al25  1  0.121490  0.560812  0.750734  1
  Al  Al26  1  0.563817  0.436183  0.255766  1
  Al  Al27  1  0.436183  0.563817  0.744234  1
  Al  Al28  1  0.999766  0.000234  0.250384  1
  Al  Al29  1  0.000234  0.999766  0.749616  1
  Os  Os30  1  0.500000  0.000000  0.000000  1
  Os  Os31  1  0.000000  0.500000  0.000000  1
  Os  Os32  1  0.500000  0.000000  0.500000  1
  Os  Os33  1  0.000000  0.500000  0.500000  1
  Os  Os34  1  0.500000  0.500000  0.500000  1
  Os  Os35  1  0.000000  0.000000  0.000000  1
  Os  Os36  1  0.000000  0.000000  0.500000  1
  Au  Au37  1  0.500000  0.500000  0.000000  1
