# generated using pymatgen
data_Y3TmSc6(GaSi3)2
_symmetry_space_group_name_H-M   'P 1'
_cell_length_a   7.12990793
_cell_length_b   7.40842221
_cell_length_c   14.14476249
_cell_angle_alpha   89.97047791
_cell_angle_beta   89.84271679
_cell_angle_gamma   90.17821811
_symmetry_Int_Tables_number   1
_chemical_formula_structural   Y3TmSc6(GaSi3)2
_chemical_formula_sum   'Y6 Tm2 Sc12 Ga4 Si12'
_cell_volume   747.13917661
_cell_formula_units_Z   2
loop_
 _symmetry_equiv_pos_site_id
 _symmetry_equiv_pos_as_xyz
  1  'x, y, z'
loop_
 _atom_site_type_symbol
 _atom_site_label
 _atom_site_symmetry_multiplicity
 _atom_site_fract_x
 _atom_site_fract_y
 _atom_site_fract_z
 _atom_site_occupancy
  Y  Y0  1  0.012960  0.174228  0.097155  1
  Y  Y1  1  0.988745  0.825493  0.901610  1
  Y  Y2  1  0.487377  0.676429  0.901841  1
  Y  Y3  1  0.988113  0.827809  0.600297  1
  Y  Y4  1  0.510217  0.321931  0.096801  1
  Y  Y5  1  0.009344  0.174361  0.400613  1
  Tm  Tm6  1  0.510390  0.323958  0.400106  1
  Tm  Tm7  1  0.491027  0.676194  0.601146  1
  Sc  Sc8  1  0.163294  0.500281  0.751149  1
  Sc  Sc9  1  0.836117  0.498958  0.250360  1
  Sc  Sc10  1  0.335971  0.001241  0.248662  1
  Sc  Sc11  1  0.663832  0.999125  0.749733  1
  Sc  Sc12  1  0.334853  0.175369  0.628027  1
  Sc  Sc13  1  0.668051  0.825984  0.373601  1
  Sc  Sc14  1  0.170191  0.672916  0.372980  1
  Sc  Sc15  1  0.668302  0.826294  0.125845  1
  Sc  Sc16  1  0.828800  0.325301  0.626755  1
  Sc  Sc17  1  0.330908  0.175731  0.874328  1
  Sc  Sc18  1  0.829087  0.323962  0.874096  1
  Sc  Sc19  1  0.173336  0.674715  0.124554  1
  Ga  Ga20  1  0.163737  0.461231  0.539875  1
  Ga  Ga21  1  0.837388  0.538480  0.461316  1
  Ga  Ga22  1  0.340361  0.960443  0.461745  1
  Ga  Ga23  1  0.840364  0.539424  0.038817  1
  Si  Si24  1  0.033775  0.117869  0.751204  1
  Si  Si25  1  0.966505  0.882322  0.249088  1
  Si  Si26  1  0.467268  0.614186  0.248938  1
  Si  Si27  1  0.533276  0.385719  0.750792  1
  Si  Si28  1  0.287691  0.872034  0.750330  1
  Si  Si29  1  0.713155  0.127958  0.249293  1
  Si  Si30  1  0.214541  0.372548  0.249261  1
  Si  Si31  1  0.786137  0.628090  0.750940  1
  Si  Si32  1  0.656773  0.036980  0.539294  1
  Si  Si33  1  0.157030  0.462622  0.960619  1
  Si  Si34  1  0.656042  0.036742  0.961135  1
  Si  Si35  1  0.345045  0.963073  0.037697  1
