# generated using pymatgen
data_Sr21Li(Al4Sn3)2
_symmetry_space_group_name_H-M   'P 1'
_cell_length_a   12.27175339
_cell_length_b   12.27277597
_cell_length_c   12.27208329
_cell_angle_alpha   59.98013934
_cell_angle_beta   59.97987730
_cell_angle_gamma   59.98322376
_symmetry_Int_Tables_number   1
_chemical_formula_structural   Sr21Li(Al4Sn3)2
_chemical_formula_sum   'Sr21 Li1 Al8 Sn6'
_cell_volume   1306.37049811
_cell_formula_units_Z   1
loop_
 _symmetry_equiv_pos_site_id
 _symmetry_equiv_pos_as_xyz
  1  'x, y, z'
loop_
 _atom_site_type_symbol
 _atom_site_label
 _atom_site_symmetry_multiplicity
 _atom_site_fract_x
 _atom_site_fract_y
 _atom_site_fract_z
 _atom_site_occupancy
  Sr  Sr0  1  0.870944  0.870940  0.387248  1
  Sr  Sr1  1  0.612625  0.129143  0.129074  1
  Sr  Sr2  1  0.870964  0.387206  0.870954  1
  Sr  Sr3  1  0.129101  0.129175  0.129092  1
  Sr  Sr4  1  0.387251  0.870948  0.870943  1
  Sr  Sr5  1  0.870918  0.870918  0.870924  1
  Sr  Sr6  1  0.171670  0.828260  0.500037  1
  Sr  Sr7  1  0.828339  0.500124  0.500079  1
  Sr  Sr8  1  0.129073  0.129153  0.612625  1
  Sr  Sr9  1  0.828579  0.171294  0.500062  1
  Sr  Sr10  1  0.171525  0.500058  0.500006  1
  Sr  Sr11  1  0.129105  0.612586  0.129115  1
  Sr  Sr12  1  0.500010  0.500058  0.171530  1
  Sr  Sr13  1  0.500064  0.171282  0.828593  1
  Sr  Sr14  1  0.500034  0.828265  0.171664  1
  Sr  Sr15  1  0.500073  0.500125  0.828334  1
  Sr  Sr16  1  0.500032  0.171373  0.500029  1
  Sr  Sr17  1  0.171443  0.500091  0.828422  1
  Sr  Sr18  1  0.000082  0.999757  0.000081  1
  Sr  Sr19  1  0.500066  0.828188  0.500069  1
  Sr  Sr20  1  0.828420  0.500090  0.171446  1
  Li  Li21  1  0.499996  0.500000  0.499998  1
  Al  Al22  1  0.694490  0.916663  0.694487  1
  Al  Al23  1  0.694472  0.694368  0.916817  1
  Al  Al24  1  0.694419  0.694315  0.694418  1
  Al  Al25  1  0.305487  0.083408  0.305489  1
  Al  Al26  1  0.916819  0.694369  0.694470  1
  Al  Al27  1  0.305395  0.305886  0.083198  1
  Al  Al28  1  0.083199  0.305885  0.305396  1
  Al  Al29  1  0.305446  0.305942  0.305446  1
  Sn  Sn30  1  0.784056  0.215905  0.784058  1
  Sn  Sn31  1  0.784110  0.215954  0.215927  1
  Sn  Sn32  1  0.215910  0.784139  0.215906  1
  Sn  Sn33  1  0.215854  0.784091  0.784100  1
  Sn  Sn34  1  0.784098  0.784087  0.215857  1
  Sn  Sn35  1  0.215931  0.215956  0.784106  1
