# generated using pymatgen
data_Dy16MgCo(NiAg)3
_symmetry_space_group_name_H-M   'P 1'
_cell_length_a   9.46414523
_cell_length_b   9.47029290
_cell_length_c   9.47029200
_cell_angle_alpha   60.00000314
_cell_angle_beta   59.97851305
_cell_angle_gamma   59.97851213
_symmetry_Int_Tables_number   1
_chemical_formula_structural   Dy16MgCo(NiAg)3
_chemical_formula_sum   'Dy16 Mg1 Co1 Ni3 Ag3'
_cell_volume   600.00112140
_cell_formula_units_Z   1
loop_
 _symmetry_equiv_pos_site_id
 _symmetry_equiv_pos_as_xyz
  1  'x, y, z'
loop_
 _atom_site_type_symbol
 _atom_site_label
 _atom_site_symmetry_multiplicity
 _atom_site_fract_x
 _atom_site_fract_y
 _atom_site_fract_z
 _atom_site_occupancy
  Dy  Dy0  1  0.806926  0.188903  0.188903  1
  Dy  Dy1  1  0.186254  0.812942  0.812942  1
  Dy  Dy2  1  0.186254  0.812942  0.187863  1
  Dy  Dy3  1  0.806926  0.188903  0.815267  1
  Dy  Dy4  1  0.186254  0.187863  0.812942  1
  Dy  Dy5  1  0.806926  0.815267  0.188903  1
  Dy  Dy6  1  0.933568  0.565309  0.565309  1
  Dy  Dy7  1  0.565648  0.935126  0.935126  1
  Dy  Dy8  1  0.565648  0.935126  0.564099  1
  Dy  Dy9  1  0.933568  0.565309  0.935815  1
  Dy  Dy10  1  0.565648  0.564099  0.935126  1
  Dy  Dy11  1  0.933568  0.935815  0.565309  1
  Dy  Dy12  1  0.350205  0.346153  0.346153  1
  Dy  Dy13  1  0.350205  0.346153  0.957487  1
  Dy  Dy14  1  0.350205  0.957487  0.346153  1
  Dy  Dy15  1  0.941978  0.352674  0.352674  1
  Mg  Mg16  1  0.289096  0.570301  0.570301  1
  Co  Co17  1  0.573755  0.142081  0.142081  1
  Ni  Ni18  1  0.138995  0.143864  0.143864  1
  Ni  Ni19  1  0.138995  0.143864  0.573276  1
  Ni  Ni20  1  0.138995  0.573276  0.143864  1
  Ag  Ag21  1  0.583459  0.583480  0.583480  1
  Ag  Ag22  1  0.583459  0.583480  0.249581  1
  Ag  Ag23  1  0.583459  0.249581  0.583480  1
