# generated using pymatgen
data_Tb2Y11Th7Sn16
_symmetry_space_group_name_H-M   'P 1'
_cell_length_a   8.12936726
_cell_length_b   8.24299181
_cell_length_c   15.57393168
_cell_angle_alpha   90.03948209
_cell_angle_beta   90.38757638
_cell_angle_gamma   89.87891961
_symmetry_Int_Tables_number   1
_chemical_formula_structural   Tb2Y11Th7Sn16
_chemical_formula_sum   'Tb2 Y11 Th7 Sn16'
_cell_volume   1043.58750915
_cell_formula_units_Z   1
loop_
 _symmetry_equiv_pos_site_id
 _symmetry_equiv_pos_as_xyz
  1  'x, y, z'
loop_
 _atom_site_type_symbol
 _atom_site_label
 _atom_site_symmetry_multiplicity
 _atom_site_fract_x
 _atom_site_fract_y
 _atom_site_fract_z
 _atom_site_occupancy
  Tb  Tb0  1  0.361263  0.834212  0.876947  1
  Tb  Tb1  1  0.858557  0.664095  0.623344  1
  Y  Y2  1  0.641388  0.164194  0.375847  1
  Y  Y3  1  0.137286  0.336212  0.123549  1
  Y  Y4  1  0.638176  0.163343  0.122933  1
  Y  Y5  1  0.141962  0.336830  0.376331  1
  Y  Y6  1  0.357605  0.838224  0.624855  1
  Y  Y7  1  0.861894  0.662666  0.876243  1
  Y  Y8  1  0.524543  0.325417  0.900435  1
  Y  Y9  1  0.189254  0.498484  0.750207  1
  Y  Y10  1  0.689748  0.001874  0.750376  1
  Y  Y11  1  0.810094  0.501756  0.249776  1
  Y  Y12  1  0.309957  0.997528  0.250506  1
  Th  Th13  1  0.017691  0.179463  0.596343  1
  Th  Th14  1  0.483624  0.678689  0.403959  1
  Th  Th15  1  0.980265  0.821092  0.096224  1
  Th  Th16  1  0.481630  0.678872  0.097396  1
  Th  Th17  1  0.983896  0.821541  0.404835  1
  Th  Th18  1  0.515321  0.320810  0.594813  1
  Th  Th19  1  0.017160  0.177156  0.904087  1
  Sn  Sn20  1  0.296904  0.035778  0.043355  1
  Sn  Sn21  1  0.801004  0.460222  0.457997  1
  Sn  Sn22  1  0.698448  0.962501  0.541767  1
  Sn  Sn23  1  0.205465  0.533174  0.957517  1
  Sn  Sn24  1  0.700457  0.961545  0.957754  1
  Sn  Sn25  1  0.199740  0.541290  0.541233  1
  Sn  Sn26  1  0.301170  0.039425  0.458549  1
  Sn  Sn27  1  0.796317  0.460401  0.041181  1
  Sn  Sn28  1  0.556633  0.620146  0.749111  1
  Sn  Sn29  1  0.055863  0.880484  0.750524  1
  Sn  Sn30  1  0.443034  0.378616  0.249400  1
  Sn  Sn31  1  0.943314  0.120800  0.249954  1
  Sn  Sn32  1  0.326217  0.146774  0.752010  1
  Sn  Sn33  1  0.823672  0.356148  0.749850  1
  Sn  Sn34  1  0.676371  0.856794  0.250534  1
  Sn  Sn35  1  0.174074  0.643442  0.250255  1
