# generated using pymatgen
data_Sc8TaTi8Si16W3
_symmetry_space_group_name_H-M   'P 1'
_cell_length_a   6.64081829
_cell_length_b   6.78662988
_cell_length_c   12.98154200
_cell_angle_alpha   90.00000000
_cell_angle_beta   90.00000000
_cell_angle_gamma   90.04423574
_symmetry_Int_Tables_number   1
_chemical_formula_structural   Sc8TaTi8Si16W3
_chemical_formula_sum   'Sc8 Ta1 Ti8 Si16 W3'
_cell_volume   585.06203219
_cell_formula_units_Z   1
loop_
 _symmetry_equiv_pos_site_id
 _symmetry_equiv_pos_as_xyz
  1  'x, y, z'
loop_
 _atom_site_type_symbol
 _atom_site_label
 _atom_site_symmetry_multiplicity
 _atom_site_fract_x
 _atom_site_fract_y
 _atom_site_fract_z
 _atom_site_occupancy
  Sc  Sc0  1  0.500842  0.674955  0.595215  1
  Sc  Sc1  1  0.001404  0.826259  0.904801  1
  Sc  Sc2  1  0.499323  0.325203  0.096180  1
  Sc  Sc3  1  0.999444  0.174234  0.403735  1
  Sc  Sc4  1  0.499323  0.325203  0.403820  1
  Sc  Sc5  1  0.999444  0.174234  0.096265  1
  Sc  Sc6  1  0.500842  0.674955  0.904785  1
  Sc  Sc7  1  0.001404  0.826259  0.595199  1
  Ta  Ta8  1  0.838255  0.492151  0.750000  1
  Ti  Ti9  1  0.663930  0.172601  0.626260  1
  Ti  Ti10  1  0.164999  0.325786  0.873973  1
  Ti  Ti11  1  0.334339  0.827324  0.126639  1
  Ti  Ti12  1  0.835031  0.672682  0.373105  1
  Ti  Ti13  1  0.334339  0.827324  0.373361  1
  Ti  Ti14  1  0.835031  0.672682  0.126895  1
  Ti  Ti15  1  0.663930  0.172601  0.873740  1
  Ti  Ti16  1  0.164999  0.325786  0.626027  1
  Si  Si17  1  0.666201  0.964297  0.459011  1
  Si  Si18  1  0.165748  0.534979  0.041137  1
  Si  Si19  1  0.334507  0.035571  0.959525  1
  Si  Si20  1  0.834432  0.464646  0.539429  1
  Si  Si21  1  0.334507  0.035571  0.540475  1
  Si  Si22  1  0.834432  0.464646  0.960571  1
  Si  Si23  1  0.666201  0.964297  0.040989  1
  Si  Si24  1  0.165748  0.534979  0.458863  1
  Si  Si25  1  0.460797  0.382920  0.750000  1
  Si  Si26  1  0.963680  0.114813  0.750000  1
  Si  Si27  1  0.536133  0.615987  0.250000  1
  Si  Si28  1  0.036324  0.884697  0.250000  1
  Si  Si29  1  0.703508  0.863826  0.750000  1
  Si  Si30  1  0.206693  0.639442  0.750000  1
  Si  Si31  1  0.296462  0.138461  0.250000  1
  Si  Si32  1  0.796205  0.361601  0.250000  1
  W  W33  1  0.338973  0.008625  0.750000  1
  W  W34  1  0.161464  0.509158  0.250000  1
  W  W35  1  0.661101  0.991249  0.250000  1
