# generated using pymatgen
data_BaMnAs4F24
_symmetry_space_group_name_H-M   'P 1'
_cell_length_a   10.09434956
_cell_length_b   10.09485532
_cell_length_c   10.09470696
_cell_angle_alpha   133.54793874
_cell_angle_beta   133.54757473
_cell_angle_gamma   67.79833325
_symmetry_Int_Tables_number   1
_chemical_formula_structural   BaMnAs4F24
_chemical_formula_sum   'Ba1 Mn1 As4 F24'
_cell_volume   531.13953683
_cell_formula_units_Z   1
loop_
 _symmetry_equiv_pos_site_id
 _symmetry_equiv_pos_as_xyz
  1  'x, y, z'
loop_
 _atom_site_type_symbol
 _atom_site_label
 _atom_site_symmetry_multiplicity
 _atom_site_fract_x
 _atom_site_fract_y
 _atom_site_fract_z
 _atom_site_occupancy
  Ba  Ba0  1  0.750021  0.249998  0.500019  1
  Mn  Mn1  1  0.999977  0.999994  0.999981  1
  As  As2  1  0.796851  0.796858  0.000004  1
  As  As3  1  0.203157  0.203148  0.000019  1
  As  As4  1  0.982120  0.482130  0.499999  1
  As  As5  1  0.517873  0.017867  0.499980  1
  F  F6  1  0.867097  0.803414  0.217862  1
  F  F7  1  0.585531  0.649242  0.782123  1
  F  F8  1  0.420932  0.790642  0.317211  1
  F  F9  1  0.350775  0.132905  0.936330  1
  F  F10  1  0.196598  0.414447  0.063696  1
  F  F11  1  0.209356  0.526609  0.630314  1
  F  F12  1  0.621896  0.246580  0.675547  1
  F  F13  1  0.753407  0.428950  0.375295  1
  F  F14  1  0.053674  0.378132  0.624720  1
  F  F15  1  0.057833  0.259015  0.070340  1
  F  F16  1  0.188687  0.987510  0.929690  1
  F  F17  1  0.571040  0.946329  0.324442  1
  F  F18  1  0.740996  0.811317  0.798821  1
  F  F19  1  0.012514  0.942192  0.201212  1
  F  F20  1  0.295346  0.059835  0.312520  1
  F  F21  1  0.940141  0.252696  0.235501  1
  F  F22  1  0.017206  0.704649  0.764502  1
  F  F23  1  0.400632  0.303723  0.302257  1
  F  F24  1  0.001467  0.098365  0.697768  1
  F  F25  1  0.747290  0.982800  0.687438  1
  F  F26  1  0.696304  0.998526  0.096914  1
  F  F27  1  0.901616  0.599405  0.903098  1
  F  F28  1  0.473386  0.103700  0.682721  1
  F  F29  1  0.896278  0.579020  0.369676  1
