# generated using pymatgen
data_NaSrCuF6
_symmetry_space_group_name_H-M   'P 1'
_cell_length_a   5.45202900
_cell_length_b   9.41492500
_cell_length_c   10.37331000
_cell_angle_alpha   90.00000000
_cell_angle_beta   90.00000000
_cell_angle_gamma   90.00000000
_symmetry_Int_Tables_number   1
_chemical_formula_structural   NaSrCuF6
_chemical_formula_sum   'Na4 Sr4 Cu4 F24'
_cell_volume   532.46660943
_cell_formula_units_Z   4
loop_
 _symmetry_equiv_pos_site_id
 _symmetry_equiv_pos_as_xyz
  1  'x, y, z'
loop_
 _atom_site_type_symbol
 _atom_site_label
 _atom_site_symmetry_multiplicity
 _atom_site_fract_x
 _atom_site_fract_y
 _atom_site_fract_z
 _atom_site_occupancy
  Na  Na0  1  0.042279  0.649488  0.086351  1
  Na  Na1  1  0.457721  0.350512  0.586351  1
  Na  Na2  1  0.957721  0.149488  0.413649  1
  Na  Na3  1  0.542279  0.850512  0.913649  1
  Sr  Sr4  1  0.508969  0.316830  0.173877  1
  Sr  Sr5  1  0.991031  0.683170  0.673877  1
  Sr  Sr6  1  0.491031  0.816830  0.326123  1
  Sr  Sr7  1  0.008969  0.183170  0.826123  1
  Cu  Cu8  1  0.037061  0.999736  0.127640  1
  Cu  Cu9  1  0.462939  0.000264  0.627640  1
  Cu  Cu10  1  0.962939  0.499736  0.372360  1
  Cu  Cu11  1  0.537061  0.500264  0.872360  1
  F  F12  1  0.213756  0.141466  0.585425  1
  F  F13  1  0.286244  0.858534  0.085425  1
  F  F14  1  0.786244  0.641466  0.914575  1
  F  F15  1  0.713756  0.358534  0.414575  1
  F  F16  1  0.209457  0.622961  0.300737  1
  F  F17  1  0.290543  0.377039  0.800737  1
  F  F18  1  0.790543  0.122961  0.199263  1
  F  F19  1  0.709457  0.877039  0.699263  1
  F  F20  1  0.216168  0.157736  0.050785  1
  F  F21  1  0.283832  0.842264  0.550785  1
  F  F22  1  0.783832  0.657736  0.449215  1
  F  F23  1  0.716168  0.342264  0.949215  1
  F  F24  1  0.152160  0.341060  0.311176  1
  F  F25  1  0.347840  0.658940  0.811176  1
  F  F26  1  0.847840  0.841060  0.188824  1
  F  F27  1  0.652160  0.158940  0.688824  1
  F  F28  1  0.365154  0.511302  0.033988  1
  F  F29  1  0.134846  0.488698  0.533988  1
  F  F30  1  0.634846  0.011302  0.466012  1
  F  F31  1  0.865154  0.988698  0.966012  1
  F  F32  1  0.216992  0.021401  0.285861  1
  F  F33  1  0.283008  0.978599  0.785861  1
  F  F34  1  0.783008  0.521401  0.214139  1
  F  F35  1  0.716992  0.478599  0.714139  1
