# generated using pymatgen
data_V11Si4W
_symmetry_space_group_name_H-M   'P 1'
_cell_length_a   4.67376900
_cell_length_b   4.67642100
_cell_length_c   9.52807000
_cell_angle_alpha   90.00000000
_cell_angle_beta   90.00000000
_cell_angle_gamma   90.00000000
_symmetry_Int_Tables_number   1
_chemical_formula_structural   V11Si4W
_chemical_formula_sum   'V11 Si4 W1'
_cell_volume   208.25037153
_cell_formula_units_Z   1
loop_
 _symmetry_equiv_pos_site_id
 _symmetry_equiv_pos_as_xyz
  1  'x, y, z'
loop_
 _atom_site_type_symbol
 _atom_site_label
 _atom_site_symmetry_multiplicity
 _atom_site_fract_x
 _atom_site_fract_y
 _atom_site_fract_z
 _atom_site_occupancy
  V  V0  1  0.000000  0.500000  0.624856  1
  V  V1  1  0.500000  0.254218  0.749232  1
  V  V2  1  0.500000  0.252769  0.249294  1
  V  V3  1  0.752439  0.000000  0.000854  1
  V  V4  1  0.753988  0.000000  0.500645  1
  V  V5  1  0.000000  0.500000  0.868913  1
  V  V6  1  0.000000  0.500000  0.380965  1
  V  V7  1  0.500000  0.745782  0.749232  1
  V  V8  1  0.500000  0.747231  0.249294  1
  V  V9  1  0.247561  0.000000  0.000854  1
  V  V10  1  0.246012  0.000000  0.500645  1
  Si  Si11  1  0.500000  0.500000  0.996717  1
  Si  Si12  1  0.500000  0.500000  0.500016  1
  Si  Si13  1  0.000000  0.000000  0.749955  1
  Si  Si14  1  0.000000  0.000000  0.253289  1
  W  W15  1  0.000000  0.500000  0.125244  1
