# generated using pymatgen
data_La4PrCdAu4
_symmetry_space_group_name_H-M   'P 1'
_cell_length_a   8.40066100
_cell_length_b   8.40066100
_cell_length_c   4.00848100
_cell_angle_alpha   90.00000000
_cell_angle_beta   90.00000000
_cell_angle_gamma   90.00000000
_symmetry_Int_Tables_number   1
_chemical_formula_structural   La4PrCdAu4
_chemical_formula_sum   'La4 Pr1 Cd1 Au4'
_cell_volume   282.88293449
_cell_formula_units_Z   1
loop_
 _symmetry_equiv_pos_site_id
 _symmetry_equiv_pos_as_xyz
  1  'x, y, z'
loop_
 _atom_site_type_symbol
 _atom_site_label
 _atom_site_symmetry_multiplicity
 _atom_site_fract_x
 _atom_site_fract_y
 _atom_site_fract_z
 _atom_site_occupancy
  La  La0  1  0.644424  0.190182  0.500000  1
  La  La1  1  0.355576  0.809818  0.500000  1
  La  La2  1  0.190182  0.355576  0.500000  1
  La  La3  1  0.809818  0.644424  0.500000  1
  Pr  Pr4  1  0.000000  0.000000  0.000000  1
  Cd  Cd5  1  0.500000  0.500000  0.000000  1
  Au  Au6  1  0.120118  0.639227  0.000000  1
  Au  Au7  1  0.879882  0.360773  0.000000  1
  Au  Au8  1  0.639227  0.879882  0.000000  1
  Au  Au9  1  0.360773  0.120118  0.000000  1
