# generated using pymatgen
data_TbNd3(Sn5Pd3)2
_symmetry_space_group_name_H-M   'P 1'
_cell_length_a   13.59791015
_cell_length_b   13.59790903
_cell_length_c   7.42815060
_cell_angle_alpha   89.92617902
_cell_angle_beta   90.07382147
_cell_angle_gamma   160.36234068
_symmetry_Int_Tables_number   1
_chemical_formula_structural   TbNd3(Sn5Pd3)2
_chemical_formula_sum   'Tb1 Nd3 Sn10 Pd6'
_cell_volume   461.58880517
_cell_formula_units_Z   1
loop_
 _symmetry_equiv_pos_site_id
 _symmetry_equiv_pos_as_xyz
  1  'x, y, z'
loop_
 _atom_site_type_symbol
 _atom_site_label
 _atom_site_symmetry_multiplicity
 _atom_site_fract_x
 _atom_site_fract_y
 _atom_site_fract_z
 _atom_site_occupancy
  Tb  Tb0  1  0.521916  0.478084  0.241585  1
  Nd  Nd1  1  0.172886  0.827114  0.748732  1
  Nd  Nd2  1  0.826718  0.173282  0.249021  1
  Nd  Nd3  1  0.478986  0.521014  0.739885  1
  Sn  Sn4  1  0.880572  0.119428  0.735793  1
  Sn  Sn5  1  0.119501  0.880499  0.234633  1
  Sn  Sn6  1  0.701806  0.298194  0.050637  1
  Sn  Sn7  1  0.297380  0.702620  0.551392  1
  Sn  Sn8  1  0.598629  0.401371  0.599999  1
  Sn  Sn9  1  0.401787  0.598213  0.100957  1
  Sn  Sn10  1  0.953382  0.046618  0.403671  1
  Sn  Sn11  1  0.047342  0.952658  0.904627  1
  Sn  Sn12  1  0.287783  0.712217  0.975648  1
  Sn  Sn13  1  0.712186  0.287814  0.474850  1
  Pd  Pd14  1  0.052004  0.947996  0.517582  1
  Pd  Pd15  1  0.948884  0.051116  0.026555  1
  Pd  Pd16  1  0.777274  0.222726  0.775197  1
  Pd  Pd17  1  0.222580  0.777420  0.274459  1
  Pd  Pd18  1  0.396816  0.603184  0.473271  1
  Pd  Pd19  1  0.601567  0.398433  0.977504  1
