# generated using pymatgen
data_Dy7(LuGa4)5
_symmetry_space_group_name_H-M   'P 1'
_cell_length_a   11.47898426
_cell_length_b   9.57740532
_cell_length_c   6.06014842
_cell_angle_alpha   89.97064216
_cell_angle_beta   89.92773918
_cell_angle_gamma   90.00140055
_symmetry_Int_Tables_number   1
_chemical_formula_structural   Dy7(LuGa4)5
_chemical_formula_sum   'Dy7 Lu5 Ga20'
_cell_volume   666.24534144
_cell_formula_units_Z   1
loop_
 _symmetry_equiv_pos_site_id
 _symmetry_equiv_pos_as_xyz
  1  'x, y, z'
loop_
 _atom_site_type_symbol
 _atom_site_label
 _atom_site_symmetry_multiplicity
 _atom_site_fract_x
 _atom_site_fract_y
 _atom_site_fract_z
 _atom_site_occupancy
  Dy  Dy0  1  0.148808  0.990492  0.609236  1
  Dy  Dy1  1  0.851701  0.490611  0.390569  1
  Dy  Dy2  1  0.648198  0.509618  0.890792  1
  Dy  Dy3  1  0.647578  0.990465  0.890828  1
  Dy  Dy4  1  0.851685  0.009599  0.390474  1
  Dy  Dy5  1  0.148425  0.509514  0.609373  1
  Dy  Dy6  1  0.351616  0.490394  0.109385  1
  Lu  Lu7  1  0.351523  0.009578  0.109232  1
  Lu  Lu8  1  0.073698  0.249960  0.151825  1
  Lu  Lu9  1  0.426378  0.749948  0.652721  1
  Lu  Lu10  1  0.573146  0.249740  0.347856  1
  Lu  Lu11  1  0.926697  0.750021  0.848031  1
  Ga  Ga12  1  0.298348  0.248816  0.395980  1
  Ga  Ga13  1  0.202109  0.750115  0.897530  1
  Ga  Ga14  1  0.798025  0.250012  0.102557  1
  Ga  Ga15  1  0.701975  0.749999  0.602565  1
  Ga  Ga16  1  0.004560  0.250016  0.627864  1
  Ga  Ga17  1  0.494350  0.751091  0.127789  1
  Ga  Ga18  1  0.504362  0.249700  0.872756  1
  Ga  Ga19  1  0.995616  0.750113  0.372158  1
  Ga  Ga20  1  0.251968  0.249254  0.831247  1
  Ga  Ga21  1  0.249158  0.750891  0.329888  1
  Ga  Ga22  1  0.751493  0.249994  0.669231  1
  Ga  Ga23  1  0.748261  0.750096  0.169366  1
  Ga  Ga24  1  0.090104  0.552262  0.123761  1
  Ga  Ga25  1  0.409825  0.447600  0.623955  1
  Ga  Ga26  1  0.589854  0.947858  0.375954  1
  Ga  Ga27  1  0.909815  0.052204  0.876069  1
  Ga  Ga28  1  0.909840  0.447754  0.876099  1
  Ga  Ga29  1  0.590165  0.552281  0.375987  1
  Ga  Ga30  1  0.409577  0.051925  0.625126  1
  Ga  Ga31  1  0.091138  0.948081  0.123798  1
