# generated using pymatgen
data_Dy5Er3(ZrGa5)4
_symmetry_space_group_name_H-M   'P 1'
_cell_length_a   5.96809019
_cell_length_b   9.44809903
_cell_length_c   11.32918339
_cell_angle_alpha   89.99137954
_cell_angle_beta   89.97136903
_cell_angle_gamma   90.00083017
_symmetry_Int_Tables_number   1
_chemical_formula_structural   Dy5Er3(ZrGa5)4
_chemical_formula_sum   'Dy5 Er3 Zr4 Ga20'
_cell_volume   638.81978968
_cell_formula_units_Z   1
loop_
 _symmetry_equiv_pos_site_id
 _symmetry_equiv_pos_as_xyz
  1  'x, y, z'
loop_
 _atom_site_type_symbol
 _atom_site_label
 _atom_site_symmetry_multiplicity
 _atom_site_fract_x
 _atom_site_fract_y
 _atom_site_fract_z
 _atom_site_occupancy
  Dy  Dy0  1  0.887075  0.507579  0.352575  1
  Dy  Dy1  1  0.612848  0.992384  0.852801  1
  Dy  Dy2  1  0.112853  0.007598  0.647166  1
  Dy  Dy3  1  0.387222  0.492354  0.147191  1
  Dy  Dy4  1  0.112799  0.492396  0.647510  1
  Er  Er5  1  0.387273  0.007695  0.147504  1
  Er  Er6  1  0.887238  0.992435  0.352590  1
  Er  Er7  1  0.612758  0.507626  0.852637  1
  Zr  Zr8  1  0.856881  0.750030  0.074569  1
  Zr  Zr9  1  0.642908  0.750081  0.574461  1
  Zr  Zr10  1  0.143167  0.249884  0.925533  1
  Zr  Zr11  1  0.356923  0.249946  0.425412  1
  Ga  Ga12  1  0.875144  0.052408  0.089220  1
  Ga  Ga13  1  0.624659  0.447475  0.589131  1
  Ga  Ga14  1  0.124827  0.552497  0.911004  1
  Ga  Ga15  1  0.375196  0.947608  0.410816  1
  Ga  Ga16  1  0.124758  0.947462  0.911182  1
  Ga  Ga17  1  0.375338  0.552591  0.411098  1
  Ga  Ga18  1  0.875233  0.447451  0.088786  1
  Ga  Ga19  1  0.624708  0.052497  0.588798  1
  Ga  Ga20  1  0.163231  0.750382  0.253214  1
  Ga  Ga21  1  0.336864  0.749769  0.753412  1
  Ga  Ga22  1  0.836595  0.250252  0.746772  1
  Ga  Ga23  1  0.663349  0.249611  0.246716  1
  Ga  Ga24  1  0.386934  0.750185  0.003327  1
  Ga  Ga25  1  0.113056  0.750125  0.503070  1
  Ga  Ga26  1  0.613050  0.250185  0.996706  1
  Ga  Ga27  1  0.886876  0.249748  0.496677  1
  Ga  Ga28  1  0.606611  0.750320  0.294562  1
  Ga  Ga29  1  0.893432  0.749707  0.794553  1
  Ga  Ga30  1  0.393707  0.250079  0.705508  1
  Ga  Ga31  1  0.106486  0.249642  0.205498  1
