# generated using pymatgen
data_Ho9Tm(In2Ir)4
_symmetry_space_group_name_H-M   'P 1'
_cell_length_a   3.63864600
_cell_length_b   7.99680536
_cell_length_c   18.23297200
_cell_angle_alpha   90.03343112
_cell_angle_beta   90.00000000
_cell_angle_gamma   90.00000000
_symmetry_Int_Tables_number   1
_chemical_formula_structural   Ho9Tm(In2Ir)4
_chemical_formula_sum   'Ho9 Tm1 In8 Ir4'
_cell_volume   530.53461180
_cell_formula_units_Z   1
loop_
 _symmetry_equiv_pos_site_id
 _symmetry_equiv_pos_as_xyz
  1  'x, y, z'
loop_
 _atom_site_type_symbol
 _atom_site_label
 _atom_site_symmetry_multiplicity
 _atom_site_fract_x
 _atom_site_fract_y
 _atom_site_fract_z
 _atom_site_occupancy
  Ho  Ho0  1  0.000000  0.114759  0.410903  1
  Ho  Ho1  1  0.000000  0.884686  0.588783  1
  Ho  Ho2  1  0.000000  0.384859  0.911184  1
  Ho  Ho3  1  0.000000  0.615505  0.089026  1
  Ho  Ho4  1  0.000000  0.243887  0.221816  1
  Ho  Ho5  1  0.000000  0.756404  0.778273  1
  Ho  Ho6  1  0.000000  0.256370  0.721762  1
  Ho  Ho7  1  0.000000  0.000136  0.000051  1
  Ho  Ho8  1  0.000000  0.499824  0.500017  1
  Tm  Tm9  1  0.000000  0.743695  0.278041  1
  In  In10  1  0.500000  0.427127  0.350476  1
  In  In11  1  0.500000  0.573442  0.649569  1
  In  In12  1  0.500000  0.073594  0.850461  1
  In  In13  1  0.500000  0.926191  0.149681  1
  In  In14  1  0.500000  0.292468  0.067775  1
  In  In15  1  0.500000  0.707933  0.932407  1
  In  In16  1  0.500000  0.207840  0.567615  1
  In  In17  1  0.500000  0.791529  0.431920  1
  Ir  Ir18  1  0.500000  0.018246  0.304125  1
  Ir  Ir19  1  0.500000  0.979703  0.695608  1
  Ir  Ir20  1  0.500000  0.479790  0.804352  1
  Ir  Ir21  1  0.500000  0.522015  0.196159  1
