# generated using pymatgen
data_Sm6Fe7Co9(P6W)2
_symmetry_space_group_name_H-M   'P 1'
_cell_length_a   3.76552000
_cell_length_b   10.68237100
_cell_length_c   12.28980700
_cell_angle_alpha   90.00000000
_cell_angle_beta   90.00000000
_cell_angle_gamma   90.00000000
_symmetry_Int_Tables_number   1
_chemical_formula_structural   Sm6Fe7Co9(P6W)2
_chemical_formula_sum   'Sm6 Fe7 Co9 P12 W2'
_cell_volume   494.35357409
_cell_formula_units_Z   1
loop_
 _symmetry_equiv_pos_site_id
 _symmetry_equiv_pos_as_xyz
  1  'x, y, z'
loop_
 _atom_site_type_symbol
 _atom_site_label
 _atom_site_symmetry_multiplicity
 _atom_site_fract_x
 _atom_site_fract_y
 _atom_site_fract_z
 _atom_site_occupancy
  Sm  Sm0  1  0.000000  0.500000  0.524361  1
  Sm  Sm1  1  0.500000  0.000000  0.475324  1
  Sm  Sm2  1  0.500000  0.820169  0.205531  1
  Sm  Sm3  1  0.500000  0.179831  0.205531  1
  Sm  Sm4  1  0.000000  0.678722  0.795069  1
  Sm  Sm5  1  0.000000  0.321278  0.795069  1
  Fe  Fe6  1  0.000000  0.500000  0.988253  1
  Fe  Fe7  1  0.500000  0.330210  0.996093  1
  Fe  Fe8  1  0.500000  0.669790  0.996093  1
  Fe  Fe9  1  0.000000  0.167387  0.003986  1
  Fe  Fe10  1  0.000000  0.832613  0.003986  1
  Fe  Fe11  1  0.500000  0.296904  0.430955  1
  Fe  Fe12  1  0.500000  0.703096  0.430955  1
  Co  Co13  1  0.500000  0.500000  0.701176  1
  Co  Co14  1  0.000000  0.000000  0.298437  1
  Co  Co15  1  0.500000  0.000000  0.011988  1
  Co  Co16  1  0.000000  0.202993  0.570631  1
  Co  Co17  1  0.000000  0.797007  0.570631  1
  Co  Co18  1  0.500000  0.880501  0.708360  1
  Co  Co19  1  0.500000  0.119499  0.708360  1
  Co  Co20  1  0.000000  0.619702  0.291122  1
  Co  Co21  1  0.000000  0.380298  0.291122  1
  P  P22  1  0.500000  0.500000  0.888172  1
  P  P23  1  0.000000  0.000000  0.113478  1
  P  P24  1  0.500000  0.500000  0.347906  1
  P  P25  1  0.000000  0.000000  0.652104  1
  P  P26  1  0.500000  0.306051  0.613688  1
  P  P27  1  0.500000  0.693949  0.613688  1
  P  P28  1  0.000000  0.195592  0.386070  1
  P  P29  1  0.000000  0.804408  0.386070  1
  P  P30  1  0.500000  0.843499  0.895230  1
  P  P31  1  0.500000  0.156501  0.895230  1
  P  P32  1  0.000000  0.656109  0.103442  1
  P  P33  1  0.000000  0.343891  0.103442  1
  W  W34  1  0.500000  0.500000  0.150884  1
  W  W35  1  0.000000  0.000000  0.847564  1
