# generated using pymatgen
data_HoHf7Ti7Si16Mo5
_symmetry_space_group_name_H-M   'P 1'
_cell_length_a   6.78148543
_cell_length_b   6.77788708
_cell_length_c   12.49866699
_cell_angle_alpha   89.86440899
_cell_angle_beta   89.97367765
_cell_angle_gamma   89.92752853
_symmetry_Int_Tables_number   1
_chemical_formula_structural   HoHf7Ti7Si16Mo5
_chemical_formula_sum   'Ho1 Hf7 Ti7 Si16 Mo5'
_cell_volume   574.48838206
_cell_formula_units_Z   1
loop_
 _symmetry_equiv_pos_site_id
 _symmetry_equiv_pos_as_xyz
  1  'x, y, z'
loop_
 _atom_site_type_symbol
 _atom_site_label
 _atom_site_symmetry_multiplicity
 _atom_site_fract_x
 _atom_site_fract_y
 _atom_site_fract_z
 _atom_site_occupancy
  Ho  Ho0  1  0.998661  0.661690  0.029401  1
  Hf  Hf1  1  0.338624  0.998932  0.471036  1
  Hf  Hf2  1  0.500653  0.838403  0.719151  1
  Hf  Hf3  1  0.497625  0.161415  0.222417  1
  Hf  Hf4  1  0.838957  0.501718  0.280172  1
  Hf  Hf5  1  0.161892  0.496452  0.779269  1
  Hf  Hf6  1  0.656742  0.002754  0.969206  1
  Hf  Hf7  1  0.998256  0.340167  0.529692  1
  Ti  Ti8  1  0.496919  0.653613  0.124482  1
  Ti  Ti9  1  0.501034  0.347246  0.622937  1
  Ti  Ti10  1  0.654260  0.493586  0.874772  1
  Ti  Ti11  1  0.346984  0.503715  0.377528  1
  Ti  Ti12  1  0.846286  0.998200  0.374307  1
  Ti  Ti13  1  0.003979  0.153179  0.128926  1
  Ti  Ti14  1  0.997388  0.848680  0.625630  1
  Si  Si15  1  0.205985  0.134066  0.676500  1
  Si  Si16  1  0.373217  0.706427  0.926812  1
  Si  Si17  1  0.632931  0.293499  0.427089  1
  Si  Si18  1  0.704241  0.363144  0.073084  1
  Si  Si19  1  0.292256  0.633645  0.572996  1
  Si  Si20  1  0.789145  0.870307  0.179904  1
  Si  Si21  1  0.133405  0.207453  0.324553  1
  Si  Si22  1  0.865660  0.796825  0.819071  1
  Si  Si23  1  0.297986  0.959672  0.065030  1
  Si  Si24  1  0.542341  0.796119  0.316059  1
  Si  Si25  1  0.455105  0.205168  0.813323  1
  Si  Si26  1  0.795241  0.543856  0.684347  1
  Si  Si27  1  0.206340  0.454835  0.186951  1
  Si  Si28  1  0.704048  0.043823  0.564679  1
  Si  Si29  1  0.959744  0.286937  0.934583  1
  Si  Si30  1  0.042753  0.705130  0.435128  1
  Mo  Mo31  1  0.334262  0.329278  0.000169  1
  Mo  Mo32  1  0.169487  0.832658  0.251241  1
  Mo  Mo33  1  0.828490  0.170450  0.748596  1
  Mo  Mo34  1  0.669125  0.669257  0.500266  1
  Mo  Mo35  1  0.159980  0.997700  0.870693  1
