# generated using pymatgen
data_CeHoTcB6
_symmetry_space_group_name_H-M   'P 1'
_cell_length_a   3.73110300
_cell_length_b   9.18499700
_cell_length_c   11.57315700
_cell_angle_alpha   90.00000000
_cell_angle_beta   90.00000000
_cell_angle_gamma   90.00000000
_symmetry_Int_Tables_number   1
_chemical_formula_structural   CeHoTcB6
_chemical_formula_sum   'Ce4 Ho4 Tc4 B24'
_cell_volume   396.61405623
_cell_formula_units_Z   4
loop_
 _symmetry_equiv_pos_site_id
 _symmetry_equiv_pos_as_xyz
  1  'x, y, z'
loop_
 _atom_site_type_symbol
 _atom_site_label
 _atom_site_symmetry_multiplicity
 _atom_site_fract_x
 _atom_site_fract_y
 _atom_site_fract_z
 _atom_site_occupancy
  Ce  Ce0  1  0.000000  0.322886  0.414239  1
  Ce  Ce1  1  0.000000  0.677114  0.585761  1
  Ce  Ce2  1  0.000000  0.822886  0.085761  1
  Ce  Ce3  1  0.000000  0.177114  0.914239  1
  Ho  Ho4  1  0.000000  0.944098  0.372203  1
  Ho  Ho5  1  0.000000  0.055902  0.627797  1
  Ho  Ho6  1  0.000000  0.444098  0.127797  1
  Ho  Ho7  1  0.000000  0.555902  0.872203  1
  Tc  Tc8  1  0.000000  0.638716  0.320672  1
  Tc  Tc9  1  0.000000  0.361284  0.679328  1
  Tc  Tc10  1  0.000000  0.138716  0.179328  1
  Tc  Tc11  1  0.000000  0.861284  0.820672  1
  B  B12  1  0.500000  0.554509  0.431568  1
  B  B13  1  0.500000  0.445491  0.568432  1
  B  B14  1  0.500000  0.054509  0.068432  1
  B  B15  1  0.500000  0.945491  0.931568  1
  B  B16  1  0.500000  0.748713  0.418453  1
  B  B17  1  0.500000  0.251287  0.581547  1
  B  B18  1  0.500000  0.248713  0.081547  1
  B  B19  1  0.500000  0.751287  0.918453  1
  B  B20  1  0.500000  0.791311  0.266016  1
  B  B21  1  0.500000  0.208689  0.733984  1
  B  B22  1  0.500000  0.291311  0.233984  1
  B  B23  1  0.500000  0.708689  0.766016  1
  B  B24  1  0.500000  0.631455  0.185816  1
  B  B25  1  0.500000  0.368545  0.814184  1
  B  B26  1  0.500000  0.131455  0.314184  1
  B  B27  1  0.500000  0.868545  0.685816  1
  B  B28  1  0.500000  0.983829  0.212911  1
  B  B29  1  0.500000  0.016171  0.787089  1
  B  B30  1  0.500000  0.483829  0.287089  1
  B  B31  1  0.500000  0.516171  0.712911  1
  B  B32  1  0.500000  0.606316  0.029350  1
  B  B33  1  0.500000  0.393684  0.970650  1
  B  B34  1  0.500000  0.106316  0.470650  1
  B  B35  1  0.500000  0.893684  0.529350  1
