# generated using pymatgen
data_BaTbCr4N7
_symmetry_space_group_name_H-M   'P 1'
_cell_length_a   6.27755100
_cell_length_b   6.27755020
_cell_length_c   10.31225300
_cell_angle_alpha   90.00000000
_cell_angle_beta   90.00000000
_cell_angle_gamma   119.99999897
_symmetry_Int_Tables_number   1
_chemical_formula_structural   BaTbCr4N7
_chemical_formula_sum   'Ba2 Tb2 Cr8 N14'
_cell_volume   351.93676639
_cell_formula_units_Z   2
loop_
 _symmetry_equiv_pos_site_id
 _symmetry_equiv_pos_as_xyz
  1  'x, y, z'
loop_
 _atom_site_type_symbol
 _atom_site_label
 _atom_site_symmetry_multiplicity
 _atom_site_fract_x
 _atom_site_fract_y
 _atom_site_fract_z
 _atom_site_occupancy
  Ba  Ba0  1  0.333333  0.666667  0.363996  1
  Ba  Ba1  1  0.666667  0.333333  0.863996  1
  Tb  Tb2  1  0.333333  0.666667  0.736111  1
  Tb  Tb3  1  0.666667  0.333333  0.236111  1
  Cr  Cr4  1  0.830519  0.661036  0.548906  1
  Cr  Cr5  1  0.169481  0.830519  0.048906  1
  Cr  Cr6  1  0.661036  0.830519  0.048906  1
  Cr  Cr7  1  0.338964  0.169481  0.548906  1
  Cr  Cr8  1  0.830519  0.169481  0.548906  1
  Cr  Cr9  1  0.169481  0.338964  0.048906  1
  Cr  Cr10  1  0.000000  0.000000  0.808160  1
  Cr  Cr11  1  0.000000  0.000000  0.308160  1
  N  N12  1  0.000000  0.000000  0.619368  1
  N  N13  1  0.000000  0.000000  0.119368  1
  N  N14  1  0.156143  0.312284  0.870720  1
  N  N15  1  0.843857  0.156143  0.370720  1
  N  N16  1  0.312284  0.156143  0.370720  1
  N  N17  1  0.687716  0.843857  0.870720  1
  N  N18  1  0.156143  0.843857  0.870720  1
  N  N19  1  0.843857  0.687716  0.370720  1
  N  N20  1  0.980493  0.490247  0.602464  1
  N  N21  1  0.490247  0.980493  0.102464  1
  N  N22  1  0.490247  0.509753  0.102464  1
  N  N23  1  0.509753  0.490247  0.602464  1
  N  N24  1  0.019507  0.509753  0.102464  1
  N  N25  1  0.509753  0.019507  0.602464  1
