# generated using pymatgen
data_LaGd2UO7
_symmetry_space_group_name_H-M   'P 1'
_cell_length_a   6.75858500
_cell_length_b   6.75858345
_cell_length_c   7.82653900
_cell_angle_alpha   90.00000000
_cell_angle_beta   90.00000000
_cell_angle_gamma   109.32994872
_symmetry_Int_Tables_number   1
_chemical_formula_structural   LaGd2UO7
_chemical_formula_sum   'La2 Gd4 U2 O14'
_cell_volume   337.35104653
_cell_formula_units_Z   2
loop_
 _symmetry_equiv_pos_site_id
 _symmetry_equiv_pos_as_xyz
  1  'x, y, z'
loop_
 _atom_site_type_symbol
 _atom_site_label
 _atom_site_symmetry_multiplicity
 _atom_site_fract_x
 _atom_site_fract_y
 _atom_site_fract_z
 _atom_site_occupancy
  La  La0  1  0.500000  0.500000  0.500000  1
  La  La1  1  0.500000  0.500000  0.000000  1
  Gd  Gd2  1  0.531641  0.004123  0.750000  1
  Gd  Gd3  1  0.004123  0.531641  0.250000  1
  Gd  Gd4  1  0.468359  0.995877  0.250000  1
  Gd  Gd5  1  0.995877  0.468359  0.750000  1
  U  U6  1  0.000000  0.000000  0.500000  1
  U  U7  1  0.000000  0.000000  0.000000  1
  O  O8  1  0.670485  0.921410  0.468938  1
  O  O9  1  0.921410  0.670485  0.531062  1
  O  O10  1  0.670485  0.921410  0.031062  1
  O  O11  1  0.921410  0.670485  0.968938  1
  O  O12  1  0.329515  0.078590  0.531062  1
  O  O13  1  0.078590  0.329515  0.468938  1
  O  O14  1  0.329515  0.078590  0.968938  1
  O  O15  1  0.078590  0.329515  0.031062  1
  O  O16  1  0.363690  0.636310  0.750000  1
  O  O17  1  0.636310  0.363690  0.250000  1
  O  O18  1  0.640902  0.359098  0.750000  1
  O  O19  1  0.359098  0.640902  0.250000  1
  O  O20  1  0.910985  0.089015  0.750000  1
  O  O21  1  0.089015  0.910985  0.250000  1
