# generated using pymatgen
data_PrDyTa2Bi2O11
_symmetry_space_group_name_H-M   'P 1'
_cell_length_a   6.62624857
_cell_length_b   7.73323200
_cell_length_c   9.84239171
_cell_angle_alpha   101.31672529
_cell_angle_beta   90.15237385
_cell_angle_gamma   89.94022788
_symmetry_Int_Tables_number   1
_chemical_formula_structural   PrDyTa2Bi2O11
_chemical_formula_sum   'Pr2 Dy2 Ta4 Bi4 O22'
_cell_volume   494.53933414
_cell_formula_units_Z   2
loop_
 _symmetry_equiv_pos_site_id
 _symmetry_equiv_pos_as_xyz
  1  'x, y, z'
loop_
 _atom_site_type_symbol
 _atom_site_label
 _atom_site_symmetry_multiplicity
 _atom_site_fract_x
 _atom_site_fract_y
 _atom_site_fract_z
 _atom_site_occupancy
  Pr  Pr0  1  0.752542  0.369336  0.493460  1
  Pr  Pr1  1  0.247458  0.630664  0.506540  1
  Dy  Dy2  1  0.756290  0.873148  0.476806  1
  Dy  Dy3  1  0.243710  0.126852  0.523194  1
  Ta  Ta4  1  0.914106  0.701321  0.803651  1
  Ta  Ta5  1  0.085894  0.298679  0.196349  1
  Ta  Ta6  1  0.912924  0.201717  0.807800  1
  Ta  Ta7  1  0.087076  0.798283  0.192200  1
  Bi  Bi8  1  0.438954  0.952510  0.815167  1
  Bi  Bi9  1  0.561046  0.047490  0.184833  1
  Bi  Bi10  1  0.387022  0.457605  0.827657  1
  Bi  Bi11  1  0.612978  0.542395  0.172343  1
  O  O12  1  0.215743  0.728002  0.758754  1
  O  O13  1  0.784257  0.271998  0.241246  1
  O  O14  1  0.628847  0.662769  0.835417  1
  O  O15  1  0.371153  0.337231  0.164583  1
  O  O16  1  0.628976  0.256545  0.840204  1
  O  O17  1  0.371024  0.743455  0.159796  1
  O  O18  1  0.891072  0.132751  0.594022  1
  O  O19  1  0.108928  0.867249  0.405978  1
  O  O20  1  0.215006  0.150276  0.759854  1
  O  O21  1  0.784994  0.849724  0.240146  1
  O  O22  1  0.891414  0.663872  0.590771  1
  O  O23  1  0.108586  0.336128  0.409229  1
  O  O24  1  0.035448  0.557442  0.228851  1
  O  O25  1  0.964552  0.442558  0.771149  1
  O  O26  1  0.999563  0.741767  0.998928  1
  O  O27  1  0.000437  0.258233  0.001072  1
  O  O28  1  0.578360  0.601751  0.390140  1
  O  O29  1  0.421640  0.398249  0.609860  1
  O  O30  1  0.157306  0.047944  0.191021  1
  O  O31  1  0.842694  0.952056  0.808979  1
  O  O32  1  0.535519  0.097784  0.401158  1
  O  O33  1  0.464481  0.902216  0.598842  1
