# generated using pymatgen
data_Ba3NdScO6
_symmetry_space_group_name_H-M   'P 1'
_cell_length_a   7.33420189
_cell_length_b   7.33420060
_cell_length_c   7.33420104
_cell_angle_alpha   92.34455219
_cell_angle_beta   92.34455324
_cell_angle_gamma   92.34454639
_symmetry_Int_Tables_number   1
_chemical_formula_structural   Ba3NdScO6
_chemical_formula_sum   'Ba6 Nd2 Sc2 O12'
_cell_volume   393.49174194
_cell_formula_units_Z   2
loop_
 _symmetry_equiv_pos_site_id
 _symmetry_equiv_pos_as_xyz
  1  'x, y, z'
loop_
 _atom_site_type_symbol
 _atom_site_label
 _atom_site_symmetry_multiplicity
 _atom_site_fract_x
 _atom_site_fract_y
 _atom_site_fract_z
 _atom_site_occupancy
  Ba  Ba0  1  0.250000  0.887013  0.612987  1
  Ba  Ba1  1  0.887013  0.612987  0.250000  1
  Ba  Ba2  1  0.750000  0.112987  0.387013  1
  Ba  Ba3  1  0.387013  0.750000  0.112987  1
  Ba  Ba4  1  0.112987  0.387013  0.750000  1
  Ba  Ba5  1  0.612987  0.250000  0.887013  1
  Nd  Nd6  1  0.750000  0.750000  0.750000  1
  Nd  Nd7  1  0.250000  0.250000  0.250000  1
  Sc  Sc8  1  0.500000  0.500000  0.500000  1
  Sc  Sc9  1  0.000000  0.000000  0.000000  1
  O  O10  1  0.591782  0.780728  0.460199  1
  O  O11  1  0.460199  0.591782  0.780728  1
  O  O12  1  0.780728  0.460199  0.591782  1
  O  O13  1  0.908218  0.039801  0.719272  1
  O  O14  1  0.719272  0.908218  0.039801  1
  O  O15  1  0.039801  0.719272  0.908218  1
  O  O16  1  0.408218  0.219272  0.539801  1
  O  O17  1  0.539801  0.408218  0.219272  1
  O  O18  1  0.219272  0.539801  0.408218  1
  O  O19  1  0.091782  0.960199  0.280728  1
  O  O20  1  0.960199  0.280728  0.091782  1
  O  O21  1  0.280728  0.091782  0.960199  1
