# generated using pymatgen
data_YbYCuPt3
_symmetry_space_group_name_H-M   'P 1'
_cell_length_a   5.22985942
_cell_length_b   5.22985962
_cell_length_c   5.22986002
_cell_angle_alpha   63.55484176
_cell_angle_beta   63.55484241
_cell_angle_gamma   63.55485087
_symmetry_Int_Tables_number   1
_chemical_formula_structural   YbYCuPt3
_chemical_formula_sum   'Yb1 Y1 Cu1 Pt3'
_cell_volume   109.09515050
_cell_formula_units_Z   1
loop_
 _symmetry_equiv_pos_site_id
 _symmetry_equiv_pos_as_xyz
  1  'x, y, z'
loop_
 _atom_site_type_symbol
 _atom_site_label
 _atom_site_symmetry_multiplicity
 _atom_site_fract_x
 _atom_site_fract_y
 _atom_site_fract_z
 _atom_site_occupancy
  Yb  Yb0  1  0.252646  0.252646  0.252646  1
  Y  Y1  1  0.000491  0.000491  0.000491  1
  Cu  Cu2  1  0.623774  0.623774  0.623774  1
  Pt  Pt3  1  0.624049  0.624049  0.124989  1
  Pt  Pt4  1  0.624049  0.124989  0.624049  1
  Pt  Pt5  1  0.124989  0.624049  0.624049  1
