# generated using pymatgen
data_NbCd2Fe3O8
_symmetry_space_group_name_H-M   'P 1'
_cell_length_a   6.35855005
_cell_length_b   6.35709916
_cell_length_c   11.08505805
_cell_angle_alpha   72.53417978
_cell_angle_beta   90.77037775
_cell_angle_gamma   119.89619197
_symmetry_Int_Tables_number   1
_chemical_formula_structural   NbCd2Fe3O8
_chemical_formula_sum   'Nb2 Cd4 Fe6 O16'
_cell_volume   365.48765682
_cell_formula_units_Z   2
loop_
 _symmetry_equiv_pos_site_id
 _symmetry_equiv_pos_as_xyz
  1  'x, y, z'
loop_
 _atom_site_type_symbol
 _atom_site_label
 _atom_site_symmetry_multiplicity
 _atom_site_fract_x
 _atom_site_fract_y
 _atom_site_fract_z
 _atom_site_occupancy
  Nb  Nb0  1  0.744870  0.494210  0.749901  1
  Nb  Nb1  1  0.255160  0.505632  0.250200  1
  Cd  Cd2  1  0.940254  0.874957  0.200462  1
  Cd  Cd3  1  0.425401  0.859281  0.700455  1
  Cd  Cd4  1  0.574632  0.140713  0.299474  1
  Cd  Cd5  1  0.059784  0.125070  0.799493  1
  Fe  Fe6  1  0.499986  0.500076  0.999977  1
  Fe  Fe7  1  0.499913  0.000020  0.000027  1
  Fe  Fe8  1  0.500050  0.500014  0.500017  1
  Fe  Fe9  1  0.000029  0.499957  0.500010  1
  Fe  Fe10  1  0.000003  0.000016  0.500031  1
  Fe  Fe11  1  0.999941  0.500004  0.000031  1
  O  O12  1  0.859436  0.731383  0.410210  1
  O  O13  1  0.358488  0.729766  0.910219  1
  O  O14  1  0.641404  0.270375  0.089709  1
  O  O15  1  0.140712  0.268667  0.589745  1
  O  O16  1  0.082468  0.747649  0.623407  1
  O  O17  1  0.575597  0.710589  0.138424  1
  O  O18  1  0.652721  0.285850  0.637711  1
  O  O19  1  0.129378  0.294773  0.123308  1
  O  O20  1  0.667224  0.750227  0.628332  1
  O  O21  1  0.120938  0.704880  0.128204  1
  O  O22  1  0.879034  0.295057  0.871830  1
  O  O23  1  0.332785  0.249706  0.371678  1
  O  O24  1  0.870628  0.705265  0.876673  1
  O  O25  1  0.347297  0.714115  0.362305  1
  O  O26  1  0.424372  0.289507  0.861557  1
  O  O27  1  0.917492  0.252240  0.376610  1
