# generated using pymatgen
data_SCl30
_symmetry_space_group_name_H-M   'P 1'
_cell_length_a   13.41649781
_cell_length_b   13.41649818
_cell_length_c   15.66844582
_cell_angle_alpha   83.97397904
_cell_angle_beta   83.97397911
_cell_angle_gamma   125.57626124
_symmetry_Int_Tables_number   1
_chemical_formula_structural   SCl30
_chemical_formula_sum   'S1 Cl30'
_cell_volume   2232.64765359
_cell_formula_units_Z   1
loop_
 _symmetry_equiv_pos_site_id
 _symmetry_equiv_pos_as_xyz
  1  'x, y, z'
loop_
 _atom_site_type_symbol
 _atom_site_label
 _atom_site_symmetry_multiplicity
 _atom_site_fract_x
 _atom_site_fract_y
 _atom_site_fract_z
 _atom_site_occupancy
  S  S0  1  0.000000  0.000000  0.000000  1
  Cl  Cl1  1  0.948253  0.948253  0.146013  1
  Cl  Cl2  1  0.051747  0.051747  0.853987  1
  Cl  Cl3  1  0.058956  0.186324  0.005317  1
  Cl  Cl4  1  0.941044  0.813676  0.994683  1
  Cl  Cl5  1  0.186324  0.058956  0.005317  1
  Cl  Cl6  1  0.813676  0.941044  0.994683  1
  Cl  Cl7  1  0.203200  0.742422  0.065490  1
  Cl  Cl8  1  0.796800  0.257578  0.934510  1
  Cl  Cl9  1  0.699216  0.076829  0.265496  1
  Cl  Cl10  1  0.257578  0.796800  0.934510  1
  Cl  Cl11  1  0.300784  0.923171  0.734504  1
  Cl  Cl12  1  0.742422  0.203200  0.065490  1
  Cl  Cl13  1  0.976542  0.197844  0.783191  1
  Cl  Cl14  1  0.923171  0.300784  0.734504  1
  Cl  Cl15  1  0.023458  0.802156  0.216809  1
  Cl  Cl16  1  0.076829  0.699216  0.265496  1
  Cl  Cl17  1  0.802156  0.023458  0.216809  1
  Cl  Cl18  1  0.197844  0.976542  0.783191  1
  Cl  Cl19  1  0.463955  0.547498  0.258997  1
  Cl  Cl20  1  0.536045  0.452502  0.741003  1
  Cl  Cl21  1  0.508589  0.205505  0.450113  1
  Cl  Cl22  1  0.452502  0.536045  0.741003  1
  Cl  Cl23  1  0.491411  0.794495  0.549887  1
  Cl  Cl24  1  0.547498  0.463955  0.258997  1
  Cl  Cl25  1  0.240328  0.428456  0.544693  1
  Cl  Cl26  1  0.794495  0.491411  0.549887  1
  Cl  Cl27  1  0.759672  0.571544  0.455307  1
  Cl  Cl28  1  0.205505  0.508589  0.450113  1
  Cl  Cl29  1  0.571544  0.759672  0.455307  1
  Cl  Cl30  1  0.428456  0.240328  0.544693  1
