# generated using pymatgen
data_ScIrI18
_symmetry_space_group_name_H-M   'P 1'
_cell_length_a   10.11814143
_cell_length_b   10.11083783
_cell_length_c   10.11002053
_cell_angle_alpha   88.74961186
_cell_angle_beta   88.71773310
_cell_angle_gamma   88.77632091
_symmetry_Int_Tables_number   1
_chemical_formula_structural   ScIrI18
_chemical_formula_sum   'Sc1 Ir1 I18'
_cell_volume   1033.55374292
_cell_formula_units_Z   1
loop_
 _symmetry_equiv_pos_site_id
 _symmetry_equiv_pos_as_xyz
  1  'x, y, z'
loop_
 _atom_site_type_symbol
 _atom_site_label
 _atom_site_symmetry_multiplicity
 _atom_site_fract_x
 _atom_site_fract_y
 _atom_site_fract_z
 _atom_site_occupancy
  Sc  Sc0  1  0.000000  0.000000  0.000000  1
  Ir  Ir1  1  0.500000  0.500000  0.500000  1
  I  I2  1  0.765612  0.481962  0.500253  1
  I  I3  1  0.500600  0.765820  0.481876  1
  I  I4  1  0.482278  0.500545  0.766016  1
  I  I5  1  0.234388  0.518038  0.499747  1
  I  I6  1  0.499400  0.234180  0.518124  1
  I  I7  1  0.517722  0.499455  0.233984  1
  I  I8  1  0.878767  0.380204  0.747434  1
  I  I9  1  0.747724  0.879192  0.380596  1
  I  I10  1  0.380631  0.747931  0.878989  1
  I  I11  1  0.121233  0.619796  0.252566  1
  I  I12  1  0.252276  0.120808  0.619404  1
  I  I13  1  0.619369  0.252069  0.121011  1
  I  I14  1  0.018158  0.971822  0.715372  1
  I  I15  1  0.715455  0.017776  0.972325  1
  I  I16  1  0.972222  0.715459  0.018298  1
  I  I17  1  0.981842  0.028178  0.284628  1
  I  I18  1  0.284545  0.982224  0.027675  1
  I  I19  1  0.027778  0.284541  0.981702  1
