# generated using pymatgen
data_Y2ErNb3(B2Ru5)2
_symmetry_space_group_name_H-M   'P 1'
_cell_length_a   9.61020791
_cell_length_b   9.61020737
_cell_length_c   3.12346600
_cell_angle_alpha   90.00000000
_cell_angle_beta   90.00000000
_cell_angle_gamma   90.53020842
_symmetry_Int_Tables_number   1
_chemical_formula_structural   Y2ErNb3(B2Ru5)2
_chemical_formula_sum   'Y2 Er1 Nb3 B4 Ru10'
_cell_volume   288.45875844
_cell_formula_units_Z   1
loop_
 _symmetry_equiv_pos_site_id
 _symmetry_equiv_pos_as_xyz
  1  'x, y, z'
loop_
 _atom_site_type_symbol
 _atom_site_label
 _atom_site_symmetry_multiplicity
 _atom_site_fract_x
 _atom_site_fract_y
 _atom_site_fract_z
 _atom_site_occupancy
  Y  Y0  1  0.823579  0.675176  0.000000  1
  Y  Y1  1  0.175176  0.323579  0.000000  1
  Er  Er2  1  0.325785  0.825785  0.000000  1
  Nb  Nb3  1  0.675406  0.175406  0.000000  1
  Nb  Nb4  1  0.497856  0.503482  0.000000  1
  Nb  Nb5  1  0.003482  0.997856  0.000000  1
  B  B6  1  0.623283  0.881666  0.000000  1
  B  B7  1  0.381666  0.123283  0.000000  1
  B  B8  1  0.119068  0.619068  0.000000  1
  B  B9  1  0.875829  0.375829  0.000000  1
  Ru  Ru10  1  0.569573  0.723072  0.500000  1
  Ru  Ru11  1  0.441410  0.280094  0.500000  1
  Ru  Ru12  1  0.070649  0.780441  0.500000  1
  Ru  Ru13  1  0.915202  0.213265  0.500000  1
  Ru  Ru14  1  0.280441  0.570649  0.500000  1
  Ru  Ru15  1  0.713265  0.415202  0.500000  1
  Ru  Ru16  1  0.223072  0.069573  0.500000  1
  Ru  Ru17  1  0.780094  0.941410  0.500000  1
  Ru  Ru18  1  0.509199  0.009199  0.500000  1
  Ru  Ru19  1  0.995966  0.495966  0.500000  1
