# generated using pymatgen
data_La16Pr4Ir11Os
_symmetry_space_group_name_H-M   'P 1'
_cell_length_a   11.43335300
_cell_length_b   11.43335300
_cell_length_c   6.65908400
_cell_angle_alpha   90.00000000
_cell_angle_beta   90.00000000
_cell_angle_gamma   90.00000000
_symmetry_Int_Tables_number   1
_chemical_formula_structural   La16Pr4Ir11Os
_chemical_formula_sum   'La16 Pr4 Ir11 Os1'
_cell_volume   870.48585413
_cell_formula_units_Z   1
loop_
 _symmetry_equiv_pos_site_id
 _symmetry_equiv_pos_as_xyz
  1  'x, y, z'
loop_
 _atom_site_type_symbol
 _atom_site_label
 _atom_site_symmetry_multiplicity
 _atom_site_fract_x
 _atom_site_fract_y
 _atom_site_fract_z
 _atom_site_occupancy
  La  La0  1  0.292581  0.089554  0.382553  1
  La  La1  1  0.292689  0.910443  0.887428  1
  La  La2  1  0.707311  0.089557  0.887428  1
  La  La3  1  0.707419  0.910446  0.382553  1
  La  La4  1  0.589557  0.792689  0.887428  1
  La  La5  1  0.589554  0.207419  0.382553  1
  La  La6  1  0.410446  0.792581  0.382553  1
  La  La7  1  0.410443  0.207311  0.887428  1
  La  La8  1  0.208768  0.408775  0.616762  1
  La  La9  1  0.208612  0.590073  0.116214  1
  La  La10  1  0.791388  0.409927  0.116214  1
  La  La11  1  0.791232  0.591225  0.616762  1
  La  La12  1  0.909927  0.708612  0.116214  1
  La  La13  1  0.908775  0.291232  0.616762  1
  La  La14  1  0.091225  0.708768  0.616762  1
  La  La15  1  0.090073  0.291388  0.116214  1
  Pr  Pr16  1  0.000000  0.000000  0.497855  1
  Pr  Pr17  1  0.000000  0.000000  0.997576  1
  Pr  Pr18  1  0.500000  0.500000  0.997576  1
  Pr  Pr19  1  0.500000  0.500000  0.497855  1
  Ir  Ir20  1  0.847581  0.155643  0.249223  1
  Ir  Ir21  1  0.846916  0.845379  0.749256  1
  Ir  Ir22  1  0.153084  0.154621  0.749256  1
  Ir  Ir23  1  0.152419  0.844357  0.249223  1
  Ir  Ir24  1  0.654621  0.346916  0.749256  1
  Ir  Ir25  1  0.655643  0.652419  0.249223  1
  Ir  Ir26  1  0.344357  0.347581  0.249223  1
  Ir  Ir27  1  0.345379  0.653084  0.749256  1
  Ir  Ir28  1  0.500000  0.000000  0.619061  1
  Ir  Ir29  1  0.000000  0.500000  0.881046  1
  Ir  Ir30  1  0.000000  0.500000  0.382468  1
  Os  Os31  1  0.500000  0.000000  0.120818  1
