# generated using pymatgen
data_La2Yb(ErSi2)2
_symmetry_space_group_name_H-M   'P 1'
_cell_length_a   7.85676000
_cell_length_b   7.85676000
_cell_length_c   14.36682600
_cell_angle_alpha   90.00000000
_cell_angle_beta   90.00000000
_cell_angle_gamma   90.00000000
_symmetry_Int_Tables_number   1
_chemical_formula_structural   La2Yb(ErSi2)2
_chemical_formula_sum   'La8 Yb4 Er8 Si16'
_cell_volume   886.84517169
_cell_formula_units_Z   4
loop_
 _symmetry_equiv_pos_site_id
 _symmetry_equiv_pos_as_xyz
  1  'x, y, z'
loop_
 _atom_site_type_symbol
 _atom_site_label
 _atom_site_symmetry_multiplicity
 _atom_site_fract_x
 _atom_site_fract_y
 _atom_site_fract_z
 _atom_site_occupancy
  La  La0  1  0.991254  0.638986  0.041300  1
  La  La1  1  0.008746  0.361014  0.541300  1
  La  La2  1  0.638986  0.991254  0.958700  1
  La  La3  1  0.138986  0.508746  0.791300  1
  La  La4  1  0.861014  0.491254  0.291300  1
  La  La5  1  0.508746  0.138986  0.208700  1
  La  La6  1  0.491254  0.861014  0.708700  1
  La  La7  1  0.361014  0.008746  0.458700  1
  Yb  Yb8  1  0.685428  0.685428  0.500000  1
  Yb  Yb9  1  0.814572  0.185428  0.750000  1
  Yb  Yb10  1  0.185428  0.814572  0.250000  1
  Yb  Yb11  1  0.314572  0.314572  0.000000  1
  Er  Er12  1  0.365407  0.493810  0.376112  1
  Er  Er13  1  0.865407  0.006190  0.373888  1
  Er  Er14  1  0.993810  0.134593  0.126112  1
  Er  Er15  1  0.006190  0.865407  0.626112  1
  Er  Er16  1  0.634593  0.506190  0.876112  1
  Er  Er17  1  0.493810  0.365407  0.623888  1
  Er  Er18  1  0.506190  0.634593  0.123888  1
  Er  Er19  1  0.134593  0.993810  0.873888  1
  Si  Si20  1  0.074401  0.711832  0.441084  1
  Si  Si21  1  0.925599  0.288168  0.941084  1
  Si  Si22  1  0.711832  0.074401  0.558916  1
  Si  Si23  1  0.211833  0.425599  0.191084  1
  Si  Si24  1  0.788168  0.574401  0.691084  1
  Si  Si25  1  0.425599  0.211833  0.808916  1
  Si  Si26  1  0.574401  0.788168  0.308916  1
  Si  Si27  1  0.288168  0.925599  0.058916  1
  Si  Si28  1  0.848618  0.788931  0.812170  1
  Si  Si29  1  0.151382  0.211069  0.312170  1
  Si  Si30  1  0.788931  0.848618  0.187830  1
  Si  Si31  1  0.288931  0.651382  0.562170  1
  Si  Si32  1  0.711069  0.348618  0.062170  1
  Si  Si33  1  0.651382  0.288931  0.437830  1
  Si  Si34  1  0.348618  0.711069  0.937830  1
  Si  Si35  1  0.211069  0.151382  0.687830  1
