# generated using pymatgen
data_Ho4AlGa17Ir6
_symmetry_space_group_name_H-M   'P 1'
_cell_length_a   7.58151429
_cell_length_b   7.58151427
_cell_length_c   9.47292495
_cell_angle_alpha   90.02575683
_cell_angle_beta   90.02576011
_cell_angle_gamma   119.82045463
_symmetry_Int_Tables_number   1
_chemical_formula_structural   Ho4AlGa17Ir6
_chemical_formula_sum   'Ho4 Al1 Ga17 Ir6'
_cell_volume   472.39942740
_cell_formula_units_Z   1
loop_
 _symmetry_equiv_pos_site_id
 _symmetry_equiv_pos_as_xyz
  1  'x, y, z'
loop_
 _atom_site_type_symbol
 _atom_site_label
 _atom_site_symmetry_multiplicity
 _atom_site_fract_x
 _atom_site_fract_y
 _atom_site_fract_z
 _atom_site_occupancy
  Ho  Ho0  1  0.998691  0.669139  0.249663  1
  Ho  Ho1  1  0.001444  0.330107  0.749471  1
  Ho  Ho2  1  0.669139  0.998691  0.249663  1
  Ho  Ho3  1  0.330107  0.001444  0.749471  1
  Al  Al4  1  0.335560  0.335560  0.949969  1
  Ga  Ga5  1  0.126611  0.126611  0.249357  1
  Ga  Ga6  1  0.872806  0.872806  0.749195  1
  Ga  Ga7  1  0.998362  0.334342  0.080113  1
  Ga  Ga8  1  0.000177  0.664981  0.918414  1
  Ga  Ga9  1  0.999790  0.664762  0.581058  1
  Ga  Ga10  1  0.334626  0.999626  0.418128  1
  Ga  Ga11  1  0.999626  0.334626  0.418128  1
  Ga  Ga12  1  0.664762  0.999790  0.581058  1
  Ga  Ga13  1  0.664981  0.000177  0.918414  1
  Ga  Ga14  1  0.334342  0.998362  0.080113  1
  Ga  Ga15  1  0.331618  0.331618  0.564158  1
  Ga  Ga16  1  0.668015  0.668015  0.434831  1
  Ga  Ga17  1  0.671807  0.671807  0.065132  1
  Ga  Ga18  1  0.340705  0.548180  0.249799  1
  Ga  Ga19  1  0.655652  0.450832  0.750257  1
  Ga  Ga20  1  0.548180  0.340705  0.249799  1
  Ga  Ga21  1  0.450832  0.655652  0.750257  1
  Ir  Ir22  1  0.669288  0.328142  0.998949  1
  Ir  Ir23  1  0.328142  0.669288  0.998949  1
  Ir  Ir24  1  0.328287  0.671867  0.499582  1
  Ir  Ir25  1  0.671867  0.328287  0.499582  1
  Ir  Ir26  1  0.004806  0.004806  0.997229  1
  Ir  Ir27  1  0.999775  0.999775  0.499261  1
