# generated using pymatgen
data_Tb7Ho3(PPb3)2
_symmetry_space_group_name_H-M   'P 1'
_cell_length_a   9.18011300
_cell_length_b   9.18011419
_cell_length_c   6.79983500
_cell_angle_alpha   90.00000000
_cell_angle_beta   90.00000000
_cell_angle_gamma   120.00001372
_symmetry_Int_Tables_number   1
_chemical_formula_structural   Tb7Ho3(PPb3)2
_chemical_formula_sum   'Tb7 Ho3 P2 Pb6'
_cell_volume   496.27803807
_cell_formula_units_Z   1
loop_
 _symmetry_equiv_pos_site_id
 _symmetry_equiv_pos_as_xyz
  1  'x, y, z'
loop_
 _atom_site_type_symbol
 _atom_site_label
 _atom_site_symmetry_multiplicity
 _atom_site_fract_x
 _atom_site_fract_y
 _atom_site_fract_z
 _atom_site_occupancy
  Tb  Tb0  1  0.761939  0.761992  0.749970  1
  Tb  Tb1  1  0.238008  0.999946  0.749970  1
  Tb  Tb2  1  0.000054  0.238061  0.749970  1
  Tb  Tb3  1  0.238008  0.238061  0.250030  1
  Tb  Tb4  1  0.761939  0.999946  0.250030  1
  Tb  Tb5  1  0.000054  0.761992  0.250030  1
  Tb  Tb6  1  0.666667  0.333333  0.000000  1
  Ho  Ho7  1  0.333333  0.666667  0.000000  1
  Ho  Ho8  1  0.333333  0.666667  0.500000  1
  Ho  Ho9  1  0.666667  0.333333  0.500000  1
  P  P10  1  0.000000  0.000000  0.000000  1
  P  P11  1  0.000000  0.000000  0.500000  1
  Pb  Pb12  1  0.399950  0.400068  0.749927  1
  Pb  Pb13  1  0.599932  0.999883  0.749927  1
  Pb  Pb14  1  0.000117  0.600050  0.749927  1
  Pb  Pb15  1  0.599932  0.600050  0.250073  1
  Pb  Pb16  1  0.399950  0.999883  0.250073  1
  Pb  Pb17  1  0.000117  0.400068  0.250073  1
