# generated using pymatgen
data_Ca3Ta10Ti2O24
_symmetry_space_group_name_H-M   'P 1'
_cell_length_a   7.09718783
_cell_length_b   7.09718612
_cell_length_c   9.74105800
_cell_angle_alpha   86.72060899
_cell_angle_beta   93.27937405
_cell_angle_gamma   86.67834374
_symmetry_Int_Tables_number   1
_chemical_formula_structural   Ca3Ta10Ti2O24
_chemical_formula_sum   'Ca3 Ta10 Ti2 O24'
_cell_volume   488.12891601
_cell_formula_units_Z   1
loop_
 _symmetry_equiv_pos_site_id
 _symmetry_equiv_pos_as_xyz
  1  'x, y, z'
loop_
 _atom_site_type_symbol
 _atom_site_label
 _atom_site_symmetry_multiplicity
 _atom_site_fract_x
 _atom_site_fract_y
 _atom_site_fract_z
 _atom_site_occupancy
  Ca  Ca0  1  0.623303  0.375598  0.121540  1
  Ca  Ca1  1  0.898003  0.097287  0.396261  1
  Ca  Ca2  1  0.369776  0.633498  0.872798  1
  Ta  Ta3  1  0.599426  0.402414  0.601084  1
  Ta  Ta4  1  0.399062  0.603783  0.401849  1
  Ta  Ta5  1  0.899867  0.099982  0.896134  1
  Ta  Ta6  1  0.106457  0.329471  0.114436  1
  Ta  Ta7  1  0.671059  0.893917  0.113860  1
  Ta  Ta8  1  0.166037  0.398257  0.614496  1
  Ta  Ta9  1  0.331181  0.099923  0.882396  1
  Ta  Ta10  1  0.835381  0.606961  0.388938  1
  Ta  Ta11  1  0.398056  0.161034  0.390569  1
  Ta  Ta12  1  0.893631  0.672594  0.882126  1
  Ti  Ti13  1  0.100046  0.900192  0.097582  1
  Ti  Ti14  1  0.602420  0.835520  0.614586  1
  O  O15  1  0.597161  0.088642  0.252060  1
  O  O16  1  0.083755  0.581512  0.752221  1
  O  O17  1  0.417462  0.917864  0.754182  1
  O  O18  1  0.911544  0.402949  0.252083  1
  O  O19  1  0.822336  0.821223  0.500687  1
  O  O20  1  0.331459  0.332710  0.999546  1
  O  O21  1  0.174762  0.173709  0.501091  1
  O  O22  1  0.666307  0.667170  0.999865  1
  O  O23  1  0.177339  0.091885  0.234391  1
  O  O24  1  0.670684  0.595648  0.736443  1
  O  O25  1  0.129039  0.592320  0.453092  1
  O  O26  1  0.629715  0.104845  0.962994  1
  O  O27  1  0.092745  0.186325  0.767648  1
  O  O28  1  0.596442  0.670086  0.263272  1
  O  O29  1  0.605180  0.131410  0.541470  1
  O  O30  1  0.098239  0.631146  0.038468  1
  O  O31  1  0.815633  0.908055  0.768295  1
  O  O32  1  0.330185  0.402036  0.264755  1
  O  O33  1  0.871058  0.397253  0.542059  1
  O  O34  1  0.369752  0.899615  0.040402  1
  O  O35  1  0.907610  0.822287  0.234637  1
  O  O36  1  0.405332  0.328273  0.737473  1
  O  O37  1  0.409443  0.870482  0.453811  1
  O  O38  1  0.895612  0.369624  0.962897  1
