# generated using pymatgen
data_Ho4MnTc2Ru5
_symmetry_space_group_name_H-M   'P 1'
_cell_length_a   5.26567185
_cell_length_b   5.26567199
_cell_length_c   9.03109600
_cell_angle_alpha   90.00000000
_cell_angle_beta   90.00000000
_cell_angle_gamma   121.16732668
_symmetry_Int_Tables_number   1
_chemical_formula_structural   Ho4MnTc2Ru5
_chemical_formula_sum   'Ho4 Mn1 Tc2 Ru5'
_cell_volume   214.26391893
_cell_formula_units_Z   1
loop_
 _symmetry_equiv_pos_site_id
 _symmetry_equiv_pos_as_xyz
  1  'x, y, z'
loop_
 _atom_site_type_symbol
 _atom_site_label
 _atom_site_symmetry_multiplicity
 _atom_site_fract_x
 _atom_site_fract_y
 _atom_site_fract_z
 _atom_site_occupancy
  Ho  Ho0  1  0.333952  0.666048  0.434912  1
  Ho  Ho1  1  0.664750  0.335250  0.563404  1
  Ho  Ho2  1  0.664750  0.335250  0.936596  1
  Ho  Ho3  1  0.333952  0.666048  0.065088  1
  Mn  Mn4  1  0.832588  0.167412  0.250000  1
  Tc  Tc5  1  0.172501  0.338131  0.750000  1
  Tc  Tc6  1  0.661869  0.827499  0.750000  1
  Ru  Ru7  1  0.993391  0.006609  0.496456  1
  Ru  Ru8  1  0.993391  0.006609  0.003544  1
  Ru  Ru9  1  0.830882  0.655355  0.250000  1
  Ru  Ru10  1  0.344645  0.169118  0.250000  1
  Ru  Ru11  1  0.173331  0.826669  0.750000  1
