# generated using pymatgen
data_Sc4MnTc5Os2
_symmetry_space_group_name_H-M   'P 1'
_cell_length_a   5.15487400
_cell_length_b   5.17006906
_cell_length_c   8.69099000
_cell_angle_alpha   90.00000000
_cell_angle_beta   90.00000000
_cell_angle_gamma   119.90282471
_symmetry_Int_Tables_number   1
_chemical_formula_structural   Sc4MnTc5Os2
_chemical_formula_sum   'Sc4 Mn1 Tc5 Os2'
_cell_volume   200.78844248
_cell_formula_units_Z   1
loop_
 _symmetry_equiv_pos_site_id
 _symmetry_equiv_pos_as_xyz
  1  'x, y, z'
loop_
 _atom_site_type_symbol
 _atom_site_label
 _atom_site_symmetry_multiplicity
 _atom_site_fract_x
 _atom_site_fract_y
 _atom_site_fract_z
 _atom_site_occupancy
  Sc  Sc0  1  0.666820  0.333639  0.063427  1
  Sc  Sc1  1  0.666820  0.333639  0.436574  1
  Sc  Sc2  1  0.334372  0.668743  0.560905  1
  Sc  Sc3  1  0.334372  0.668743  0.939095  1
  Mn  Mn4  1  0.827598  0.655194  0.750000  1
  Tc  Tc5  1  0.169091  0.338183  0.250000  1
  Tc  Tc6  1  0.170535  0.827067  0.250000  1
  Tc  Tc7  1  0.656532  0.827067  0.250000  1
  Tc  Tc8  1  0.347457  0.168875  0.750000  1
  Tc  Tc9  1  0.821416  0.168875  0.750000  1
  Os  Os10  1  0.002494  0.004987  0.993316  1
  Os  Os11  1  0.002494  0.004987  0.506684  1
