# generated using pymatgen
data_Yb4Zr(TcO4)3
_symmetry_space_group_name_H-M   'P 1'
_cell_length_a   5.41439952
_cell_length_b   5.64913860
_cell_length_c   7.79470341
_cell_angle_alpha   89.66549757
_cell_angle_beta   89.71998450
_cell_angle_gamma   90.07732656
_symmetry_Int_Tables_number   1
_chemical_formula_structural   Yb4Zr(TcO4)3
_chemical_formula_sum   'Yb4 Zr1 Tc3 O12'
_cell_volume   238.40706596
_cell_formula_units_Z   1
loop_
 _symmetry_equiv_pos_site_id
 _symmetry_equiv_pos_as_xyz
  1  'x, y, z'
loop_
 _atom_site_type_symbol
 _atom_site_label
 _atom_site_symmetry_multiplicity
 _atom_site_fract_x
 _atom_site_fract_y
 _atom_site_fract_z
 _atom_site_occupancy
  Yb  Yb0  1  0.982633  0.059287  0.241810  1
  Yb  Yb1  1  0.483412  0.435310  0.756894  1
  Yb  Yb2  1  0.516588  0.564690  0.243106  1
  Yb  Yb3  1  0.017367  0.940713  0.758190  1
  Zr  Zr4  1  0.000000  0.500000  0.500000  1
  Tc  Tc5  1  0.500000  0.000000  0.000000  1
  Tc  Tc6  1  0.500000  0.000000  0.500000  1
  Tc  Tc7  1  0.000000  0.500000  0.000000  1
  O  O8  1  0.600855  0.032353  0.749630  1
  O  O9  1  0.197141  0.192147  0.559163  1
  O  O10  1  0.198613  0.203658  0.949889  1
  O  O11  1  0.699535  0.295766  0.049232  1
  O  O12  1  0.686168  0.300414  0.442107  1
  O  O13  1  0.108717  0.462404  0.244755  1
  O  O14  1  0.891283  0.537596  0.755245  1
  O  O15  1  0.313832  0.699586  0.557893  1
  O  O16  1  0.300465  0.704234  0.950768  1
  O  O17  1  0.801387  0.796342  0.050111  1
  O  O18  1  0.802859  0.807853  0.440837  1
  O  O19  1  0.399145  0.967647  0.250370  1
