# generated using pymatgen
data_Ce2SbRh5
_symmetry_space_group_name_H-M   'P 1'
_cell_length_a   4.23005800
_cell_length_b   5.89708300
_cell_length_c   11.48209200
_cell_angle_alpha   90.00000000
_cell_angle_beta   90.00000000
_cell_angle_gamma   90.00000000
_symmetry_Int_Tables_number   1
_chemical_formula_structural   Ce2SbRh5
_chemical_formula_sum   'Ce4 Sb2 Rh10'
_cell_volume   286.42082077
_cell_formula_units_Z   2
loop_
 _symmetry_equiv_pos_site_id
 _symmetry_equiv_pos_as_xyz
  1  'x, y, z'
loop_
 _atom_site_type_symbol
 _atom_site_label
 _atom_site_symmetry_multiplicity
 _atom_site_fract_x
 _atom_site_fract_y
 _atom_site_fract_z
 _atom_site_occupancy
  Ce  Ce0  1  0.500000  0.175173  0.643613  1
  Ce  Ce1  1  0.500000  0.824827  0.356387  1
  Ce  Ce2  1  0.500000  0.675173  0.856387  1
  Ce  Ce3  1  0.500000  0.324827  0.143613  1
  Sb  Sb4  1  0.000000  0.500000  0.500000  1
  Sb  Sb5  1  0.000000  0.000000  0.000000  1
  Rh  Rh6  1  0.500000  0.196954  0.888809  1
  Rh  Rh7  1  0.500000  0.803046  0.111191  1
  Rh  Rh8  1  0.500000  0.696954  0.611191  1
  Rh  Rh9  1  0.500000  0.303046  0.388809  1
  Rh  Rh10  1  0.000000  0.434326  0.745286  1
  Rh  Rh11  1  0.000000  0.565674  0.254714  1
  Rh  Rh12  1  0.000000  0.000000  0.500000  1
  Rh  Rh13  1  0.000000  0.500000  0.000000  1
  Rh  Rh14  1  0.000000  0.065674  0.245286  1
  Rh  Rh15  1  0.000000  0.934326  0.754714  1
