# generated using pymatgen
data_Nd2Ho4Ir11Rh7
_symmetry_space_group_name_H-M   'P 1'
_cell_length_a   5.32532700
_cell_length_b   5.32944357
_cell_length_c   17.46344629
_cell_angle_alpha   90.03964943
_cell_angle_beta   90.00000000
_cell_angle_gamma   119.97445805
_symmetry_Int_Tables_number   1
_chemical_formula_structural   Nd2Ho4Ir11Rh7
_chemical_formula_sum   'Nd2 Ho4 Ir11 Rh7'
_cell_volume   429.33897456
_cell_formula_units_Z   1
loop_
 _symmetry_equiv_pos_site_id
 _symmetry_equiv_pos_as_xyz
  1  'x, y, z'
loop_
 _atom_site_type_symbol
 _atom_site_label
 _atom_site_symmetry_multiplicity
 _atom_site_fract_x
 _atom_site_fract_y
 _atom_site_fract_z
 _atom_site_occupancy
  Nd  Nd0  1  0.333430  0.666861  0.750185  1
  Nd  Nd1  1  0.666666  0.333332  0.249708  1
  Ho  Ho2  1  0.333342  0.666685  0.541091  1
  Ho  Ho3  1  0.666554  0.333107  0.040880  1
  Ho  Ho4  1  0.666296  0.332590  0.458980  1
  Ho  Ho5  1  0.333384  0.666768  0.959036  1
  Ir  Ir6  1  0.167075  0.334148  0.125665  1
  Ir  Ir7  1  0.832349  0.664700  0.624874  1
  Ir  Ir8  1  0.664163  0.831769  0.125151  1
  Ir  Ir9  1  0.167607  0.831769  0.125151  1
  Ir  Ir10  1  0.832757  0.168344  0.625001  1
  Ir  Ir11  1  0.335586  0.168344  0.625001  1
  Ir  Ir12  1  0.832181  0.664364  0.874830  1
  Ir  Ir13  1  0.831969  0.167611  0.874800  1
  Ir  Ir14  1  0.335641  0.167611  0.874800  1
  Ir  Ir15  1  0.665551  0.835089  0.374896  1
  Ir  Ir16  1  0.169540  0.835089  0.374896  1
  Rh  Rh17  1  0.168542  0.337083  0.375525  1
  Rh  Rh18  1  0.999187  0.998373  0.249995  1
  Rh  Rh19  1  0.000112  0.000225  0.749799  1
  Rh  Rh20  1  0.333148  0.666297  0.250115  1
  Rh  Rh21  1  0.666689  0.333378  0.749768  1
  Rh  Rh22  1  0.000370  0.000738  0.999879  1
  Rh  Rh23  1  0.997861  0.995723  0.499973  1
