# generated using pymatgen
data_Ce4TmSn3Br
_symmetry_space_group_name_H-M   'P 1'
_cell_length_a   9.41190900
_cell_length_b   9.41190900
_cell_length_c   6.78586400
_cell_angle_alpha   90.00000000
_cell_angle_beta   90.00000000
_cell_angle_gamma   120.00000353
_symmetry_Int_Tables_number   1
_chemical_formula_structural   Ce4TmSn3Br
_chemical_formula_sum   'Ce8 Tm2 Sn6 Br2'
_cell_volume   520.58446808
_cell_formula_units_Z   2
loop_
 _symmetry_equiv_pos_site_id
 _symmetry_equiv_pos_as_xyz
  1  'x, y, z'
loop_
 _atom_site_type_symbol
 _atom_site_label
 _atom_site_symmetry_multiplicity
 _atom_site_fract_x
 _atom_site_fract_y
 _atom_site_fract_z
 _atom_site_occupancy
  Ce  Ce0  1  0.268892  0.268892  0.750707  1
  Ce  Ce1  1  0.000000  0.731108  0.750707  1
  Ce  Ce2  1  0.731108  0.000000  0.750707  1
  Ce  Ce3  1  0.000000  0.268892  0.249293  1
  Ce  Ce4  1  0.333333  0.666667  0.500000  1
  Ce  Ce5  1  0.731108  0.731108  0.249293  1
  Ce  Ce6  1  0.666667  0.333333  0.500000  1
  Ce  Ce7  1  0.268892  0.000000  0.249293  1
  Tm  Tm8  1  0.333333  0.666667  0.000000  1
  Tm  Tm9  1  0.666667  0.333333  0.000000  1
  Sn  Sn10  1  0.610739  0.000000  0.240042  1
  Sn  Sn11  1  0.000000  0.389261  0.759958  1
  Sn  Sn12  1  0.389261  0.000000  0.759958  1
  Sn  Sn13  1  0.610739  0.610739  0.759958  1
  Sn  Sn14  1  0.000000  0.610739  0.240042  1
  Sn  Sn15  1  0.389261  0.389261  0.240042  1
  Br  Br16  1  0.000000  0.000000  0.000000  1
  Br  Br17  1  0.000000  0.000000  0.500000  1
