# generated using pymatgen
data_TbErAl20Ru3Rh
_symmetry_space_group_name_H-M   'P 1'
_cell_length_a   6.85083670
_cell_length_b   6.85861550
_cell_length_c   9.14405314
_cell_angle_alpha   90.17030465
_cell_angle_beta   90.17045896
_cell_angle_gamma   96.81499067
_symmetry_Int_Tables_number   1
_chemical_formula_structural   TbErAl20Ru3Rh
_chemical_formula_sum   'Tb1 Er1 Al20 Ru3 Rh1'
_cell_volume   426.61395224
_cell_formula_units_Z   1
loop_
 _symmetry_equiv_pos_site_id
 _symmetry_equiv_pos_as_xyz
  1  'x, y, z'
loop_
 _atom_site_type_symbol
 _atom_site_label
 _atom_site_symmetry_multiplicity
 _atom_site_fract_x
 _atom_site_fract_y
 _atom_site_fract_z
 _atom_site_occupancy
  Tb  Tb0  1  0.871724  0.126761  0.750562  1
  Er  Er1  1  0.128501  0.873007  0.249339  1
  Al  Al2  1  0.620795  0.376263  0.550857  1
  Al  Al3  1  0.378957  0.623960  0.449022  1
  Al  Al4  1  0.377126  0.623433  0.049788  1
  Al  Al5  1  0.622635  0.376815  0.950342  1
  Al  Al6  1  0.227121  0.225342  0.499070  1
  Al  Al7  1  0.773039  0.774505  0.500531  1
  Al  Al8  1  0.774217  0.774519  0.000087  1
  Al  Al9  1  0.225952  0.225334  0.000315  1
  Al  Al10  1  0.844705  0.155898  0.099882  1
  Al  Al11  1  0.155640  0.843792  0.900369  1
  Al  Al12  1  0.157128  0.845029  0.601076  1
  Al  Al13  1  0.843193  0.154617  0.398690  1
  Al  Al14  1  0.857989  0.587161  0.750851  1
  Al  Al15  1  0.142225  0.413368  0.249155  1
  Al  Al16  1  0.412944  0.141073  0.750473  1
  Al  Al17  1  0.586536  0.858755  0.249527  1
  Al  Al18  1  0.222929  0.480902  0.752358  1
  Al  Al19  1  0.777425  0.519652  0.247646  1
  Al  Al20  1  0.519050  0.778882  0.749827  1
  Al  Al21  1  0.480404  0.220780  0.250166  1
  Ru  Ru22  1  0.000045  0.500169  0.000343  1
  Ru  Ru23  1  0.499884  0.999986  0.000384  1
  Ru  Ru24  1  0.499844  0.999961  0.499608  1
  Rh  Rh25  1  0.999995  0.500040  0.499733  1
