# generated using pymatgen
data_Pr4Er4Re(TcB8)3
_symmetry_space_group_name_H-M   'P 1'
_cell_length_a   3.73492600
_cell_length_b   9.23414372
_cell_length_c   11.71016105
_cell_angle_alpha   90.01729897
_cell_angle_beta   90.00000000
_cell_angle_gamma   90.00000000
_symmetry_Int_Tables_number   1
_chemical_formula_structural   Pr4Er4Re(TcB8)3
_chemical_formula_sum   'Pr4 Er4 Re1 Tc3 B24'
_cell_volume   403.86989327
_cell_formula_units_Z   1
loop_
 _symmetry_equiv_pos_site_id
 _symmetry_equiv_pos_as_xyz
  1  'x, y, z'
loop_
 _atom_site_type_symbol
 _atom_site_label
 _atom_site_symmetry_multiplicity
 _atom_site_fract_x
 _atom_site_fract_y
 _atom_site_fract_z
 _atom_site_occupancy
  Pr  Pr0  1  0.000000  0.322898  0.414328  1
  Pr  Pr1  1  0.000000  0.677210  0.585505  1
  Pr  Pr2  1  0.000000  0.822784  0.085884  1
  Pr  Pr3  1  0.000000  0.177571  0.914505  1
  Er  Er4  1  0.000000  0.942562  0.368386  1
  Er  Er5  1  0.000000  0.057968  0.630799  1
  Er  Er6  1  0.000000  0.442530  0.131615  1
  Er  Er7  1  0.000000  0.556522  0.868856  1
  Re  Re8  1  0.000000  0.860241  0.818750  1
  Tc  Tc9  1  0.000000  0.640132  0.318694  1
  Tc  Tc10  1  0.000000  0.359891  0.681325  1
  Tc  Tc11  1  0.000000  0.139948  0.181301  1
  B  B12  1  0.500000  0.555757  0.429815  1
  B  B13  1  0.500000  0.444380  0.570206  1
  B  B14  1  0.500000  0.055721  0.070215  1
  B  B15  1  0.500000  0.944419  0.930000  1
  B  B16  1  0.500000  0.750351  0.415469  1
  B  B17  1  0.500000  0.249968  0.584465  1
  B  B18  1  0.500000  0.250346  0.084616  1
  B  B19  1  0.500000  0.749378  0.915625  1
  B  B20  1  0.500000  0.791330  0.266244  1
  B  B21  1  0.500000  0.208589  0.733664  1
  B  B22  1  0.500000  0.291273  0.233826  1
  B  B23  1  0.500000  0.708320  0.766243  1
  B  B24  1  0.500000  0.629103  0.186657  1
  B  B25  1  0.500000  0.370734  0.813345  1
  B  B26  1  0.500000  0.129224  0.313465  1
  B  B27  1  0.500000  0.870904  0.686372  1
  B  B28  1  0.500000  0.984267  0.213344  1
  B  B29  1  0.500000  0.016070  0.786516  1
  B  B30  1  0.500000  0.484248  0.286712  1
  B  B31  1  0.500000  0.515724  0.713412  1
  B  B32  1  0.500000  0.594955  0.026289  1
  B  B33  1  0.500000  0.404580  0.973933  1
  B  B34  1  0.500000  0.095155  0.473470  1
  B  B35  1  0.500000  0.904950  0.526149  1
