# generated using pymatgen
data_Ca8YEr(Sn3H)2
_symmetry_space_group_name_H-M   'P 1'
_cell_length_a   9.43609590
_cell_length_b   9.41661674
_cell_length_c   9.43225662
_cell_angle_alpha   129.21334154
_cell_angle_beta   129.15799778
_cell_angle_gamma   74.67379656
_symmetry_Int_Tables_number   1
_chemical_formula_structural   Ca8YEr(Sn3H)2
_chemical_formula_sum   'Ca8 Y1 Er1 Sn6 H2'
_cell_volume   490.66705917
_cell_formula_units_Z   1
loop_
 _symmetry_equiv_pos_site_id
 _symmetry_equiv_pos_as_xyz
  1  'x, y, z'
loop_
 _atom_site_type_symbol
 _atom_site_label
 _atom_site_symmetry_multiplicity
 _atom_site_fract_x
 _atom_site_fract_y
 _atom_site_fract_z
 _atom_site_occupancy
  Ca  Ca0  1  0.001160  0.998022  0.000658  1
  Ca  Ca1  1  0.185018  0.685545  0.173555  1
  Ca  Ca2  1  0.007481  0.185067  0.497562  1
  Ca  Ca3  1  0.686937  0.508882  0.500162  1
  Ca  Ca4  1  0.489694  0.989967  0.178049  1
  Ca  Ca5  1  0.812274  0.312072  0.822101  1
  Ca  Ca6  1  0.988842  0.812480  0.499603  1
  Ca  Ca7  1  0.312949  0.488821  0.499536  1
  Y  Y8  1  0.513465  0.015343  0.825664  1
  Er  Er9  1  0.497754  0.502327  0.000499  1
  Sn  Sn10  1  0.260883  0.248104  0.995088  1
  Sn  Sn11  1  0.740185  0.751130  0.995275  1
  Sn  Sn12  1  0.862130  0.371598  0.234342  1
  Sn  Sn13  1  0.131937  0.621521  0.755419  1
  Sn  Sn14  1  0.373586  0.133681  0.512374  1
  Sn  Sn15  1  0.623896  0.864188  0.494653  1
  H  H16  1  0.261617  0.761340  0.512909  1
  H  H17  1  0.750193  0.249912  0.502550  1
