# generated using pymatgen
data_TmSc2Fe9
_symmetry_space_group_name_H-M   'P 1'
_cell_length_a   4.95920926
_cell_length_b   4.95920871
_cell_length_c   8.41469523
_cell_angle_alpha   72.86192842
_cell_angle_beta   72.86192881
_cell_angle_gamma   59.99999973
_symmetry_Int_Tables_number   1
_chemical_formula_structural   TmSc2Fe9
_chemical_formula_sum   'Tm1 Sc2 Fe9'
_cell_volume   168.52893572
_cell_formula_units_Z   1
loop_
 _symmetry_equiv_pos_site_id
 _symmetry_equiv_pos_as_xyz
  1  'x, y, z'
loop_
 _atom_site_type_symbol
 _atom_site_label
 _atom_site_symmetry_multiplicity
 _atom_site_fract_x
 _atom_site_fract_y
 _atom_site_fract_z
 _atom_site_occupancy
  Tm  Tm0  1  0.000000  0.000000  0.000000  1
  Sc  Sc1  1  0.142926  0.142926  0.571222  1
  Sc  Sc2  1  0.857074  0.857074  0.428778  1
  Fe  Fe3  1  0.081952  0.585105  0.747836  1
  Fe  Fe4  1  0.585105  0.585105  0.747836  1
  Fe  Fe5  1  0.585105  0.081952  0.747836  1
  Fe  Fe6  1  0.918048  0.414895  0.252164  1
  Fe  Fe7  1  0.414895  0.414895  0.252164  1
  Fe  Fe8  1  0.414895  0.918048  0.252164  1
  Fe  Fe9  1  0.332957  0.332957  0.001130  1
  Fe  Fe10  1  0.667043  0.667043  0.998870  1
  Fe  Fe11  1  0.500000  0.500000  0.500000  1
