# generated using pymatgen
data_CaHo6CoI12
_symmetry_space_group_name_H-M   'P 1'
_cell_length_a   9.70191242
_cell_length_b   9.70191312
_cell_length_c   9.70191344
_cell_angle_alpha   106.94606103
_cell_angle_beta   106.94605842
_cell_angle_gamma   106.94607026
_symmetry_Int_Tables_number   1
_chemical_formula_structural   CaHo6CoI12
_chemical_formula_sum   'Ca1 Ho6 Co1 I12'
_cell_volume   761.64882615
_cell_formula_units_Z   1
loop_
 _symmetry_equiv_pos_site_id
 _symmetry_equiv_pos_as_xyz
  1  'x, y, z'
loop_
 _atom_site_type_symbol
 _atom_site_label
 _atom_site_symmetry_multiplicity
 _atom_site_fract_x
 _atom_site_fract_y
 _atom_site_fract_z
 _atom_site_occupancy
  Ca  Ca0  1  0.996101  0.996101  0.996101  1
  Ho  Ho1  1  0.519313  0.590766  0.788486  1
  Ho  Ho2  1  0.788486  0.519313  0.590766  1
  Ho  Ho3  1  0.590766  0.788486  0.519313  1
  Ho  Ho4  1  0.479152  0.407612  0.210291  1
  Ho  Ho5  1  0.210291  0.479152  0.407612  1
  Ho  Ho6  1  0.407612  0.210291  0.479152  1
  Co  Co7  1  0.499471  0.499471  0.499471  1
  I  I8  1  0.275327  0.822217  0.425884  1
  I  I9  1  0.425884  0.275327  0.822217  1
  I  I10  1  0.822217  0.425884  0.275327  1
  I  I11  1  0.723210  0.176242  0.572120  1
  I  I12  1  0.572120  0.723210  0.176242  1
  I  I13  1  0.176242  0.572120  0.723210  1
  I  I14  1  0.045078  0.123458  0.350525  1
  I  I15  1  0.350525  0.045078  0.123458  1
  I  I16  1  0.123458  0.350525  0.045078  1
  I  I17  1  0.952670  0.873889  0.643559  1
  I  I18  1  0.643559  0.952670  0.873889  1
  I  I19  1  0.873889  0.643559  0.952670  1
