# generated using pymatgen
data_Nd3Zn2HgPt3
_symmetry_space_group_name_H-M   'P 1'
_cell_length_a   7.55630206
_cell_length_b   7.55630106
_cell_length_c   3.95878000
_cell_angle_alpha   90.00000000
_cell_angle_beta   90.00000000
_cell_angle_gamma   118.69844875
_symmetry_Int_Tables_number   1
_chemical_formula_structural   Nd3Zn2HgPt3
_chemical_formula_sum   'Nd3 Zn2 Hg1 Pt3'
_cell_volume   198.27060694
_cell_formula_units_Z   1
loop_
 _symmetry_equiv_pos_site_id
 _symmetry_equiv_pos_as_xyz
  1  'x, y, z'
loop_
 _atom_site_type_symbol
 _atom_site_label
 _atom_site_symmetry_multiplicity
 _atom_site_fract_x
 _atom_site_fract_y
 _atom_site_fract_z
 _atom_site_occupancy
  Nd  Nd0  1  0.402078  0.402078  0.000000  1
  Nd  Nd1  1  0.592938  0.000203  0.000000  1
  Nd  Nd2  1  0.000203  0.592938  0.000000  1
  Zn  Zn3  1  0.250075  0.999348  0.500000  1
  Zn  Zn4  1  0.999348  0.250075  0.500000  1
  Hg  Hg5  1  0.748056  0.748056  0.500000  1
  Pt  Pt6  1  0.024000  0.024000  0.000000  1
  Pt  Pt7  1  0.663695  0.319608  0.500000  1
  Pt  Pt8  1  0.319608  0.663695  0.500000  1
