# generated using pymatgen
data_PrNd11(NiI3)4
_symmetry_space_group_name_H-M   'P 1'
_cell_length_a   10.75573759
_cell_length_b   10.75573807
_cell_length_c   10.77849100
_cell_angle_alpha   109.53386434
_cell_angle_beta   109.53385960
_cell_angle_gamma   109.37817672
_symmetry_Int_Tables_number   1
_chemical_formula_structural   PrNd11(NiI3)4
_chemical_formula_sum   'Pr1 Nd11 Ni4 I12'
_cell_volume   959.49512915
_cell_formula_units_Z   1
loop_
 _symmetry_equiv_pos_site_id
 _symmetry_equiv_pos_as_xyz
  1  'x, y, z'
loop_
 _atom_site_type_symbol
 _atom_site_label
 _atom_site_symmetry_multiplicity
 _atom_site_fract_x
 _atom_site_fract_y
 _atom_site_fract_z
 _atom_site_occupancy
  Pr  Pr0  1  0.228097  0.271903  0.750000  1
  Nd  Nd1  1  0.455331  0.477144  0.228039  1
  Nd  Nd2  1  0.751542  0.228034  0.273710  1
  Nd  Nd3  1  0.749286  0.022168  0.477107  1
  Nd  Nd4  1  0.227884  0.455525  0.477503  1
  Nd  Nd5  1  0.271966  0.748458  0.226290  1
  Nd  Nd6  1  0.044475  0.272116  0.022497  1
  Nd  Nd7  1  0.022856  0.044669  0.271961  1
  Nd  Nd8  1  0.477832  0.750714  0.022893  1
  Nd  Nd9  1  0.477267  0.227348  0.454969  1
  Nd  Nd10  1  0.022245  0.477755  0.750000  1
  Nd  Nd11  1  0.272652  0.022733  0.045031  1
  Ni  Ni12  1  0.250135  0.249865  0.250000  1
  Ni  Ni13  1  0.500080  0.999920  0.250000  1
  Ni  Ni14  1  0.999446  0.250104  0.499574  1
  Ni  Ni15  1  0.249896  0.500554  0.000426  1
  I  I16  1  0.249975  0.759479  0.741004  1
  I  I17  1  0.519826  0.512237  0.758589  1
  I  I18  1  0.981213  0.740470  0.990609  1
  I  I19  1  0.740521  0.250025  0.758996  1
  I  I20  1  0.987763  0.980174  0.741411  1
  I  I21  1  0.249615  0.988449  0.506873  1
  I  I22  1  0.759530  0.518787  0.509391  1
  I  I23  1  0.511551  0.250385  0.993127  1
  I  I24  1  0.759111  0.740889  0.250000  1
  I  I25  1  0.740450  0.990908  0.981464  1
  I  I26  1  0.990365  0.509635  0.250000  1
  I  I27  1  0.509092  0.759550  0.518536  1
