# generated using pymatgen
data_Dy5Co17Si11PRu2
_symmetry_space_group_name_H-M   'P 1'
_cell_length_a   12.17582871
_cell_length_b   12.15865966
_cell_length_c   3.74914200
_cell_angle_alpha   90.00000000
_cell_angle_beta   90.00000000
_cell_angle_gamma   119.95335440
_symmetry_Int_Tables_number   1
_chemical_formula_structural   Dy5Co17Si11PRu2
_chemical_formula_sum   'Dy5 Co17 Si11 P1 Ru2'
_cell_volume   480.89547858
_cell_formula_units_Z   1
loop_
 _symmetry_equiv_pos_site_id
 _symmetry_equiv_pos_as_xyz
  1  'x, y, z'
loop_
 _atom_site_type_symbol
 _atom_site_label
 _atom_site_symmetry_multiplicity
 _atom_site_fract_x
 _atom_site_fract_y
 _atom_site_fract_z
 _atom_site_occupancy
  Dy  Dy0  1  0.665234  0.331771  0.000000  1
  Dy  Dy1  1  0.334766  0.666538  0.000000  1
  Dy  Dy2  1  0.183533  0.184811  0.500000  1
  Dy  Dy3  1  0.816467  0.001278  0.500000  1
  Dy  Dy4  1  0.000000  0.813451  0.500000  1
  Co  Co5  1  0.000000  0.441406  0.000000  1
  Co  Co6  1  0.824735  0.199403  0.000000  1
  Co  Co7  1  0.804409  0.621943  0.000000  1
  Co  Co8  1  0.374650  0.180118  0.000000  1
  Co  Co9  1  0.195591  0.817533  0.000000  1
  Co  Co10  1  0.625350  0.805467  0.000000  1
  Co  Co11  1  0.175265  0.374668  0.000000  1
  Co  Co12  1  0.647014  0.125316  0.500000  1
  Co  Co13  1  0.877492  0.520175  0.500000  1
  Co  Co14  1  0.477786  0.354544  0.500000  1
  Co  Co15  1  0.122508  0.642683  0.500000  1
  Co  Co16  1  0.522214  0.876758  0.500000  1
  Co  Co17  1  0.352986  0.478302  0.500000  1
  Co  Co18  1  0.722187  0.720735  0.500000  1
  Co  Co19  1  0.277813  0.998549  0.500000  1
  Co  Co20  1  0.000000  0.278996  0.500000  1
  Co  Co21  1  0.000000  0.005755  0.000000  1
  Si  Si22  1  0.366447  0.368292  0.000000  1
  Si  Si23  1  0.633553  0.001845  0.000000  1
  Si  Si24  1  0.000000  0.627882  0.000000  1
  Si  Si25  1  0.840399  0.318054  0.500000  1
  Si  Si26  1  0.683490  0.521760  0.500000  1
  Si  Si27  1  0.476137  0.160390  0.500000  1
  Si  Si28  1  0.316510  0.838270  0.500000  1
  Si  Si29  1  0.523863  0.684253  0.500000  1
  Si  Si30  1  0.159601  0.477654  0.500000  1
  Si  Si31  1  0.818520  0.817264  0.000000  1
  Si  Si32  1  0.181480  0.998743  0.000000  1
  P  P33  1  0.000000  0.185165  0.000000  1
  Ru  Ru34  1  0.559295  0.559761  0.000000  1
  Ru  Ru35  1  0.440705  0.000466  0.000000  1
