# generated using pymatgen
data_LaNd3B4I5
_symmetry_space_group_name_H-M   'P 1'
_cell_length_a   9.92529216
_cell_length_b   9.92529140
_cell_length_c   10.17296838
_cell_angle_alpha   74.23634395
_cell_angle_beta   74.23634484
_cell_angle_gamma   25.28373064
_symmetry_Int_Tables_number   1
_chemical_formula_structural   LaNd3B4I5
_chemical_formula_sum   'La1 Nd3 B4 I5'
_cell_volume   411.09676891
_cell_formula_units_Z   1
loop_
 _symmetry_equiv_pos_site_id
 _symmetry_equiv_pos_as_xyz
  1  'x, y, z'
loop_
 _atom_site_type_symbol
 _atom_site_label
 _atom_site_symmetry_multiplicity
 _atom_site_fract_x
 _atom_site_fract_y
 _atom_site_fract_z
 _atom_site_occupancy
  La  La0  1  0.865757  0.865757  0.065593  1
  Nd  Nd1  1  0.506805  0.506805  0.751648  1
  Nd  Nd2  1  0.495849  0.495849  0.247310  1
  Nd  Nd3  1  0.132595  0.132595  0.933886  1
  B  B4  1  0.316072  0.684900  0.999894  1
  B  B5  1  0.684900  0.316072  0.999894  1
  B  B6  1  0.998849  0.998849  0.093275  1
  B  B7  1  0.001429  0.001429  0.906772  1
  I  I8  1  0.678064  0.678064  0.685091  1
  I  I9  1  0.323899  0.323899  0.322747  1
  I  I10  1  0.330720  0.330720  0.842432  1
  I  I11  1  0.671658  0.671658  0.146079  1
  I  I12  1  0.007702  0.007702  0.495580  1
