# generated using pymatgen
data_PrNd7SnPd24
_symmetry_space_group_name_H-M   'P 1'
_cell_length_a   8.55771400
_cell_length_b   8.55771400
_cell_length_c   8.55771400
_cell_angle_alpha   90.00239686
_cell_angle_beta   90.00239686
_cell_angle_gamma   90.00239686
_symmetry_Int_Tables_number   1
_chemical_formula_structural   PrNd7SnPd24
_chemical_formula_sum   'Pr1 Nd7 Sn1 Pd24'
_cell_volume   626.71963902
_cell_formula_units_Z   1
loop_
 _symmetry_equiv_pos_site_id
 _symmetry_equiv_pos_as_xyz
  1  'x, y, z'
loop_
 _atom_site_type_symbol
 _atom_site_label
 _atom_site_symmetry_multiplicity
 _atom_site_fract_x
 _atom_site_fract_y
 _atom_site_fract_z
 _atom_site_occupancy
  Pr  Pr0  1  0.251960  0.251960  0.251960  1
  Nd  Nd1  1  0.747988  0.747988  0.747988  1
  Nd  Nd2  1  0.748014  0.748014  0.252007  1
  Nd  Nd3  1  0.748014  0.252007  0.748014  1
  Nd  Nd4  1  0.251999  0.251999  0.747988  1
  Nd  Nd5  1  0.251999  0.747988  0.251999  1
  Nd  Nd6  1  0.252007  0.748014  0.748014  1
  Nd  Nd7  1  0.747988  0.251999  0.251999  1
  Sn  Sn8  1  0.999961  0.999961  0.999961  1
  Pd  Pd9  1  0.266665  0.500148  0.999853  1
  Pd  Pd10  1  0.733329  0.499998  0.999991  1
  Pd  Pd11  1  0.999853  0.266665  0.500148  1
  Pd  Pd12  1  0.500148  0.266665  0.999853  1
  Pd  Pd13  1  0.999991  0.733329  0.499998  1
  Pd  Pd14  1  0.499998  0.733329  0.999991  1
  Pd  Pd15  1  0.500148  0.999853  0.266665  1
  Pd  Pd16  1  0.266665  0.999853  0.500148  1
  Pd  Pd17  1  0.499998  0.999991  0.733329  1
  Pd  Pd18  1  0.733329  0.999991  0.499998  1
  Pd  Pd19  1  0.999853  0.500148  0.266665  1
  Pd  Pd20  1  0.999991  0.499998  0.733329  1
  Pd  Pd21  1  0.255181  0.500168  0.500168  1
  Pd  Pd22  1  0.744815  0.500001  0.500001  1
  Pd  Pd23  1  0.500168  0.255181  0.500168  1
  Pd  Pd24  1  0.500001  0.744815  0.500001  1
  Pd  Pd25  1  0.500168  0.500168  0.255181  1
  Pd  Pd26  1  0.500001  0.500001  0.744815  1
  Pd  Pd27  1  0.311904  0.999864  0.999864  1
  Pd  Pd28  1  0.688121  0.000008  0.000008  1
  Pd  Pd29  1  0.999864  0.311904  0.999864  1
  Pd  Pd30  1  0.000008  0.688121  0.000008  1
  Pd  Pd31  1  0.999864  0.999864  0.311904  1
  Pd  Pd32  1  0.000008  0.000008  0.688121  1
