# generated using pymatgen
data_Ca3Ce(OsC2)2
_symmetry_space_group_name_H-M   'P 1'
_cell_length_a   5.17924100
_cell_length_b   6.49860964
_cell_length_c   10.47693105
_cell_angle_alpha   90.07649567
_cell_angle_beta   90.00000000
_cell_angle_gamma   90.00000000
_symmetry_Int_Tables_number   1
_chemical_formula_structural   Ca3Ce(OsC2)2
_chemical_formula_sum   'Ca6 Ce2 Os4 C8'
_cell_volume   352.63082153
_cell_formula_units_Z   2
loop_
 _symmetry_equiv_pos_site_id
 _symmetry_equiv_pos_as_xyz
  1  'x, y, z'
loop_
 _atom_site_type_symbol
 _atom_site_label
 _atom_site_symmetry_multiplicity
 _atom_site_fract_x
 _atom_site_fract_y
 _atom_site_fract_z
 _atom_site_occupancy
  Ca  Ca0  1  0.750000  0.805841  0.052347  1
  Ca  Ca1  1  0.250000  0.194159  0.947653  1
  Ca  Ca2  1  0.250000  0.534820  0.216242  1
  Ca  Ca3  1  0.750000  0.465180  0.783758  1
  Ca  Ca4  1  0.750000  0.967249  0.731956  1
  Ca  Ca5  1  0.250000  0.032751  0.268044  1
  Ce  Ce6  1  0.250000  0.696555  0.549434  1
  Ce  Ce7  1  0.750000  0.303445  0.450566  1
  Os  Os8  1  0.250000  0.731162  0.853040  1
  Os  Os9  1  0.750000  0.268838  0.146960  1
  Os  Os10  1  0.750000  0.769345  0.349426  1
  Os  Os11  1  0.250000  0.230655  0.650574  1
  C  C12  1  0.250000  0.473487  0.754007  1
  C  C13  1  0.750000  0.526513  0.245993  1
  C  C14  1  0.750000  0.032626  0.260406  1
  C  C15  1  0.250000  0.967374  0.739594  1
  C  C16  1  0.250000  0.791413  0.025637  1
  C  C17  1  0.750000  0.208587  0.974363  1
  C  C18  1  0.750000  0.690586  0.526933  1
  C  C19  1  0.250000  0.309414  0.473067  1
