# generated using pymatgen
data_Sc3CO2
_symmetry_space_group_name_H-M   'P 1'
_cell_length_a   3.22030594
_cell_length_b   5.58279344
_cell_length_c   5.58303805
_cell_angle_alpha   132.16665260
_cell_angle_beta   73.05047132
_cell_angle_gamma   106.95582843
_symmetry_Int_Tables_number   1
_chemical_formula_structural   Sc3CO2
_chemical_formula_sum   'Sc3 C1 O2'
_cell_volume   70.51030920
_cell_formula_units_Z   1
loop_
 _symmetry_equiv_pos_site_id
 _symmetry_equiv_pos_as_xyz
  1  'x, y, z'
loop_
 _atom_site_type_symbol
 _atom_site_label
 _atom_site_symmetry_multiplicity
 _atom_site_fract_x
 _atom_site_fract_y
 _atom_site_fract_z
 _atom_site_occupancy
  Sc  Sc0  1  0.017525  0.385021  0.255552  1
  Sc  Sc1  1  0.340503  0.704923  0.934899  1
  Sc  Sc2  1  0.678294  0.044956  0.595231  1
  C  C3  1  0.678993  0.544870  0.095118  1
  O  O4  1  0.346042  0.211959  0.428873  1
  O  O5  1  0.011701  0.878087  0.761882  1
