# generated using pymatgen
data_LiMg3Ta2(NiSb)6
_symmetry_space_group_name_H-M   'P 1'
_cell_length_a   7.35709345
_cell_length_b   7.37221593
_cell_length_c   7.37171905
_cell_angle_alpha   119.96760511
_cell_angle_beta   99.59547352
_cell_angle_gamma   99.64419216
_symmetry_Int_Tables_number   1
_chemical_formula_structural   LiMg3Ta2(NiSb)6
_chemical_formula_sum   'Li1 Mg3 Ta2 Ni6 Sb6'
_cell_volume   326.47591690
_cell_formula_units_Z   1
loop_
 _symmetry_equiv_pos_site_id
 _symmetry_equiv_pos_as_xyz
  1  'x, y, z'
loop_
 _atom_site_type_symbol
 _atom_site_label
 _atom_site_symmetry_multiplicity
 _atom_site_fract_x
 _atom_site_fract_y
 _atom_site_fract_z
 _atom_site_occupancy
  Li  Li0  1  0.999326  0.501881  0.001169  1
  Mg  Mg1  1  0.498932  0.328778  0.164634  1
  Mg  Mg2  1  0.999063  0.163774  0.329995  1
  Mg  Mg3  1  0.499304  0.000906  0.501981  1
  Ta  Ta4  1  0.002209  0.834225  0.669291  1
  Ta  Ta5  1  0.502162  0.670140  0.833578  1
  Ni  Ni6  1  0.120868  0.191040  0.026113  1
  Ni  Ni7  1  0.619803  0.025547  0.193125  1
  Ni  Ni8  1  0.121627  0.876079  0.391673  1
  Ni  Ni9  1  0.634594  0.710867  0.556460  1
  Ni  Ni10  1  0.136004  0.556666  0.708262  1
  Ni  Ni11  1  0.617629  0.388173  0.872257  1
  Sb  Sb12  1  0.243953  0.911013  0.089222  1
  Sb  Sb13  1  0.751887  0.747178  0.251155  1
  Sb  Sb14  1  0.250179  0.577413  0.405211  1
  Sb  Sb15  1  0.756350  0.412503  0.584243  1
  Sb  Sb16  1  0.245729  0.258210  0.753639  1
  Sb  Sb17  1  0.750381  0.095610  0.917995  1
