# generated using pymatgen
data_Nd2Hg(AsRh2)6
_symmetry_space_group_name_H-M   'P 1'
_cell_length_a   10.08968800
_cell_length_b   10.08968876
_cell_length_c   4.03254300
_cell_angle_alpha   90.00000000
_cell_angle_beta   90.00000000
_cell_angle_gamma   119.99999751
_symmetry_Int_Tables_number   1
_chemical_formula_structural   Nd2Hg(AsRh2)6
_chemical_formula_sum   'Nd2 Hg1 As6 Rh12'
_cell_volume   355.52091590
_cell_formula_units_Z   1
loop_
 _symmetry_equiv_pos_site_id
 _symmetry_equiv_pos_as_xyz
  1  'x, y, z'
loop_
 _atom_site_type_symbol
 _atom_site_label
 _atom_site_symmetry_multiplicity
 _atom_site_fract_x
 _atom_site_fract_y
 _atom_site_fract_z
 _atom_site_occupancy
  Nd  Nd0  1  0.333333  0.666667  0.759248  1
  Nd  Nd1  1  0.666667  0.333333  0.243364  1
  Hg  Hg2  1  0.000000  0.000000  0.574686  1
  As  As3  1  0.884098  0.596471  0.745688  1
  As  As4  1  0.403529  0.287627  0.745688  1
  As  As5  1  0.712373  0.115902  0.745688  1
  As  As6  1  0.114110  0.401255  0.257428  1
  As  As7  1  0.598745  0.712855  0.257428  1
  As  As8  1  0.287145  0.885890  0.257428  1
  Rh  Rh9  1  0.615757  0.552957  0.750099  1
  Rh  Rh10  1  0.447043  0.062800  0.750099  1
  Rh  Rh11  1  0.937200  0.384243  0.750099  1
  Rh  Rh12  1  0.389035  0.448996  0.253257  1
  Rh  Rh13  1  0.551004  0.940040  0.253257  1
  Rh  Rh14  1  0.059960  0.610965  0.253257  1
  Rh  Rh15  1  0.130319  0.834109  0.761489  1
  Rh  Rh16  1  0.165891  0.296210  0.761489  1
  Rh  Rh17  1  0.703790  0.869681  0.761489  1
  Rh  Rh18  1  0.872463  0.155458  0.241032  1
  Rh  Rh19  1  0.844542  0.717005  0.241032  1
  Rh  Rh20  1  0.282995  0.127537  0.241032  1
