# generated using pymatgen
data_Ho3TmLu4(B6Rh)4
_symmetry_space_group_name_H-M   'P 1'
_cell_length_a   3.61371700
_cell_length_b   9.10229901
_cell_length_c   11.43953902
_cell_angle_alpha   90.00598008
_cell_angle_beta   90.00000000
_cell_angle_gamma   90.00000000
_symmetry_Int_Tables_number   1
_chemical_formula_structural   Ho3TmLu4(B6Rh)4
_chemical_formula_sum   'Ho3 Tm1 Lu4 B24 Rh4'
_cell_volume   376.28227259
_cell_formula_units_Z   1
loop_
 _symmetry_equiv_pos_site_id
 _symmetry_equiv_pos_as_xyz
  1  'x, y, z'
loop_
 _atom_site_type_symbol
 _atom_site_label
 _atom_site_symmetry_multiplicity
 _atom_site_fract_x
 _atom_site_fract_y
 _atom_site_fract_z
 _atom_site_occupancy
  Ho  Ho0  1  0.500000  0.321635  0.413727  1
  Ho  Ho1  1  0.500000  0.678427  0.586213  1
  Ho  Ho2  1  0.500000  0.178398  0.913834  1
  Tm  Tm3  1  0.500000  0.821360  0.086189  1
  Lu  Lu4  1  0.500000  0.444506  0.126730  1
  Lu  Lu5  1  0.500000  0.555780  0.873435  1
  Lu  Lu6  1  0.500000  0.055629  0.626757  1
  Lu  Lu7  1  0.500000  0.944285  0.373146  1
  B  B8  1  0.000000  0.106335  0.471211  1
  B  B9  1  0.000000  0.893578  0.528691  1
  B  B10  1  0.000000  0.393456  0.971252  1
  B  B11  1  0.000000  0.607175  0.028982  1
  B  B12  1  0.000000  0.132212  0.316713  1
  B  B13  1  0.000000  0.867710  0.683236  1
  B  B14  1  0.000000  0.367756  0.816895  1
  B  B15  1  0.000000  0.632692  0.182894  1
  B  B16  1  0.000000  0.053783  0.065386  1
  B  B17  1  0.000000  0.945439  0.935064  1
  B  B18  1  0.000000  0.445796  0.565387  1
  B  B19  1  0.000000  0.554281  0.434488  1
  B  B20  1  0.000000  0.482584  0.286021  1
  B  B21  1  0.000000  0.517633  0.713993  1
  B  B22  1  0.000000  0.017402  0.786157  1
  B  B23  1  0.000000  0.981972  0.213552  1
  B  B24  1  0.000000  0.250748  0.079772  1
  B  B25  1  0.000000  0.749365  0.920829  1
  B  B26  1  0.000000  0.249159  0.579705  1
  B  B27  1  0.000000  0.750850  0.420135  1
  B  B28  1  0.000000  0.294925  0.235891  1
  B  B29  1  0.000000  0.705128  0.764203  1
  B  B30  1  0.000000  0.205012  0.736053  1
  B  B31  1  0.000000  0.795156  0.263492  1
  Rh  Rh32  1  0.500000  0.139672  0.179544  1
  Rh  Rh33  1  0.500000  0.859815  0.820661  1
  Rh  Rh34  1  0.500000  0.359737  0.679923  1
  Rh  Rh35  1  0.500000  0.640611  0.319844  1
