# generated using pymatgen
data_Pr9Y11Sn11Bi5
_symmetry_space_group_name_H-M   'P 1'
_cell_length_a   8.32461120
_cell_length_b   8.34254428
_cell_length_c   15.79747239
_cell_angle_alpha   89.92638952
_cell_angle_beta   89.52170178
_cell_angle_gamma   90.07819837
_symmetry_Int_Tables_number   1
_chemical_formula_structural   Pr9Y11Sn11Bi5
_chemical_formula_sum   'Pr9 Y11 Sn11 Bi5'
_cell_volume   1097.06960513
_cell_formula_units_Z   1
loop_
 _symmetry_equiv_pos_site_id
 _symmetry_equiv_pos_as_xyz
  1  'x, y, z'
loop_
 _atom_site_type_symbol
 _atom_site_label
 _atom_site_symmetry_multiplicity
 _atom_site_fract_x
 _atom_site_fract_y
 _atom_site_fract_z
 _atom_site_occupancy
  Pr  Pr0  1  0.465435  0.823387  0.894115  1
  Pr  Pr1  1  0.977698  0.675971  0.599948  1
  Pr  Pr2  1  0.522882  0.176251  0.398769  1
  Pr  Pr3  1  0.030268  0.327740  0.105069  1
  Pr  Pr4  1  0.539036  0.176376  0.108606  1
  Pr  Pr5  1  0.035837  0.323473  0.398461  1
  Pr  Pr6  1  0.463935  0.823001  0.600422  1
  Pr  Pr7  1  0.957864  0.672478  0.894361  1
  Pr  Pr8  1  0.624785  0.340163  0.879511  1
  Y  Y9  1  0.134011  0.161618  0.621702  1
  Y  Y10  1  0.365603  0.662604  0.377775  1
  Y  Y11  1  0.872951  0.836389  0.126938  1
  Y  Y12  1  0.378866  0.658639  0.124081  1
  Y  Y13  1  0.875151  0.839939  0.375285  1
  Y  Y14  1  0.626584  0.340304  0.623650  1
  Y  Y15  1  0.127198  0.160180  0.873995  1
  Y  Y16  1  0.293857  0.499743  0.744649  1
  Y  Y17  1  0.795334  0.999906  0.748108  1
  Y  Y18  1  0.705219  0.501285  0.249819  1
  Y  Y19  1  0.205906  0.999415  0.253434  1
  Sn  Sn20  1  0.290924  0.462798  0.543473  1
  Sn  Sn21  1  0.209441  0.963626  0.455848  1
  Sn  Sn22  1  0.716155  0.536309  0.047957  1
  Sn  Sn23  1  0.660206  0.644251  0.746636  1
  Sn  Sn24  1  0.159158  0.858251  0.749122  1
  Sn  Sn25  1  0.339170  0.359649  0.251208  1
  Sn  Sn26  1  0.840293  0.142511  0.252462  1
  Sn  Sn27  1  0.429176  0.125437  0.748696  1
  Sn  Sn28  1  0.930908  0.370570  0.747496  1
  Sn  Sn29  1  0.570233  0.871078  0.251974  1
  Sn  Sn30  1  0.072004  0.627250  0.250288  1
  Bi  Bi31  1  0.216945  0.968255  0.045001  1
  Bi  Bi32  1  0.709733  0.537024  0.456587  1
  Bi  Bi33  1  0.790632  0.036750  0.542349  1
  Bi  Bi34  1  0.277041  0.470717  0.955328  1
  Bi  Bi35  1  0.789560  0.026664  0.956876  1
