# generated using pymatgen
data_LiLaCdPd3
_symmetry_space_group_name_H-M   'P 1'
_cell_length_a   5.31042116
_cell_length_b   5.55726230
_cell_length_c   5.55726200
_cell_angle_alpha   60.00001369
_cell_angle_beta   58.45009744
_cell_angle_gamma   58.45009469
_symmetry_Int_Tables_number   1
_chemical_formula_structural   LiLaCdPd3
_chemical_formula_sum   'Li1 La1 Cd1 Pd3'
_cell_volume   113.17592875
_cell_formula_units_Z   1
loop_
 _symmetry_equiv_pos_site_id
 _symmetry_equiv_pos_as_xyz
  1  'x, y, z'
loop_
 _atom_site_type_symbol
 _atom_site_label
 _atom_site_symmetry_multiplicity
 _atom_site_fract_x
 _atom_site_fract_y
 _atom_site_fract_z
 _atom_site_occupancy
  Li  Li0  1  0.634883  0.121706  0.121706  1
  La  La1  1  0.491292  0.502902  0.502902  1
  Cd  Cd2  1  0.734848  0.755051  0.755051  1
  Pd  Pd3  1  0.129659  0.122701  0.624939  1
  Pd  Pd4  1  0.129659  0.624939  0.122701  1
  Pd  Pd5  1  0.129659  0.122701  0.122701  1
