# generated using pymatgen
data_SrLaNi12P5
_symmetry_space_group_name_H-M   'P 1'
_cell_length_a   3.66582100
_cell_length_b   10.95899480
_cell_length_c   13.23092491
_cell_angle_alpha   72.02836168
_cell_angle_beta   90.00000000
_cell_angle_gamma   90.00000000
_symmetry_Int_Tables_number   1
_chemical_formula_structural   SrLaNi12P5
_chemical_formula_sum   'Sr2 La2 Ni24 P10'
_cell_volume   505.60143444
_cell_formula_units_Z   2
loop_
 _symmetry_equiv_pos_site_id
 _symmetry_equiv_pos_as_xyz
  1  'x, y, z'
loop_
 _atom_site_type_symbol
 _atom_site_label
 _atom_site_symmetry_multiplicity
 _atom_site_fract_x
 _atom_site_fract_y
 _atom_site_fract_z
 _atom_site_occupancy
  Sr  Sr0  1  0.250000  0.748378  0.187551  1
  Sr  Sr1  1  0.750000  0.251622  0.812449  1
  La  La2  1  0.250000  0.779445  0.683208  1
  La  La3  1  0.750000  0.220555  0.316792  1
  Ni  Ni4  1  0.250000  0.571611  0.014164  1
  Ni  Ni5  1  0.250000  0.565829  0.448730  1
  Ni  Ni6  1  0.750000  0.506529  0.341421  1
  Ni  Ni7  1  0.250000  0.493471  0.658579  1
  Ni  Ni8  1  0.750000  0.510508  0.150398  1
  Ni  Ni9  1  0.250000  0.489492  0.849602  1
  Ni  Ni10  1  0.750000  0.434171  0.551270  1
  Ni  Ni11  1  0.250000  0.344271  0.135196  1
  Ni  Ni12  1  0.750000  0.656812  0.561537  1
  Ni  Ni13  1  0.250000  0.343188  0.438463  1
  Ni  Ni14  1  0.750000  0.905556  0.305426  1
  Ni  Ni15  1  0.250000  0.094444  0.694574  1
  Ni  Ni16  1  0.750000  0.918620  0.990299  1
  Ni  Ni17  1  0.250000  0.081380  0.009701  1
  Ni  Ni18  1  0.750000  0.920951  0.490885  1
  Ni  Ni19  1  0.250000  0.079049  0.509115  1
  Ni  Ni20  1  0.750000  0.938936  0.796060  1
  Ni  Ni21  1  0.250000  0.061064  0.203940  1
  Ni  Ni22  1  0.250000  0.786740  0.438822  1
  Ni  Ni23  1  0.750000  0.213260  0.561178  1
  Ni  Ni24  1  0.250000  0.798281  0.917556  1
  Ni  Ni25  1  0.750000  0.201719  0.082444  1
  Ni  Ni26  1  0.750000  0.655729  0.864804  1
  Ni  Ni27  1  0.750000  0.428389  0.985836  1
  P  P28  1  0.250000  0.007292  0.871526  1
  P  P29  1  0.750000  0.992708  0.128474  1
  P  P30  1  0.250000  0.299962  0.985073  1
  P  P31  1  0.750000  0.700038  0.014927  1
  P  P32  1  0.250000  0.450639  0.260074  1
  P  P33  1  0.750000  0.549361  0.739926  1
  P  P34  1  0.250000  0.992129  0.378731  1
  P  P35  1  0.750000  0.007871  0.621269  1
  P  P36  1  0.250000  0.311234  0.610762  1
  P  P37  1  0.750000  0.688766  0.389238  1
