# generated using pymatgen
data_TiCd2(PdO4)2
_symmetry_space_group_name_H-M   'P 1'
_cell_length_a   5.24495816
_cell_length_b   6.11220702
_cell_length_c   6.33242307
_cell_angle_alpha   118.85613254
_cell_angle_beta   106.48492090
_cell_angle_gamma   90.00000676
_symmetry_Int_Tables_number   1
_chemical_formula_structural   TiCd2(PdO4)2
_chemical_formula_sum   'Ti1 Cd2 Pd2 O8'
_cell_volume   168.20952789
_cell_formula_units_Z   1
loop_
 _symmetry_equiv_pos_site_id
 _symmetry_equiv_pos_as_xyz
  1  'x, y, z'
loop_
 _atom_site_type_symbol
 _atom_site_label
 _atom_site_symmetry_multiplicity
 _atom_site_fract_x
 _atom_site_fract_y
 _atom_site_fract_z
 _atom_site_occupancy
  Ti  Ti0  1  0.000000  0.716791  0.999999  1
  Cd  Cd1  1  0.651372  0.724358  0.440869  1
  Cd  Cd2  1  0.348629  0.283489  0.559132  1
  Pd  Pd3  1  0.500001  0.000741  0.000000  1
  Pd  Pd4  1  0.000001  0.249582  0.000001  1
  O  O5  1  0.067012  0.401621  0.786040  1
  O  O6  1  0.932989  0.615583  0.213961  1
  O  O7  1  0.096254  0.903233  0.805216  1
  O  O8  1  0.903745  0.098018  0.194784  1
  O  O9  1  0.389242  0.334426  0.222418  1
  O  O10  1  0.377870  0.888028  0.215904  1
  O  O11  1  0.610759  0.112005  0.777582  1
  O  O12  1  0.622131  0.672125  0.784096  1
