# generated using pymatgen
data_Dy2Y2Ru7W
_symmetry_space_group_name_H-M   'P 1'
_cell_length_a   5.49951788
_cell_length_b   5.19495912
_cell_length_c   9.05501405
_cell_angle_alpha   89.99089077
_cell_angle_beta   89.99814559
_cell_angle_gamma   121.96802925
_symmetry_Int_Tables_number   1
_chemical_formula_structural   Dy2Y2Ru7W
_chemical_formula_sum   'Dy2 Y2 Ru7 W1'
_cell_volume   219.46622238
_cell_formula_units_Z   1
loop_
 _symmetry_equiv_pos_site_id
 _symmetry_equiv_pos_as_xyz
  1  'x, y, z'
loop_
 _atom_site_type_symbol
 _atom_site_label
 _atom_site_symmetry_multiplicity
 _atom_site_fract_x
 _atom_site_fract_y
 _atom_site_fract_z
 _atom_site_occupancy
  Dy  Dy0  1  0.334941  0.670024  0.068136  1
  Dy  Dy1  1  0.673120  0.346715  0.937044  1
  Y  Y2  1  0.673042  0.346589  0.563259  1
  Y  Y3  1  0.334815  0.669766  0.431627  1
  Ru  Ru4  1  0.009372  0.018944  0.498305  1
  Ru  Ru5  1  0.009655  0.019428  0.001689  1
  Ru  Ru6  1  0.171630  0.818658  0.750370  1
  Ru  Ru7  1  0.647747  0.818684  0.750385  1
  Ru  Ru8  1  0.823621  0.646853  0.249693  1
  Ru  Ru9  1  0.832227  0.164375  0.249665  1
  Ru  Ru10  1  0.332909  0.164886  0.249650  1
  W  W11  1  0.156921  0.315078  0.750176  1
