# generated using pymatgen
data_TcMoRu6
_symmetry_space_group_name_H-M   'P 1'
_cell_length_a   5.50723700
_cell_length_b   5.50723626
_cell_length_c   4.34110600
_cell_angle_alpha   90.00000000
_cell_angle_beta   90.00000000
_cell_angle_gamma   120.00001047
_symmetry_Int_Tables_number   1
_chemical_formula_structural   TcMoRu6
_chemical_formula_sum   'Tc1 Mo1 Ru6'
_cell_volume   114.02457196
_cell_formula_units_Z   1
loop_
 _symmetry_equiv_pos_site_id
 _symmetry_equiv_pos_as_xyz
  1  'x, y, z'
loop_
 _atom_site_type_symbol
 _atom_site_label
 _atom_site_symmetry_multiplicity
 _atom_site_fract_x
 _atom_site_fract_y
 _atom_site_fract_z
 _atom_site_occupancy
  Tc  Tc0  1  0.666667  0.333333  0.250000  1
  Mo  Mo1  1  0.333333  0.666667  0.750000  1
  Ru  Ru2  1  0.165339  0.330679  0.250000  1
  Ru  Ru3  1  0.669321  0.834661  0.250000  1
  Ru  Ru4  1  0.165339  0.834661  0.250000  1
  Ru  Ru5  1  0.831604  0.663207  0.750000  1
  Ru  Ru6  1  0.336793  0.168396  0.750000  1
  Ru  Ru7  1  0.831604  0.168396  0.750000  1
