# generated using pymatgen
data_Dy11Ho9(Cd3Co)2
_symmetry_space_group_name_H-M   'P 1'
_cell_length_a   9.55192402
_cell_length_b   9.55272963
_cell_length_c   9.74773401
_cell_angle_alpha   90.00000002
_cell_angle_beta   89.99460288
_cell_angle_gamma   120.00278357
_symmetry_Int_Tables_number   1
_chemical_formula_structural   Dy11Ho9(Cd3Co)2
_chemical_formula_sum   'Dy11 Ho9 Cd6 Co2'
_cell_volume   770.26552816
_cell_formula_units_Z   1
loop_
 _symmetry_equiv_pos_site_id
 _symmetry_equiv_pos_as_xyz
  1  'x, y, z'
loop_
 _atom_site_type_symbol
 _atom_site_label
 _atom_site_symmetry_multiplicity
 _atom_site_fract_x
 _atom_site_fract_y
 _atom_site_fract_z
 _atom_site_occupancy
  Dy  Dy0  1  0.542610  0.457281  0.249819  1
  Dy  Dy1  1  0.542610  0.085328  0.249819  1
  Dy  Dy2  1  0.914718  0.457359  0.249716  1
  Dy  Dy3  1  0.457355  0.542550  0.750208  1
  Dy  Dy4  1  0.457355  0.914806  0.750208  1
  Dy  Dy5  1  0.085304  0.542652  0.750267  1
  Dy  Dy6  1  0.211863  0.788254  0.436281  1
  Dy  Dy7  1  0.211863  0.423610  0.436281  1
  Dy  Dy8  1  0.576374  0.788188  0.436255  1
  Dy  Dy9  1  0.788008  0.211831  0.563776  1
  Dy  Dy10  1  0.788008  0.576175  0.563776  1
  Ho  Ho11  1  0.000132  0.000066  0.500016  1
  Ho  Ho12  1  0.000011  0.000006  0.000013  1
  Ho  Ho13  1  0.423622  0.211811  0.563677  1
  Ho  Ho14  1  0.788068  0.211939  0.936462  1
  Ho  Ho15  1  0.788068  0.576128  0.936462  1
  Ho  Ho16  1  0.423970  0.211984  0.936273  1
  Ho  Ho17  1  0.211994  0.788024  0.063608  1
  Ho  Ho18  1  0.211994  0.423971  0.063608  1
  Ho  Ho19  1  0.575997  0.787999  0.063597  1
  Cd  Cd20  1  0.885149  0.114860  0.249874  1
  Cd  Cd21  1  0.885149  0.770289  0.249874  1
  Cd  Cd22  1  0.229752  0.114876  0.249923  1
  Cd  Cd23  1  0.114896  0.885175  0.750097  1
  Cd  Cd24  1  0.114896  0.229720  0.750097  1
  Cd  Cd25  1  0.770291  0.885146  0.750121  1
  Co  Co26  1  0.333333  0.666667  0.249714  1
  Co  Co27  1  0.666609  0.333304  0.750179  1
