# generated using pymatgen
data_Tl4Os4O13
_symmetry_space_group_name_H-M   'P 1'
_cell_length_a   7.39362295
_cell_length_b   7.39362330
_cell_length_c   7.39362300
_cell_angle_alpha   59.99999686
_cell_angle_beta   59.99999531
_cell_angle_gamma   59.99999842
_symmetry_Int_Tables_number   1
_chemical_formula_structural   Tl4Os4O13
_chemical_formula_sum   'Tl4 Os4 O13'
_cell_volume   285.79649120
_cell_formula_units_Z   1
loop_
 _symmetry_equiv_pos_site_id
 _symmetry_equiv_pos_as_xyz
  1  'x, y, z'
loop_
 _atom_site_type_symbol
 _atom_site_label
 _atom_site_symmetry_multiplicity
 _atom_site_fract_x
 _atom_site_fract_y
 _atom_site_fract_z
 _atom_site_occupancy
  Tl  Tl0  1  0.882409  0.372530  0.372530  1
  Tl  Tl1  1  0.372530  0.372530  0.372530  1
  Tl  Tl2  1  0.372530  0.372530  0.882409  1
  Tl  Tl3  1  0.372530  0.882409  0.372530  1
  Os  Os4  1  0.875269  0.374191  0.875269  1
  Os  Os5  1  0.875269  0.875269  0.374191  1
  Os  Os6  1  0.875269  0.875269  0.875269  1
  Os  Os7  1  0.374191  0.875269  0.875269  1
  O  O8  1  0.189495  0.810505  0.810505  1
  O  O9  1  0.189495  0.810505  0.189495  1
  O  O10  1  0.560576  0.939424  0.939424  1
  O  O11  1  0.560576  0.939424  0.560576  1
  O  O12  1  0.939424  0.939424  0.560576  1
  O  O13  1  0.810505  0.810505  0.189495  1
  O  O14  1  0.560576  0.560576  0.939424  1
  O  O15  1  0.810505  0.189495  0.810505  1
  O  O16  1  0.810505  0.189495  0.189495  1
  O  O17  1  0.939424  0.560576  0.939424  1
  O  O18  1  0.939424  0.560576  0.560576  1
  O  O19  1  0.189495  0.189495  0.810505  1
  O  O20  1  0.500000  0.500000  0.500000  1
