# generated using pymatgen
data_Li3Tm8Sc9Si15Ge
_symmetry_space_group_name_H-M   'P 1'
_cell_length_a   6.90207058
_cell_length_b   7.35609154
_cell_length_c   13.94704586
_cell_angle_alpha   90.01013109
_cell_angle_beta   89.94249693
_cell_angle_gamma   89.94146448
_symmetry_Int_Tables_number   1
_chemical_formula_structural   Li3Tm8Sc9Si15Ge
_chemical_formula_sum   'Li3 Tm8 Sc9 Si15 Ge1'
_cell_volume   708.12234352
_cell_formula_units_Z   1
loop_
 _symmetry_equiv_pos_site_id
 _symmetry_equiv_pos_as_xyz
  1  'x, y, z'
loop_
 _atom_site_type_symbol
 _atom_site_label
 _atom_site_symmetry_multiplicity
 _atom_site_fract_x
 _atom_site_fract_y
 _atom_site_fract_z
 _atom_site_occupancy
  Li  Li0  1  0.160275  0.506844  0.751066  1
  Li  Li1  1  0.839981  0.493268  0.249923  1
  Li  Li2  1  0.339989  0.007434  0.249700  1
  Tm  Tm3  1  0.014159  0.183195  0.098647  1
  Tm  Tm4  1  0.990753  0.815762  0.902614  1
  Tm  Tm5  1  0.484950  0.675669  0.903188  1
  Tm  Tm6  1  0.990110  0.817235  0.597629  1
  Tm  Tm7  1  0.513099  0.317293  0.098400  1
  Tm  Tm8  1  0.012973  0.182432  0.400499  1
  Tm  Tm9  1  0.513618  0.315747  0.400472  1
  Tm  Tm10  1  0.487629  0.677410  0.597327  1
  Sc  Sc11  1  0.660363  0.995500  0.750414  1
  Sc  Sc12  1  0.327959  0.179406  0.627433  1
  Sc  Sc13  1  0.667781  0.823039  0.372190  1
  Sc  Sc14  1  0.168360  0.679246  0.372017  1
  Sc  Sc15  1  0.668578  0.822273  0.127008  1
  Sc  Sc16  1  0.831899  0.327269  0.626706  1
  Sc  Sc17  1  0.325692  0.182057  0.873769  1
  Sc  Sc18  1  0.833317  0.327213  0.873423  1
  Sc  Sc19  1  0.169648  0.678876  0.127264  1
  Si  Si20  1  0.029409  0.101004  0.750065  1
  Si  Si21  1  0.970482  0.900878  0.249477  1
  Si  Si22  1  0.469694  0.600785  0.249825  1
  Si  Si23  1  0.531360  0.391191  0.750270  1
  Si  Si24  1  0.287053  0.875969  0.750325  1
  Si  Si25  1  0.717300  0.123352  0.249435  1
  Si  Si26  1  0.218250  0.376865  0.249904  1
  Si  Si27  1  0.782258  0.628533  0.750162  1
  Si  Si28  1  0.834596  0.537908  0.463468  1
  Si  Si29  1  0.339205  0.963933  0.464982  1
  Si  Si30  1  0.839140  0.536781  0.035703  1
  Si  Si31  1  0.658400  0.033283  0.538309  1
  Si  Si32  1  0.159480  0.463083  0.966865  1
  Si  Si33  1  0.658139  0.032700  0.961339  1
  Si  Si34  1  0.340084  0.964276  0.035090  1
  Ge  Ge35  1  0.164018  0.462289  0.535096  1
