# generated using pymatgen
data_TbLu3TcB12Rh
_symmetry_space_group_name_H-M   'P 1'
_cell_length_a   3.63185700
_cell_length_b   9.06079180
_cell_length_c   11.45470507
_cell_angle_alpha   90.34648878
_cell_angle_beta   90.00000000
_cell_angle_gamma   90.00000000
_symmetry_Int_Tables_number   1
_chemical_formula_structural   TbLu3TcB12Rh
_chemical_formula_sum   'Tb2 Lu6 Tc2 B24 Rh2'
_cell_volume   376.93881570
_cell_formula_units_Z   2
loop_
 _symmetry_equiv_pos_site_id
 _symmetry_equiv_pos_as_xyz
  1  'x, y, z'
loop_
 _atom_site_type_symbol
 _atom_site_label
 _atom_site_symmetry_multiplicity
 _atom_site_fract_x
 _atom_site_fract_y
 _atom_site_fract_z
 _atom_site_occupancy
  Tb  Tb0  1  0.500000  0.318615  0.411179  1
  Tb  Tb1  1  0.500000  0.681385  0.588821  1
  Lu  Lu2  1  0.500000  0.173895  0.917678  1
  Lu  Lu3  1  0.500000  0.826105  0.082322  1
  Lu  Lu4  1  0.500000  0.441846  0.125975  1
  Lu  Lu5  1  0.500000  0.558154  0.874025  1
  Lu  Lu6  1  0.500000  0.053629  0.628796  1
  Lu  Lu7  1  0.500000  0.946371  0.371204  1
  Tc  Tc8  1  0.500000  0.138643  0.179400  1
  Tc  Tc9  1  0.500000  0.861357  0.820600  1
  B  B10  1  0.000000  0.103928  0.472210  1
  B  B11  1  0.000000  0.896072  0.527790  1
  B  B12  1  0.000000  0.394684  0.970811  1
  B  B13  1  0.000000  0.605316  0.029189  1
  B  B14  1  0.000000  0.131107  0.314918  1
  B  B15  1  0.000000  0.868893  0.685082  1
  B  B16  1  0.000000  0.367451  0.817905  1
  B  B17  1  0.000000  0.632549  0.182095  1
  B  B18  1  0.000000  0.052894  0.066560  1
  B  B19  1  0.000000  0.947106  0.933440  1
  B  B20  1  0.000000  0.444864  0.566553  1
  B  B21  1  0.000000  0.555136  0.433447  1
  B  B22  1  0.000000  0.483599  0.286492  1
  B  B23  1  0.000000  0.516401  0.713508  1
  B  B24  1  0.000000  0.018121  0.787278  1
  B  B25  1  0.000000  0.981879  0.212722  1
  B  B26  1  0.000000  0.249217  0.080160  1
  B  B27  1  0.000000  0.750783  0.919840  1
  B  B28  1  0.000000  0.248974  0.579661  1
  B  B29  1  0.000000  0.751026  0.420339  1
  B  B30  1  0.000000  0.293366  0.233946  1
  B  B31  1  0.000000  0.706634  0.766054  1
  B  B32  1  0.000000  0.207025  0.736075  1
  B  B33  1  0.000000  0.792975  0.263925  1
  Rh  Rh34  1  0.500000  0.360309  0.680548  1
  Rh  Rh35  1  0.500000  0.639691  0.319452  1
