# generated using pymatgen
data_Ce3Th2Zn2Ru3
_symmetry_space_group_name_H-M   'P 1'
_cell_length_a   8.50151391
_cell_length_b   8.50151477
_cell_length_c   8.50151400
_cell_angle_alpha   110.02535291
_cell_angle_beta   110.02536222
_cell_angle_gamma   110.02535365
_symmetry_Int_Tables_number   1
_chemical_formula_structural   Ce3Th2Zn2Ru3
_chemical_formula_sum   'Ce6 Th4 Zn4 Ru6'
_cell_volume   463.04795982
_cell_formula_units_Z   2
loop_
 _symmetry_equiv_pos_site_id
 _symmetry_equiv_pos_as_xyz
  1  'x, y, z'
loop_
 _atom_site_type_symbol
 _atom_site_label
 _atom_site_symmetry_multiplicity
 _atom_site_fract_x
 _atom_site_fract_y
 _atom_site_fract_z
 _atom_site_occupancy
  Ce  Ce0  1  0.716573  0.501990  0.002345  1
  Ce  Ce1  1  0.002345  0.716573  0.501990  1
  Ce  Ce2  1  0.501990  0.002345  0.716573  1
  Ce  Ce3  1  0.249377  0.190246  0.938649  1
  Ce  Ce4  1  0.938649  0.249377  0.190246  1
  Ce  Ce5  1  0.190246  0.938649  0.249377  1
  Th  Th6  1  0.775380  0.775380  0.775380  1
  Th  Th7  1  0.308601  0.558330  0.756241  1
  Th  Th8  1  0.756241  0.308601  0.558330  1
  Th  Th9  1  0.558330  0.756241  0.308601  1
  Zn  Zn10  1  0.399142  0.399142  0.399142  1
  Zn  Zn11  1  0.089690  0.494061  0.007766  1
  Zn  Zn12  1  0.007766  0.089690  0.494061  1
  Zn  Zn13  1  0.494061  0.007766  0.089690  1
  Ru  Ru14  1  0.872788  0.105463  0.739944  1
  Ru  Ru15  1  0.739944  0.872788  0.105463  1
  Ru  Ru16  1  0.105463  0.739944  0.872788  1
  Ru  Ru17  1  0.254532  0.637202  0.401682  1
  Ru  Ru18  1  0.401682  0.254532  0.637202  1
  Ru  Ru19  1  0.637202  0.401682  0.254532  1
