# generated using pymatgen
data_Zr4Cd(AsO4)6
_symmetry_space_group_name_H-M   'P 1'
_cell_length_a   9.25250097
_cell_length_b   9.25250139
_cell_length_c   9.45398849
_cell_angle_alpha   60.70254086
_cell_angle_beta   60.70253488
_cell_angle_gamma   60.00000825
_symmetry_Int_Tables_number   1
_chemical_formula_structural   Zr4Cd(AsO4)6
_chemical_formula_sum   'Zr4 Cd1 As6 O24'
_cell_volume   578.29494691
_cell_formula_units_Z   1
loop_
 _symmetry_equiv_pos_site_id
 _symmetry_equiv_pos_as_xyz
  1  'x, y, z'
loop_
 _atom_site_type_symbol
 _atom_site_label
 _atom_site_symmetry_multiplicity
 _atom_site_fract_x
 _atom_site_fract_y
 _atom_site_fract_z
 _atom_site_occupancy
  Zr  Zr0  1  0.138761  0.138761  0.583716  1
  Zr  Zr1  1  0.861239  0.861239  0.416284  1
  Zr  Zr2  1  0.646146  0.646146  0.061563  1
  Zr  Zr3  1  0.353854  0.353854  0.938437  1
  Cd  Cd4  1  0.500000  0.500000  0.500000  1
  As  As5  1  0.955935  0.258738  0.261072  1
  As  As6  1  0.258738  0.524255  0.261072  1
  As  As7  1  0.524255  0.955935  0.261072  1
  As  As8  1  0.044065  0.741262  0.738928  1
  As  As9  1  0.741262  0.475745  0.738928  1
  As  As10  1  0.475745  0.044065  0.738928  1
  O  O11  1  0.982725  0.263678  0.423510  1
  O  O12  1  0.263678  0.330087  0.423510  1
  O  O13  1  0.330087  0.982725  0.423510  1
  O  O14  1  0.017275  0.736322  0.576490  1
  O  O15  1  0.736322  0.669913  0.576490  1
  O  O16  1  0.669913  0.017275  0.576490  1
  O  O17  1  0.506975  0.885906  0.928189  1
  O  O18  1  0.885906  0.678931  0.928189  1
  O  O19  1  0.678931  0.506975  0.928189  1
  O  O20  1  0.493025  0.114094  0.071811  1
  O  O21  1  0.114094  0.321069  0.071811  1
  O  O22  1  0.321069  0.493025  0.071811  1
  O  O23  1  0.028376  0.940241  0.721296  1
  O  O24  1  0.940241  0.310087  0.721296  1
  O  O25  1  0.310087  0.028376  0.721296  1
  O  O26  1  0.971624  0.059759  0.278704  1
  O  O27  1  0.059759  0.689913  0.278704  1
  O  O28  1  0.689913  0.971624  0.278704  1
  O  O29  1  0.585633  0.746498  0.259094  1
  O  O30  1  0.746498  0.408775  0.259094  1
  O  O31  1  0.408775  0.585633  0.259094  1
  O  O32  1  0.414367  0.253502  0.740906  1
  O  O33  1  0.253502  0.591225  0.740906  1
  O  O34  1  0.591225  0.414367  0.740906  1
