# generated using pymatgen
data_Dy2Tc2Ge2C
_symmetry_space_group_name_H-M   'P 1'
_cell_length_a   5.84311703
_cell_length_b   5.84311672
_cell_length_c   6.99796430
_cell_angle_alpha   123.38916488
_cell_angle_beta   123.38916391
_cell_angle_gamma   40.21481087
_symmetry_Int_Tables_number   1
_chemical_formula_structural   Dy2Tc2Ge2C
_chemical_formula_sum   'Dy2 Tc2 Ge2 C1'
_cell_volume   124.99621299
_cell_formula_units_Z   1
loop_
 _symmetry_equiv_pos_site_id
 _symmetry_equiv_pos_as_xyz
  1  'x, y, z'
loop_
 _atom_site_type_symbol
 _atom_site_label
 _atom_site_symmetry_multiplicity
 _atom_site_fract_x
 _atom_site_fract_y
 _atom_site_fract_z
 _atom_site_occupancy
  Dy  Dy0  1  0.566866  0.566866  0.291268  1
  Dy  Dy1  1  0.433135  0.433135  0.708732  1
  Tc  Tc2  1  0.201639  0.201639  0.085480  1
  Tc  Tc3  1  0.798361  0.798361  0.914520  1
  Ge  Ge4  1  0.853137  0.853137  0.320460  1
  Ge  Ge5  1  0.146862  0.146862  0.679541  1
  C  C6  1  0.000000  0.000000  0.000000  1
