# generated using pymatgen
data_La12Tc3Ru
_symmetry_space_group_name_H-M   'P 1'
_cell_length_a   6.69404001
_cell_length_b   7.38666504
_cell_length_c   10.04375000
_cell_angle_alpha   90.00000000
_cell_angle_beta   90.00000000
_cell_angle_gamma   90.00941611
_symmetry_Int_Tables_number   1
_chemical_formula_structural   La12Tc3Ru
_chemical_formula_sum   'La12 Tc3 Ru1'
_cell_volume   496.62959664
_cell_formula_units_Z   1
loop_
 _symmetry_equiv_pos_site_id
 _symmetry_equiv_pos_as_xyz
  1  'x, y, z'
loop_
 _atom_site_type_symbol
 _atom_site_label
 _atom_site_symmetry_multiplicity
 _atom_site_fract_x
 _atom_site_fract_y
 _atom_site_fract_z
 _atom_site_occupancy
  La  La0  1  0.326712  0.665520  0.068554  1
  La  La1  1  0.170587  0.167264  0.433185  1
  La  La2  1  0.671415  0.333378  0.566949  1
  La  La3  1  0.829936  0.833145  0.932402  1
  La  La4  1  0.671415  0.333378  0.933051  1
  La  La5  1  0.829936  0.833145  0.567598  1
  La  La6  1  0.326712  0.665520  0.431446  1
  La  La7  1  0.170587  0.167264  0.066815  1
  La  La8  1  0.862881  0.561548  0.250000  1
  La  La9  1  0.634953  0.060975  0.250000  1
  La  La10  1  0.140421  0.439125  0.750000  1
  La  La11  1  0.358442  0.940286  0.750000  1
  Tc  Tc12  1  0.036926  0.869907  0.250000  1
  Tc  Tc13  1  0.458674  0.373310  0.250000  1
  Tc  Tc14  1  0.959853  0.130100  0.750000  1
  Ru  Ru15  1  0.550550  0.626136  0.750000  1
