# generated using pymatgen
data_U2Tc2C3
_symmetry_space_group_name_H-M   'P 1'
_cell_length_a   6.14592289
_cell_length_b   6.14592269
_cell_length_c   5.57041999
_cell_angle_alpha   68.01159340
_cell_angle_beta   68.01159692
_cell_angle_gamma   29.33483035
_symmetry_Int_Tables_number   1
_chemical_formula_structural   U2Tc2C3
_chemical_formula_sum   'U2 Tc2 C3'
_cell_volume   95.04797863
_cell_formula_units_Z   1
loop_
 _symmetry_equiv_pos_site_id
 _symmetry_equiv_pos_as_xyz
  1  'x, y, z'
loop_
 _atom_site_type_symbol
 _atom_site_label
 _atom_site_symmetry_multiplicity
 _atom_site_fract_x
 _atom_site_fract_y
 _atom_site_fract_z
 _atom_site_occupancy
  U  U0  1  0.601184  0.601184  0.192457  1
  U  U1  1  0.398816  0.398816  0.807543  1
  Tc  Tc2  1  0.843448  0.843448  0.335589  1
  Tc  Tc3  1  0.156552  0.156552  0.664411  1
  C  C4  1  0.752241  0.752241  0.753244  1
  C  C5  1  0.247759  0.247759  0.246756  1
  C  C6  1  0.000000  0.000000  0.000000  1
