# generated using pymatgen
data_Dy3HoMg3ZnRh4
_symmetry_space_group_name_H-M   'P 1'
_cell_length_a   4.08886200
_cell_length_b   7.06112285
_cell_length_c   8.42946301
_cell_angle_alpha   90.06389234
_cell_angle_beta   90.00000000
_cell_angle_gamma   90.00000000
_symmetry_Int_Tables_number   1
_chemical_formula_structural   Dy3HoMg3ZnRh4
_chemical_formula_sum   'Dy3 Ho1 Mg3 Zn1 Rh4'
_cell_volume   243.37494153
_cell_formula_units_Z   1
loop_
 _symmetry_equiv_pos_site_id
 _symmetry_equiv_pos_as_xyz
  1  'x, y, z'
loop_
 _atom_site_type_symbol
 _atom_site_label
 _atom_site_symmetry_multiplicity
 _atom_site_fract_x
 _atom_site_fract_y
 _atom_site_fract_z
 _atom_site_occupancy
  Dy  Dy0  1  0.250000  0.534276  0.183628  1
  Dy  Dy1  1  0.750000  0.459578  0.819722  1
  Dy  Dy2  1  0.250000  0.048857  0.328318  1
  Ho  Ho3  1  0.750000  0.962194  0.674721  1
  Mg  Mg4  1  0.250000  0.135638  0.939186  1
  Mg  Mg5  1  0.750000  0.863071  0.060455  1
  Mg  Mg6  1  0.250000  0.630587  0.556056  1
  Zn  Zn7  1  0.750000  0.366614  0.438846  1
  Rh  Rh8  1  0.750000  0.749388  0.372247  1
  Rh  Rh9  1  0.250000  0.253120  0.625109  1
  Rh  Rh10  1  0.750000  0.249183  0.132082  1
  Rh  Rh11  1  0.250000  0.747492  0.869630  1
