# generated using pymatgen
data_NdCdRh2O7
_symmetry_space_group_name_H-M   'P 1'
_cell_length_a   7.47138735
_cell_length_b   7.30501061
_cell_length_c   7.30501013
_cell_angle_alpha   59.09523026
_cell_angle_beta   59.24368663
_cell_angle_gamma   59.24368408
_symmetry_Int_Tables_number   1
_chemical_formula_structural   NdCdRh2O7
_chemical_formula_sum   'Nd2 Cd2 Rh4 O14'
_cell_volume   276.74407092
_cell_formula_units_Z   2
loop_
 _symmetry_equiv_pos_site_id
 _symmetry_equiv_pos_as_xyz
  1  'x, y, z'
loop_
 _atom_site_type_symbol
 _atom_site_label
 _atom_site_symmetry_multiplicity
 _atom_site_fract_x
 _atom_site_fract_y
 _atom_site_fract_z
 _atom_site_occupancy
  Nd  Nd0  1  0.125000  0.125000  0.125000  1
  Nd  Nd1  1  0.625000  0.125000  0.125000  1
  Cd  Cd2  1  0.125000  0.625000  0.125000  1
  Cd  Cd3  1  0.125000  0.125000  0.625000  1
  Rh  Rh4  1  0.625000  0.625000  0.125000  1
  Rh  Rh5  1  0.625000  0.625000  0.625000  1
  Rh  Rh6  1  0.625000  0.125000  0.625000  1
  Rh  Rh7  1  0.125000  0.625000  0.625000  1
  O  O8  1  0.710165  0.289835  0.289835  1
  O  O9  1  0.699875  0.297145  0.703183  1
  O  O10  1  0.009239  0.990761  0.990761  1
  O  O11  1  0.299797  0.703183  0.297145  1
  O  O12  1  0.699875  0.703183  0.297145  1
  O  O13  1  0.948143  0.551857  0.551857  1
  O  O14  1  0.301857  0.698143  0.698143  1
  O  O15  1  0.240761  0.259239  0.259239  1
  O  O16  1  0.950203  0.546817  0.952855  1
  O  O17  1  0.550125  0.952855  0.546817  1
  O  O18  1  0.550125  0.546817  0.952855  1
  O  O19  1  0.950203  0.952855  0.546817  1
  O  O20  1  0.539835  0.960165  0.960165  1
  O  O21  1  0.299797  0.297145  0.703183  1
