# generated using pymatgen
data_Ho5Tm11CdHg3Rh4
_symmetry_space_group_name_H-M   'P 1'
_cell_length_a   9.49769274
_cell_length_b   9.50081042
_cell_length_c   9.52547700
_cell_angle_alpha   59.91406873
_cell_angle_beta   59.90317182
_cell_angle_gamma   59.93754864
_symmetry_Int_Tables_number   1
_chemical_formula_structural   Ho5Tm11CdHg3Rh4
_chemical_formula_sum   'Ho5 Tm11 Cd1 Hg3 Rh4'
_cell_volume   606.65870607
_cell_formula_units_Z   1
loop_
 _symmetry_equiv_pos_site_id
 _symmetry_equiv_pos_as_xyz
  1  'x, y, z'
loop_
 _atom_site_type_symbol
 _atom_site_label
 _atom_site_symmetry_multiplicity
 _atom_site_fract_x
 _atom_site_fract_y
 _atom_site_fract_z
 _atom_site_occupancy
  Ho  Ho0  1  0.936461  0.564011  0.562711  1
  Ho  Ho1  1  0.936461  0.564011  0.936816  1
  Ho  Ho2  1  0.562879  0.937083  0.563342  1
  Ho  Ho3  1  0.562879  0.937083  0.936696  1
  Ho  Ho4  1  0.311211  0.311877  0.688455  1
  Tm  Tm5  1  0.937059  0.937686  0.562627  1
  Tm  Tm6  1  0.561853  0.563881  0.937133  1
  Tm  Tm7  1  0.688803  0.688915  0.311141  1
  Tm  Tm8  1  0.147859  0.554726  0.148707  1
  Tm  Tm9  1  0.689267  0.312339  0.687833  1
  Tm  Tm10  1  0.149413  0.148733  0.151019  1
  Tm  Tm11  1  0.551894  0.148260  0.149923  1
  Tm  Tm12  1  0.689267  0.312339  0.310560  1
  Tm  Tm13  1  0.149413  0.148733  0.550835  1
  Tm  Tm14  1  0.311281  0.689994  0.310239  1
  Tm  Tm15  1  0.311281  0.689994  0.688486  1
  Cd  Cd16  1  0.919232  0.241310  0.919729  1
  Hg  Hg17  1  0.915108  0.916655  0.253793  1
  Hg  Hg18  1  0.254502  0.915768  0.914865  1
  Hg  Hg19  1  0.915108  0.916655  0.914444  1
  Rh  Rh20  1  0.356834  0.357486  0.929363  1
  Rh  Rh21  1  0.356405  0.928321  0.357637  1
  Rh  Rh22  1  0.928692  0.356653  0.357327  1
  Rh  Rh23  1  0.356834  0.357486  0.356316  1
