# generated using pymatgen
data_Ba2EuAl2(SbAs)2
_symmetry_space_group_name_H-M   'P 1'
_cell_length_a   9.07276174
_cell_length_b   9.07276120
_cell_length_c   7.19745588
_cell_angle_alpha   92.14935782
_cell_angle_beta   92.14935121
_cell_angle_gamma   76.53528757
_symmetry_Int_Tables_number   1
_chemical_formula_structural   Ba2EuAl2(SbAs)2
_chemical_formula_sum   'Ba4 Eu2 Al4 Sb4 As4'
_cell_volume   575.51623171
_cell_formula_units_Z   2
loop_
 _symmetry_equiv_pos_site_id
 _symmetry_equiv_pos_as_xyz
  1  'x, y, z'
loop_
 _atom_site_type_symbol
 _atom_site_label
 _atom_site_symmetry_multiplicity
 _atom_site_fract_x
 _atom_site_fract_y
 _atom_site_fract_z
 _atom_site_occupancy
  Ba  Ba0  1  0.736315  0.002812  0.964017  1
  Ba  Ba1  1  0.997188  0.263685  0.535983  1
  Ba  Ba2  1  0.263685  0.997188  0.035983  1
  Ba  Ba3  1  0.002812  0.736315  0.464017  1
  Eu  Eu4  1  0.587056  0.412944  0.250000  1
  Eu  Eu5  1  0.412944  0.587056  0.750000  1
  Al  Al6  1  0.585044  0.810511  0.412054  1
  Al  Al7  1  0.189489  0.414956  0.087946  1
  Al  Al8  1  0.414956  0.189489  0.587946  1
  Al  Al9  1  0.810511  0.585044  0.912054  1
  Sb  Sb10  1  0.700834  0.065581  0.466894  1
  Sb  Sb11  1  0.934419  0.299166  0.033106  1
  Sb  Sb12  1  0.299166  0.934419  0.533106  1
  Sb  Sb13  1  0.065581  0.700834  0.966894  1
  As  As14  1  0.574826  0.723907  0.075130  1
  As  As15  1  0.276093  0.425174  0.424870  1
  As  As16  1  0.425174  0.276093  0.924870  1
  As  As17  1  0.723907  0.574826  0.575130  1
