# generated using pymatgen
data_Tb2Er2Al15(ZnPd2)3
_symmetry_space_group_name_H-M   'P 1'
_cell_length_a   7.58828110
_cell_length_b   7.59769520
_cell_length_c   9.49259500
_cell_angle_alpha   90.00000000
_cell_angle_beta   90.00000000
_cell_angle_gamma   119.12165035
_symmetry_Int_Tables_number   1
_chemical_formula_structural   Tb2Er2Al15(ZnPd2)3
_chemical_formula_sum   'Tb2 Er2 Al15 Zn3 Pd6'
_cell_volume   478.09817141
_cell_formula_units_Z   1
loop_
 _symmetry_equiv_pos_site_id
 _symmetry_equiv_pos_as_xyz
  1  'x, y, z'
loop_
 _atom_site_type_symbol
 _atom_site_label
 _atom_site_symmetry_multiplicity
 _atom_site_fract_x
 _atom_site_fract_y
 _atom_site_fract_z
 _atom_site_occupancy
  Tb  Tb0  1  0.995797  0.674179  0.250000  1
  Tb  Tb1  1  0.673029  0.994478  0.250000  1
  Er  Er2  1  0.005837  0.326552  0.750000  1
  Er  Er3  1  0.325867  0.004688  0.750000  1
  Al  Al4  1  0.006736  0.336643  0.081190  1
  Al  Al5  1  0.996499  0.665927  0.920140  1
  Al  Al6  1  0.996499  0.665927  0.579860  1
  Al  Al7  1  0.333747  0.002229  0.420858  1
  Al  Al8  1  0.006736  0.336643  0.418810  1
  Al  Al9  1  0.666583  0.997985  0.580402  1
  Al  Al10  1  0.666583  0.997985  0.919598  1
  Al  Al11  1  0.333747  0.002229  0.079142  1
  Al  Al12  1  0.332203  0.332464  0.554216  1
  Al  Al13  1  0.663341  0.665607  0.444862  1
  Al  Al14  1  0.663341  0.665607  0.055138  1
  Al  Al15  1  0.332203  0.332464  0.945784  1
  Al  Al16  1  0.659291  0.450884  0.750000  1
  Al  Al17  1  0.545321  0.342251  0.250000  1
  Al  Al18  1  0.453305  0.658427  0.750000  1
  Zn  Zn19  1  0.142929  0.142034  0.250000  1
  Zn  Zn20  1  0.860476  0.859645  0.750000  1
  Zn  Zn21  1  0.343269  0.544816  0.250000  1
  Pd  Pd22  1  0.673352  0.326175  0.999705  1
  Pd  Pd23  1  0.325618  0.674314  0.994870  1
  Pd  Pd24  1  0.325618  0.674314  0.505130  1
  Pd  Pd25  1  0.673352  0.326175  0.500295  1
  Pd  Pd26  1  0.999361  0.999677  0.000008  1
  Pd  Pd27  1  0.999361  0.999677  0.499992  1
