# generated using pymatgen
data_Ho6Er4In8IrPd3
_symmetry_space_group_name_H-M   'P 1'
_cell_length_a   3.61372200
_cell_length_b   8.13214471
_cell_length_c   18.20247910
_cell_angle_alpha   90.07080705
_cell_angle_beta   90.00000000
_cell_angle_gamma   90.00000000
_symmetry_Int_Tables_number   1
_chemical_formula_structural   Ho6Er4In8IrPd3
_chemical_formula_sum   'Ho6 Er4 In8 Ir1 Pd3'
_cell_volume   534.92149186
_cell_formula_units_Z   1
loop_
 _symmetry_equiv_pos_site_id
 _symmetry_equiv_pos_as_xyz
  1  'x, y, z'
loop_
 _atom_site_type_symbol
 _atom_site_label
 _atom_site_symmetry_multiplicity
 _atom_site_fract_x
 _atom_site_fract_y
 _atom_site_fract_z
 _atom_site_occupancy
  Ho  Ho0  1  0.000000  0.500350  0.500098  1
  Ho  Ho1  1  0.000000  0.000243  0.000618  1
  Ho  Ho2  1  0.000000  0.729528  0.277848  1
  Ho  Ho3  1  0.000000  0.260203  0.718430  1
  Ho  Ho4  1  0.000000  0.759682  0.780894  1
  Ho  Ho5  1  0.000000  0.254791  0.219809  1
  Er  Er6  1  0.000000  0.615320  0.087323  1
  Er  Er7  1  0.000000  0.382305  0.916336  1
  Er  Er8  1  0.000000  0.882398  0.583304  1
  Er  Er9  1  0.000000  0.116777  0.414789  1
  In  In10  1  0.500000  0.706231  0.933831  1
  In  In11  1  0.500000  0.293374  0.067607  1
  In  In12  1  0.500000  0.792536  0.432575  1
  In  In13  1  0.500000  0.205958  0.565990  1
  In  In14  1  0.500000  0.580986  0.650042  1
  In  In15  1  0.500000  0.422144  0.351802  1
  In  In16  1  0.500000  0.923979  0.150256  1
  In  In17  1  0.500000  0.080245  0.849859  1
  Ir  Ir18  1  0.500000  0.521168  0.195641  1
  Pd  Pd19  1  0.500000  0.474779  0.804182  1
  Pd  Pd20  1  0.500000  0.975446  0.695113  1
  Pd  Pd21  1  0.500000  0.021558  0.303654  1
