# generated using pymatgen
data_CeY5(BePd5)2
_symmetry_space_group_name_H-M   'P 1'
_cell_length_a   8.11718083
_cell_length_b   8.11718149
_cell_length_c   8.11718117
_cell_angle_alpha   127.16706800
_cell_angle_beta   124.65863196
_cell_angle_gamma   80.04777532
_symmetry_Int_Tables_number   1
_chemical_formula_structural   CeY5(BePd5)2
_chemical_formula_sum   'Ce1 Y5 Be2 Pd10'
_cell_volume   338.46574954
_cell_formula_units_Z   1
loop_
 _symmetry_equiv_pos_site_id
 _symmetry_equiv_pos_as_xyz
  1  'x, y, z'
loop_
 _atom_site_type_symbol
 _atom_site_label
 _atom_site_symmetry_multiplicity
 _atom_site_fract_x
 _atom_site_fract_y
 _atom_site_fract_z
 _atom_site_occupancy
  Ce  Ce0  1  0.598105  0.750000  0.848105  1
  Y  Y1  1  0.221759  0.445792  0.775966  1
  Y  Y2  1  0.779088  0.552794  0.226294  1
  Y  Y3  1  0.830174  0.054208  0.775966  1
  Y  Y4  1  0.173500  0.947206  0.226294  1
  Y  Y5  1  0.404022  0.250000  0.154022  1
  Be  Be6  1  0.793955  0.250000  0.543955  1
  Be  Be7  1  0.202545  0.750000  0.452545  1
  Pd  Pd8  1  0.171310  0.407883  0.357157  1
  Pd  Pd9  1  0.827227  0.182819  0.233128  1
  Pd  Pd10  1  0.449274  0.092117  0.763427  1
  Pd  Pd11  1  0.550308  0.317181  0.644408  1
  Pd  Pd12  1  0.000307  0.498763  0.999070  1
  Pd  Pd13  1  0.000307  0.001237  0.501544  1
  Pd  Pd14  1  0.449274  0.685847  0.357157  1
  Pd  Pd15  1  0.550308  0.905901  0.233128  1
  Pd  Pd16  1  0.171310  0.814153  0.763427  1
  Pd  Pd17  1  0.827227  0.594099  0.644408  1
