# generated using pymatgen
data_Pr2Eu4VCo17P12
_symmetry_space_group_name_H-M   'P 1'
_cell_length_a   3.75658800
_cell_length_b   10.65869200
_cell_length_c   12.35256100
_cell_angle_alpha   90.00000000
_cell_angle_beta   90.00000000
_cell_angle_gamma   90.00000000
_symmetry_Int_Tables_number   1
_chemical_formula_structural   Pr2Eu4VCo17P12
_chemical_formula_sum   'Pr2 Eu4 V1 Co17 P12'
_cell_volume   494.60042686
_cell_formula_units_Z   1
loop_
 _symmetry_equiv_pos_site_id
 _symmetry_equiv_pos_as_xyz
  1  'x, y, z'
loop_
 _atom_site_type_symbol
 _atom_site_label
 _atom_site_symmetry_multiplicity
 _atom_site_fract_x
 _atom_site_fract_y
 _atom_site_fract_z
 _atom_site_occupancy
  Pr  Pr0  1  0.000000  0.500000  0.524133  1
  Pr  Pr1  1  0.500000  0.000000  0.476550  1
  Eu  Eu2  1  0.500000  0.820605  0.206176  1
  Eu  Eu3  1  0.500000  0.179395  0.206176  1
  Eu  Eu4  1  0.000000  0.680272  0.796044  1
  Eu  Eu5  1  0.000000  0.319728  0.796044  1
  V  V6  1  0.500000  0.500000  0.150349  1
  Co  Co7  1  0.000000  0.000000  0.844592  1
  Co  Co8  1  0.500000  0.500000  0.702492  1
  Co  Co9  1  0.000000  0.000000  0.296964  1
  Co  Co10  1  0.000000  0.500000  0.988915  1
  Co  Co11  1  0.500000  0.000000  0.009881  1
  Co  Co12  1  0.500000  0.331657  0.994508  1
  Co  Co13  1  0.500000  0.668343  0.994508  1
  Co  Co14  1  0.000000  0.166231  0.004020  1
  Co  Co15  1  0.000000  0.833769  0.004020  1
  Co  Co16  1  0.500000  0.296538  0.431183  1
  Co  Co17  1  0.500000  0.703462  0.431183  1
  Co  Co18  1  0.000000  0.203092  0.569550  1
  Co  Co19  1  0.000000  0.796908  0.569550  1
  Co  Co20  1  0.500000  0.881853  0.710140  1
  Co  Co21  1  0.500000  0.118147  0.710140  1
  Co  Co22  1  0.000000  0.619010  0.290248  1
  Co  Co23  1  0.000000  0.380990  0.290248  1
  P  P24  1  0.500000  0.500000  0.886405  1
  P  P25  1  0.000000  0.000000  0.112751  1
  P  P26  1  0.500000  0.500000  0.340431  1
  P  P27  1  0.000000  0.000000  0.662806  1
  P  P28  1  0.500000  0.304151  0.616927  1
  P  P29  1  0.500000  0.695849  0.616927  1
  P  P30  1  0.000000  0.195829  0.384953  1
  P  P31  1  0.000000  0.804171  0.384953  1
  P  P32  1  0.500000  0.847968  0.893252  1
  P  P33  1  0.500000  0.152032  0.893252  1
  P  P34  1  0.000000  0.654621  0.104864  1
  P  P35  1  0.000000  0.345379  0.104864  1
