# generated using pymatgen
data_Sr2CuAgSn4
_symmetry_space_group_name_H-M   'P 1'
_cell_length_a   10.24977503
_cell_length_b   10.24977577
_cell_length_c   4.68786700
_cell_angle_alpha   90.00000000
_cell_angle_beta   90.00000000
_cell_angle_gamma   153.31293488
_symmetry_Int_Tables_number   1
_chemical_formula_structural   Sr2CuAgSn4
_chemical_formula_sum   'Sr2 Cu1 Ag1 Sn4'
_cell_volume   221.18912323
_cell_formula_units_Z   1
loop_
 _symmetry_equiv_pos_site_id
 _symmetry_equiv_pos_as_xyz
  1  'x, y, z'
loop_
 _atom_site_type_symbol
 _atom_site_label
 _atom_site_symmetry_multiplicity
 _atom_site_fract_x
 _atom_site_fract_y
 _atom_site_fract_z
 _atom_site_occupancy
  Sr  Sr0  1  0.608873  0.391127  0.750000  1
  Sr  Sr1  1  0.391438  0.608562  0.250000  1
  Cu  Cu2  1  0.175058  0.824942  0.250000  1
  Ag  Ag3  1  0.827365  0.172635  0.750000  1
  Sn  Sn4  1  0.745608  0.254392  0.250000  1
  Sn  Sn5  1  0.045861  0.954139  0.250000  1
  Sn  Sn6  1  0.242581  0.757419  0.750000  1
  Sn  Sn7  1  0.963216  0.036784  0.750000  1
