# generated using pymatgen
data_Ce3Pr17(Ga2Sn)4
_symmetry_space_group_name_H-M   'P 1'
_cell_length_a   8.18084900
_cell_length_b   8.18084900
_cell_length_c   14.31902800
_cell_angle_alpha   90.00000000
_cell_angle_beta   90.00000000
_cell_angle_gamma   90.00000000
_symmetry_Int_Tables_number   1
_chemical_formula_structural   Ce3Pr17(Ga2Sn)4
_chemical_formula_sum   'Ce3 Pr17 Ga8 Sn4'
_cell_volume   958.31942561
_cell_formula_units_Z   1
loop_
 _symmetry_equiv_pos_site_id
 _symmetry_equiv_pos_as_xyz
  1  'x, y, z'
loop_
 _atom_site_type_symbol
 _atom_site_label
 _atom_site_symmetry_multiplicity
 _atom_site_fract_x
 _atom_site_fract_y
 _atom_site_fract_z
 _atom_site_occupancy
  Ce  Ce0  1  0.000000  0.500000  0.734222  1
  Ce  Ce1  1  0.000000  0.500000  0.249943  1
  Ce  Ce2  1  0.500000  0.000000  0.248902  1
  Pr  Pr3  1  0.825560  0.830852  0.606262  1
  Pr  Pr4  1  0.173661  0.827424  0.107167  1
  Pr  Pr5  1  0.173285  0.826611  0.392715  1
  Pr  Pr6  1  0.826715  0.173389  0.392715  1
  Pr  Pr7  1  0.673389  0.673285  0.392715  1
  Pr  Pr8  1  0.669148  0.325560  0.606262  1
  Pr  Pr9  1  0.330852  0.674440  0.606262  1
  Pr  Pr10  1  0.672576  0.673661  0.107167  1
  Pr  Pr11  1  0.677796  0.335164  0.893449  1
  Pr  Pr12  1  0.835164  0.822204  0.893449  1
  Pr  Pr13  1  0.326611  0.326715  0.392715  1
  Pr  Pr14  1  0.174440  0.169148  0.606262  1
  Pr  Pr15  1  0.826339  0.172576  0.107167  1
  Pr  Pr16  1  0.322204  0.664836  0.893449  1
  Pr  Pr17  1  0.327424  0.326339  0.107167  1
  Pr  Pr18  1  0.164836  0.177796  0.893449  1
  Pr  Pr19  1  0.500000  0.000000  0.769567  1
  Ga  Ga20  1  0.621927  0.378327  0.250053  1
  Ga  Ga21  1  0.120468  0.875930  0.749430  1
  Ga  Ga22  1  0.375930  0.379532  0.749430  1
  Ga  Ga23  1  0.378073  0.621673  0.250053  1
  Ga  Ga24  1  0.878327  0.878073  0.250053  1
  Ga  Ga25  1  0.624070  0.620468  0.749430  1
  Ga  Ga26  1  0.879532  0.124070  0.749430  1
  Ga  Ga27  1  0.121673  0.121927  0.250053  1
  Sn  Sn28  1  0.000000  0.500000  0.498209  1
  Sn  Sn29  1  0.500000  0.000000  0.498438  1
  Sn  Sn30  1  0.500000  0.000000  0.002306  1
  Sn  Sn31  1  0.000000  0.500000  0.002114  1
