# generated using pymatgen
data_Li2Ho3MgTl3
_symmetry_space_group_name_H-M   'P 1'
_cell_length_a   7.20757415
_cell_length_b   7.56013388
_cell_length_c   4.73800700
_cell_angle_alpha   90.00000000
_cell_angle_beta   90.00000000
_cell_angle_gamma   121.63175157
_symmetry_Int_Tables_number   1
_chemical_formula_structural   Li2Ho3MgTl3
_chemical_formula_sum   'Li2 Ho3 Mg1 Tl3'
_cell_volume   219.81965895
_cell_formula_units_Z   1
loop_
 _symmetry_equiv_pos_site_id
 _symmetry_equiv_pos_as_xyz
  1  'x, y, z'
loop_
 _atom_site_type_symbol
 _atom_site_label
 _atom_site_symmetry_multiplicity
 _atom_site_fract_x
 _atom_site_fract_y
 _atom_site_fract_z
 _atom_site_occupancy
  Li  Li0  1  0.771261  0.763008  0.500000  1
  Li  Li1  1  0.228739  0.991747  0.500000  1
  Ho  Ho2  1  0.000000  0.564900  0.000000  1
  Ho  Ho3  1  0.431994  0.441421  0.000000  1
  Ho  Ho4  1  0.568006  0.009427  0.000000  1
  Mg  Mg5  1  0.000000  0.226026  0.500000  1
  Tl  Tl6  1  0.663997  0.342813  0.500000  1
  Tl  Tl7  1  0.336003  0.678817  0.500000  1
  Tl  Tl8  1  0.000000  0.981843  0.000000  1
