# generated using pymatgen
data_Th4ZnIn2Ga3
_symmetry_space_group_name_H-M   'P 1'
_cell_length_a   7.47022354
_cell_length_b   7.47022354
_cell_length_c   4.48261800
_cell_angle_alpha   90.00000000
_cell_angle_beta   90.00000000
_cell_angle_gamma   89.44841019
_symmetry_Int_Tables_number   1
_chemical_formula_structural   Th4ZnIn2Ga3
_chemical_formula_sum   'Th4 Zn1 In2 Ga3'
_cell_volume   250.13749785
_cell_formula_units_Z   1
loop_
 _symmetry_equiv_pos_site_id
 _symmetry_equiv_pos_as_xyz
  1  'x, y, z'
loop_
 _atom_site_type_symbol
 _atom_site_label
 _atom_site_symmetry_multiplicity
 _atom_site_fract_x
 _atom_site_fract_y
 _atom_site_fract_z
 _atom_site_occupancy
  Th  Th0  1  0.674903  0.174903  0.500000  1
  Th  Th1  1  0.174536  0.324759  0.500000  1
  Th  Th2  1  0.824759  0.674536  0.500000  1
  Th  Th3  1  0.325113  0.825113  0.500000  1
  Zn  Zn4  1  0.877583  0.377583  0.000000  1
  In  In5  1  0.999105  0.002750  0.000000  1
  In  In6  1  0.502750  0.499105  0.000000  1
  Ga  Ga7  1  0.377396  0.122643  0.000000  1
  Ga  Ga8  1  0.622643  0.877396  0.000000  1
  Ga  Ga9  1  0.121213  0.621213  0.000000  1
