# generated using pymatgen
data_Pr5Nd5InSi5
_symmetry_space_group_name_H-M   'P 1'
_cell_length_a   7.81641566
_cell_length_b   7.81141082
_cell_length_c   9.23682877
_cell_angle_alpha   115.00259757
_cell_angle_beta   115.05302812
_cell_angle_gamma   90.03754286
_symmetry_Int_Tables_number   1
_chemical_formula_structural   Pr5Nd5InSi5
_chemical_formula_sum   'Pr5 Nd5 In1 Si5'
_cell_volume   451.81714164
_cell_formula_units_Z   1
loop_
 _symmetry_equiv_pos_site_id
 _symmetry_equiv_pos_as_xyz
  1  'x, y, z'
loop_
 _atom_site_type_symbol
 _atom_site_label
 _atom_site_symmetry_multiplicity
 _atom_site_fract_x
 _atom_site_fract_y
 _atom_site_fract_z
 _atom_site_occupancy
  Pr  Pr0  1  0.450278  0.977127  0.280268  1
  Pr  Pr1  1  0.049561  0.197030  0.719896  1
  Pr  Pr2  1  0.670426  0.523008  0.720113  1
  Pr  Pr3  1  0.197217  0.670483  0.719998  1
  Pr  Pr4  1  0.522718  0.049432  0.719978  1
  Nd  Nd5  1  0.525681  0.525512  0.051481  1
  Nd  Nd6  1  0.974975  0.975072  0.949928  1
  Nd  Nd7  1  0.976545  0.829150  0.278530  1
  Nd  Nd8  1  0.301825  0.449531  0.278742  1
  Nd  Nd9  1  0.829569  0.302128  0.278618  1
  In  In10  1  0.749887  0.749039  0.499115  1
  Si  Si11  1  0.248151  0.249395  0.497773  1
  Si  Si12  1  0.616835  0.885313  0.001316  1
  Si  Si13  1  0.385252  0.116741  0.001068  1
  Si  Si14  1  0.885240  0.385197  0.001806  1
  Si  Si15  1  0.115839  0.615841  0.001368  1
