# generated using pymatgen
data_Dy6MnP12Rh17
_symmetry_space_group_name_H-M   'P 1'
_cell_length_a   3.92675300
_cell_length_b   11.24011400
_cell_length_c   12.69463200
_cell_angle_alpha   90.00000000
_cell_angle_beta   90.00000000
_cell_angle_gamma   90.00000000
_symmetry_Int_Tables_number   1
_chemical_formula_structural   Dy6MnP12Rh17
_chemical_formula_sum   'Dy6 Mn1 P12 Rh17'
_cell_volume   560.30489417
_cell_formula_units_Z   1
loop_
 _symmetry_equiv_pos_site_id
 _symmetry_equiv_pos_as_xyz
  1  'x, y, z'
loop_
 _atom_site_type_symbol
 _atom_site_label
 _atom_site_symmetry_multiplicity
 _atom_site_fract_x
 _atom_site_fract_y
 _atom_site_fract_z
 _atom_site_occupancy
  Dy  Dy0  1  0.000000  0.500000  0.519497  1
  Dy  Dy1  1  0.500000  0.000000  0.479558  1
  Dy  Dy2  1  0.500000  0.821060  0.201842  1
  Dy  Dy3  1  0.500000  0.178940  0.201842  1
  Dy  Dy4  1  0.000000  0.685197  0.796123  1
  Dy  Dy5  1  0.000000  0.314803  0.796123  1
  Mn  Mn6  1  0.500000  0.000000  0.009094  1
  P  P7  1  0.500000  0.313805  0.619245  1
  P  P8  1  0.500000  0.686195  0.619245  1
  P  P9  1  0.000000  0.185103  0.380004  1
  P  P10  1  0.000000  0.814897  0.380004  1
  P  P11  1  0.500000  0.500000  0.878336  1
  P  P12  1  0.000000  0.000000  0.115477  1
  P  P13  1  0.500000  0.849493  0.896841  1
  P  P14  1  0.500000  0.150507  0.896841  1
  P  P15  1  0.000000  0.654226  0.107480  1
  P  P16  1  0.000000  0.345774  0.107480  1
  P  P17  1  0.500000  0.500000  0.351147  1
  P  P18  1  0.000000  0.000000  0.651836  1
  Rh  Rh19  1  0.000000  0.500000  0.979628  1
  Rh  Rh20  1  0.500000  0.293750  0.430590  1
  Rh  Rh21  1  0.500000  0.706250  0.430590  1
  Rh  Rh22  1  0.000000  0.204933  0.569617  1
  Rh  Rh23  1  0.000000  0.795067  0.569617  1
  Rh  Rh24  1  0.500000  0.873588  0.712854  1
  Rh  Rh25  1  0.500000  0.126412  0.712854  1
  Rh  Rh26  1  0.000000  0.628540  0.288133  1
  Rh  Rh27  1  0.000000  0.371460  0.288133  1
  Rh  Rh28  1  0.500000  0.334030  0.993933  1
  Rh  Rh29  1  0.500000  0.665970  0.993933  1
  Rh  Rh30  1  0.000000  0.165588  0.007742  1
  Rh  Rh31  1  0.000000  0.834412  0.007742  1
  Rh  Rh32  1  0.500000  0.500000  0.168328  1
  Rh  Rh33  1  0.000000  0.000000  0.839185  1
  Rh  Rh34  1  0.500000  0.500000  0.700078  1
  Rh  Rh35  1  0.000000  0.000000  0.299030  1
