# generated using pymatgen
data_Zr4MnBi2
_symmetry_space_group_name_H-M   'P 1'
_cell_length_a   8.33317182
_cell_length_b   8.33317316
_cell_length_c   8.33317307
_cell_angle_alpha   96.01978090
_cell_angle_beta   96.01977952
_cell_angle_gamma   142.20947467
_symmetry_Int_Tables_number   1
_chemical_formula_structural   Zr4MnBi2
_chemical_formula_sum   'Zr8 Mn2 Bi4'
_cell_volume   335.48707291
_cell_formula_units_Z   2
loop_
 _symmetry_equiv_pos_site_id
 _symmetry_equiv_pos_as_xyz
  1  'x, y, z'
loop_
 _atom_site_type_symbol
 _atom_site_label
 _atom_site_symmetry_multiplicity
 _atom_site_fract_x
 _atom_site_fract_y
 _atom_site_fract_z
 _atom_site_occupancy
  Zr  Zr0  1  0.695662  0.581184  0.276846  1
  Zr  Zr1  1  0.304338  0.418816  0.723154  1
  Zr  Zr2  1  0.581184  0.304338  0.885521  1
  Zr  Zr3  1  0.081184  0.195662  0.276846  1
  Zr  Zr4  1  0.804338  0.081184  0.885521  1
  Zr  Zr5  1  0.418816  0.695662  0.114479  1
  Zr  Zr6  1  0.918816  0.804338  0.723154  1
  Zr  Zr7  1  0.195662  0.918816  0.114479  1
  Mn  Mn8  1  0.250000  0.250000  0.000000  1
  Mn  Mn9  1  0.750000  0.750000  0.000000  1
  Bi  Bi10  1  0.139386  0.639386  0.778773  1
  Bi  Bi11  1  0.360614  0.139386  0.500000  1
  Bi  Bi12  1  0.860614  0.360614  0.221227  1
  Bi  Bi13  1  0.639386  0.860614  0.500000  1
