# generated using pymatgen
data_Dy8ErTh3Co4
_symmetry_space_group_name_H-M   'P 1'
_cell_length_a   6.29516411
_cell_length_b   6.88187349
_cell_length_c   9.56167608
_cell_angle_alpha   89.99440785
_cell_angle_beta   90.01339557
_cell_angle_gamma   91.11112250
_symmetry_Int_Tables_number   1
_chemical_formula_structural   Dy8ErTh3Co4
_chemical_formula_sum   'Dy8 Er1 Th3 Co4'
_cell_volume   414.15802880
_cell_formula_units_Z   1
loop_
 _symmetry_equiv_pos_site_id
 _symmetry_equiv_pos_as_xyz
  1  'x, y, z'
loop_
 _atom_site_type_symbol
 _atom_site_label
 _atom_site_symmetry_multiplicity
 _atom_site_fract_x
 _atom_site_fract_y
 _atom_site_fract_z
 _atom_site_occupancy
  Dy  Dy0  1  0.327427  0.672042  0.068438  1
  Dy  Dy1  1  0.170747  0.170561  0.430859  1
  Dy  Dy2  1  0.675776  0.329583  0.569242  1
  Dy  Dy3  1  0.824180  0.829116  0.928959  1
  Dy  Dy4  1  0.675852  0.329298  0.930907  1
  Dy  Dy5  1  0.824053  0.829047  0.571158  1
  Dy  Dy6  1  0.327688  0.672009  0.431636  1
  Dy  Dy7  1  0.355177  0.957130  0.750341  1
  Er  Er8  1  0.170741  0.170543  0.069159  1
  Th  Th9  1  0.845842  0.550992  0.249891  1
  Th  Th10  1  0.652210  0.052818  0.249539  1
  Th  Th11  1  0.157939  0.448988  0.750267  1
  Co  Co12  1  0.033523  0.871239  0.249703  1
  Co  Co13  1  0.463536  0.370825  0.249614  1
  Co  Co14  1  0.960921  0.133015  0.750425  1
  Co  Co15  1  0.534387  0.612795  0.749862  1
