# generated using pymatgen
data_Sc6B4Ir7Rh3
_symmetry_space_group_name_H-M   'P 1'
_cell_length_a   9.54185042
_cell_length_b   9.57018241
_cell_length_c   3.10649300
_cell_angle_alpha   90.00000000
_cell_angle_beta   90.00000000
_cell_angle_gamma   90.08145291
_symmetry_Int_Tables_number   1
_chemical_formula_structural   Sc6B4Ir7Rh3
_chemical_formula_sum   'Sc6 B4 Ir7 Rh3'
_cell_volume   283.67610824
_cell_formula_units_Z   1
loop_
 _symmetry_equiv_pos_site_id
 _symmetry_equiv_pos_as_xyz
  1  'x, y, z'
loop_
 _atom_site_type_symbol
 _atom_site_label
 _atom_site_symmetry_multiplicity
 _atom_site_fract_x
 _atom_site_fract_y
 _atom_site_fract_z
 _atom_site_occupancy
  Sc  Sc0  1  0.824515  0.324936  0.000000  1
  Sc  Sc1  1  0.324770  0.174576  0.000000  1
  Sc  Sc2  1  0.675080  0.824629  0.000000  1
  Sc  Sc3  1  0.174573  0.676384  0.000000  1
  Sc  Sc4  1  0.000006  0.000193  0.000000  1
  Sc  Sc5  1  0.497447  0.499218  0.000000  1
  B  B6  1  0.621885  0.122001  0.000000  1
  B  B7  1  0.120711  0.377552  0.000000  1
  B  B8  1  0.877961  0.621478  0.000000  1
  B  B9  1  0.378818  0.878367  0.000000  1
  Ir  Ir10  1  0.071800  0.223388  0.500000  1
  Ir  Ir11  1  0.222693  0.929526  0.500000  1
  Ir  Ir12  1  0.777759  0.069963  0.500000  1
  Ir  Ir13  1  0.930106  0.776862  0.500000  1
  Ir  Ir14  1  0.430149  0.723142  0.500000  1
  Ir  Ir15  1  0.571102  0.277530  0.500000  1
  Ir  Ir16  1  0.722356  0.569854  0.500000  1
  Rh  Rh17  1  0.277187  0.429827  0.500000  1
  Rh  Rh18  1  0.500017  0.000753  0.500000  1
  Rh  Rh19  1  0.001065  0.499821  0.500000  1
