# generated using pymatgen
data_SrCeThSe5
_symmetry_space_group_name_H-M   'P 1'
_cell_length_a   7.93353400
_cell_length_b   8.69155095
_cell_length_c   12.61873127
_cell_angle_alpha   90.07956126
_cell_angle_beta   90.00000000
_cell_angle_gamma   90.00000000
_symmetry_Int_Tables_number   1
_chemical_formula_structural   SrCeThSe5
_chemical_formula_sum   'Sr4 Ce4 Th4 Se20'
_cell_volume   870.12017847
_cell_formula_units_Z   4
loop_
 _symmetry_equiv_pos_site_id
 _symmetry_equiv_pos_as_xyz
  1  'x, y, z'
loop_
 _atom_site_type_symbol
 _atom_site_label
 _atom_site_symmetry_multiplicity
 _atom_site_fract_x
 _atom_site_fract_y
 _atom_site_fract_z
 _atom_site_occupancy
  Sr  Sr0  1  0.965478  0.505207  0.825572  1
  Sr  Sr1  1  0.465478  0.494793  0.674428  1
  Sr  Sr2  1  0.034522  0.494793  0.174428  1
  Sr  Sr3  1  0.534522  0.505207  0.325572  1
  Ce  Ce4  1  0.572474  0.251740  0.008579  1
  Ce  Ce5  1  0.927526  0.251740  0.508579  1
  Ce  Ce6  1  0.427526  0.748260  0.991421  1
  Ce  Ce7  1  0.072474  0.748260  0.491421  1
  Th  Th8  1  0.518898  0.001532  0.320282  1
  Th  Th9  1  0.018898  0.998468  0.179718  1
  Th  Th10  1  0.481102  0.998468  0.679718  1
  Th  Th11  1  0.981102  0.001532  0.820282  1
  Se  Se12  1  0.840523  0.955763  0.599536  1
  Se  Se13  1  0.827527  0.774853  0.315563  1
  Se  Se14  1  0.672473  0.774853  0.815563  1
  Se  Se15  1  0.172473  0.225147  0.684437  1
  Se  Se16  1  0.542900  0.223051  0.501672  1
  Se  Se17  1  0.042900  0.776949  0.998328  1
  Se  Se18  1  0.457100  0.776949  0.498328  1
  Se  Se19  1  0.957100  0.223051  0.001672  1
  Se  Se20  1  0.197615  0.763728  0.716039  1
  Se  Se21  1  0.697615  0.236272  0.783961  1
  Se  Se22  1  0.802385  0.236272  0.283961  1
  Se  Se23  1  0.659477  0.955763  0.099536  1
  Se  Se24  1  0.831130  0.542027  0.587318  1
  Se  Se25  1  0.331130  0.457973  0.912682  1
  Se  Se26  1  0.168870  0.457973  0.412682  1
  Se  Se27  1  0.668870  0.542027  0.087318  1
  Se  Se28  1  0.302385  0.763728  0.216039  1
  Se  Se29  1  0.340523  0.044237  0.900464  1
  Se  Se30  1  0.159477  0.044237  0.400464  1
  Se  Se31  1  0.327527  0.225147  0.184437  1
