# generated using pymatgen
data_Ho15Er(LuPb4)4
_symmetry_space_group_name_H-M   'P 1'
_cell_length_a   8.14102504
_cell_length_b   15.54872227
_cell_length_c   8.22238222
_cell_angle_alpha   89.99282090
_cell_angle_beta   90.03834705
_cell_angle_gamma   89.98609760
_symmetry_Int_Tables_number   1
_chemical_formula_structural   Ho15Er(LuPb4)4
_chemical_formula_sum   'Ho15 Er1 Lu4 Pb16'
_cell_volume   1040.80973223
_cell_formula_units_Z   1
loop_
 _symmetry_equiv_pos_site_id
 _symmetry_equiv_pos_as_xyz
  1  'x, y, z'
loop_
 _atom_site_type_symbol
 _atom_site_label
 _atom_site_symmetry_multiplicity
 _atom_site_fract_x
 _atom_site_fract_y
 _atom_site_fract_z
 _atom_site_occupancy
  Ho  Ho0  1  0.123059  0.879135  0.340982  1
  Ho  Ho1  1  0.377121  0.120714  0.841106  1
  Ho  Ho2  1  0.876932  0.379598  0.659091  1
  Ho  Ho3  1  0.377051  0.379225  0.840889  1
  Ho  Ho4  1  0.877184  0.120699  0.659053  1
  Ho  Ho5  1  0.622849  0.879200  0.159008  1
  Ho  Ho6  1  0.122824  0.620609  0.341140  1
  Ho  Ho7  1  0.465473  0.599690  0.676799  1
  Ho  Ho8  1  0.965329  0.900138  0.823491  1
  Ho  Ho9  1  0.534502  0.099758  0.323363  1
  Ho  Ho10  1  0.034772  0.400218  0.176744  1
  Ho  Ho11  1  0.534492  0.400567  0.323167  1
  Ho  Ho12  1  0.034546  0.099777  0.176570  1
  Ho  Ho13  1  0.465495  0.900102  0.676592  1
  Ho  Ho14  1  0.965370  0.599858  0.823607  1
  Er  Er15  1  0.623057  0.621018  0.158698  1
  Lu  Lu16  1  0.791164  0.749787  0.495845  1
  Lu  Lu17  1  0.291486  0.749826  0.004071  1
  Lu  Lu18  1  0.208603  0.249985  0.504020  1
  Lu  Lu19  1  0.708646  0.250123  0.996192  1
  Pb  Pb20  1  0.718606  0.457594  0.967757  1
  Pb  Pb21  1  0.218842  0.042976  0.532729  1
  Pb  Pb22  1  0.281050  0.956957  0.032741  1
  Pb  Pb23  1  0.780558  0.543112  0.466219  1
  Pb  Pb24  1  0.282160  0.543119  0.033079  1
  Pb  Pb25  1  0.781138  0.956927  0.467246  1
  Pb  Pb26  1  0.718873  0.042983  0.967251  1
  Pb  Pb27  1  0.218858  0.456999  0.532723  1
  Pb  Pb28  1  0.428981  0.749647  0.372566  1
  Pb  Pb29  1  0.928371  0.749740  0.126987  1
  Pb  Pb30  1  0.571405  0.250043  0.626958  1
  Pb  Pb31  1  0.071262  0.250037  0.872995  1
  Pb  Pb32  1  0.653198  0.749822  0.846425  1
  Pb  Pb33  1  0.153234  0.749953  0.653793  1
  Pb  Pb34  1  0.346790  0.250039  0.153823  1
  Pb  Pb35  1  0.846725  0.250026  0.346276  1
