# generated using pymatgen
data_CaAc2(AgPb)3
_symmetry_space_group_name_H-M   'P 1'
_cell_length_a   5.05106000
_cell_length_b   5.05105926
_cell_length_c   11.81718700
_cell_angle_alpha   90.00000000
_cell_angle_beta   90.00000000
_cell_angle_gamma   119.99999174
_symmetry_Int_Tables_number   1
_chemical_formula_structural   CaAc2(AgPb)3
_chemical_formula_sum   'Ca1 Ac2 Ag3 Pb3'
_cell_volume   261.10174067
_cell_formula_units_Z   1
loop_
 _symmetry_equiv_pos_site_id
 _symmetry_equiv_pos_as_xyz
  1  'x, y, z'
loop_
 _atom_site_type_symbol
 _atom_site_label
 _atom_site_symmetry_multiplicity
 _atom_site_fract_x
 _atom_site_fract_y
 _atom_site_fract_z
 _atom_site_occupancy
  Ca  Ca0  1  0.666667  0.333333  0.497430  1
  Ac  Ac1  1  0.666667  0.333333  0.823974  1
  Ac  Ac2  1  0.666667  0.333333  0.171206  1
  Ag  Ag3  1  0.333333  0.666667  0.995938  1
  Ag  Ag4  1  0.000000  0.000000  0.668401  1
  Ag  Ag5  1  0.000000  0.000000  0.326956  1
  Pb  Pb6  1  0.333333  0.666667  0.639648  1
  Pb  Pb7  1  0.333333  0.666667  0.355751  1
  Pb  Pb8  1  0.000000  0.000000  0.998597  1
