# generated using pymatgen
data_MgZnNi3AuO8
_symmetry_space_group_name_H-M   'P 1'
_cell_length_a   5.95984130
_cell_length_b   5.95984335
_cell_length_c   6.11456200
_cell_angle_alpha   60.83356903
_cell_angle_beta   60.83356728
_cell_angle_gamma   60.00000874
_symmetry_Int_Tables_number   1
_chemical_formula_structural   MgZnNi3AuO8
_chemical_formula_sum   'Mg1 Zn1 Ni3 Au1 O8'
_cell_volume   155.48137535
_cell_formula_units_Z   1
loop_
 _symmetry_equiv_pos_site_id
 _symmetry_equiv_pos_as_xyz
  1  'x, y, z'
loop_
 _atom_site_type_symbol
 _atom_site_label
 _atom_site_symmetry_multiplicity
 _atom_site_fract_x
 _atom_site_fract_y
 _atom_site_fract_z
 _atom_site_occupancy
  Mg  Mg0  1  0.488198  0.488198  0.535406  1
  Zn  Zn1  1  0.762841  0.762841  0.711477  1
  Ni  Ni2  1  0.125730  0.125730  0.125452  1
  Ni  Ni3  1  0.623088  0.125730  0.125452  1
  Ni  Ni4  1  0.125730  0.623088  0.125452  1
  Au  Au5  1  0.125220  0.125220  0.624339  1
  O  O6  1  0.886534  0.886534  0.874994  1
  O  O7  1  0.898346  0.362950  0.375755  1
  O  O8  1  0.362950  0.898346  0.375755  1
  O  O9  1  0.358538  0.358538  0.924389  1
  O  O10  1  0.886534  0.351936  0.874994  1
  O  O11  1  0.891404  0.891404  0.325785  1
  O  O12  1  0.351936  0.886534  0.874994  1
  O  O13  1  0.362950  0.362950  0.375755  1
