# generated using pymatgen
data_MgZrFe9Co3P7
_symmetry_space_group_name_H-M   'P 1'
_cell_length_a   8.89877900
_cell_length_b   8.89877990
_cell_length_c   3.56537500
_cell_angle_alpha   90.00000000
_cell_angle_beta   90.00000000
_cell_angle_gamma   119.99999295
_symmetry_Int_Tables_number   1
_chemical_formula_structural   MgZrFe9Co3P7
_chemical_formula_sum   'Mg1 Zr1 Fe9 Co3 P7'
_cell_volume   244.51007773
_cell_formula_units_Z   1
loop_
 _symmetry_equiv_pos_site_id
 _symmetry_equiv_pos_as_xyz
  1  'x, y, z'
loop_
 _atom_site_type_symbol
 _atom_site_label
 _atom_site_symmetry_multiplicity
 _atom_site_fract_x
 _atom_site_fract_y
 _atom_site_fract_z
 _atom_site_occupancy
  Mg  Mg0  1  0.333333  0.666667  0.500000  1
  Zr  Zr1  1  0.000000  0.000000  0.000000  1
  Fe  Fe2  1  0.823352  0.608780  0.000000  1
  Fe  Fe3  1  0.785428  0.176648  0.000000  1
  Fe  Fe4  1  0.391220  0.214572  0.000000  1
  Fe  Fe5  1  0.054145  0.772374  0.500000  1
  Fe  Fe6  1  0.718230  0.945855  0.500000  1
  Fe  Fe7  1  0.227626  0.281770  0.500000  1
  Fe  Fe8  1  0.892079  0.434001  0.500000  1
  Fe  Fe9  1  0.541923  0.107921  0.500000  1
  Fe  Fe10  1  0.565999  0.458077  0.500000  1
  Co  Co11  1  0.101215  0.396938  0.000000  1
  Co  Co12  1  0.295722  0.898785  0.000000  1
  Co  Co13  1  0.603062  0.704278  0.000000  1
  P  P14  1  0.078409  0.629159  0.000000  1
  P  P15  1  0.550750  0.921591  0.000000  1
  P  P16  1  0.370841  0.449250  0.000000  1
  P  P17  1  0.784506  0.737486  0.500000  1
  P  P18  1  0.952979  0.215494  0.500000  1
  P  P19  1  0.262514  0.047021  0.500000  1
  P  P20  1  0.666667  0.333333  0.000000  1
