# generated using pymatgen
data_Tb2Y3TmNiI10
_symmetry_space_group_name_H-M   'P 1'
_cell_length_a   7.70241410
_cell_length_b   9.66986751
_cell_length_c   9.71892693
_cell_angle_alpha   107.10301367
_cell_angle_beta   96.89908714
_cell_angle_gamma   104.70606736
_symmetry_Int_Tables_number   1
_chemical_formula_structural   Tb2Y3TmNiI10
_chemical_formula_sum   'Tb2 Y3 Tm1 Ni1 I10'
_cell_volume   654.17981500
_cell_formula_units_Z   1
loop_
 _symmetry_equiv_pos_site_id
 _symmetry_equiv_pos_as_xyz
  1  'x, y, z'
loop_
 _atom_site_type_symbol
 _atom_site_label
 _atom_site_symmetry_multiplicity
 _atom_site_fract_x
 _atom_site_fract_y
 _atom_site_fract_z
 _atom_site_occupancy
  Tb  Tb0  1  0.886846  0.958671  0.235753  1
  Tb  Tb1  1  0.112903  0.040381  0.763772  1
  Y  Y2  1  0.969604  0.280547  0.083655  1
  Y  Y3  1  0.658218  0.877802  0.837807  1
  Y  Y4  1  0.341908  0.120760  0.161928  1
  Tm  Tm5  1  0.029172  0.724177  0.917053  1
  Ni  Ni6  1  0.999892  0.999631  0.999894  1
  I  I7  1  0.651569  0.548339  0.728865  1
  I  I8  1  0.352724  0.451520  0.272647  1
  I  I9  1  0.740224  0.911833  0.537360  1
  I  I10  1  0.259515  0.087930  0.462667  1
  I  I11  1  0.084999  0.374678  0.820354  1
  I  I12  1  0.915899  0.626881  0.177518  1
  I  I13  1  0.451525  0.813378  0.091667  1
  I  I14  1  0.546639  0.185284  0.906979  1
  I  I15  1  0.222619  0.740648  0.656539  1
  I  I16  1  0.775744  0.257539  0.345540  1
