# generated using pymatgen
data_CaBeB14
_symmetry_space_group_name_H-M   'P 1'
_cell_length_a   7.21805698
_cell_length_b   7.21805655
_cell_length_c   7.21805559
_cell_angle_alpha   133.00750822
_cell_angle_beta   110.40218393
_cell_angle_gamma   88.24062748
_symmetry_Int_Tables_number   1
_chemical_formula_structural   CaBeB14
_chemical_formula_sum   'Ca2 Be2 B28'
_cell_volume   245.70437305
_cell_formula_units_Z   2
loop_
 _symmetry_equiv_pos_site_id
 _symmetry_equiv_pos_as_xyz
  1  'x, y, z'
loop_
 _atom_site_type_symbol
 _atom_site_label
 _atom_site_symmetry_multiplicity
 _atom_site_fract_x
 _atom_site_fract_y
 _atom_site_fract_z
 _atom_site_occupancy
  Ca  Ca0  1  0.608577  0.250000  0.358577  1
  Ca  Ca1  1  0.391423  0.750000  0.641423  1
  Be  Be2  1  0.000000  0.000000  0.500000  1
  Be  Be3  1  0.000000  0.500000  0.000000  1
  B  B4  1  0.633974  0.665513  0.968462  1
  B  B5  1  0.366026  0.334487  0.031538  1
  B  B6  1  0.197051  0.165513  0.031538  1
  B  B7  1  0.802949  0.834487  0.968462  1
  B  B8  1  0.790491  0.155797  0.634692  1
  B  B9  1  0.209509  0.844203  0.365308  1
  B  B10  1  0.021106  0.655797  0.365308  1
  B  B11  1  0.978894  0.344203  0.634692  1
  B  B12  1  0.921830  0.089975  0.831855  1
  B  B13  1  0.078170  0.910025  0.168145  1
  B  B14  1  0.758123  0.589975  0.168145  1
  B  B15  1  0.241877  0.410025  0.831855  1
  B  B16  1  0.397525  0.396519  0.677946  1
  B  B17  1  0.602475  0.280421  0.998995  1
  B  B18  1  0.218573  0.896519  0.998995  1
  B  B19  1  0.781427  0.780421  0.677946  1
  B  B20  1  0.602475  0.603481  0.322054  1
  B  B21  1  0.397525  0.719579  0.001005  1
  B  B22  1  0.781427  0.103481  0.001005  1
  B  B23  1  0.218573  0.219579  0.322054  1
  B  B24  1  0.033666  0.826835  0.699106  1
  B  B25  1  0.966334  0.665440  0.793168  1
  B  B26  1  0.627728  0.326835  0.793168  1
  B  B27  1  0.372272  0.165440  0.699106  1
  B  B28  1  0.966334  0.173165  0.300894  1
  B  B29  1  0.033666  0.334560  0.206832  1
  B  B30  1  0.372272  0.673165  0.206832  1
  B  B31  1  0.627728  0.834560  0.300894  1
