# generated using pymatgen
data_Li6Ca12Re4N19
_symmetry_space_group_name_H-M   'P 1'
_cell_length_a   11.44449033
_cell_length_b   11.44449035
_cell_length_c   11.44449000
_cell_angle_alpha   109.47122001
_cell_angle_beta   109.47122005
_cell_angle_gamma   109.47122368
_symmetry_Int_Tables_number   1
_chemical_formula_structural   Li6Ca12Re4N19
_chemical_formula_sum   'Li12 Ca24 Re8 N38'
_cell_volume   1153.89809801
_cell_formula_units_Z   2
loop_
 _symmetry_equiv_pos_site_id
 _symmetry_equiv_pos_as_xyz
  1  'x, y, z'
loop_
 _atom_site_type_symbol
 _atom_site_label
 _atom_site_symmetry_multiplicity
 _atom_site_fract_x
 _atom_site_fract_y
 _atom_site_fract_z
 _atom_site_occupancy
  Li  Li0  1  0.274726  0.024726  0.250000  1
  Li  Li1  1  0.975274  0.725274  0.250000  1
  Li  Li2  1  0.750000  0.524726  0.774726  1
  Li  Li3  1  0.774726  0.750000  0.524726  1
  Li  Li4  1  0.250000  0.975274  0.725274  1
  Li  Li5  1  0.725274  0.250000  0.975274  1
  Li  Li6  1  0.225274  0.475274  0.750000  1
  Li  Li7  1  0.475274  0.750000  0.225274  1
  Li  Li8  1  0.024726  0.250000  0.274726  1
  Li  Li9  1  0.250000  0.274726  0.024726  1
  Li  Li10  1  0.750000  0.225274  0.475274  1
  Li  Li11  1  0.524726  0.774726  0.750000  1
  Ca  Ca12  1  0.040149  0.092146  0.709415  1
  Ca  Ca13  1  0.051998  0.459851  0.169265  1
  Ca  Ca14  1  0.790585  0.882732  0.330735  1
  Ca  Ca15  1  0.617268  0.407854  0.448002  1
  Ca  Ca16  1  0.407854  0.448002  0.617268  1
  Ca  Ca17  1  0.092146  0.709415  0.040149  1
  Ca  Ca18  1  0.459851  0.169265  0.051998  1
  Ca  Ca19  1  0.330735  0.790585  0.882732  1
  Ca  Ca20  1  0.709415  0.040149  0.092146  1
  Ca  Ca21  1  0.169265  0.051998  0.459851  1
  Ca  Ca22  1  0.882732  0.330735  0.790585  1
  Ca  Ca23  1  0.959851  0.551998  0.669265  1
  Ca  Ca24  1  0.382732  0.290585  0.830735  1
  Ca  Ca25  1  0.448002  0.617268  0.407854  1
  Ca  Ca26  1  0.540149  0.209415  0.592146  1
  Ca  Ca27  1  0.907854  0.117268  0.948002  1
  Ca  Ca28  1  0.948002  0.907854  0.117268  1
  Ca  Ca29  1  0.117268  0.948002  0.907854  1
  Ca  Ca30  1  0.830735  0.382732  0.290585  1
  Ca  Ca31  1  0.551998  0.669265  0.959851  1
  Ca  Ca32  1  0.209415  0.592146  0.540149  1
  Ca  Ca33  1  0.592146  0.540149  0.209415  1
  Ca  Ca34  1  0.669265  0.959851  0.551998  1
  Ca  Ca35  1  0.290585  0.830735  0.382732  1
  Re  Re36  1  0.280248  0.280248  0.280248  1
  Re  Re37  1  0.500000  0.000000  0.719752  1
  Re  Re38  1  0.000000  0.719752  0.500000  1
  Re  Re39  1  0.719752  0.500000  0.000000  1
  Re  Re40  1  0.000000  0.219752  0.500000  1
  Re  Re41  1  0.219752  0.500000  0.000000  1
  Re  Re42  1  0.500000  0.000000  0.219752  1
  Re  Re43  1  0.780248  0.780248  0.780248  1
  N  N44  1  0.822612  0.583817  0.453955  1
  N  N45  1  0.546045  0.868658  0.129863  1
  N  N46  1  0.238795  0.416183  0.370137  1
  N  N47  1  0.322612  0.953955  0.083817  1
  N  N48  1  0.953955  0.083817  0.322612  1
  N  N49  1  0.083817  0.322612  0.953955  1
  N  N50  1  0.738795  0.870137  0.916183  1
  N  N51  1  0.046045  0.629863  0.368658  1
  N  N52  1  0.761205  0.677388  0.131342  1
  N  N53  1  0.370137  0.238795  0.416183  1
  N  N54  1  0.583817  0.453955  0.822612  1
  N  N55  1  0.916183  0.738795  0.870137  1
  N  N56  1  0.629863  0.368658  0.046045  1
  N  N57  1  0.131342  0.761205  0.677388  1
  N  N58  1  0.870137  0.916183  0.738795  1
  N  N59  1  0.368658  0.046045  0.629863  1
  N  N60  1  0.677388  0.131342  0.761205  1
  N  N61  1  0.129863  0.546045  0.868658  1
  N  N62  1  0.177388  0.261205  0.631342  1
  N  N63  1  0.261205  0.631342  0.177388  1
  N  N64  1  0.619340  0.619340  0.619340  1
  N  N65  1  0.500000  0.000000  0.380660  1
  N  N66  1  0.380660  0.500000  0.000000  1
  N  N67  1  0.000000  0.380660  0.500000  1
  N  N68  1  0.880660  0.500000  0.000000  1
  N  N69  1  0.000000  0.880660  0.500000  1
  N  N70  1  0.500000  0.000000  0.880660  1
  N  N71  1  0.119340  0.119340  0.119340  1
  N  N72  1  0.453955  0.822612  0.583817  1
  N  N73  1  0.868658  0.129863  0.546045  1
  N  N74  1  0.416183  0.370137  0.238795  1
  N  N75  1  0.631342  0.177388  0.261205  1
  N  N76  1  0.625000  0.750000  0.375000  1
  N  N77  1  0.875000  0.250000  0.125000  1
  N  N78  1  0.750000  0.375000  0.625000  1
  N  N79  1  0.250000  0.125000  0.875000  1
  N  N80  1  0.125000  0.875000  0.250000  1
  N  N81  1  0.375000  0.625000  0.750000  1
