# generated using pymatgen
data_Y5PaAl18
_symmetry_space_group_name_H-M   'P 1'
_cell_length_a   14.63088636
_cell_length_b   14.63088631
_cell_length_c   14.63088709
_cell_angle_alpha   24.37147517
_cell_angle_beta   24.37147396
_cell_angle_gamma   24.37147799
_symmetry_Int_Tables_number   1
_chemical_formula_structural   Y5PaAl18
_chemical_formula_sum   'Y5 Pa1 Al18'
_cell_volume   468.81735863
_cell_formula_units_Z   1
loop_
 _symmetry_equiv_pos_site_id
 _symmetry_equiv_pos_as_xyz
  1  'x, y, z'
loop_
 _atom_site_type_symbol
 _atom_site_label
 _atom_site_symmetry_multiplicity
 _atom_site_fract_x
 _atom_site_fract_y
 _atom_site_fract_z
 _atom_site_occupancy
  Y  Y0  1  0.890763  0.890763  0.890763  1
  Y  Y1  1  0.390994  0.390994  0.390994  1
  Y  Y2  1  0.999771  0.999771  0.999771  1
  Y  Y3  1  0.499949  0.499949  0.499949  1
  Y  Y4  1  0.609183  0.609183  0.609183  1
  Pa  Pa5  1  0.108846  0.108846  0.108846  1
  Al  Al6  1  0.924780  0.370969  0.370969  1
  Al  Al7  1  0.421856  0.870859  0.870859  1
  Al  Al8  1  0.370969  0.370969  0.924780  1
  Al  Al9  1  0.870859  0.870859  0.421856  1
  Al  Al10  1  0.370969  0.924780  0.370969  1
  Al  Al11  1  0.870859  0.421856  0.870859  1
  Al  Al12  1  0.576091  0.129437  0.129437  1
  Al  Al13  1  0.076859  0.629196  0.629196  1
  Al  Al14  1  0.129437  0.129437  0.576091  1
  Al  Al15  1  0.629196  0.629196  0.076859  1
  Al  Al16  1  0.129437  0.576091  0.129437  1
  Al  Al17  1  0.629196  0.076859  0.629196  1
  Al  Al18  1  0.500006  0.500006  0.998984  1
  Al  Al19  1  0.002050  0.002050  0.496891  1
  Al  Al20  1  0.500006  0.998984  0.500006  1
  Al  Al21  1  0.002050  0.496891  0.002050  1
  Al  Al22  1  0.998984  0.500006  0.500006  1
  Al  Al23  1  0.496891  0.002050  0.002050  1
