# generated using pymatgen
data_TbY5Zn4Pd13
_symmetry_space_group_name_H-M   'P 1'
_cell_length_a   8.27144471
_cell_length_b   8.27144229
_cell_length_c   8.27144206
_cell_angle_alpha   109.48544198
_cell_angle_beta   109.46411691
_cell_angle_gamma   109.46411876
_symmetry_Int_Tables_number   1
_chemical_formula_structural   TbY5Zn4Pd13
_chemical_formula_sum   'Tb1 Y5 Zn4 Pd13'
_cell_volume   435.63408962
_cell_formula_units_Z   1
loop_
 _symmetry_equiv_pos_site_id
 _symmetry_equiv_pos_as_xyz
  1  'x, y, z'
loop_
 _atom_site_type_symbol
 _atom_site_label
 _atom_site_symmetry_multiplicity
 _atom_site_fract_x
 _atom_site_fract_y
 _atom_site_fract_z
 _atom_site_occupancy
  Tb  Tb0  1  0.000000  0.697854  0.697854  1
  Y  Y1  1  0.697935  0.697964  0.000030  1
  Y  Y2  1  0.302066  0.000030  0.302095  1
  Y  Y3  1  0.000000  0.301925  0.301925  1
  Y  Y4  1  0.302066  0.302095  0.000030  1
  Y  Y5  1  0.697935  0.000030  0.697964  1
  Zn  Zn6  1  0.000000  0.000056  0.499973  1
  Zn  Zn7  1  0.000000  0.499973  0.000056  1
  Zn  Zn8  1  0.500083  0.000057  0.000057  1
  Zn  Zn9  1  0.499917  0.499973  0.499973  1
  Pd  Pd10  1  0.333192  0.333126  0.666320  1
  Pd  Pd11  1  0.666808  0.999935  0.333126  1
  Pd  Pd12  1  0.000000  0.666829  0.333275  1
  Pd  Pd13  1  0.666808  0.333126  0.999935  1
  Pd  Pd14  1  0.333192  0.666320  0.333126  1
  Pd  Pd15  1  0.000000  0.333275  0.666829  1
  Pd  Pd16  1  0.333125  0.666854  0.999979  1
  Pd  Pd17  1  0.333125  0.999979  0.666854  1
  Pd  Pd18  1  0.666448  0.333276  0.333276  1
  Pd  Pd19  1  0.666874  0.666853  0.333727  1
  Pd  Pd20  1  0.666874  0.333727  0.666853  1
  Pd  Pd21  1  0.333553  0.666829  0.666829  1
  Pd  Pd22  1  0.000001  0.999914  0.999914  1
