# generated using pymatgen
data_La4Pr6Al3ZnRu6
_symmetry_space_group_name_H-M   'P 1'
_cell_length_a   8.60649673
_cell_length_b   8.66448029
_cell_length_c   8.65191112
_cell_angle_alpha   109.62242296
_cell_angle_beta   109.44491496
_cell_angle_gamma   109.41810228
_symmetry_Int_Tables_number   1
_chemical_formula_structural   La4Pr6Al3ZnRu6
_chemical_formula_sum   'La4 Pr6 Al3 Zn1 Ru6'
_cell_volume   496.21803928
_cell_formula_units_Z   1
loop_
 _symmetry_equiv_pos_site_id
 _symmetry_equiv_pos_as_xyz
  1  'x, y, z'
loop_
 _atom_site_type_symbol
 _atom_site_label
 _atom_site_symmetry_multiplicity
 _atom_site_fract_x
 _atom_site_fract_y
 _atom_site_fract_z
 _atom_site_occupancy
  La  La0  1  0.254183  0.689465  0.443201  1
  La  La1  1  0.749667  0.811043  0.057668  1
  La  La2  1  0.441683  0.250289  0.688019  1
  La  La3  1  0.690947  0.442281  0.253805  1
  Pr  Pr4  1  0.064238  0.749496  0.814685  1
  Pr  Pr5  1  0.815721  0.063279  0.748869  1
  Pr  Pr6  1  0.218710  0.220261  0.217815  1
  Pr  Pr7  1  0.499739  0.996206  0.282275  1
  Pr  Pr8  1  0.285662  0.501673  0.999586  1
  Pr  Pr9  1  0.999472  0.284463  0.503191  1
  Al  Al10  1  0.499370  0.004759  0.913228  1
  Al  Al11  1  0.913054  0.496966  0.001032  1
  Al  Al12  1  0.000310  0.911303  0.497774  1
  Zn  Zn13  1  0.588202  0.586344  0.586746  1
  Ru  Ru14  1  0.248361  0.121493  0.860078  1
  Ru  Ru15  1  0.744585  0.369016  0.635123  1
  Ru  Ru16  1  0.862744  0.254338  0.123173  1
  Ru  Ru17  1  0.110435  0.861079  0.243516  1
  Ru  Ru18  1  0.632945  0.743702  0.372387  1
  Ru  Ru19  1  0.379973  0.642546  0.757830  1
