# generated using pymatgen
data_Nd4PtRh3O14
_symmetry_space_group_name_H-M   'P 1'
_cell_length_a   7.41252169
_cell_length_b   7.39593211
_cell_length_c   7.41252100
_cell_angle_alpha   59.92577072
_cell_angle_beta   59.99999862
_cell_angle_gamma   59.92576860
_symmetry_Int_Tables_number   1
_chemical_formula_structural   Nd4PtRh3O14
_chemical_formula_sum   'Nd4 Pt1 Rh3 O14'
_cell_volume   287.02626552
_cell_formula_units_Z   1
loop_
 _symmetry_equiv_pos_site_id
 _symmetry_equiv_pos_as_xyz
  1  'x, y, z'
loop_
 _atom_site_type_symbol
 _atom_site_label
 _atom_site_symmetry_multiplicity
 _atom_site_fract_x
 _atom_site_fract_y
 _atom_site_fract_z
 _atom_site_occupancy
  Nd  Nd0  1  0.625000  0.625000  0.125000  1
  Nd  Nd1  1  0.625000  0.125000  0.625000  1
  Nd  Nd2  1  0.125000  0.625000  0.625000  1
  Nd  Nd3  1  0.625000  0.625000  0.625000  1
  Pt  Pt4  1  0.125000  0.625000  0.125000  1
  Rh  Rh5  1  0.125000  0.125000  0.625000  1
  Rh  Rh6  1  0.625000  0.125000  0.125000  1
  Rh  Rh7  1  0.125000  0.125000  0.125000  1
  O  O8  1  0.499909  0.500274  0.499909  1
  O  O9  1  0.750091  0.749726  0.750091  1
  O  O10  1  0.456450  0.044089  0.456450  1
  O  O11  1  0.208936  0.790930  0.208936  1
  O  O12  1  0.458803  0.459070  0.041064  1
  O  O13  1  0.041064  0.459070  0.458803  1
  O  O14  1  0.456450  0.044089  0.043010  1
  O  O15  1  0.043010  0.044089  0.456450  1
  O  O16  1  0.041064  0.459070  0.041064  1
  O  O17  1  0.793550  0.205911  0.206990  1
  O  O18  1  0.208936  0.790930  0.791197  1
  O  O19  1  0.793550  0.205911  0.793550  1
  O  O20  1  0.206990  0.205911  0.793550  1
  O  O21  1  0.791197  0.790930  0.208936  1
