# generated using pymatgen
data_Tb8Ga12CoCu3
_symmetry_space_group_name_H-M   'P 1'
_cell_length_a   7.06217400
_cell_length_b   8.76441112
_cell_length_c   8.76441100
_cell_angle_alpha   119.99999578
_cell_angle_beta   90.00000000
_cell_angle_gamma   90.00000000
_symmetry_Int_Tables_number   1
_chemical_formula_structural   Tb8Ga12CoCu3
_chemical_formula_sum   'Tb8 Ga12 Co1 Cu3'
_cell_volume   469.80165261
_cell_formula_units_Z   1
loop_
 _symmetry_equiv_pos_site_id
 _symmetry_equiv_pos_as_xyz
  1  'x, y, z'
loop_
 _atom_site_type_symbol
 _atom_site_label
 _atom_site_symmetry_multiplicity
 _atom_site_fract_x
 _atom_site_fract_y
 _atom_site_fract_z
 _atom_site_occupancy
  Tb  Tb0  1  0.745617  0.000000  0.000000  1
  Tb  Tb1  1  0.250369  0.000000  0.000000  1
  Tb  Tb2  1  0.749859  0.486497  0.513503  1
  Tb  Tb3  1  0.255726  0.521182  0.478818  1
  Tb  Tb4  1  0.749859  0.027009  0.513503  1
  Tb  Tb5  1  0.255726  0.957638  0.478818  1
  Tb  Tb6  1  0.749859  0.486497  0.972991  1
  Tb  Tb7  1  0.255726  0.521182  0.042362  1
  Ga  Ga8  1  0.962295  0.831579  0.168421  1
  Ga  Ga9  1  0.040962  0.170542  0.829458  1
  Ga  Ga10  1  0.962295  0.336842  0.168421  1
  Ga  Ga11  1  0.463065  0.169707  0.830293  1
  Ga  Ga12  1  0.040962  0.658914  0.829458  1
  Ga  Ga13  1  0.539917  0.827277  0.172723  1
  Ga  Ga14  1  0.962295  0.831579  0.663158  1
  Ga  Ga15  1  0.463065  0.660586  0.830293  1
  Ga  Ga16  1  0.040962  0.170542  0.341086  1
  Ga  Ga17  1  0.539917  0.345447  0.172723  1
  Ga  Ga18  1  0.463065  0.169707  0.339414  1
  Ga  Ga19  1  0.539917  0.827277  0.654553  1
  Co  Co20  1  0.511226  0.666667  0.333333  1
  Cu  Cu21  1  0.955444  0.666667  0.333333  1
  Cu  Cu22  1  0.039986  0.333333  0.666667  1
  Cu  Cu23  1  0.461878  0.333333  0.666667  1
