# generated using pymatgen
data_Hf9Ta3PW
_symmetry_space_group_name_H-M   'P 1'
_cell_length_a   8.70219200
_cell_length_b   8.70219171
_cell_length_c   8.82189300
_cell_angle_alpha   90.00000000
_cell_angle_beta   90.00000000
_cell_angle_gamma   120.00000112
_symmetry_Int_Tables_number   1
_chemical_formula_structural   Hf9Ta3PW
_chemical_formula_sum   'Hf18 Ta6 P2 W2'
_cell_volume   578.56175278
_cell_formula_units_Z   2
loop_
 _symmetry_equiv_pos_site_id
 _symmetry_equiv_pos_as_xyz
  1  'x, y, z'
loop_
 _atom_site_type_symbol
 _atom_site_label
 _atom_site_symmetry_multiplicity
 _atom_site_fract_x
 _atom_site_fract_y
 _atom_site_fract_z
 _atom_site_occupancy
  Hf  Hf0  1  0.198848  0.801152  0.450585  1
  Hf  Hf1  1  0.198848  0.397694  0.450585  1
  Hf  Hf2  1  0.602306  0.801152  0.450585  1
  Hf  Hf3  1  0.801152  0.198848  0.549415  1
  Hf  Hf4  1  0.801152  0.602306  0.549415  1
  Hf  Hf5  1  0.397694  0.198848  0.549415  1
  Hf  Hf6  1  0.801152  0.198848  0.950585  1
  Hf  Hf7  1  0.801152  0.602306  0.950585  1
  Hf  Hf8  1  0.397694  0.198848  0.950585  1
  Hf  Hf9  1  0.198848  0.801152  0.049415  1
  Hf  Hf10  1  0.198848  0.397694  0.049415  1
  Hf  Hf11  1  0.602306  0.801152  0.049415  1
  Hf  Hf12  1  0.537661  0.462339  0.250000  1
  Hf  Hf13  1  0.537661  0.075323  0.250000  1
  Hf  Hf14  1  0.924677  0.462339  0.250000  1
  Hf  Hf15  1  0.462339  0.537661  0.750000  1
  Hf  Hf16  1  0.462339  0.924677  0.750000  1
  Hf  Hf17  1  0.075323  0.537661  0.750000  1
  Ta  Ta18  1  0.888113  0.111887  0.250000  1
  Ta  Ta19  1  0.888113  0.776225  0.250000  1
  Ta  Ta20  1  0.223775  0.111887  0.250000  1
  Ta  Ta21  1  0.111887  0.888113  0.750000  1
  Ta  Ta22  1  0.111887  0.223775  0.750000  1
  Ta  Ta23  1  0.776225  0.888113  0.750000  1
  P  P24  1  0.333333  0.666667  0.250000  1
  P  P25  1  0.666667  0.333333  0.750000  1
  W  W26  1  0.000000  0.000000  0.500000  1
  W  W27  1  0.000000  0.000000  0.000000  1
