# generated using pymatgen
data_RbNpF5
_symmetry_space_group_name_H-M   'P 1'
_cell_length_a   8.15542246
_cell_length_b   8.15542194
_cell_length_c   8.62465500
_cell_angle_alpha   90.00000000
_cell_angle_beta   90.00000000
_cell_angle_gamma   116.50050620
_symmetry_Int_Tables_number   1
_chemical_formula_structural   RbNpF5
_chemical_formula_sum   'Rb4 Np4 F20'
_cell_volume   513.36221484
_cell_formula_units_Z   4
loop_
 _symmetry_equiv_pos_site_id
 _symmetry_equiv_pos_as_xyz
  1  'x, y, z'
loop_
 _atom_site_type_symbol
 _atom_site_label
 _atom_site_symmetry_multiplicity
 _atom_site_fract_x
 _atom_site_fract_y
 _atom_site_fract_z
 _atom_site_occupancy
  Rb  Rb0  1  0.793650  0.206350  0.500000  1
  Rb  Rb1  1  0.706350  0.293650  0.000000  1
  Rb  Rb2  1  0.206350  0.793650  0.500000  1
  Rb  Rb3  1  0.293650  0.706350  0.000000  1
  Np  Np4  1  0.665526  0.665526  0.663154  1
  Np  Np5  1  0.834474  0.834474  0.163154  1
  Np  Np6  1  0.334474  0.334474  0.336846  1
  Np  Np7  1  0.165526  0.165526  0.836846  1
  F  F8  1  0.090802  0.909198  0.000000  1
  F  F9  1  0.409198  0.590802  0.500000  1
  F  F10  1  0.909198  0.090802  0.000000  1
  F  F11  1  0.590802  0.409198  0.500000  1
  F  F12  1  0.294321  0.294321  0.070742  1
  F  F13  1  0.205679  0.205679  0.570742  1
  F  F14  1  0.705679  0.705679  0.929258  1
  F  F15  1  0.794321  0.794321  0.429258  1
  F  F16  1  0.558100  0.861354  0.700692  1
  F  F17  1  0.941900  0.638646  0.200692  1
  F  F18  1  0.441900  0.138646  0.299308  1
  F  F19  1  0.058100  0.361354  0.799308  1
  F  F20  1  0.861354  0.558100  0.700692  1
  F  F21  1  0.638646  0.941900  0.200692  1
  F  F22  1  0.138646  0.441900  0.299308  1
  F  F23  1  0.361354  0.058100  0.799308  1
  F  F24  1  0.431732  0.431732  0.794707  1
  F  F25  1  0.068268  0.068268  0.294707  1
  F  F26  1  0.568268  0.568268  0.205293  1
  F  F27  1  0.931732  0.931732  0.705293  1
