# generated using pymatgen
data_Y5Er5(Bi2P)2
_symmetry_space_group_name_H-M   'P 1'
_cell_length_a   7.96320994
_cell_length_b   8.97088343
_cell_length_c   12.10811868
_cell_angle_alpha   89.96999931
_cell_angle_beta   89.94770893
_cell_angle_gamma   89.98098243
_symmetry_Int_Tables_number   1
_chemical_formula_structural   Y5Er5(Bi2P)2
_chemical_formula_sum   'Y10 Er10 Bi8 P4'
_cell_volume   864.96748767
_cell_formula_units_Z   2
loop_
 _symmetry_equiv_pos_site_id
 _symmetry_equiv_pos_as_xyz
  1  'x, y, z'
loop_
 _atom_site_type_symbol
 _atom_site_label
 _atom_site_symmetry_multiplicity
 _atom_site_fract_x
 _atom_site_fract_y
 _atom_site_fract_z
 _atom_site_occupancy
  Y  Y0  1  0.650982  0.750218  0.706664  1
  Y  Y1  1  0.349018  0.249782  0.293336  1
  Y  Y2  1  0.150936  0.249881  0.793012  1
  Y  Y3  1  0.849064  0.750119  0.206988  1
  Y  Y4  1  0.125738  0.749840  0.799476  1
  Y  Y5  1  0.874262  0.250160  0.200524  1
  Y  Y6  1  0.625462  0.249504  0.699694  1
  Y  Y7  1  0.374538  0.750496  0.300306  1
  Y  Y8  1  0.817749  0.450633  0.935940  1
  Y  Y9  1  0.182251  0.549367  0.064060  1
  Er  Er10  1  0.541423  0.750281  0.998304  1
  Er  Er11  1  0.458577  0.249719  0.001696  1
  Er  Er12  1  0.041243  0.249592  0.501609  1
  Er  Er13  1  0.958757  0.750408  0.498391  1
  Er  Er14  1  0.319020  0.551592  0.563620  1
  Er  Er15  1  0.181961  0.948908  0.063982  1
  Er  Er16  1  0.680980  0.448408  0.436380  1
  Er  Er17  1  0.818039  0.051092  0.936018  1
  Er  Er18  1  0.681064  0.051476  0.436198  1
  Er  Er19  1  0.318936  0.948524  0.563802  1
  Bi  Bi20  1  0.924919  0.009370  0.672275  1
  Bi  Bi21  1  0.075081  0.990630  0.327725  1
  Bi  Bi22  1  0.424711  0.990620  0.827670  1
  Bi  Bi23  1  0.074954  0.509468  0.328250  1
  Bi  Bi24  1  0.575289  0.009380  0.172330  1
  Bi  Bi25  1  0.925046  0.490532  0.671750  1
  Bi  Bi26  1  0.575174  0.490733  0.172616  1
  Bi  Bi27  1  0.424826  0.509267  0.827384  1
  P  P28  1  0.924001  0.752877  0.986701  1
  P  P29  1  0.075999  0.247123  0.013299  1
  P  P30  1  0.422922  0.250036  0.513686  1
  P  P31  1  0.577078  0.749964  0.486314  1
