# generated using pymatgen
data_PrZnRuO5
_symmetry_space_group_name_H-M   'P 1'
_cell_length_a   5.66761300
_cell_length_b   7.99874200
_cell_length_c   9.00513400
_cell_angle_alpha   90.00000000
_cell_angle_beta   90.00000000
_cell_angle_gamma   90.00000000
_symmetry_Int_Tables_number   1
_chemical_formula_structural   PrZnRuO5
_chemical_formula_sum   'Pr4 Zn4 Ru4 O20'
_cell_volume   408.23671088
_cell_formula_units_Z   4
loop_
 _symmetry_equiv_pos_site_id
 _symmetry_equiv_pos_as_xyz
  1  'x, y, z'
loop_
 _atom_site_type_symbol
 _atom_site_label
 _atom_site_symmetry_multiplicity
 _atom_site_fract_x
 _atom_site_fract_y
 _atom_site_fract_z
 _atom_site_occupancy
  Pr  Pr0  1  0.000000  0.639478  0.332744  1
  Pr  Pr1  1  0.000000  0.360522  0.667256  1
  Pr  Pr2  1  0.000000  0.139478  0.167256  1
  Pr  Pr3  1  0.000000  0.860522  0.832744  1
  Zn  Zn4  1  0.500000  0.910585  0.142221  1
  Zn  Zn5  1  0.500000  0.089415  0.857779  1
  Zn  Zn6  1  0.500000  0.410585  0.357779  1
  Zn  Zn7  1  0.500000  0.589415  0.642221  1
  Ru  Ru8  1  0.281759  0.500000  0.000000  1
  Ru  Ru9  1  0.718241  0.000000  0.500000  1
  Ru  Ru10  1  0.718241  0.500000  0.000000  1
  Ru  Ru11  1  0.281759  0.000000  0.500000  1
  O  O12  1  0.000000  0.649733  0.053723  1
  O  O13  1  0.000000  0.350267  0.946277  1
  O  O14  1  0.000000  0.149733  0.446277  1
  O  O15  1  0.000000  0.850267  0.553723  1
  O  O16  1  0.256312  0.500000  0.500000  1
  O  O17  1  0.743688  0.000000  0.000000  1
  O  O18  1  0.743688  0.500000  0.500000  1
  O  O19  1  0.256312  0.000000  0.000000  1
  O  O20  1  0.500000  0.668020  0.075396  1
  O  O21  1  0.500000  0.331980  0.924604  1
  O  O22  1  0.500000  0.168020  0.424604  1
  O  O23  1  0.500000  0.831980  0.575396  1
  O  O24  1  0.247697  0.905779  0.299647  1
  O  O25  1  0.247697  0.094221  0.700353  1
  O  O26  1  0.752303  0.405779  0.200353  1
  O  O27  1  0.752303  0.594221  0.799647  1
  O  O28  1  0.752303  0.094221  0.700353  1
  O  O29  1  0.752303  0.905779  0.299647  1
  O  O30  1  0.247697  0.594221  0.799647  1
  O  O31  1  0.247697  0.405779  0.200353  1
