# generated using pymatgen
data_Ac7La13Si16
_symmetry_space_group_name_H-M   'P 1'
_cell_length_a   8.11611923
_cell_length_b   8.12089393
_cell_length_c   15.72758928
_cell_angle_alpha   90.10547455
_cell_angle_beta   89.94341741
_cell_angle_gamma   90.10143112
_symmetry_Int_Tables_number   1
_chemical_formula_structural   Ac7La13Si16
_chemical_formula_sum   'Ac7 La13 Si16'
_cell_volume   1036.60378177
_cell_formula_units_Z   1
loop_
 _symmetry_equiv_pos_site_id
 _symmetry_equiv_pos_as_xyz
  1  'x, y, z'
loop_
 _atom_site_type_symbol
 _atom_site_label
 _atom_site_symmetry_multiplicity
 _atom_site_fract_x
 _atom_site_fract_y
 _atom_site_fract_z
 _atom_site_occupancy
  Ac  Ac0  1  0.372297  0.014500  0.449717  1
  Ac  Ac1  1  0.484465  0.873457  0.700583  1
  Ac  Ac2  1  0.514835  0.127187  0.200248  1
  Ac  Ac3  1  0.871531  0.484637  0.297984  1
  Ac  Ac4  1  0.126532  0.516212  0.800756  1
  Ac  Ac5  1  0.628354  0.984610  0.951964  1
  Ac  Ac6  1  0.014712  0.372227  0.549191  1
  La  La7  1  0.310945  0.311376  0.000248  1
  La  La8  1  0.188008  0.809110  0.248830  1
  La  La9  1  0.810487  0.189108  0.750654  1
  La  La10  1  0.687989  0.690103  0.500183  1
  La  La11  1  0.990979  0.620175  0.052851  1
  La  La12  1  0.127920  0.982754  0.877878  1
  La  La13  1  0.517398  0.629509  0.126227  1
  La  La14  1  0.483047  0.370756  0.626974  1
  La  La15  1  0.630426  0.519035  0.874230  1
  La  La16  1  0.371540  0.482963  0.372438  1
  La  La17  1  0.870874  0.016437  0.375652  1
  La  La18  1  0.982922  0.128613  0.122620  1
  La  La19  1  0.016645  0.871630  0.623034  1
  Si  Si20  1  0.198831  0.164747  0.704557  1
  Si  Si21  1  0.330065  0.695813  0.955731  1
  Si  Si22  1  0.664542  0.300923  0.453654  1
  Si  Si23  1  0.703542  0.340774  0.047366  1
  Si  Si24  1  0.301109  0.664198  0.545734  1
  Si  Si25  1  0.803415  0.833197  0.200805  1
  Si  Si26  1  0.163993  0.199537  0.295263  1
  Si  Si27  1  0.834301  0.803401  0.795767  1
  Si  Si28  1  0.281386  0.917665  0.059874  1
  Si  Si29  1  0.581251  0.785059  0.308657  1
  Si  Si30  1  0.420716  0.214448  0.810318  1
  Si  Si31  1  0.784969  0.579478  0.690355  1
  Si  Si32  1  0.213035  0.421676  0.189349  1
  Si  Si33  1  0.714671  0.079865  0.559430  1
  Si  Si34  1  0.922713  0.290934  0.941171  1
  Si  Si35  1  0.079555  0.713887  0.439710  1
