# generated using pymatgen
data_Cd(FeCl4)2
_symmetry_space_group_name_H-M   'P 1'
_cell_length_a   7.06433600
_cell_length_b   7.29965498
_cell_length_c   13.33298537
_cell_angle_alpha   87.06502399
_cell_angle_beta   90.00000000
_cell_angle_gamma   90.00000000
_symmetry_Int_Tables_number   1
_chemical_formula_structural   Cd(FeCl4)2
_chemical_formula_sum   'Cd2 Fe4 Cl16'
_cell_volume   686.64306724
_cell_formula_units_Z   2
loop_
 _symmetry_equiv_pos_site_id
 _symmetry_equiv_pos_as_xyz
  1  'x, y, z'
loop_
 _atom_site_type_symbol
 _atom_site_label
 _atom_site_symmetry_multiplicity
 _atom_site_fract_x
 _atom_site_fract_y
 _atom_site_fract_z
 _atom_site_occupancy
  Cd  Cd0  1  0.753272  0.075919  0.815460  1
  Cd  Cd1  1  0.246728  0.075919  0.315460  1
  Fe  Fe2  1  0.933669  0.218471  0.579053  1
  Fe  Fe3  1  0.066331  0.218471  0.079053  1
  Fe  Fe4  1  0.572460  0.638929  0.778991  1
  Fe  Fe5  1  0.427540  0.638929  0.278991  1
  Cl  Cl6  1  0.423533  0.614412  0.640307  1
  Cl  Cl7  1  0.576467  0.614412  0.140307  1
  Cl  Cl8  1  0.870271  0.738484  0.758371  1
  Cl  Cl9  1  0.129729  0.738484  0.258371  1
  Cl  Cl10  1  0.937450  0.477980  0.496914  1
  Cl  Cl11  1  0.062550  0.477980  0.996914  1
  Cl  Cl12  1  0.913459  0.004736  0.993885  1
  Cl  Cl13  1  0.086541  0.004736  0.493885  1
  Cl  Cl14  1  0.639057  0.129024  0.619661  1
  Cl  Cl15  1  0.360943  0.129024  0.119661  1
  Cl  Cl16  1  0.569624  0.371106  0.871090  1
  Cl  Cl17  1  0.430376  0.371106  0.371090  1
  Cl  Cl18  1  0.448152  0.868010  0.864907  1
  Cl  Cl19  1  0.551848  0.868010  0.364907  1
  Cl  Cl20  1  0.937847  0.230329  0.233562  1
  Cl  Cl21  1  0.062153  0.230329  0.733562  1
