# generated using pymatgen
data_Y12Ho8IrRh11
_symmetry_space_group_name_H-M   'P 1'
_cell_length_a   10.92063205
_cell_length_b   10.92002284
_cell_length_c   6.36292001
_cell_angle_alpha   89.99774632
_cell_angle_beta   90.00612225
_cell_angle_gamma   90.07388638
_symmetry_Int_Tables_number   1
_chemical_formula_structural   Y12Ho8IrRh11
_chemical_formula_sum   'Y12 Ho8 Ir1 Rh11'
_cell_volume   758.80017236
_cell_formula_units_Z   1
loop_
 _symmetry_equiv_pos_site_id
 _symmetry_equiv_pos_as_xyz
  1  'x, y, z'
loop_
 _atom_site_type_symbol
 _atom_site_label
 _atom_site_symmetry_multiplicity
 _atom_site_fract_x
 _atom_site_fract_y
 _atom_site_fract_z
 _atom_site_occupancy
  Y  Y0  1  0.290131  0.088773  0.378301  1
  Y  Y1  1  0.290522  0.909607  0.878267  1
  Y  Y2  1  0.709727  0.088579  0.878190  1
  Y  Y3  1  0.709576  0.911052  0.377960  1
  Y  Y4  1  0.587018  0.789887  0.877866  1
  Y  Y5  1  0.588787  0.209491  0.378653  1
  Y  Y6  1  0.410865  0.789926  0.379319  1
  Y  Y7  1  0.411122  0.209196  0.877972  1
  Y  Y8  1  0.209782  0.413071  0.622059  1
  Y  Y9  1  0.209740  0.589024  0.120632  1
  Y  Y10  1  0.790819  0.411303  0.121292  1
  Y  Y11  1  0.791134  0.588784  0.621957  1
  Ho  Ho12  1  0.911784  0.708956  0.120911  1
  Ho  Ho13  1  0.911999  0.291175  0.621039  1
  Ho  Ho14  1  0.089968  0.708569  0.620977  1
  Ho  Ho15  1  0.088353  0.291337  0.121230  1
  Ho  Ho16  1  0.999739  0.999859  0.500545  1
  Ho  Ho17  1  0.000122  0.000265  0.000293  1
  Ho  Ho18  1  0.499668  0.499969  0.999994  1
  Ho  Ho19  1  0.500029  0.500310  0.499812  1
  Ir  Ir20  1  0.346336  0.652815  0.749540  1
  Rh  Rh21  1  0.847781  0.153832  0.251152  1
  Rh  Rh22  1  0.847461  0.846337  0.751429  1
  Rh  Rh23  1  0.152072  0.154105  0.750913  1
  Rh  Rh24  1  0.151548  0.846897  0.251150  1
  Rh  Rh25  1  0.653944  0.346944  0.749574  1
  Rh  Rh26  1  0.654767  0.653172  0.249624  1
  Rh  Rh27  1  0.345922  0.346120  0.249449  1
  Rh  Rh28  1  0.500147  0.000477  0.124350  1
  Rh  Rh29  1  0.500267  0.000654  0.623663  1
  Rh  Rh30  1  0.999333  0.499698  0.876290  1
  Rh  Rh31  1  0.999537  0.499814  0.375597  1
