# generated using pymatgen
data_SmDy3(CuP2)4
_symmetry_space_group_name_H-M   'P 1'
_cell_length_a   3.71516400
_cell_length_b   3.78432881
_cell_length_c   19.57149616
_cell_angle_alpha   90.14331331
_cell_angle_beta   90.00000000
_cell_angle_gamma   90.00000000
_symmetry_Int_Tables_number   1
_chemical_formula_structural   SmDy3(CuP2)4
_chemical_formula_sum   'Sm1 Dy3 Cu4 P8'
_cell_volume   275.16267429
_cell_formula_units_Z   1
loop_
 _symmetry_equiv_pos_site_id
 _symmetry_equiv_pos_as_xyz
  1  'x, y, z'
loop_
 _atom_site_type_symbol
 _atom_site_label
 _atom_site_symmetry_multiplicity
 _atom_site_fract_x
 _atom_site_fract_y
 _atom_site_fract_z
 _atom_site_occupancy
  Sm  Sm0  1  0.750000  0.216771  0.117520  1
  Dy  Dy1  1  0.250000  0.717103  0.383566  1
  Dy  Dy2  1  0.250000  0.783931  0.880465  1
  Dy  Dy3  1  0.750000  0.282848  0.617309  1
  Cu  Cu4  1  0.250000  0.216865  0.251704  1
  Cu  Cu5  1  0.750000  0.782104  0.749590  1
  Cu  Cu6  1  0.250000  0.281708  0.748947  1
  Cu  Cu7  1  0.750000  0.717222  0.252319  1
  P  P8  1  0.750000  0.806083  0.502170  1
  P  P9  1  0.750000  0.690873  0.999428  1
  P  P10  1  0.250000  0.194772  0.498505  1
  P  P11  1  0.250000  0.310242  0.995219  1
  P  P12  1  0.250000  0.716614  0.175466  1
  P  P13  1  0.750000  0.217595  0.329177  1
  P  P14  1  0.750000  0.283123  0.826811  1
  P  P15  1  0.250000  0.782145  0.671806  1
