# generated using pymatgen
data_YHoTm2(B6Ru)2
_symmetry_space_group_name_H-M   'P 1'
_cell_length_a   3.63613100
_cell_length_b   9.10043100
_cell_length_c   11.48322100
_cell_angle_alpha   89.99938714
_cell_angle_beta   90.00000000
_cell_angle_gamma   90.00000000
_symmetry_Int_Tables_number   1
_chemical_formula_structural   YHoTm2(B6Ru)2
_chemical_formula_sum   'Y2 Ho2 Tm4 B24 Ru4'
_cell_volume   379.98390848
_cell_formula_units_Z   2
loop_
 _symmetry_equiv_pos_site_id
 _symmetry_equiv_pos_as_xyz
  1  'x, y, z'
loop_
 _atom_site_type_symbol
 _atom_site_label
 _atom_site_symmetry_multiplicity
 _atom_site_fract_x
 _atom_site_fract_y
 _atom_site_fract_z
 _atom_site_occupancy
  Y  Y0  1  0.000000  0.321832  0.414151  1
  Y  Y1  1  0.000000  0.678168  0.585849  1
  Ho  Ho2  1  0.000000  0.821999  0.085781  1
  Ho  Ho3  1  0.000000  0.178001  0.914219  1
  Tm  Tm4  1  0.000000  0.943811  0.372254  1
  Tm  Tm5  1  0.000000  0.056189  0.627746  1
  Tm  Tm6  1  0.000000  0.443824  0.127462  1
  Tm  Tm7  1  0.000000  0.556176  0.872538  1
  B  B8  1  0.500000  0.554431  0.432776  1
  B  B9  1  0.500000  0.445569  0.567224  1
  B  B10  1  0.500000  0.054201  0.066847  1
  B  B11  1  0.500000  0.945799  0.933153  1
  B  B12  1  0.500000  0.749213  0.419275  1
  B  B13  1  0.500000  0.250787  0.580725  1
  B  B14  1  0.500000  0.248974  0.080229  1
  B  B15  1  0.500000  0.751026  0.919771  1
  B  B16  1  0.500000  0.791711  0.265675  1
  B  B17  1  0.500000  0.208289  0.734325  1
  B  B18  1  0.500000  0.291473  0.233795  1
  B  B19  1  0.500000  0.708527  0.766205  1
  B  B20  1  0.500000  0.631409  0.184394  1
  B  B21  1  0.500000  0.368591  0.815606  1
  B  B22  1  0.500000  0.131021  0.315212  1
  B  B23  1  0.500000  0.868979  0.684788  1
  B  B24  1  0.500000  0.982933  0.213022  1
  B  B25  1  0.500000  0.017067  0.786978  1
  B  B26  1  0.500000  0.483298  0.286551  1
  B  B27  1  0.500000  0.516702  0.713449  1
  B  B28  1  0.500000  0.605988  0.029128  1
  B  B29  1  0.500000  0.394012  0.970872  1
  B  B30  1  0.500000  0.105379  0.471011  1
  B  B31  1  0.500000  0.894621  0.528989  1
  Ru  Ru32  1  0.000000  0.638508  0.320180  1
  Ru  Ru33  1  0.000000  0.361492  0.679820  1
  Ru  Ru34  1  0.000000  0.137994  0.179157  1
  Ru  Ru35  1  0.000000  0.862006  0.820843  1
