# generated using pymatgen
data_YbEu(Cd2Ag)2
_symmetry_space_group_name_H-M   'P 1'
_cell_length_a   5.80294750
_cell_length_b   5.80294823
_cell_length_c   8.01662100
_cell_angle_alpha   90.00000000
_cell_angle_beta   90.00000000
_cell_angle_gamma   134.22878477
_symmetry_Int_Tables_number   1
_chemical_formula_structural   YbEu(Cd2Ag)2
_chemical_formula_sum   'Yb1 Eu1 Cd4 Ag2'
_cell_volume   193.43783105
_cell_formula_units_Z   1
loop_
 _symmetry_equiv_pos_site_id
 _symmetry_equiv_pos_as_xyz
  1  'x, y, z'
loop_
 _atom_site_type_symbol
 _atom_site_label
 _atom_site_symmetry_multiplicity
 _atom_site_fract_x
 _atom_site_fract_y
 _atom_site_fract_z
 _atom_site_occupancy
  Yb  Yb0  1  0.431232  0.568769  0.250000  1
  Eu  Eu1  1  0.568012  0.431989  0.750000  1
  Cd  Cd2  1  0.136583  0.863418  0.058681  1
  Cd  Cd3  1  0.136583  0.863418  0.441319  1
  Cd  Cd4  1  0.864279  0.135722  0.552177  1
  Cd  Cd5  1  0.864279  0.135722  0.947823  1
  Ag  Ag6  1  0.721470  0.278530  0.250000  1
  Ag  Ag7  1  0.277567  0.722433  0.750000  1
