# generated using pymatgen
data_Ho16TmSc3Sn16
_symmetry_space_group_name_H-M   'P 1'
_cell_length_a   7.94179300
_cell_length_b   8.09926100
_cell_length_c   15.35490200
_cell_angle_alpha   90.00000000
_cell_angle_beta   90.00000000
_cell_angle_gamma   90.00097624
_symmetry_Int_Tables_number   1
_chemical_formula_structural   Ho16TmSc3Sn16
_chemical_formula_sum   'Ho16 Tm1 Sc3 Sn16'
_cell_volume   987.66805339
_cell_formula_units_Z   1
loop_
 _symmetry_equiv_pos_site_id
 _symmetry_equiv_pos_as_xyz
  1  'x, y, z'
loop_
 _atom_site_type_symbol
 _atom_site_label
 _atom_site_symmetry_multiplicity
 _atom_site_fract_x
 _atom_site_fract_y
 _atom_site_fract_z
 _atom_site_occupancy
  Ho  Ho0  1  0.366905  0.838554  0.877364  1
  Ho  Ho1  1  0.865897  0.662526  0.622427  1
  Ho  Ho2  1  0.633395  0.161612  0.376420  1
  Ho  Ho3  1  0.133566  0.338147  0.123995  1
  Ho  Ho4  1  0.633395  0.161612  0.123580  1
  Ho  Ho5  1  0.133566  0.338147  0.376005  1
  Ho  Ho6  1  0.366905  0.838554  0.622636  1
  Ho  Ho7  1  0.865897  0.662526  0.877573  1
  Ho  Ho8  1  0.521611  0.320157  0.903527  1
  Ho  Ho9  1  0.021020  0.178835  0.596431  1
  Ho  Ho10  1  0.478345  0.679461  0.402565  1
  Ho  Ho11  1  0.978363  0.820350  0.097094  1
  Ho  Ho12  1  0.478345  0.679461  0.097435  1
  Ho  Ho13  1  0.978363  0.820350  0.402906  1
  Ho  Ho14  1  0.521611  0.320157  0.596473  1
  Ho  Ho15  1  0.021020  0.178835  0.903569  1
  Tm  Tm16  1  0.196994  0.502993  0.750000  1
  Sc  Sc17  1  0.698151  0.996576  0.750000  1
  Sc  Sc18  1  0.802188  0.496843  0.250000  1
  Sc  Sc19  1  0.302207  0.002768  0.250000  1
  Sn  Sn20  1  0.293369  0.035200  0.044454  1
  Sn  Sn21  1  0.793368  0.464619  0.455536  1
  Sn  Sn22  1  0.706345  0.965080  0.543644  1
  Sn  Sn23  1  0.206187  0.536501  0.958399  1
  Sn  Sn24  1  0.706345  0.965080  0.956356  1
  Sn  Sn25  1  0.206187  0.536501  0.541601  1
  Sn  Sn26  1  0.293369  0.035200  0.455546  1
  Sn  Sn27  1  0.793368  0.464619  0.044464  1
  Sn  Sn28  1  0.564074  0.620297  0.750000  1
  Sn  Sn29  1  0.058199  0.885184  0.750000  1
  Sn  Sn30  1  0.441156  0.383079  0.250000  1
  Sn  Sn31  1  0.940866  0.116374  0.250000  1
  Sn  Sn32  1  0.334407  0.148618  0.750000  1
  Sn  Sn33  1  0.827809  0.344968  0.750000  1
  Sn  Sn34  1  0.668778  0.846840  0.250000  1
  Sn  Sn35  1  0.168422  0.653378  0.250000  1
