# generated using pymatgen
data_Lu6Co15P12Ru2Rh
_symmetry_space_group_name_H-M   'P 1'
_cell_length_a   3.66854100
_cell_length_b   10.52469800
_cell_length_c   12.21676400
_cell_angle_alpha   90.00000000
_cell_angle_beta   90.00000000
_cell_angle_gamma   90.00000000
_symmetry_Int_Tables_number   1
_chemical_formula_structural   Lu6Co15P12Ru2Rh
_chemical_formula_sum   'Lu6 Co15 P12 Ru2 Rh1'
_cell_volume   471.69275357
_cell_formula_units_Z   1
loop_
 _symmetry_equiv_pos_site_id
 _symmetry_equiv_pos_as_xyz
  1  'x, y, z'
loop_
 _atom_site_type_symbol
 _atom_site_label
 _atom_site_symmetry_multiplicity
 _atom_site_fract_x
 _atom_site_fract_y
 _atom_site_fract_z
 _atom_site_occupancy
  Lu  Lu0  1  0.000000  0.500000  0.520657  1
  Lu  Lu1  1  0.500000  0.000000  0.473777  1
  Lu  Lu2  1  0.500000  0.819517  0.207097  1
  Lu  Lu3  1  0.500000  0.180483  0.207097  1
  Lu  Lu4  1  0.000000  0.687149  0.794479  1
  Lu  Lu5  1  0.000000  0.312851  0.794479  1
  Co  Co6  1  0.000000  0.000000  0.295213  1
  Co  Co7  1  0.000000  0.500000  0.989906  1
  Co  Co8  1  0.500000  0.000000  0.013507  1
  Co  Co9  1  0.500000  0.330977  0.992740  1
  Co  Co10  1  0.500000  0.669023  0.992740  1
  Co  Co11  1  0.000000  0.167045  0.010272  1
  Co  Co12  1  0.000000  0.832955  0.010272  1
  Co  Co13  1  0.500000  0.296243  0.429403  1
  Co  Co14  1  0.500000  0.703757  0.429403  1
  Co  Co15  1  0.000000  0.199230  0.566795  1
  Co  Co16  1  0.000000  0.800770  0.566795  1
  Co  Co17  1  0.500000  0.879876  0.707543  1
  Co  Co18  1  0.500000  0.120124  0.707543  1
  Co  Co19  1  0.000000  0.622700  0.292510  1
  Co  Co20  1  0.000000  0.377300  0.292510  1
  P  P21  1  0.500000  0.500000  0.889277  1
  P  P22  1  0.000000  0.000000  0.118993  1
  P  P23  1  0.500000  0.500000  0.351510  1
  P  P24  1  0.000000  0.000000  0.647229  1
  P  P25  1  0.500000  0.304232  0.613139  1
  P  P26  1  0.500000  0.695768  0.613139  1
  P  P27  1  0.000000  0.185399  0.381788  1
  P  P28  1  0.000000  0.814601  0.381788  1
  P  P29  1  0.500000  0.846481  0.892702  1
  P  P30  1  0.500000  0.153519  0.892702  1
  P  P31  1  0.000000  0.655542  0.109645  1
  P  P32  1  0.000000  0.344458  0.109645  1
  Ru  Ru33  1  0.500000  0.500000  0.160786  1
  Ru  Ru34  1  0.000000  0.000000  0.839778  1
  Rh  Rh35  1  0.500000  0.500000  0.703139  1
