# generated using pymatgen
data_Ho3TmZn4Si3Ge
_symmetry_space_group_name_H-M   'P 1'
_cell_length_a   4.17200200
_cell_length_b   4.17200138
_cell_length_c   15.42546700
_cell_angle_alpha   90.00000000
_cell_angle_beta   90.00000000
_cell_angle_gamma   120.00000492
_symmetry_Int_Tables_number   1
_chemical_formula_structural   Ho3TmZn4Si3Ge
_chemical_formula_sum   'Ho3 Tm1 Zn4 Si3 Ge1'
_cell_volume   232.51869801
_cell_formula_units_Z   1
loop_
 _symmetry_equiv_pos_site_id
 _symmetry_equiv_pos_as_xyz
  1  'x, y, z'
loop_
 _atom_site_type_symbol
 _atom_site_label
 _atom_site_symmetry_multiplicity
 _atom_site_fract_x
 _atom_site_fract_y
 _atom_site_fract_z
 _atom_site_occupancy
  Ho  Ho0  1  0.000000  0.000000  0.747394  1
  Ho  Ho1  1  0.000000  0.000000  0.003819  1
  Ho  Ho2  1  0.000000  0.000000  0.497725  1
  Tm  Tm3  1  0.000000  0.000000  0.250799  1
  Zn  Zn4  1  0.333333  0.666667  0.145536  1
  Zn  Zn5  1  0.666667  0.333333  0.855447  1
  Zn  Zn6  1  0.666667  0.333333  0.637191  1
  Zn  Zn7  1  0.333333  0.666667  0.356647  1
  Si  Si8  1  0.333333  0.666667  0.616594  1
  Si  Si9  1  0.666667  0.333333  0.381682  1
  Si  Si10  1  0.666667  0.333333  0.119808  1
  Ge  Ge11  1  0.333333  0.666667  0.887361  1
