# generated using pymatgen
data_Nd3Tm3CoBr10
_symmetry_space_group_name_H-M   'P 1'
_cell_length_a   7.39962500
_cell_length_b   9.30103040
_cell_length_c   9.39852003
_cell_angle_alpha   108.06322904
_cell_angle_beta   95.77849567
_cell_angle_gamma   103.84697294
_symmetry_Int_Tables_number   1
_chemical_formula_structural   Nd3Tm3CoBr10
_chemical_formula_sum   'Nd3 Tm3 Co1 Br10'
_cell_volume   586.27866350
_cell_formula_units_Z   1
loop_
 _symmetry_equiv_pos_site_id
 _symmetry_equiv_pos_as_xyz
  1  'x, y, z'
loop_
 _atom_site_type_symbol
 _atom_site_label
 _atom_site_symmetry_multiplicity
 _atom_site_fract_x
 _atom_site_fract_y
 _atom_site_fract_z
 _atom_site_occupancy
  Nd  Nd0  1  0.037091  0.715061  0.406266  1
  Nd  Nd1  1  0.962483  0.283628  0.587230  1
  Nd  Nd2  1  0.870900  0.950433  0.749180  1
  Tm  Tm3  1  0.124955  0.047549  0.264024  1
  Tm  Tm4  1  0.344783  0.123545  0.670579  1
  Tm  Tm5  1  0.655221  0.877657  0.330500  1
  Co  Co6  1  0.999608  0.998884  0.500435  1
  Br  Br7  1  0.453268  0.824814  0.579522  1
  Br  Br8  1  0.537795  0.172384  0.414770  1
  Br  Br9  1  0.912109  0.626069  0.669698  1
  Br  Br10  1  0.093176  0.359419  0.319078  1
  Br  Br11  1  0.250867  0.082655  0.951832  1
  Br  Br12  1  0.764699  0.922868  0.061754  1
  Br  Br13  1  0.348263  0.435271  0.767134  1
  Br  Br14  1  0.648241  0.565271  0.231432  1
  Br  Br15  1  0.750549  0.246368  0.839284  1
  Br  Br16  1  0.245989  0.768124  0.157283  1
