# generated using pymatgen
data_Dy3U(TcB4)4
_symmetry_space_group_name_H-M   'P 1'
_cell_length_a   3.60680700
_cell_length_b   5.95360139
_cell_length_c   11.52224566
_cell_angle_alpha   90.01814712
_cell_angle_beta   90.00000000
_cell_angle_gamma   90.00000000
_symmetry_Int_Tables_number   1
_chemical_formula_structural   Dy3U(TcB4)4
_chemical_formula_sum   'Dy3 U1 Tc4 B16'
_cell_volume   247.42282792
_cell_formula_units_Z   1
loop_
 _symmetry_equiv_pos_site_id
 _symmetry_equiv_pos_as_xyz
  1  'x, y, z'
loop_
 _atom_site_type_symbol
 _atom_site_label
 _atom_site_symmetry_multiplicity
 _atom_site_fract_x
 _atom_site_fract_y
 _atom_site_fract_z
 _atom_site_occupancy
  Dy  Dy0  1  0.000000  0.371293  0.650162  1
  Dy  Dy1  1  0.000000  0.126927  0.148992  1
  Dy  Dy2  1  0.000000  0.873759  0.849714  1
  U  U3  1  0.000000  0.628034  0.350526  1
  Tc  Tc4  1  0.000000  0.632367  0.091594  1
  Tc  Tc5  1  0.000000  0.365821  0.912456  1
  Tc  Tc6  1  0.000000  0.138723  0.406610  1
  Tc  Tc7  1  0.000000  0.860631  0.587007  1
  B  B8  1  0.500000  0.786197  0.187361  1
  B  B9  1  0.500000  0.212428  0.815083  1
  B  B10  1  0.500000  0.291879  0.314778  1
  B  B11  1  0.500000  0.713807  0.685854  1
  B  B12  1  0.500000  0.863063  0.032147  1
  B  B13  1  0.500000  0.135569  0.968955  1
  B  B14  1  0.500000  0.366539  0.467328  1
  B  B15  1  0.500000  0.635730  0.529883  1
  B  B16  1  0.500000  0.886184  0.452615  1
  B  B17  1  0.500000  0.113271  0.546848  1
  B  B18  1  0.500000  0.386229  0.046897  1
  B  B19  1  0.500000  0.612901  0.953502  1
  B  B20  1  0.500000  0.971871  0.308378  1
  B  B21  1  0.500000  0.024013  0.691641  1
  B  B22  1  0.500000  0.479346  0.193708  1
  B  B23  1  0.500000  0.523418  0.807963  1
