# generated using pymatgen
data_VCd2(Ni10B3)2
_symmetry_space_group_name_H-M   'P 1'
_cell_length_a   7.49052480
_cell_length_b   7.49052462
_cell_length_c   7.49052400
_cell_angle_alpha   60.00000273
_cell_angle_beta   60.00000355
_cell_angle_gamma   60.00000409
_symmetry_Int_Tables_number   1
_chemical_formula_structural   VCd2(Ni10B3)2
_chemical_formula_sum   'V1 Cd2 Ni20 B6'
_cell_volume   297.18146424
_cell_formula_units_Z   1
loop_
 _symmetry_equiv_pos_site_id
 _symmetry_equiv_pos_as_xyz
  1  'x, y, z'
loop_
 _atom_site_type_symbol
 _atom_site_label
 _atom_site_symmetry_multiplicity
 _atom_site_fract_x
 _atom_site_fract_y
 _atom_site_fract_z
 _atom_site_occupancy
  V  V0  1  0.000000  0.000000  0.000000  1
  Cd  Cd1  1  0.750000  0.750000  0.750000  1
  Cd  Cd2  1  0.250000  0.250000  0.250000  1
  Ni  Ni3  1  0.613329  0.613329  0.160012  1
  Ni  Ni4  1  0.613329  0.160012  0.613329  1
  Ni  Ni5  1  0.160012  0.613329  0.613329  1
  Ni  Ni6  1  0.613329  0.613329  0.613329  1
  Ni  Ni7  1  0.386671  0.386671  0.839988  1
  Ni  Ni8  1  0.386671  0.839988  0.386671  1
  Ni  Ni9  1  0.839988  0.386671  0.386671  1
  Ni  Ni10  1  0.386671  0.386671  0.386671  1
  Ni  Ni11  1  0.000000  0.000000  0.335217  1
  Ni  Ni12  1  0.664783  0.000000  0.335217  1
  Ni  Ni13  1  0.000000  0.664783  0.335217  1
  Ni  Ni14  1  0.664783  0.335217  0.000000  1
  Ni  Ni15  1  0.000000  0.335217  0.000000  1
  Ni  Ni16  1  0.000000  0.335217  0.664783  1
  Ni  Ni17  1  0.335217  0.664783  0.000000  1
  Ni  Ni18  1  0.335217  0.000000  0.664783  1
  Ni  Ni19  1  0.335217  0.000000  0.000000  1
  Ni  Ni20  1  0.000000  0.000000  0.664783  1
  Ni  Ni21  1  0.000000  0.664783  0.000000  1
  Ni  Ni22  1  0.664783  0.000000  0.000000  1
  B  B23  1  0.727546  0.727546  0.272454  1
  B  B24  1  0.272454  0.727546  0.272454  1
  B  B25  1  0.727546  0.272454  0.272454  1
  B  B26  1  0.272454  0.272454  0.727546  1
  B  B27  1  0.727546  0.272454  0.727546  1
  B  B28  1  0.272454  0.727546  0.727546  1
