# generated using pymatgen
data_Ac3Cd3Hg2Ir
_symmetry_space_group_name_H-M   'P 1'
_cell_length_a   8.49791900
_cell_length_b   8.49792121
_cell_length_c   4.09596900
_cell_angle_alpha   90.00000000
_cell_angle_beta   90.00000000
_cell_angle_gamma   119.99999528
_symmetry_Int_Tables_number   1
_chemical_formula_structural   Ac3Cd3Hg2Ir
_chemical_formula_sum   'Ac3 Cd3 Hg2 Ir1'
_cell_volume   256.16075871
_cell_formula_units_Z   1
loop_
 _symmetry_equiv_pos_site_id
 _symmetry_equiv_pos_as_xyz
  1  'x, y, z'
loop_
 _atom_site_type_symbol
 _atom_site_label
 _atom_site_symmetry_multiplicity
 _atom_site_fract_x
 _atom_site_fract_y
 _atom_site_fract_z
 _atom_site_occupancy
  Ac  Ac0  1  0.606032  0.032336  0.000000  1
  Ac  Ac1  1  0.967664  0.573696  0.000000  1
  Ac  Ac2  1  0.426304  0.393968  0.000000  1
  Cd  Cd3  1  0.265393  0.997135  0.500000  1
  Cd  Cd4  1  0.002865  0.268257  0.500000  1
  Cd  Cd5  1  0.731743  0.734607  0.500000  1
  Hg  Hg6  1  0.333333  0.666667  0.500000  1
  Hg  Hg7  1  0.000000  0.000000  0.000000  1
  Ir  Ir8  1  0.666667  0.333333  0.500000  1
