# generated using pymatgen
data_YbPa(Al3Ni)6
_symmetry_space_group_name_H-M   'P 1'
_cell_length_a   10.09060165
_cell_length_b   10.09060281
_cell_length_c   10.09060300
_cell_angle_alpha   42.36837502
_cell_angle_beta   42.36837624
_cell_angle_gamma   42.36837643
_symmetry_Int_Tables_number   1
_chemical_formula_structural   YbPa(Al3Ni)6
_chemical_formula_sum   'Yb1 Pa1 Al18 Ni6'
_cell_volume   422.37606138
_cell_formula_units_Z   1
loop_
 _symmetry_equiv_pos_site_id
 _symmetry_equiv_pos_as_xyz
  1  'x, y, z'
loop_
 _atom_site_type_symbol
 _atom_site_label
 _atom_site_symmetry_multiplicity
 _atom_site_fract_x
 _atom_site_fract_y
 _atom_site_fract_z
 _atom_site_occupancy
  Yb  Yb0  1  0.833212  0.833212  0.833212  1
  Pa  Pa1  1  0.166807  0.166807  0.166807  1
  Al  Al2  1  0.102047  0.434516  0.759728  1
  Al  Al3  1  0.434516  0.759728  0.102047  1
  Al  Al4  1  0.570517  0.895141  0.238114  1
  Al  Al5  1  0.948181  0.948181  0.948181  1
  Al  Al6  1  0.051217  0.051217  0.051217  1
  Al  Al7  1  0.293957  0.707830  0.498220  1
  Al  Al8  1  0.895141  0.238114  0.570517  1
  Al  Al9  1  0.386489  0.386489  0.386489  1
  Al  Al10  1  0.498220  0.293957  0.707830  1
  Al  Al11  1  0.238114  0.570517  0.895141  1
  Al  Al12  1  0.718052  0.718052  0.718052  1
  Al  Al13  1  0.613934  0.613934  0.613934  1
  Al  Al14  1  0.334734  0.999836  0.665410  1
  Al  Al15  1  0.707830  0.498220  0.293957  1
  Al  Al16  1  0.665410  0.334734  0.999836  1
  Al  Al17  1  0.282179  0.282179  0.282179  1
  Al  Al18  1  0.999836  0.665410  0.334734  1
  Al  Al19  1  0.759728  0.102047  0.434516  1
  Ni  Ni20  1  0.416630  0.078729  0.760595  1
  Ni  Ni21  1  0.578983  0.241519  0.923419  1
  Ni  Ni22  1  0.078729  0.760595  0.416630  1
  Ni  Ni23  1  0.760595  0.416630  0.078729  1
  Ni  Ni24  1  0.923419  0.578983  0.241519  1
  Ni  Ni25  1  0.241519  0.923419  0.578983  1
