# generated using pymatgen
data_Nd2(DyAu2)5
_symmetry_space_group_name_H-M   'P 1'
_cell_length_a   8.80417059
_cell_length_b   8.80417050
_cell_length_c   10.47865100
_cell_angle_alpha   90.00000000
_cell_angle_beta   90.00000000
_cell_angle_gamma   107.05095436
_symmetry_Int_Tables_number   1
_chemical_formula_structural   Nd2(DyAu2)5
_chemical_formula_sum   'Nd4 Dy10 Au20'
_cell_volume   776.53371388
_cell_formula_units_Z   2
loop_
 _symmetry_equiv_pos_site_id
 _symmetry_equiv_pos_as_xyz
  1  'x, y, z'
loop_
 _atom_site_type_symbol
 _atom_site_label
 _atom_site_symmetry_multiplicity
 _atom_site_fract_x
 _atom_site_fract_y
 _atom_site_fract_z
 _atom_site_occupancy
  Nd  Nd0  1  0.310925  0.310925  0.191166  1
  Nd  Nd1  1  0.689075  0.689075  0.808834  1
  Nd  Nd2  1  0.189075  0.189075  0.691166  1
  Nd  Nd3  1  0.810925  0.810925  0.308834  1
  Dy  Dy4  1  0.693860  0.306140  0.000000  1
  Dy  Dy5  1  0.306140  0.693860  0.000000  1
  Dy  Dy6  1  0.806140  0.193860  0.500000  1
  Dy  Dy7  1  0.193860  0.806140  0.500000  1
  Dy  Dy8  1  0.000000  0.000000  0.000000  1
  Dy  Dy9  1  0.500000  0.500000  0.500000  1
  Dy  Dy10  1  0.003329  0.503329  0.250000  1
  Dy  Dy11  1  0.996671  0.496671  0.750000  1
  Dy  Dy12  1  0.496671  0.996671  0.750000  1
  Dy  Dy13  1  0.503329  0.003329  0.250000  1
  Au  Au14  1  0.860182  0.154020  0.208378  1
  Au  Au15  1  0.139818  0.845980  0.791622  1
  Au  Au16  1  0.639818  0.345980  0.708378  1
  Au  Au17  1  0.654020  0.360182  0.291622  1
  Au  Au18  1  0.360182  0.654020  0.291622  1
  Au  Au19  1  0.345980  0.639818  0.708378  1
  Au  Au20  1  0.845980  0.139818  0.791622  1
  Au  Au21  1  0.154020  0.860182  0.208378  1
  Au  Au22  1  0.940343  0.644278  0.004755  1
  Au  Au23  1  0.059657  0.355722  0.995245  1
  Au  Au24  1  0.559657  0.855722  0.504755  1
  Au  Au25  1  0.144278  0.440343  0.495245  1
  Au  Au26  1  0.440343  0.144278  0.495245  1
  Au  Au27  1  0.855722  0.559657  0.504755  1
  Au  Au28  1  0.355722  0.059657  0.995245  1
  Au  Au29  1  0.644278  0.940343  0.004755  1
  Au  Au30  1  0.102517  0.102517  0.400356  1
  Au  Au31  1  0.897483  0.897483  0.599644  1
  Au  Au32  1  0.397483  0.397483  0.900356  1
  Au  Au33  1  0.602517  0.602517  0.099644  1
