# generated using pymatgen
data_Nd2GeCO7
_symmetry_space_group_name_H-M   'P 1'
_cell_length_a   6.80872945
_cell_length_b   6.90262016
_cell_length_c   7.03879037
_cell_angle_alpha   97.00518680
_cell_angle_beta   116.31143761
_cell_angle_gamma   91.76011261
_symmetry_Int_Tables_number   1
_chemical_formula_structural   Nd2GeCO7
_chemical_formula_sum   'Nd4 Ge2 C2 O14'
_cell_volume   292.98433500
_cell_formula_units_Z   2
loop_
 _symmetry_equiv_pos_site_id
 _symmetry_equiv_pos_as_xyz
  1  'x, y, z'
loop_
 _atom_site_type_symbol
 _atom_site_label
 _atom_site_symmetry_multiplicity
 _atom_site_fract_x
 _atom_site_fract_y
 _atom_site_fract_z
 _atom_site_occupancy
  Nd  Nd0  1  0.259630  0.666737  0.189338  1
  Nd  Nd1  1  0.249163  0.911702  0.704024  1
  Nd  Nd2  1  0.740370  0.333263  0.810662  1
  Nd  Nd3  1  0.750837  0.088298  0.295976  1
  Ge  Ge4  1  0.261079  0.158229  0.242029  1
  Ge  Ge5  1  0.738921  0.841771  0.757971  1
  C  C6  1  0.806816  0.591156  0.268549  1
  C  C7  1  0.193184  0.408844  0.731451  1
  O  O8  1  0.113838  0.020549  0.341596  1
  O  O9  1  0.337665  0.285987  0.746214  1
  O  O10  1  0.259947  0.589865  0.828826  1
  O  O11  1  0.015055  0.647204  0.374768  1
  O  O12  1  0.472135  0.744804  0.561010  1
  O  O13  1  0.661065  0.024851  0.913023  1
  O  O14  1  0.984945  0.352796  0.625232  1
  O  O15  1  0.338935  0.975149  0.086977  1
  O  O16  1  0.119454  0.333724  0.085724  1
  O  O17  1  0.886162  0.979451  0.658404  1
  O  O18  1  0.740053  0.410135  0.171174  1
  O  O19  1  0.880546  0.666276  0.914276  1
  O  O20  1  0.662335  0.714013  0.253786  1
  O  O21  1  0.527865  0.255196  0.438990  1
