# generated using pymatgen
data_Tb2PrHo(Mo2O7)2
_symmetry_space_group_name_H-M   'P 1'
_cell_length_a   7.38135063
_cell_length_b   7.47988989
_cell_length_c   7.38135043
_cell_angle_alpha   60.24799381
_cell_angle_beta   59.63878012
_cell_angle_gamma   60.24798854
_symmetry_Int_Tables_number   1
_chemical_formula_structural   Tb2PrHo(Mo2O7)2
_chemical_formula_sum   'Tb2 Pr1 Ho1 Mo4 O14'
_cell_volume   288.44384365
_cell_formula_units_Z   1
loop_
 _symmetry_equiv_pos_site_id
 _symmetry_equiv_pos_as_xyz
  1  'x, y, z'
loop_
 _atom_site_type_symbol
 _atom_site_label
 _atom_site_symmetry_multiplicity
 _atom_site_fract_x
 _atom_site_fract_y
 _atom_site_fract_z
 _atom_site_occupancy
  Tb  Tb0  1  0.625000  0.125000  0.125000  1
  Tb  Tb1  1  0.125000  0.125000  0.625000  1
  Pr  Pr2  1  0.125000  0.625000  0.125000  1
  Ho  Ho3  1  0.125000  0.125000  0.125000  1
  Mo  Mo4  1  0.625000  0.625000  0.625000  1
  Mo  Mo5  1  0.125000  0.625000  0.625000  1
  Mo  Mo6  1  0.625000  0.625000  0.125000  1
  Mo  Mo7  1  0.625000  0.125000  0.625000  1
  O  O8  1  0.000020  0.007499  0.000020  1
  O  O9  1  0.249980  0.242501  0.249980  1
  O  O10  1  0.287764  0.286264  0.710448  1
  O  O11  1  0.545054  0.533624  0.962045  1
  O  O12  1  0.716710  0.285977  0.716710  1
  O  O13  1  0.710448  0.286264  0.287764  1
  O  O14  1  0.287955  0.716376  0.704946  1
  O  O15  1  0.287471  0.722930  0.287471  1
  O  O16  1  0.704946  0.716376  0.287955  1
  O  O17  1  0.962045  0.533624  0.545054  1
  O  O18  1  0.539552  0.963736  0.962236  1
  O  O19  1  0.962236  0.963736  0.539552  1
  O  O20  1  0.962529  0.527070  0.962529  1
  O  O21  1  0.533290  0.964023  0.533290  1
