# generated using pymatgen
data_LaPa(PPt)2
_symmetry_space_group_name_H-M   'P 1'
_cell_length_a   4.15728100
_cell_length_b   4.15728165
_cell_length_c   8.15603800
_cell_angle_alpha   90.00000000
_cell_angle_beta   90.00000000
_cell_angle_gamma   119.99998684
_symmetry_Int_Tables_number   1
_chemical_formula_structural   LaPa(PPt)2
_chemical_formula_sum   'La1 Pa1 P2 Pt2'
_cell_volume   122.07556949
_cell_formula_units_Z   1
loop_
 _symmetry_equiv_pos_site_id
 _symmetry_equiv_pos_as_xyz
  1  'x, y, z'
loop_
 _atom_site_type_symbol
 _atom_site_label
 _atom_site_symmetry_multiplicity
 _atom_site_fract_x
 _atom_site_fract_y
 _atom_site_fract_z
 _atom_site_occupancy
  La  La0  1  0.000000  0.000000  0.000000  1
  Pa  Pa1  1  0.000000  0.000000  0.500000  1
  P  P2  1  0.333333  0.666667  0.239347  1
  P  P3  1  0.666667  0.333333  0.760653  1
  Pt  Pt4  1  0.666667  0.333333  0.287705  1
  Pt  Pt5  1  0.333333  0.666667  0.712295  1
