# generated using pymatgen
data_Ta16GaNi3Te16
_symmetry_space_group_name_H-M   'P 1'
_cell_length_a   4.81441000
_cell_length_b   11.07129031
_cell_length_c   19.42346301
_cell_angle_alpha   89.98469208
_cell_angle_beta   90.00000000
_cell_angle_gamma   90.00000000
_symmetry_Int_Tables_number   1
_chemical_formula_structural   Ta16GaNi3Te16
_chemical_formula_sum   'Ta16 Ga1 Ni3 Te16'
_cell_volume   1035.30415882
_cell_formula_units_Z   1
loop_
 _symmetry_equiv_pos_site_id
 _symmetry_equiv_pos_as_xyz
  1  'x, y, z'
loop_
 _atom_site_type_symbol
 _atom_site_label
 _atom_site_symmetry_multiplicity
 _atom_site_fract_x
 _atom_site_fract_y
 _atom_site_fract_z
 _atom_site_occupancy
  Ta  Ta0  1  0.500272  0.563996  0.384210  1
  Ta  Ta1  1  0.500272  0.436004  0.615790  1
  Ta  Ta2  1  0.500183  0.063419  0.114585  1
  Ta  Ta3  1  0.500183  0.936581  0.885415  1
  Ta  Ta4  1  0.498605  0.703609  0.536631  1
  Ta  Ta5  1  0.498605  0.296391  0.463369  1
  Ta  Ta6  1  0.499860  0.201615  0.963917  1
  Ta  Ta7  1  0.499860  0.798385  0.036083  1
  Ta  Ta8  1  0.000663  0.689294  0.443833  1
  Ta  Ta9  1  0.000663  0.310706  0.556167  1
  Ta  Ta10  1  0.000223  0.187517  0.055655  1
  Ta  Ta11  1  0.000223  0.812483  0.944345  1
  Ta  Ta12  1  0.000506  0.401591  0.392294  1
  Ta  Ta13  1  0.000506  0.598409  0.607706  1
  Ta  Ta14  1  0.999756  0.902393  0.106494  1
  Ta  Ta15  1  0.999756  0.097607  0.893506  1
  Ga  Ga16  1  0.249878  0.500000  0.500000  1
  Ni  Ni17  1  0.750095  0.000000  0.000000  1
  Ni  Ni18  1  0.749898  0.500000  0.500000  1
  Ni  Ni19  1  0.249924  0.000000  0.000000  1
  Te  Te20  1  0.994455  0.844474  0.561779  1
  Te  Te21  1  0.994455  0.155526  0.438221  1
  Te  Te22  1  0.000031  0.344742  0.938163  1
  Te  Te23  1  0.000031  0.655258  0.061837  1
  Te  Te24  1  0.505430  0.333772  0.317517  1
  Te  Te25  1  0.505430  0.666228  0.682483  1
  Te  Te26  1  0.499830  0.833504  0.182188  1
  Te  Te27  1  0.499830  0.166496  0.817812  1
  Te  Te28  1  0.505410  0.820136  0.404977  1
  Te  Te29  1  0.505410  0.179864  0.595023  1
  Te  Te30  1  0.499957  0.320489  0.095140  1
  Te  Te31  1  0.499957  0.679511  0.904860  1
  Te  Te32  1  0.994788  0.608573  0.303930  1
  Te  Te33  1  0.994788  0.391427  0.696070  1
  Te  Te34  1  0.000131  0.108267  0.196016  1
  Te  Te35  1  0.000131  0.891733  0.803984  1
