# generated using pymatgen
data_DyY7Re3B24Ru
_symmetry_space_group_name_H-M   'P 1'
_cell_length_a   3.68040500
_cell_length_b   9.17531561
_cell_length_c   11.56101800
_cell_angle_alpha   90.10760400
_cell_angle_beta   90.00000000
_cell_angle_gamma   90.00000000
_symmetry_Int_Tables_number   1
_chemical_formula_structural   DyY7Re3B24Ru
_chemical_formula_sum   'Dy1 Y7 Re3 B24 Ru1'
_cell_volume   390.40191184
_cell_formula_units_Z   1
loop_
 _symmetry_equiv_pos_site_id
 _symmetry_equiv_pos_as_xyz
  1  'x, y, z'
loop_
 _atom_site_type_symbol
 _atom_site_label
 _atom_site_symmetry_multiplicity
 _atom_site_fract_x
 _atom_site_fract_y
 _atom_site_fract_z
 _atom_site_occupancy
  Dy  Dy0  1  0.000000  0.556887  0.870845  1
  Y  Y1  1  0.000000  0.322228  0.414214  1
  Y  Y2  1  0.000000  0.677072  0.587593  1
  Y  Y3  1  0.000000  0.824915  0.084182  1
  Y  Y4  1  0.000000  0.176454  0.913706  1
  Y  Y5  1  0.000000  0.941992  0.369765  1
  Y  Y6  1  0.000000  0.056288  0.629246  1
  Y  Y7  1  0.000000  0.443226  0.130352  1
  Re  Re8  1  0.000000  0.362030  0.678207  1
  Re  Re9  1  0.000000  0.138468  0.179481  1
  Re  Re10  1  0.000000  0.861412  0.820917  1
  B  B11  1  0.500000  0.554119  0.432549  1
  B  B12  1  0.500000  0.446840  0.566953  1
  B  B13  1  0.500000  0.053394  0.066929  1
  B  B14  1  0.500000  0.946788  0.932784  1
  B  B15  1  0.500000  0.748139  0.418401  1
  B  B16  1  0.500000  0.250961  0.581238  1
  B  B17  1  0.500000  0.249163  0.081461  1
  B  B18  1  0.500000  0.751466  0.918588  1
  B  B19  1  0.500000  0.790639  0.265641  1
  B  B20  1  0.500000  0.208150  0.734064  1
  B  B21  1  0.500000  0.291617  0.234829  1
  B  B22  1  0.500000  0.708007  0.766097  1
  B  B23  1  0.500000  0.631857  0.186142  1
  B  B24  1  0.500000  0.369164  0.813722  1
  B  B25  1  0.500000  0.131360  0.314546  1
  B  B26  1  0.500000  0.868409  0.685935  1
  B  B27  1  0.500000  0.982899  0.211746  1
  B  B28  1  0.500000  0.017115  0.787797  1
  B  B29  1  0.500000  0.484024  0.288365  1
  B  B30  1  0.500000  0.517624  0.712043  1
  B  B31  1  0.500000  0.602464  0.029014  1
  B  B32  1  0.500000  0.398152  0.971962  1
  B  B33  1  0.500000  0.101274  0.471194  1
  B  B34  1  0.500000  0.896871  0.528343  1
  Ru  Ru35  1  0.000000  0.638533  0.321152  1
