# generated using pymatgen
data_ErTm3Co3Ru5
_symmetry_space_group_name_H-M   'P 1'
_cell_length_a   5.12929222
_cell_length_b   5.12081929
_cell_length_c   8.79679227
_cell_angle_alpha   90.00000072
_cell_angle_beta   89.97730321
_cell_angle_gamma   119.94536537
_symmetry_Int_Tables_number   1
_chemical_formula_structural   ErTm3Co3Ru5
_chemical_formula_sum   'Er1 Tm3 Co3 Ru5'
_cell_volume   200.21224962
_cell_formula_units_Z   1
loop_
 _symmetry_equiv_pos_site_id
 _symmetry_equiv_pos_as_xyz
  1  'x, y, z'
loop_
 _atom_site_type_symbol
 _atom_site_label
 _atom_site_symmetry_multiplicity
 _atom_site_fract_x
 _atom_site_fract_y
 _atom_site_fract_z
 _atom_site_occupancy
  Er  Er0  1  0.330684  0.665343  0.064840  1
  Tm  Tm1  1  0.329952  0.664977  0.435169  1
  Tm  Tm2  1  0.662547  0.331273  0.568420  1
  Tm  Tm3  1  0.663089  0.331544  0.931294  1
  Co  Co4  1  0.174188  0.344112  0.749617  1
  Co  Co5  1  0.174188  0.830077  0.749617  1
  Co  Co6  1  0.341351  0.170676  0.250519  1
  Ru  Ru7  1  0.832438  0.660052  0.250460  1
  Ru  Ru8  1  0.663376  0.831688  0.749676  1
  Ru  Ru9  1  0.997875  0.998938  0.996300  1
  Ru  Ru10  1  0.832438  0.172387  0.250460  1
  Ru  Ru11  1  0.997872  0.998936  0.503627  1
