# generated using pymatgen
data_Ho3CdIn3CuIr
_symmetry_space_group_name_H-M   'P 1'
_cell_length_a   7.97415900
_cell_length_b   7.97416075
_cell_length_c   3.66115900
_cell_angle_alpha   90.00000000
_cell_angle_beta   90.00000000
_cell_angle_gamma   119.99998970
_symmetry_Int_Tables_number   1
_chemical_formula_structural   Ho3CdIn3CuIr
_chemical_formula_sum   'Ho3 Cd1 In3 Cu1 Ir1'
_cell_volume   201.61328424
_cell_formula_units_Z   1
loop_
 _symmetry_equiv_pos_site_id
 _symmetry_equiv_pos_as_xyz
  1  'x, y, z'
loop_
 _atom_site_type_symbol
 _atom_site_label
 _atom_site_symmetry_multiplicity
 _atom_site_fract_x
 _atom_site_fract_y
 _atom_site_fract_z
 _atom_site_occupancy
  Ho  Ho0  1  0.585370  0.620277  0.000000  1
  Ho  Ho1  1  0.379723  0.965093  0.000000  1
  Ho  Ho2  1  0.034907  0.414630  0.000000  1
  Cd  Cd3  1  0.666667  0.333333  0.500000  1
  In  In4  1  0.991792  0.734966  0.500000  1
  In  In5  1  0.265034  0.256827  0.500000  1
  In  In6  1  0.743173  0.008208  0.500000  1
  Cu  Cu7  1  0.000000  0.000000  0.000000  1
  Ir  Ir8  1  0.333333  0.666667  0.500000  1
