# generated using pymatgen
data_Sm2CrSbO7
_symmetry_space_group_name_H-M   'P 1'
_cell_length_a   7.37037256
_cell_length_b   7.35700221
_cell_length_c   7.42150300
_cell_angle_alpha   90.00027823
_cell_angle_beta   59.77112029
_cell_angle_gamma   119.94022587
_symmetry_Int_Tables_number   1
_chemical_formula_structural   Sm2CrSbO7
_chemical_formula_sum   'Sm4 Cr2 Sb2 O14'
_cell_volume   283.82565009
_cell_formula_units_Z   2
loop_
 _symmetry_equiv_pos_site_id
 _symmetry_equiv_pos_as_xyz
  1  'x, y, z'
loop_
 _atom_site_type_symbol
 _atom_site_label
 _atom_site_symmetry_multiplicity
 _atom_site_fract_x
 _atom_site_fract_y
 _atom_site_fract_z
 _atom_site_occupancy
  Sm  Sm0  1  0.500006  0.500021  0.999985  1
  Sm  Sm1  1  0.499999  0.000019  0.999990  1
  Sm  Sm2  1  0.000003  0.000017  0.499983  1
  Sm  Sm3  1  0.000001  0.000018  0.999986  1
  Cr  Cr4  1  0.500189  0.999923  0.500105  1
  Cr  Cr5  1  0.499751  0.499600  0.500209  1
  Sb  Sb6  1  0.999990  0.500017  0.999995  1
  Sb  Sb7  1  0.000015  0.500039  0.499983  1
  O  O8  1  0.253886  0.126964  0.123046  1
  O  O9  1  0.746121  0.873082  0.876922  1
  O  O10  1  0.674411  0.837231  0.412791  1
  O  O11  1  0.842464  0.421251  0.828755  1
  O  O12  1  0.251210  0.827669  0.834799  1
  O  O13  1  0.251228  0.423609  0.413940  1
  O  O14  1  0.251208  0.423590  0.834801  1
  O  O15  1  0.251225  0.827665  0.413946  1
  O  O16  1  0.325592  0.162820  0.587174  1
  O  O17  1  0.157543  0.578792  0.171211  1
  O  O18  1  0.748801  0.172388  0.165166  1
  O  O19  1  0.748776  0.576440  0.586025  1
  O  O20  1  0.748805  0.576460  0.165165  1
  O  O21  1  0.748777  0.172382  0.586027  1
