# generated using pymatgen
data_Tb10SnHg7Pt4
_symmetry_space_group_name_H-M   'P 1'
_cell_length_a   3.66589800
_cell_length_b   8.00172471
_cell_length_c   18.34770130
_cell_angle_alpha   90.32687253
_cell_angle_beta   90.00000000
_cell_angle_gamma   90.00000000
_symmetry_Int_Tables_number   1
_chemical_formula_structural   Tb10SnHg7Pt4
_chemical_formula_sum   'Tb10 Sn1 Hg7 Pt4'
_cell_volume   538.19365862
_cell_formula_units_Z   1
loop_
 _symmetry_equiv_pos_site_id
 _symmetry_equiv_pos_as_xyz
  1  'x, y, z'
loop_
 _atom_site_type_symbol
 _atom_site_label
 _atom_site_symmetry_multiplicity
 _atom_site_fract_x
 _atom_site_fract_y
 _atom_site_fract_z
 _atom_site_occupancy
  Tb  Tb0  1  0.000000  0.112181  0.414296  1
  Tb  Tb1  1  0.000000  0.887208  0.586247  1
  Tb  Tb2  1  0.000000  0.387063  0.913810  1
  Tb  Tb3  1  0.000000  0.612489  0.086061  1
  Tb  Tb4  1  0.000000  0.237912  0.216716  1
  Tb  Tb5  1  0.000000  0.762192  0.783301  1
  Tb  Tb6  1  0.000000  0.261117  0.717020  1
  Tb  Tb7  1  0.000000  0.741434  0.282628  1
  Tb  Tb8  1  0.000000  0.001409  0.000353  1
  Tb  Tb9  1  0.000000  0.498928  0.499923  1
  Sn  Sn10  1  0.500000  0.423188  0.353073  1
  Hg  Hg11  1  0.500000  0.575568  0.645249  1
  Hg  Hg12  1  0.500000  0.075487  0.854747  1
  Hg  Hg13  1  0.500000  0.923167  0.145288  1
  Hg  Hg14  1  0.500000  0.288361  0.063414  1
  Hg  Hg15  1  0.500000  0.712141  0.936625  1
  Hg  Hg16  1  0.500000  0.210999  0.563500  1
  Hg  Hg17  1  0.500000  0.788973  0.436617  1
  Pt  Pt18  1  0.500000  0.026318  0.303186  1
  Pt  Pt19  1  0.500000  0.974795  0.697077  1
  Pt  Pt20  1  0.500000  0.475106  0.802903  1
  Pt  Pt21  1  0.500000  0.523965  0.197966  1
