# generated using pymatgen
data_Na2NiSn3O8
_symmetry_space_group_name_H-M   'P 1'
_cell_length_a   6.46145776
_cell_length_b   6.46382420
_cell_length_c   11.03578789
_cell_angle_alpha   106.98097260
_cell_angle_beta   107.00327228
_cell_angle_gamma   60.01312865
_symmetry_Int_Tables_number   1
_chemical_formula_structural   Na2NiSn3O8
_chemical_formula_sum   'Na4 Ni2 Sn6 O16'
_cell_volume   375.79920114
_cell_formula_units_Z   2
loop_
 _symmetry_equiv_pos_site_id
 _symmetry_equiv_pos_as_xyz
  1  'x, y, z'
loop_
 _atom_site_type_symbol
 _atom_site_label
 _atom_site_symmetry_multiplicity
 _atom_site_fract_x
 _atom_site_fract_y
 _atom_site_fract_z
 _atom_site_occupancy
  Na  Na0  1  0.122142  0.122709  0.367036  1
  Na  Na1  1  0.622240  0.622170  0.866986  1
  Na  Na2  1  0.002764  0.002661  0.007978  1
  Na  Na3  1  0.502875  0.502458  0.507942  1
  Ni  Ni4  1  0.312568  0.312345  0.937467  1
  Ni  Ni5  1  0.812445  0.812858  0.437611  1
  Sn  Sn6  1  0.062495  0.562619  0.187519  1
  Sn  Sn7  1  0.562670  0.062259  0.687574  1
  Sn  Sn8  1  0.562406  0.062672  0.187481  1
  Sn  Sn9  1  0.062489  0.562372  0.687478  1
  Sn  Sn10  1  0.562395  0.562619  0.187472  1
  Sn  Sn11  1  0.062536  0.062249  0.687530  1
  O  O12  1  0.431143  0.431381  0.293743  1
  O  O13  1  0.931275  0.931022  0.793783  1
  O  O14  1  0.693826  0.693930  0.081201  1
  O  O15  1  0.193957  0.193589  0.581255  1
  O  O16  1  0.646443  0.214688  0.075429  1
  O  O17  1  0.146541  0.714453  0.575451  1
  O  O18  1  0.214527  0.646514  0.075415  1
  O  O19  1  0.714615  0.146400  0.575509  1
  O  O20  1  0.214449  0.214664  0.075535  1
  O  O21  1  0.714594  0.714485  0.575513  1
  O  O22  1  0.478392  0.910610  0.299472  1
  O  O23  1  0.978523  0.410214  0.799499  1
  O  O24  1  0.910310  0.478783  0.299527  1
  O  O25  1  0.410477  0.978333  0.799582  1
  O  O26  1  0.910419  0.910683  0.299489  1
  O  O27  1  0.410487  0.410259  0.799525  1
