# generated using pymatgen
data_Y8Lu4InCo4Ru
_symmetry_space_group_name_H-M   'P 1'
_cell_length_a   8.26477293
_cell_length_b   8.26477193
_cell_length_c   8.26477265
_cell_angle_alpha   111.14665590
_cell_angle_beta   110.44410062
_cell_angle_gamma   106.85498260
_symmetry_Int_Tables_number   1
_chemical_formula_structural   Y8Lu4InCo4Ru
_chemical_formula_sum   'Y8 Lu4 In1 Co4 Ru1'
_cell_volume   433.88824550
_cell_formula_units_Z   1
loop_
 _symmetry_equiv_pos_site_id
 _symmetry_equiv_pos_as_xyz
  1  'x, y, z'
loop_
 _atom_site_type_symbol
 _atom_site_label
 _atom_site_symmetry_multiplicity
 _atom_site_fract_x
 _atom_site_fract_y
 _atom_site_fract_z
 _atom_site_occupancy
  Y  Y0  1  0.412754  0.219084  0.193671  1
  Y  Y1  1  0.587246  0.780916  0.806329  1
  Y  Y2  1  0.025412  0.219084  0.806329  1
  Y  Y3  1  0.974588  0.780916  0.193671  1
  Y  Y4  1  0.185119  0.285257  0.470376  1
  Y  Y5  1  0.814881  0.714743  0.529624  1
  Y  Y6  1  0.185119  0.714743  0.899862  1
  Y  Y7  1  0.814881  0.285257  0.100138  1
  Lu  Lu8  1  0.315202  0.624380  0.309177  1
  Lu  Lu9  1  0.684798  0.375620  0.690823  1
  Lu  Lu10  1  0.315202  0.006023  0.690823  1
  Lu  Lu11  1  0.684798  0.993977  0.309177  1
  In  In12  1  0.500000  0.500000  0.000000  1
  Co  Co13  1  0.380276  0.000000  0.380276  1
  Co  Co14  1  0.619724  0.000000  0.619724  1
  Co  Co15  1  0.112375  0.612375  0.500000  1
  Co  Co16  1  0.887625  0.387625  0.500000  1
  Ru  Ru17  1  0.000000  0.000000  0.000000  1
