# generated using pymatgen
data_Dy7HoNp4O24
_symmetry_space_group_name_H-M   'P 1'
_cell_length_a   5.52913604
_cell_length_b   7.83859278
_cell_length_c   11.85179932
_cell_angle_alpha   73.76442186
_cell_angle_beta   89.99255861
_cell_angle_gamma   89.98747655
_symmetry_Int_Tables_number   1
_chemical_formula_structural   Dy7HoNp4O24
_chemical_formula_sum   'Dy7 Ho1 Np4 O24'
_cell_volume   493.17981075
_cell_formula_units_Z   1
loop_
 _symmetry_equiv_pos_site_id
 _symmetry_equiv_pos_as_xyz
  1  'x, y, z'
loop_
 _atom_site_type_symbol
 _atom_site_label
 _atom_site_symmetry_multiplicity
 _atom_site_fract_x
 _atom_site_fract_y
 _atom_site_fract_z
 _atom_site_occupancy
  Dy  Dy0  1  0.744234  0.000127  0.749736  1
  Dy  Dy1  1  0.255782  0.000204  0.250322  1
  Dy  Dy2  1  0.186223  0.795108  0.579407  1
  Dy  Dy3  1  0.813524  0.794954  0.079455  1
  Dy  Dy4  1  0.698852  0.499897  0.749941  1
  Dy  Dy5  1  0.301312  0.499805  0.250286  1
  Dy  Dy6  1  0.186578  0.205068  0.920497  1
  Ho  Ho7  1  0.813588  0.205445  0.420310  1
  Np  Np8  1  0.255608  0.719926  0.886840  1
  Np  Np9  1  0.744317  0.719969  0.386828  1
  Np  Np10  1  0.255713  0.279981  0.612794  1
  Np  Np11  1  0.744563  0.279989  0.113447  1
  O  O12  1  0.044124  0.942909  0.896911  1
  O  O13  1  0.552223  0.849010  0.931456  1
  O  O14  1  0.954818  0.943819  0.397072  1
  O  O15  1  0.449365  0.800858  0.726810  1
  O  O16  1  0.447232  0.848502  0.431456  1
  O  O17  1  0.963909  0.713843  0.766224  1
  O  O18  1  0.550570  0.800690  0.226963  1
  O  O19  1  0.874656  0.626150  0.554881  1
  O  O20  1  0.388943  0.480791  0.883305  1
  O  O21  1  0.036232  0.714006  0.266493  1
  O  O22  1  0.388800  0.518982  0.616447  1
  O  O23  1  0.874645  0.373842  0.945124  1
  O  O24  1  0.125314  0.625995  0.055043  1
  O  O25  1  0.611867  0.480332  0.383381  1
  O  O26  1  0.964160  0.286127  0.733638  1
  O  O27  1  0.610979  0.519085  0.116718  1
  O  O28  1  0.124116  0.373415  0.444886  1
  O  O29  1  0.449420  0.199094  0.772818  1
  O  O30  1  0.035963  0.286037  0.234186  1
  O  O31  1  0.553232  0.151441  0.567709  1
  O  O32  1  0.551227  0.199074  0.273757  1
  O  O33  1  0.044275  0.057268  0.602854  1
  O  O34  1  0.447685  0.151197  0.068801  1
  O  O35  1  0.955951  0.057060  0.103206  1
