# generated using pymatgen
data_Sr2CdIn3
_symmetry_space_group_name_H-M   'P 1'
_cell_length_a   6.48377093
_cell_length_b   6.46435254
_cell_length_c   6.46435272
_cell_angle_alpha   133.20884910
_cell_angle_beta   102.56254073
_cell_angle_gamma   95.56015917
_symmetry_Int_Tables_number   1
_chemical_formula_structural   Sr2CdIn3
_chemical_formula_sum   'Sr2 Cd1 In3'
_cell_volume   180.88098779
_cell_formula_units_Z   1
loop_
 _symmetry_equiv_pos_site_id
 _symmetry_equiv_pos_as_xyz
  1  'x, y, z'
loop_
 _atom_site_type_symbol
 _atom_site_label
 _atom_site_symmetry_multiplicity
 _atom_site_fract_x
 _atom_site_fract_y
 _atom_site_fract_z
 _atom_site_occupancy
  Sr  Sr0  1  0.790607  0.540063  0.250544  1
  Sr  Sr1  1  0.208637  0.459204  0.749434  1
  Cd  Cd2  1  0.222371  0.165465  0.056905  1
  In  In3  1  0.603523  0.161525  0.441999  1
  In  In4  1  0.389803  0.834194  0.555608  1
  In  In5  1  0.785060  0.839549  0.945511  1
