# generated using pymatgen
data_Nb12Ga3Au5N4
_symmetry_space_group_name_H-M   'P 1'
_cell_length_a   7.13425572
_cell_length_b   7.13425572
_cell_length_c   7.13425572
_cell_angle_alpha   90.03632685
_cell_angle_beta   89.96367315
_cell_angle_gamma   89.96367315
_symmetry_Int_Tables_number   1
_chemical_formula_structural   Nb12Ga3Au5N4
_chemical_formula_sum   'Nb12 Ga3 Au5 N4'
_cell_volume   363.11630784
_cell_formula_units_Z   1
loop_
 _symmetry_equiv_pos_site_id
 _symmetry_equiv_pos_as_xyz
  1  'x, y, z'
loop_
 _atom_site_type_symbol
 _atom_site_label
 _atom_site_symmetry_multiplicity
 _atom_site_fract_x
 _atom_site_fract_y
 _atom_site_fract_z
 _atom_site_occupancy
  Nb  Nb0  1  0.786758  0.955393  0.376867  1
  Nb  Nb1  1  0.713128  0.044718  0.879087  1
  Nb  Nb2  1  0.211810  0.456865  0.125195  1
  Nb  Nb3  1  0.291053  0.542525  0.625513  1
  Nb  Nb4  1  0.955282  0.379087  0.786872  1
  Nb  Nb5  1  0.044607  0.876867  0.713242  1
  Nb  Nb6  1  0.457475  0.125513  0.208947  1
  Nb  Nb7  1  0.543135  0.625195  0.288190  1
  Nb  Nb8  1  0.374805  0.788190  0.956865  1
  Nb  Nb9  1  0.874487  0.708947  0.042525  1
  Nb  Nb10  1  0.123133  0.213242  0.455393  1
  Nb  Nb11  1  0.620913  0.286872  0.544718  1
  Ga  Ga12  1  0.429521  0.930187  0.567887  1
  Ga  Ga13  1  0.932113  0.570479  0.430187  1
  Ga  Ga14  1  0.069813  0.067887  0.070479  1
  Au  Au15  1  0.179946  0.820054  0.320054  1
  Au  Au16  1  0.311796  0.172697  0.815993  1
  Au  Au17  1  0.827303  0.315993  0.188204  1
  Au  Au18  1  0.684007  0.688204  0.672697  1
  Au  Au19  1  0.567489  0.432511  0.932511  1
  N  N20  1  0.874482  0.125518  0.625518  1
  N  N21  1  0.623746  0.874150  0.122651  1
  N  N22  1  0.125850  0.622651  0.876254  1
  N  N23  1  0.377349  0.376254  0.374150  1
