# generated using pymatgen
data_La11Pr5Cd4PdRu3
_symmetry_space_group_name_H-M   'P 1'
_cell_length_a   10.08923046
_cell_length_b   10.12933598
_cell_length_c   10.12933539
_cell_angle_alpha   59.94820230
_cell_angle_beta   59.73017279
_cell_angle_gamma   59.73017652
_symmetry_Int_Tables_number   1
_chemical_formula_structural   La11Pr5Cd4PdRu3
_chemical_formula_sum   'La11 Pr5 Cd4 Pd1 Ru3'
_cell_volume   728.70668236
_cell_formula_units_Z   1
loop_
 _symmetry_equiv_pos_site_id
 _symmetry_equiv_pos_as_xyz
  1  'x, y, z'
loop_
 _atom_site_type_symbol
 _atom_site_label
 _atom_site_symmetry_multiplicity
 _atom_site_fract_x
 _atom_site_fract_y
 _atom_site_fract_z
 _atom_site_occupancy
  La  La0  1  0.342615  0.350391  0.350391  1
  La  La1  1  0.342217  0.350349  0.954831  1
  La  La2  1  0.342217  0.954831  0.350349  1
  La  La3  1  0.962231  0.344966  0.344966  1
  La  La4  1  0.817302  0.191649  0.191649  1
  La  La5  1  0.189520  0.810645  0.810645  1
  La  La6  1  0.190256  0.810798  0.188807  1
  La  La7  1  0.817146  0.191394  0.800003  1
  La  La8  1  0.190256  0.188807  0.810798  1
  La  La9  1  0.817146  0.800003  0.191394  1
  La  La10  1  0.936533  0.563102  0.563102  1
  Pr  Pr11  1  0.559662  0.937855  0.937855  1
  Pr  Pr12  1  0.559521  0.937960  0.566190  1
  Pr  Pr13  1  0.936309  0.562827  0.938796  1
  Pr  Pr14  1  0.559521  0.566190  0.937960  1
  Pr  Pr15  1  0.936309  0.938796  0.562827  1
  Cd  Cd16  1  0.579306  0.579544  0.579544  1
  Cd  Cd17  1  0.580167  0.580006  0.259765  1
  Cd  Cd18  1  0.580167  0.259765  0.580006  1
  Cd  Cd19  1  0.260068  0.580217  0.580217  1
  Pd  Pd20  1  0.577086  0.141093  0.141093  1
  Ru  Ru21  1  0.141379  0.137304  0.137304  1
  Ru  Ru22  1  0.141532  0.137823  0.583685  1
  Ru  Ru23  1  0.141532  0.583685  0.137823  1
