# generated using pymatgen
data_Ho6Tm10Cd4TcPt3
_symmetry_space_group_name_H-M   'P 1'
_cell_length_a   9.62669476
_cell_length_b   9.62669476
_cell_length_c   9.62669542
_cell_angle_alpha   59.46817150
_cell_angle_beta   59.46817181
_cell_angle_gamma   59.46816855
_symmetry_Int_Tables_number   1
_chemical_formula_structural   Ho6Tm10Cd4TcPt3
_chemical_formula_sum   'Ho6 Tm10 Cd4 Tc1 Pt3'
_cell_volume   623.20466331
_cell_formula_units_Z   1
loop_
 _symmetry_equiv_pos_site_id
 _symmetry_equiv_pos_as_xyz
  1  'x, y, z'
loop_
 _atom_site_type_symbol
 _atom_site_label
 _atom_site_symmetry_multiplicity
 _atom_site_fract_x
 _atom_site_fract_y
 _atom_site_fract_z
 _atom_site_occupancy
  Ho  Ho0  1  0.185938  0.814754  0.814754  1
  Ho  Ho1  1  0.806323  0.188136  0.188136  1
  Ho  Ho2  1  0.814754  0.185938  0.814754  1
  Ho  Ho3  1  0.188136  0.806323  0.188136  1
  Ho  Ho4  1  0.814754  0.814754  0.185938  1
  Ho  Ho5  1  0.188136  0.188136  0.806323  1
  Tm  Tm6  1  0.601435  0.601435  0.601435  1
  Tm  Tm7  1  0.601080  0.601080  0.197236  1
  Tm  Tm8  1  0.601080  0.197236  0.601080  1
  Tm  Tm9  1  0.197236  0.601080  0.601080  1
  Tm  Tm10  1  0.065764  0.437702  0.437702  1
  Tm  Tm11  1  0.438964  0.060307  0.060307  1
  Tm  Tm12  1  0.437702  0.065764  0.437702  1
  Tm  Tm13  1  0.060307  0.438964  0.060307  1
  Tm  Tm14  1  0.437702  0.437702  0.065764  1
  Tm  Tm15  1  0.060307  0.060307  0.438964  1
  Cd  Cd16  1  0.829863  0.829863  0.829863  1
  Cd  Cd17  1  0.830866  0.830866  0.504701  1
  Cd  Cd18  1  0.830866  0.504701  0.830866  1
  Cd  Cd19  1  0.504701  0.830866  0.830866  1
  Tc  Tc20  1  0.394171  0.394171  0.394171  1
  Pt  Pt21  1  0.393786  0.393786  0.822340  1
  Pt  Pt22  1  0.393786  0.822340  0.393786  1
  Pt  Pt23  1  0.822340  0.393786  0.393786  1
