# generated using pymatgen
data_KSrEuB2Pt7
_symmetry_space_group_name_H-M   'P 1'
_cell_length_a   8.52926640
_cell_length_b   8.52926549
_cell_length_c   8.52926480
_cell_angle_alpha   38.38385434
_cell_angle_beta   38.38386068
_cell_angle_gamma   38.38385191
_symmetry_Int_Tables_number   1
_chemical_formula_structural   KSrEuB2Pt7
_chemical_formula_sum   'K1 Sr1 Eu1 B2 Pt7'
_cell_volume   214.89600516
_cell_formula_units_Z   1
loop_
 _symmetry_equiv_pos_site_id
 _symmetry_equiv_pos_as_xyz
  1  'x, y, z'
loop_
 _atom_site_type_symbol
 _atom_site_label
 _atom_site_symmetry_multiplicity
 _atom_site_fract_x
 _atom_site_fract_y
 _atom_site_fract_z
 _atom_site_occupancy
  K  K0  1  0.855557  0.855557  0.855557  1
  Sr  Sr1  1  0.146265  0.146265  0.146265  1
  Eu  Eu2  1  0.997498  0.997498  0.997498  1
  B  B3  1  0.669463  0.669463  0.669463  1
  B  B4  1  0.331183  0.331183  0.331183  1
  Pt  Pt5  1  0.438280  0.932310  0.438280  1
  Pt  Pt6  1  0.438280  0.438280  0.932310  1
  Pt  Pt7  1  0.932310  0.438280  0.438280  1
  Pt  Pt8  1  0.561521  0.068188  0.561521  1
  Pt  Pt9  1  0.561521  0.561521  0.068188  1
  Pt  Pt10  1  0.068188  0.561521  0.561521  1
  Pt  Pt11  1  0.499932  0.499932  0.499932  1
