# generated using pymatgen
data_Sr5La3Mg4(RuO6)4
_symmetry_space_group_name_H-M   'P 1'
_cell_length_a   7.97542460
_cell_length_b   7.98548443
_cell_length_c   9.72675825
_cell_angle_alpha   114.05442901
_cell_angle_beta   114.26088579
_cell_angle_gamma   90.17119820
_symmetry_Int_Tables_number   1
_chemical_formula_structural   Sr5La3Mg4(RuO6)4
_chemical_formula_sum   'Sr5 La3 Mg4 Ru4 O24'
_cell_volume   504.79226301
_cell_formula_units_Z   1
loop_
 _symmetry_equiv_pos_site_id
 _symmetry_equiv_pos_as_xyz
  1  'x, y, z'
loop_
 _atom_site_type_symbol
 _atom_site_label
 _atom_site_symmetry_multiplicity
 _atom_site_fract_x
 _atom_site_fract_y
 _atom_site_fract_z
 _atom_site_occupancy
  Sr  Sr0  1  0.382187  0.386770  0.750791  1
  Sr  Sr1  1  0.112932  0.617446  0.248971  1
  Sr  Sr2  1  0.883250  0.887087  0.751164  1
  Sr  Sr3  1  0.890168  0.382514  0.749338  1
  Sr  Sr4  1  0.612531  0.117451  0.251081  1
  La  La5  1  0.393145  0.881126  0.750333  1
  La  La6  1  0.115125  0.108719  0.251455  1
  La  La7  1  0.615756  0.607553  0.250837  1
  Mg  Mg8  1  0.249231  0.749618  0.999551  1
  Mg  Mg9  1  0.999141  0.999160  0.500958  1
  Mg  Mg10  1  0.751429  0.252074  0.999670  1
  Mg  Mg11  1  0.500722  0.497826  0.501401  1
  Ru  Ru12  1  0.001009  0.500363  0.500187  1
  Ru  Ru13  1  0.249827  0.250812  0.001313  1
  Ru  Ru14  1  0.500713  0.999231  0.500248  1
  Ru  Ru15  1  0.748401  0.750300  0.998924  1
  O  O16  1  0.037839  0.271849  0.528922  1
  O  O17  1  0.991480  0.251832  0.966564  1
  O  O18  1  0.256936  0.476805  0.967968  1
  O  O19  1  0.848124  0.911683  0.242546  1
  O  O20  1  0.236616  0.961933  0.461749  1
  O  O21  1  0.089406  0.650707  0.741436  1
  O  O22  1  0.419451  0.840393  0.256394  1
  O  O23  1  0.263315  0.549574  0.537849  1
  O  O24  1  0.533219  0.773504  0.536812  1
  O  O25  1  0.486654  0.758136  0.962781  1
  O  O26  1  0.745857  0.976339  0.961709  1
  O  O27  1  0.349980  0.412175  0.244705  1
  O  O28  1  0.656012  0.592344  0.758066  1
  O  O29  1  0.244868  0.027820  0.043195  1
  O  O30  1  0.513374  0.253489  0.038159  1
  O  O31  1  0.452213  0.222190  0.459481  1
  O  O32  1  0.737333  0.464675  0.460282  1
  O  O33  1  0.579690  0.142591  0.742372  1
  O  O34  1  0.922998  0.344089  0.256164  1
  O  O35  1  0.758663  0.037685  0.533355  1
  O  O36  1  0.165830  0.083021  0.757889  1
  O  O37  1  0.740664  0.528278  0.040561  1
  O  O38  1  0.010739  0.758405  0.036933  1
  O  O39  1  0.953174  0.722429  0.457881  1
