# generated using pymatgen
data_Ba3NdInO6
_symmetry_space_group_name_H-M   'P 1'
_cell_length_a   7.37756831
_cell_length_b   7.37756737
_cell_length_c   7.37756871
_cell_angle_alpha   92.46909495
_cell_angle_beta   92.46909508
_cell_angle_gamma   92.46908863
_symmetry_Int_Tables_number   1
_chemical_formula_structural   Ba3NdInO6
_chemical_formula_sum   'Ba6 Nd2 In2 O12'
_cell_volume   400.39842386
_cell_formula_units_Z   2
loop_
 _symmetry_equiv_pos_site_id
 _symmetry_equiv_pos_as_xyz
  1  'x, y, z'
loop_
 _atom_site_type_symbol
 _atom_site_label
 _atom_site_symmetry_multiplicity
 _atom_site_fract_x
 _atom_site_fract_y
 _atom_site_fract_z
 _atom_site_occupancy
  Ba  Ba0  1  0.250000  0.887037  0.612963  1
  Ba  Ba1  1  0.887037  0.612963  0.250000  1
  Ba  Ba2  1  0.750000  0.112963  0.387037  1
  Ba  Ba3  1  0.387037  0.750000  0.112963  1
  Ba  Ba4  1  0.112963  0.387037  0.750000  1
  Ba  Ba5  1  0.612963  0.250000  0.887037  1
  Nd  Nd6  1  0.750000  0.750000  0.750000  1
  Nd  Nd7  1  0.250000  0.250000  0.250000  1
  In  In8  1  0.500000  0.500000  0.500000  1
  In  In9  1  0.000000  0.000000  0.000000  1
  O  O10  1  0.594530  0.789429  0.460810  1
  O  O11  1  0.460810  0.594530  0.789429  1
  O  O12  1  0.789429  0.460810  0.594530  1
  O  O13  1  0.905470  0.039190  0.710571  1
  O  O14  1  0.710571  0.905470  0.039190  1
  O  O15  1  0.039190  0.710571  0.905470  1
  O  O16  1  0.405470  0.210571  0.539190  1
  O  O17  1  0.539190  0.405470  0.210571  1
  O  O18  1  0.210571  0.539190  0.405470  1
  O  O19  1  0.094530  0.960810  0.289429  1
  O  O20  1  0.960810  0.289429  0.094530  1
  O  O21  1  0.289429  0.094530  0.960810  1
