# generated using pymatgen
data_Tb3DyCo17(Si4Ni)3
_symmetry_space_group_name_H-M   'P 1'
_cell_length_a   3.73112800
_cell_length_b   6.77770541
_cell_length_c   18.38256803
_cell_angle_alpha   89.88496171
_cell_angle_beta   90.00000000
_cell_angle_gamma   90.00000000
_symmetry_Int_Tables_number   1
_chemical_formula_structural   Tb3DyCo17(Si4Ni)3
_chemical_formula_sum   'Tb3 Dy1 Co17 Si12 Ni3'
_cell_volume   464.86638481
_cell_formula_units_Z   1
loop_
 _symmetry_equiv_pos_site_id
 _symmetry_equiv_pos_as_xyz
  1  'x, y, z'
loop_
 _atom_site_type_symbol
 _atom_site_label
 _atom_site_symmetry_multiplicity
 _atom_site_fract_x
 _atom_site_fract_y
 _atom_site_fract_z
 _atom_site_occupancy
  Tb  Tb0  1  0.250000  0.872954  0.356932  1
  Tb  Tb1  1  0.750000  0.126944  0.643313  1
  Tb  Tb2  1  0.250000  0.625419  0.857352  1
  Dy  Dy3  1  0.750000  0.373449  0.142228  1
  Co  Co4  1  0.250000  0.056795  0.203463  1
  Co  Co5  1  0.750000  0.942988  0.795910  1
  Co  Co6  1  0.750000  0.557155  0.294995  1
  Co  Co7  1  0.250000  0.442473  0.705017  1
  Co  Co8  1  0.250000  0.624894  0.488618  1
  Co  Co9  1  0.750000  0.374582  0.511427  1
  Co  Co10  1  0.750000  0.121472  0.009679  1
  Co  Co11  1  0.250000  0.874067  0.990192  1
  Co  Co12  1  0.250000  0.679078  0.201935  1
  Co  Co13  1  0.750000  0.321406  0.799056  1
  Co  Co14  1  0.750000  0.178791  0.297093  1
  Co  Co15  1  0.250000  0.820937  0.702705  1
  Co  Co16  1  0.250000  0.358290  0.386475  1
  Co  Co17  1  0.750000  0.641857  0.613201  1
  Co  Co18  1  0.750000  0.864281  0.111132  1
  Co  Co19  1  0.250000  0.136422  0.889343  1
  Co  Co20  1  0.250000  0.374763  0.005133  1
  Si  Si21  1  0.250000  0.093083  0.080489  1
  Si  Si22  1  0.750000  0.911488  0.918007  1
  Si  Si23  1  0.750000  0.583850  0.417919  1
  Si  Si24  1  0.250000  0.415591  0.582081  1
  Si  Si25  1  0.250000  0.649686  0.077172  1
  Si  Si26  1  0.750000  0.349026  0.924806  1
  Si  Si27  1  0.750000  0.156099  0.422360  1
  Si  Si28  1  0.250000  0.844121  0.577374  1
  Si  Si29  1  0.250000  0.367401  0.262914  1
  Si  Si30  1  0.750000  0.632031  0.736678  1
  Si  Si31  1  0.750000  0.867948  0.235669  1
  Si  Si32  1  0.250000  0.132029  0.764500  1
  Ni  Ni33  1  0.750000  0.628667  0.995124  1
  Ni  Ni34  1  0.750000  0.873920  0.494440  1
  Ni  Ni35  1  0.250000  0.126043  0.505271  1
