# generated using pymatgen
data_Ho9Lu(Ir2Ru)2
_symmetry_space_group_name_H-M   'P 1'
_cell_length_a   10.77137700
_cell_length_b   10.77137700
_cell_length_c   6.40056800
_cell_angle_alpha   90.00000000
_cell_angle_beta   90.00000000
_cell_angle_gamma   90.00000000
_symmetry_Int_Tables_number   1
_chemical_formula_structural   Ho9Lu(Ir2Ru)2
_chemical_formula_sum   'Ho18 Lu2 Ir8 Ru4'
_cell_volume   742.61030066
_cell_formula_units_Z   2
loop_
 _symmetry_equiv_pos_site_id
 _symmetry_equiv_pos_as_xyz
  1  'x, y, z'
loop_
 _atom_site_type_symbol
 _atom_site_label
 _atom_site_symmetry_multiplicity
 _atom_site_fract_x
 _atom_site_fract_y
 _atom_site_fract_z
 _atom_site_occupancy
  Ho  Ho0  1  0.292955  0.086448  0.377396  1
  Ho  Ho1  1  0.292955  0.913552  0.877396  1
  Ho  Ho2  1  0.707045  0.086448  0.877396  1
  Ho  Ho3  1  0.707045  0.913552  0.377396  1
  Ho  Ho4  1  0.586571  0.793453  0.877496  1
  Ho  Ho5  1  0.586571  0.206547  0.377496  1
  Ho  Ho6  1  0.413429  0.793453  0.377496  1
  Ho  Ho7  1  0.413429  0.206547  0.877496  1
  Ho  Ho8  1  0.206547  0.413429  0.622504  1
  Ho  Ho9  1  0.206547  0.586571  0.122504  1
  Ho  Ho10  1  0.793453  0.413429  0.122504  1
  Ho  Ho11  1  0.793453  0.586571  0.622504  1
  Ho  Ho12  1  0.913552  0.707045  0.122604  1
  Ho  Ho13  1  0.913552  0.292955  0.622604  1
  Ho  Ho14  1  0.086448  0.707045  0.622604  1
  Ho  Ho15  1  0.086448  0.292955  0.122604  1
  Ho  Ho16  1  0.500000  0.500000  0.000000  1
  Ho  Ho17  1  0.500000  0.500000  0.500000  1
  Lu  Lu18  1  0.000000  0.000000  0.500000  1
  Lu  Lu19  1  0.000000  0.000000  0.000000  1
  Ir  Ir20  1  0.848663  0.151337  0.250000  1
  Ir  Ir21  1  0.848663  0.848663  0.750000  1
  Ir  Ir22  1  0.151337  0.151337  0.750000  1
  Ir  Ir23  1  0.151337  0.848663  0.250000  1
  Ir  Ir24  1  0.652435  0.347565  0.750000  1
  Ir  Ir25  1  0.652435  0.652435  0.250000  1
  Ir  Ir26  1  0.347565  0.347565  0.250000  1
  Ir  Ir27  1  0.347565  0.652435  0.750000  1
  Ru  Ru28  1  0.500000  0.000000  0.121974  1
  Ru  Ru29  1  0.500000  0.000000  0.621974  1
  Ru  Ru30  1  0.000000  0.500000  0.878026  1
  Ru  Ru31  1  0.000000  0.500000  0.378026  1
