# generated using pymatgen
data_Rb6TlS4Cl
_symmetry_space_group_name_H-M   'P 1'
_cell_length_a   10.65077500
_cell_length_b   10.65077463
_cell_length_c   7.87471400
_cell_angle_alpha   90.00000000
_cell_angle_beta   90.00000000
_cell_angle_gamma   120.00000427
_symmetry_Int_Tables_number   1
_chemical_formula_structural   Rb6TlS4Cl
_chemical_formula_sum   'Rb12 Tl2 S8 Cl2'
_cell_volume   773.62021218
_cell_formula_units_Z   2
loop_
 _symmetry_equiv_pos_site_id
 _symmetry_equiv_pos_as_xyz
  1  'x, y, z'
loop_
 _atom_site_type_symbol
 _atom_site_label
 _atom_site_symmetry_multiplicity
 _atom_site_fract_x
 _atom_site_fract_y
 _atom_site_fract_z
 _atom_site_occupancy
  Rb  Rb0  1  0.134330  0.865670  0.511332  1
  Rb  Rb1  1  0.731337  0.865670  0.511332  1
  Rb  Rb2  1  0.943022  0.471511  0.321570  1
  Rb  Rb3  1  0.528489  0.471511  0.321570  1
  Rb  Rb4  1  0.865670  0.731337  0.011332  1
  Rb  Rb5  1  0.268663  0.134330  0.011332  1
  Rb  Rb6  1  0.528489  0.056978  0.321570  1
  Rb  Rb7  1  0.134330  0.268663  0.511332  1
  Rb  Rb8  1  0.865670  0.134330  0.011332  1
  Rb  Rb9  1  0.056978  0.528489  0.821570  1
  Rb  Rb10  1  0.471511  0.943022  0.821570  1
  Rb  Rb11  1  0.471511  0.528489  0.821570  1
  Tl  Tl12  1  0.666667  0.333333  0.710861  1
  Tl  Tl13  1  0.333333  0.666667  0.210861  1
  S  S14  1  0.403692  0.201846  0.606753  1
  S  S15  1  0.596308  0.798154  0.106753  1
  S  S16  1  0.666667  0.333333  0.041761  1
  S  S17  1  0.798154  0.596308  0.606753  1
  S  S18  1  0.201846  0.403692  0.106753  1
  S  S19  1  0.333333  0.666667  0.541761  1
  S  S20  1  0.201846  0.798154  0.106753  1
  S  S21  1  0.798154  0.201846  0.606753  1
  Cl  Cl22  1  0.000000  0.000000  0.269016  1
  Cl  Cl23  1  0.000000  0.000000  0.769016  1
