# generated using pymatgen
data_CeYPPt8
_symmetry_space_group_name_H-M   'P 1'
_cell_length_a   9.10091451
_cell_length_b   9.08962519
_cell_length_c   4.28711000
_cell_angle_alpha   90.00000000
_cell_angle_beta   90.00000000
_cell_angle_gamma   145.22554817
_symmetry_Int_Tables_number   1
_chemical_formula_structural   CeYPPt8
_chemical_formula_sum   'Ce1 Y1 P1 Pt8'
_cell_volume   202.27167610
_cell_formula_units_Z   1
loop_
 _symmetry_equiv_pos_site_id
 _symmetry_equiv_pos_as_xyz
  1  'x, y, z'
loop_
 _atom_site_type_symbol
 _atom_site_label
 _atom_site_symmetry_multiplicity
 _atom_site_fract_x
 _atom_site_fract_y
 _atom_site_fract_z
 _atom_site_occupancy
  Ce  Ce0  1  0.370720  0.621537  0.500000  1
  Y  Y1  1  0.621737  0.371281  0.500000  1
  P  P2  1  0.227233  0.227121  0.000000  1
  Pt  Pt3  1  0.110097  0.891259  0.000000  1
  Pt  Pt4  1  0.890967  0.110015  0.000000  1
  Pt  Pt5  1  0.488126  0.981713  0.000000  1
  Pt  Pt6  1  0.982099  0.489152  0.000000  1
  Pt  Pt7  1  0.193276  0.793779  0.500000  1
  Pt  Pt8  1  0.791676  0.193922  0.500000  1
  Pt  Pt9  1  0.002197  0.002456  0.500000  1
  Pt  Pt10  1  0.635470  0.631363  0.000000  1
