# generated using pymatgen
data_LaAlCdPt2
_symmetry_space_group_name_H-M   'P 1'
_cell_length_a   4.28802300
_cell_length_b   4.28802300
_cell_length_c   11.44981300
_cell_angle_alpha   90.00000000
_cell_angle_beta   90.00000000
_cell_angle_gamma   90.00000000
_symmetry_Int_Tables_number   1
_chemical_formula_structural   LaAlCdPt2
_chemical_formula_sum   'La2 Al2 Cd2 Pt4'
_cell_volume   210.52932890
_cell_formula_units_Z   2
loop_
 _symmetry_equiv_pos_site_id
 _symmetry_equiv_pos_as_xyz
  1  'x, y, z'
loop_
 _atom_site_type_symbol
 _atom_site_label
 _atom_site_symmetry_multiplicity
 _atom_site_fract_x
 _atom_site_fract_y
 _atom_site_fract_z
 _atom_site_occupancy
  La  La0  1  0.000000  0.500000  0.239733  1
  La  La1  1  0.500000  0.000000  0.760267  1
  Al  Al2  1  0.000000  0.500000  0.886158  1
  Al  Al3  1  0.500000  0.000000  0.113842  1
  Cd  Cd4  1  0.000000  0.000000  0.500000  1
  Cd  Cd5  1  0.500000  0.500000  0.500000  1
  Pt  Pt6  1  0.000000  0.000000  0.000000  1
  Pt  Pt7  1  0.500000  0.500000  0.000000  1
  Pt  Pt8  1  0.000000  0.500000  0.670938  1
  Pt  Pt9  1  0.500000  0.000000  0.329062  1
