# generated using pymatgen
data_TmCdNi3Pt
_symmetry_space_group_name_H-M   'P 1'
_cell_length_a   4.98877535
_cell_length_b   4.98877538
_cell_length_c   5.13775575
_cell_angle_alpha   60.95467739
_cell_angle_beta   60.95467638
_cell_angle_gamma   60.00000119
_symmetry_Int_Tables_number   1
_chemical_formula_structural   TmCdNi3Pt
_chemical_formula_sum   'Tm1 Cd1 Ni3 Pt1'
_cell_volume   91.69903123
_cell_formula_units_Z   1
loop_
 _symmetry_equiv_pos_site_id
 _symmetry_equiv_pos_as_xyz
  1  'x, y, z'
loop_
 _atom_site_type_symbol
 _atom_site_label
 _atom_site_symmetry_multiplicity
 _atom_site_fract_x
 _atom_site_fract_y
 _atom_site_fract_z
 _atom_site_occupancy
  Tm  Tm0  1  0.249235  0.249235  0.252295  1
  Cd  Cd1  1  0.005437  0.005437  0.983690  1
  Ni  Ni2  1  0.624798  0.121488  0.628917  1
  Ni  Ni3  1  0.121488  0.624798  0.628917  1
  Ni  Ni4  1  0.624798  0.624798  0.628917  1
  Pt  Pt5  1  0.624246  0.624246  0.127264  1
