# generated using pymatgen
data_Ta7Nb5Ga8Cu2(RuC2)2
_symmetry_space_group_name_H-M   'P 1'
_cell_length_a   8.29288280
_cell_length_b   8.29076706
_cell_length_c   8.30119300
_cell_angle_alpha   59.94747462
_cell_angle_beta   59.96951512
_cell_angle_gamma   59.96008209
_symmetry_Int_Tables_number   1
_chemical_formula_structural   Ta7Nb5Ga8Cu2(RuC2)2
_chemical_formula_sum   'Ta7 Nb5 Ga8 Cu2 Ru2 C4'
_cell_volume   403.20133203
_cell_formula_units_Z   1
loop_
 _symmetry_equiv_pos_site_id
 _symmetry_equiv_pos_as_xyz
  1  'x, y, z'
loop_
 _atom_site_type_symbol
 _atom_site_label
 _atom_site_symmetry_multiplicity
 _atom_site_fract_x
 _atom_site_fract_y
 _atom_site_fract_z
 _atom_site_occupancy
  Ta  Ta0  1  0.314159  0.312119  0.692233  1
  Ta  Ta1  1  0.568239  0.556890  0.938965  1
  Ta  Ta2  1  0.933718  0.566268  0.566242  1
  Ta  Ta3  1  0.560600  0.938693  0.939771  1
  Ta  Ta4  1  0.935613  0.937615  0.557744  1
  Ta  Ta5  1  0.682713  0.311006  0.693308  1
  Ta  Ta6  1  0.935587  0.557542  0.937982  1
  Nb  Nb7  1  0.567791  0.938091  0.558404  1
  Nb  Nb8  1  0.315666  0.684414  0.684474  1
  Nb  Nb9  1  0.687659  0.312234  0.313258  1
  Nb  Nb10  1  0.313079  0.692784  0.310867  1
  Nb  Nb11  1  0.683178  0.692056  0.311465  1
  Ga  Ga12  1  0.919373  0.909712  0.911138  1
  Ga  Ga13  1  0.991213  0.337338  0.337905  1
  Ga  Ga14  1  0.332378  0.998294  0.338671  1
  Ga  Ga15  1  0.329670  0.341025  0.998012  1
  Ga  Ga16  1  0.919301  0.251392  0.911706  1
  Ga  Ga17  1  0.916257  0.914130  0.251037  1
  Ga  Ga18  1  0.259312  0.910671  0.911023  1
  Ga  Ga19  1  0.334414  0.336249  0.338246  1
  Cu  Cu20  1  0.124099  0.624606  0.127813  1
  Cu  Cu21  1  0.122185  0.127592  0.624984  1
  Ru  Ru22  1  0.127312  0.125371  0.122111  1
  Ru  Ru23  1  0.625726  0.127576  0.117814  1
  C  C24  1  0.626547  0.622094  0.627504  1
  C  C25  1  0.123401  0.623992  0.626605  1
  C  C26  1  0.624928  0.124246  0.628207  1
  C  C27  1  0.625883  0.626002  0.122509  1
