# generated using pymatgen
data_LiEr3In3Au2
_symmetry_space_group_name_H-M   'P 1'
_cell_length_a   7.83689800
_cell_length_b   7.83689821
_cell_length_c   3.79206300
_cell_angle_alpha   90.00000000
_cell_angle_beta   90.00000000
_cell_angle_gamma   119.99999910
_symmetry_Int_Tables_number   1
_chemical_formula_structural   LiEr3In3Au2
_chemical_formula_sum   'Li1 Er3 In3 Au2'
_cell_volume   201.69474351
_cell_formula_units_Z   1
loop_
 _symmetry_equiv_pos_site_id
 _symmetry_equiv_pos_as_xyz
  1  'x, y, z'
loop_
 _atom_site_type_symbol
 _atom_site_label
 _atom_site_symmetry_multiplicity
 _atom_site_fract_x
 _atom_site_fract_y
 _atom_site_fract_z
 _atom_site_occupancy
  Li  Li0  1  0.000000  0.000000  0.500000  1
  Er  Er1  1  0.590206  0.000000  0.500000  1
  Er  Er2  1  0.409794  0.409794  0.500000  1
  Er  Er3  1  0.000000  0.590206  0.500000  1
  In  In4  1  0.000000  0.250543  0.000000  1
  In  In5  1  0.749457  0.749457  0.000000  1
  In  In6  1  0.250543  0.000000  0.000000  1
  Au  Au7  1  0.666667  0.333333  0.000000  1
  Au  Au8  1  0.333333  0.666667  0.000000  1
