# generated using pymatgen
data_Sm2ThAs4Pd7
_symmetry_space_group_name_H-M   'P 1'
_cell_length_a   8.26354891
_cell_length_b   8.26355019
_cell_length_c   9.76460759
_cell_angle_alpha   55.15512270
_cell_angle_beta   55.15511811
_cell_angle_gamma   29.30250592
_symmetry_Int_Tables_number   1
_chemical_formula_structural   Sm2ThAs4Pd7
_chemical_formula_sum   'Sm2 Th1 As4 Pd7'
_cell_volume   263.35441654
_cell_formula_units_Z   1
loop_
 _symmetry_equiv_pos_site_id
 _symmetry_equiv_pos_as_xyz
  1  'x, y, z'
loop_
 _atom_site_type_symbol
 _atom_site_label
 _atom_site_symmetry_multiplicity
 _atom_site_fract_x
 _atom_site_fract_y
 _atom_site_fract_z
 _atom_site_occupancy
  Sm  Sm0  1  0.677199  0.677199  0.329272  1
  Sm  Sm1  1  0.322801  0.322801  0.670728  1
  Th  Th2  1  0.000000  0.000000  0.000000  1
  As  As3  1  0.340367  0.340367  0.252529  1
  As  As4  1  0.659633  0.659633  0.747471  1
  As  As5  1  0.893208  0.893208  0.822511  1
  As  As6  1  0.106792  0.106792  0.177489  1
  Pd  Pd7  1  0.307165  0.307165  0.023821  1
  Pd  Pd8  1  0.692835  0.692835  0.976179  1
  Pd  Pd9  1  0.511600  0.511600  0.709948  1
  Pd  Pd10  1  0.835392  0.835392  0.424684  1
  Pd  Pd11  1  0.488400  0.488400  0.290052  1
  Pd  Pd12  1  0.164608  0.164608  0.575316  1
  Pd  Pd13  1  0.000000  0.000000  0.500000  1
