# generated using pymatgen
data_Zr6Ti3NbAl12Ir7
_symmetry_space_group_name_H-M   'P 1'
_cell_length_a   8.81856361
_cell_length_b   8.81856448
_cell_length_c   8.82036009
_cell_angle_alpha   60.00673648
_cell_angle_beta   60.00673486
_cell_angle_gamma   60.00000230
_symmetry_Int_Tables_number   1
_chemical_formula_structural   Zr6Ti3NbAl12Ir7
_chemical_formula_sum   'Zr6 Ti3 Nb1 Al12 Ir7'
_cell_volume   485.07766688
_cell_formula_units_Z   1
loop_
 _symmetry_equiv_pos_site_id
 _symmetry_equiv_pos_as_xyz
  1  'x, y, z'
loop_
 _atom_site_type_symbol
 _atom_site_label
 _atom_site_symmetry_multiplicity
 _atom_site_fract_x
 _atom_site_fract_y
 _atom_site_fract_z
 _atom_site_occupancy
  Zr  Zr0  1  0.689775  0.689775  0.309583  1
  Zr  Zr1  1  0.310866  0.689775  0.309583  1
  Zr  Zr2  1  0.689775  0.310866  0.309583  1
  Zr  Zr3  1  0.309166  0.309166  0.690253  1
  Zr  Zr4  1  0.691415  0.309166  0.690253  1
  Zr  Zr5  1  0.309166  0.691415  0.690253  1
  Ti  Ti6  1  0.880242  0.360330  0.879188  1
  Ti  Ti7  1  0.360330  0.880242  0.879188  1
  Ti  Ti8  1  0.880242  0.880242  0.879188  1
  Nb  Nb9  1  0.879531  0.879531  0.361409  1
  Al  Al10  1  0.120501  0.120501  0.638497  1
  Al  Al11  1  0.121931  0.638044  0.118095  1
  Al  Al12  1  0.638044  0.121931  0.118095  1
  Al  Al13  1  0.121931  0.121931  0.118095  1
  Al  Al14  1  0.662538  0.662538  0.012384  1
  Al  Al15  1  0.660227  0.014973  0.664572  1
  Al  Al16  1  0.014973  0.660227  0.664572  1
  Al  Al17  1  0.660227  0.660227  0.664572  1
  Al  Al18  1  0.336852  0.336852  0.989446  1
  Al  Al19  1  0.336728  0.989449  0.337097  1
  Al  Al20  1  0.989449  0.336728  0.337097  1
  Al  Al21  1  0.336728  0.336728  0.337097  1
  Ir  Ir22  1  0.000427  0.000427  0.998719  1
  Ir  Ir23  1  0.997891  0.997891  0.502281  1
  Ir  Ir24  1  0.501937  0.997891  0.502281  1
  Ir  Ir25  1  0.997891  0.501937  0.502281  1
  Ir  Ir26  1  0.501649  0.501649  0.998780  1
  Ir  Ir27  1  0.997923  0.501649  0.998780  1
  Ir  Ir28  1  0.501649  0.997923  0.998780  1
