# generated using pymatgen
data_MnZn3Bi4(TeO6)4
_symmetry_space_group_name_H-M   'P 1'
_cell_length_a   5.27632637
_cell_length_b   9.14876137
_cell_length_c   9.90995493
_cell_angle_alpha   89.99331464
_cell_angle_beta   89.97212205
_cell_angle_gamma   90.00740338
_symmetry_Int_Tables_number   1
_chemical_formula_structural   MnZn3Bi4(TeO6)4
_chemical_formula_sum   'Mn1 Zn3 Bi4 Te4 O24'
_cell_volume   478.37180325
_cell_formula_units_Z   1
loop_
 _symmetry_equiv_pos_site_id
 _symmetry_equiv_pos_as_xyz
  1  'x, y, z'
loop_
 _atom_site_type_symbol
 _atom_site_label
 _atom_site_symmetry_multiplicity
 _atom_site_fract_x
 _atom_site_fract_y
 _atom_site_fract_z
 _atom_site_occupancy
  Mn  Mn0  1  0.999985  0.666032  0.250124  1
  Zn  Zn1  1  0.500061  0.832391  0.749984  1
  Zn  Zn2  1  0.499979  0.167788  0.249990  1
  Zn  Zn3  1  0.000033  0.333155  0.749967  1
  Bi  Bi4  1  0.005024  0.003557  0.506667  1
  Bi  Bi5  1  0.493321  0.495672  0.508601  1
  Bi  Bi6  1  0.995003  0.003581  0.993331  1
  Bi  Bi7  1  0.506711  0.495688  0.991378  1
  Te  Te8  1  0.500143  0.164968  0.749987  1
  Te  Te9  1  0.999980  0.667475  0.750004  1
  Te  Te10  1  0.999946  0.335159  0.249998  1
  Te  Te11  1  0.499918  0.832313  0.249917  1
  O  O12  1  0.641441  0.008417  0.639353  1
  O  O13  1  0.138449  0.508654  0.639137  1
  O  O14  1  0.665460  0.314076  0.639574  1
  O  O15  1  0.166995  0.815933  0.638367  1
  O  O16  1  0.193468  0.174918  0.638301  1
  O  O17  1  0.693916  0.675262  0.640013  1
  O  O18  1  0.169531  0.191802  0.136944  1
  O  O19  1  0.688234  0.683199  0.144397  1
  O  O20  1  0.129223  0.504913  0.143701  1
  O  O21  1  0.629803  0.987310  0.137365  1
  O  O22  1  0.695374  0.326292  0.139837  1
  O  O23  1  0.186669  0.810443  0.142487  1
  O  O24  1  0.870695  0.504829  0.356428  1
  O  O25  1  0.370072  0.987311  0.362576  1
  O  O26  1  0.830443  0.191682  0.362998  1
  O  O27  1  0.311555  0.683217  0.355647  1
  O  O28  1  0.304577  0.326204  0.360263  1
  O  O29  1  0.813227  0.810450  0.357520  1
  O  O30  1  0.334698  0.314147  0.860362  1
  O  O31  1  0.833135  0.815934  0.861588  1
  O  O32  1  0.358565  0.008394  0.860701  1
  O  O33  1  0.861603  0.508634  0.860872  1
  O  O34  1  0.806586  0.174940  0.861651  1
  O  O35  1  0.306175  0.675260  0.859971  1
