# generated using pymatgen
data_Ce2MnAs4Pd
_symmetry_space_group_name_H-M   'P 1'
_cell_length_a   4.02591200
_cell_length_b   4.02591200
_cell_length_c   10.05270500
_cell_angle_alpha   90.00000000
_cell_angle_beta   90.00000000
_cell_angle_gamma   90.00000000
_symmetry_Int_Tables_number   1
_chemical_formula_structural   Ce2MnAs4Pd
_chemical_formula_sum   'Ce2 Mn1 As4 Pd1'
_cell_volume   162.93391524
_cell_formula_units_Z   1
loop_
 _symmetry_equiv_pos_site_id
 _symmetry_equiv_pos_as_xyz
  1  'x, y, z'
loop_
 _atom_site_type_symbol
 _atom_site_label
 _atom_site_symmetry_multiplicity
 _atom_site_fract_x
 _atom_site_fract_y
 _atom_site_fract_z
 _atom_site_occupancy
  Ce  Ce0  1  0.500000  0.000000  0.770645  1
  Ce  Ce1  1  0.000000  0.500000  0.229355  1
  Mn  Mn2  1  0.000000  0.000000  0.500000  1
  As  As3  1  0.500000  0.000000  0.332272  1
  As  As4  1  0.000000  0.500000  0.667728  1
  As  As5  1  0.500000  0.500000  0.000000  1
  As  As6  1  0.000000  0.000000  0.000000  1
  Pd  Pd7  1  0.500000  0.500000  0.500000  1
