# generated using pymatgen
data_Sr6CdCo2(PO4)6
_symmetry_space_group_name_H-M   'P 1'
_cell_length_a   10.13116600
_cell_length_b   9.28884179
_cell_length_c   11.97611049
_cell_angle_alpha   81.81517627
_cell_angle_beta   90.00000000
_cell_angle_gamma   90.00000000
_symmetry_Int_Tables_number   1
_chemical_formula_structural   Sr6CdCo2(PO4)6
_chemical_formula_sum   'Sr12 Cd2 Co4 P12 O48'
_cell_volume   1115.55342262
_cell_formula_units_Z   2
loop_
 _symmetry_equiv_pos_site_id
 _symmetry_equiv_pos_as_xyz
  1  'x, y, z'
loop_
 _atom_site_type_symbol
 _atom_site_label
 _atom_site_symmetry_multiplicity
 _atom_site_fract_x
 _atom_site_fract_y
 _atom_site_fract_z
 _atom_site_occupancy
  Sr  Sr0  1  0.645346  0.668340  0.844830  1
  Sr  Sr1  1  0.229916  0.327372  0.810696  1
  Sr  Sr2  1  0.354654  0.331660  0.155170  1
  Sr  Sr3  1  0.854654  0.168340  0.844830  1
  Sr  Sr4  1  0.115075  0.698825  0.504295  1
  Sr  Sr5  1  0.729916  0.172628  0.189304  1
  Sr  Sr6  1  0.270084  0.827372  0.810696  1
  Sr  Sr7  1  0.884925  0.301175  0.495705  1
  Sr  Sr8  1  0.770084  0.672628  0.189304  1
  Sr  Sr9  1  0.615075  0.801175  0.495705  1
  Sr  Sr10  1  0.384925  0.198825  0.504295  1
  Sr  Sr11  1  0.145346  0.831660  0.155170  1
  Cd  Cd12  1  0.500000  0.000000  0.000000  1
  Cd  Cd13  1  0.000000  0.500000  0.000000  1
  Co  Co14  1  0.609164  0.371531  0.675344  1
  Co  Co15  1  0.390836  0.628469  0.324656  1
  Co  Co16  1  0.109164  0.128469  0.324656  1
  Co  Co17  1  0.890836  0.871531  0.675344  1
  P  P18  1  0.397481  0.561636  0.625776  1
  P  P19  1  0.926416  0.801674  0.955214  1
  P  P20  1  0.073584  0.198326  0.044786  1
  P  P21  1  0.573584  0.301674  0.955214  1
  P  P22  1  0.897481  0.938364  0.374224  1
  P  P23  1  0.102519  0.061636  0.625776  1
  P  P24  1  0.426416  0.698326  0.044786  1
  P  P25  1  0.074759  0.509688  0.291903  1
  P  P26  1  0.425241  0.009688  0.291903  1
  P  P27  1  0.574759  0.990312  0.708097  1
  P  P28  1  0.602519  0.438364  0.374224  1
  P  P29  1  0.925241  0.490312  0.708097  1
  O  O30  1  0.311627  0.113335  0.321059  1
  O  O31  1  0.085497  0.124208  0.938210  1
  O  O32  1  0.129287  0.354984  0.289513  1
  O  O33  1  0.865729  0.864530  0.496289  1
  O  O34  1  0.835629  0.660292  0.977270  1
  O  O35  1  0.957224  0.100875  0.655090  1
  O  O36  1  0.570792  0.751584  0.061178  1
  O  O37  1  0.688373  0.886665  0.678941  1
  O  O38  1  0.965828  0.520097  0.380415  1
  O  O39  1  0.585497  0.375792  0.061790  1
  O  O40  1  0.811627  0.386665  0.678941  1
  O  O41  1  0.164371  0.339708  0.022730  1
  O  O42  1  0.875391  0.897857  0.847676  1
  O  O43  1  0.534172  0.020097  0.380415  1
  O  O44  1  0.375391  0.602143  0.152324  1
  O  O45  1  0.929208  0.251584  0.061178  1
  O  O46  1  0.188373  0.613335  0.321059  1
  O  O47  1  0.207103  0.109645  0.706416  1
  O  O48  1  0.034172  0.479903  0.619585  1
  O  O49  1  0.914503  0.875792  0.061790  1
  O  O50  1  0.103234  0.890146  0.639019  1
  O  O51  1  0.465828  0.979903  0.619585  1
  O  O52  1  0.603234  0.609854  0.360981  1
  O  O53  1  0.896766  0.109854  0.360981  1
  O  O54  1  0.429208  0.248416  0.938822  1
  O  O55  1  0.414503  0.624208  0.938210  1
  O  O56  1  0.457224  0.399125  0.344910  1
  O  O57  1  0.624609  0.397857  0.847676  1
  O  O58  1  0.134271  0.135470  0.503711  1
  O  O59  1  0.070792  0.748416  0.938822  1
  O  O60  1  0.042776  0.899125  0.344910  1
  O  O61  1  0.124609  0.102143  0.152324  1
  O  O62  1  0.634271  0.364530  0.496289  1
  O  O63  1  0.365729  0.635470  0.503711  1
  O  O64  1  0.017738  0.577955  0.174558  1
  O  O65  1  0.370713  0.854984  0.289513  1
  O  O66  1  0.707103  0.390355  0.293584  1
  O  O67  1  0.629287  0.145016  0.710487  1
  O  O68  1  0.982262  0.422045  0.825442  1
  O  O69  1  0.542776  0.600875  0.655090  1
  O  O70  1  0.792897  0.890355  0.293584  1
  O  O71  1  0.517738  0.922045  0.825442  1
  O  O72  1  0.335629  0.839708  0.022730  1
  O  O73  1  0.664371  0.160292  0.977270  1
  O  O74  1  0.396766  0.390146  0.639019  1
  O  O75  1  0.482262  0.077955  0.174558  1
  O  O76  1  0.292897  0.609645  0.706416  1
  O  O77  1  0.870713  0.645016  0.710487  1
