# generated using pymatgen
data_La4DyRuRh
_symmetry_space_group_name_H-M   'P 1'
_cell_length_a   9.18232678
_cell_length_b   9.18232770
_cell_length_c   7.28666765
_cell_angle_alpha   84.78430932
_cell_angle_beta   84.78430233
_cell_angle_gamma   42.32528750
_symmetry_Int_Tables_number   1
_chemical_formula_structural   La4DyRuRh
_chemical_formula_sum   'La8 Dy2 Ru2 Rh2'
_cell_volume   411.71333856
_cell_formula_units_Z   2
loop_
 _symmetry_equiv_pos_site_id
 _symmetry_equiv_pos_as_xyz
  1  'x, y, z'
loop_
 _atom_site_type_symbol
 _atom_site_label
 _atom_site_symmetry_multiplicity
 _atom_site_fract_x
 _atom_site_fract_y
 _atom_site_fract_z
 _atom_site_occupancy
  La  La0  1  0.193237  0.988872  0.586062  1
  La  La1  1  0.011128  0.806763  0.913938  1
  La  La2  1  0.213643  0.358847  0.312358  1
  La  La3  1  0.641153  0.786357  0.187642  1
  La  La4  1  0.786758  0.634343  0.682737  1
  La  La5  1  0.365657  0.213242  0.817263  1
  La  La6  1  0.978525  0.203745  0.092731  1
  La  La7  1  0.796255  0.021475  0.407269  1
  Dy  Dy8  1  0.569413  0.430587  0.750000  1
  Dy  Dy9  1  0.430335  0.569665  0.250000  1
  Ru  Ru10  1  0.821204  0.398063  0.422141  1
  Ru  Ru11  1  0.601937  0.178796  0.077859  1
  Rh  Rh12  1  0.187836  0.597081  0.577247  1
  Rh  Rh13  1  0.402919  0.812164  0.922753  1
