# generated using pymatgen
data_Li2Dy6Cd21Si
_symmetry_space_group_name_H-M   'P 1'
_cell_length_a   9.93676833
_cell_length_b   9.93676846
_cell_length_c   9.97993700
_cell_angle_alpha   60.14298677
_cell_angle_beta   60.14298630
_cell_angle_gamma   59.99999714
_symmetry_Int_Tables_number   1
_chemical_formula_structural   Li2Dy6Cd21Si
_chemical_formula_sum   'Li2 Dy6 Cd21 Si1'
_cell_volume   698.29409434
_cell_formula_units_Z   1
loop_
 _symmetry_equiv_pos_site_id
 _symmetry_equiv_pos_as_xyz
  1  'x, y, z'
loop_
 _atom_site_type_symbol
 _atom_site_label
 _atom_site_symmetry_multiplicity
 _atom_site_fract_x
 _atom_site_fract_y
 _atom_site_fract_z
 _atom_site_occupancy
  Li  Li0  1  0.820439  0.820439  0.538681  1
  Li  Li1  1  0.499333  0.499333  0.502002  1
  Dy  Dy2  1  0.797526  0.797526  0.201994  1
  Dy  Dy3  1  0.202953  0.797526  0.201994  1
  Dy  Dy4  1  0.797526  0.202953  0.201994  1
  Dy  Dy5  1  0.203630  0.203630  0.796081  1
  Dy  Dy6  1  0.796659  0.203630  0.796081  1
  Dy  Dy7  1  0.203630  0.796659  0.796081  1
  Cd  Cd8  1  0.837478  0.490887  0.834154  1
  Cd  Cd9  1  0.490887  0.837478  0.834154  1
  Cd  Cd10  1  0.837478  0.837478  0.834154  1
  Cd  Cd11  1  0.166427  0.166427  0.500721  1
  Cd  Cd12  1  0.163543  0.510020  0.162897  1
  Cd  Cd13  1  0.510020  0.163543  0.162897  1
  Cd  Cd14  1  0.163543  0.163543  0.162897  1
  Cd  Cd15  1  0.615682  0.615682  0.152957  1
  Cd  Cd16  1  0.619378  0.146961  0.614284  1
  Cd  Cd17  1  0.146961  0.619378  0.614284  1
  Cd  Cd18  1  0.619378  0.619378  0.614284  1
  Cd  Cd19  1  0.384430  0.384430  0.846706  1
  Cd  Cd20  1  0.383889  0.848417  0.383804  1
  Cd  Cd21  1  0.848417  0.383889  0.383804  1
  Cd  Cd22  1  0.383889  0.383889  0.383804  1
  Cd  Cd23  1  0.996193  0.996193  0.494218  1
  Cd  Cd24  1  0.513396  0.996193  0.494218  1
  Cd  Cd25  1  0.996193  0.513396  0.494218  1
  Cd  Cd26  1  0.500276  0.500276  0.999124  1
  Cd  Cd27  1  0.000322  0.500276  0.999124  1
  Cd  Cd28  1  0.500276  0.000322  0.999124  1
  Si  Si29  1  0.000244  0.000244  0.999268  1
