# generated using pymatgen
data_PrDy15CdHg3Rh4
_symmetry_space_group_name_H-M   'P 1'
_cell_length_a   9.63266667
_cell_length_b   9.63520819
_cell_length_c   9.64380400
_cell_angle_alpha   59.97047748
_cell_angle_beta   59.96173883
_cell_angle_gamma   59.83926031
_symmetry_Int_Tables_number   1
_chemical_formula_structural   PrDy15CdHg3Rh4
_chemical_formula_sum   'Pr1 Dy15 Cd1 Hg3 Rh4'
_cell_volume   631.81295060
_cell_formula_units_Z   1
loop_
 _symmetry_equiv_pos_site_id
 _symmetry_equiv_pos_as_xyz
  1  'x, y, z'
loop_
 _atom_site_type_symbol
 _atom_site_label
 _atom_site_symmetry_multiplicity
 _atom_site_fract_x
 _atom_site_fract_y
 _atom_site_fract_z
 _atom_site_occupancy
  Pr  Pr0  1  0.564738  0.563786  0.935738  1
  Dy  Dy1  1  0.145621  0.555477  0.149452  1
  Dy  Dy2  1  0.689424  0.311195  0.311865  1
  Dy  Dy3  1  0.940087  0.563438  0.560182  1
  Dy  Dy4  1  0.940087  0.563438  0.936293  1
  Dy  Dy5  1  0.689609  0.689793  0.310299  1
  Dy  Dy6  1  0.562405  0.940495  0.936128  1
  Dy  Dy7  1  0.149131  0.148734  0.151595  1
  Dy  Dy8  1  0.310046  0.690324  0.311326  1
  Dy  Dy9  1  0.552377  0.145831  0.150896  1
  Dy  Dy10  1  0.310545  0.311484  0.688985  1
  Dy  Dy11  1  0.310046  0.690324  0.688305  1
  Dy  Dy12  1  0.149131  0.148734  0.550540  1
  Dy  Dy13  1  0.689424  0.311195  0.687516  1
  Dy  Dy14  1  0.936327  0.937246  0.563213  1
  Dy  Dy15  1  0.562405  0.940495  0.560971  1
  Cd  Cd16  1  0.923142  0.238745  0.919056  1
  Hg  Hg17  1  0.913570  0.915669  0.913790  1
  Hg  Hg18  1  0.252871  0.920750  0.913189  1
  Hg  Hg19  1  0.913570  0.915669  0.256970  1
  Rh  Rh20  1  0.355538  0.356223  0.927793  1
  Rh  Rh21  1  0.355538  0.356223  0.360444  1
  Rh  Rh22  1  0.927769  0.357038  0.357596  1
  Rh  Rh23  1  0.356596  0.927694  0.357855  1
