# generated using pymatgen
data_Pr12IrRu3
_symmetry_space_group_name_H-M   'P 1'
_cell_length_a   6.54698948
_cell_length_b   7.48933354
_cell_length_c   9.88799700
_cell_angle_alpha   90.00000000
_cell_angle_beta   90.00000000
_cell_angle_gamma   89.95618334
_symmetry_Int_Tables_number   1
_chemical_formula_structural   Pr12IrRu3
_chemical_formula_sum   'Pr12 Ir1 Ru3'
_cell_volume   484.83394066
_cell_formula_units_Z   1
loop_
 _symmetry_equiv_pos_site_id
 _symmetry_equiv_pos_as_xyz
  1  'x, y, z'
loop_
 _atom_site_type_symbol
 _atom_site_label
 _atom_site_symmetry_multiplicity
 _atom_site_fract_x
 _atom_site_fract_y
 _atom_site_fract_z
 _atom_site_occupancy
  Pr  Pr0  1  0.330757  0.675947  0.067373  1
  Pr  Pr1  1  0.170983  0.178317  0.433736  1
  Pr  Pr2  1  0.671851  0.322628  0.568789  1
  Pr  Pr3  1  0.827348  0.823670  0.931364  1
  Pr  Pr4  1  0.671851  0.322628  0.931211  1
  Pr  Pr5  1  0.827348  0.823670  0.568636  1
  Pr  Pr6  1  0.330757  0.675947  0.432627  1
  Pr  Pr7  1  0.170983  0.178317  0.066264  1
  Pr  Pr8  1  0.853605  0.537061  0.250000  1
  Pr  Pr9  1  0.644348  0.040023  0.250000  1
  Pr  Pr10  1  0.146112  0.461929  0.750000  1
  Pr  Pr11  1  0.352300  0.960897  0.750000  1
  Ir  Ir12  1  0.057786  0.883526  0.250000  1
  Ru  Ru13  1  0.442038  0.383677  0.250000  1
  Ru  Ru14  1  0.946991  0.115357  0.750000  1
  Ru  Ru15  1  0.554941  0.616406  0.750000  1
