# generated using pymatgen
data_Ac5(Sn5Pt2)2
_symmetry_space_group_name_H-M   'P 1'
_cell_length_a   14.62111500
_cell_length_b   14.62111500
_cell_length_c   4.84598900
_cell_angle_alpha   90.00000000
_cell_angle_beta   90.00000000
_cell_angle_gamma   90.00000000
_symmetry_Int_Tables_number   1
_chemical_formula_structural   Ac5(Sn5Pt2)2
_chemical_formula_sum   'Ac10 Sn20 Pt8'
_cell_volume   1035.96100908
_cell_formula_units_Z   2
loop_
 _symmetry_equiv_pos_site_id
 _symmetry_equiv_pos_as_xyz
  1  'x, y, z'
loop_
 _atom_site_type_symbol
 _atom_site_label
 _atom_site_symmetry_multiplicity
 _atom_site_fract_x
 _atom_site_fract_y
 _atom_site_fract_z
 _atom_site_occupancy
  Ac  Ac0  1  0.500000  0.500000  0.000000  1
  Ac  Ac1  1  0.000000  0.000000  0.000000  1
  Ac  Ac2  1  0.681067  0.181067  0.500000  1
  Ac  Ac3  1  0.318933  0.818933  0.500000  1
  Ac  Ac4  1  0.181067  0.318933  0.500000  1
  Ac  Ac5  1  0.818933  0.681067  0.500000  1
  Ac  Ac6  1  0.892045  0.392045  0.500000  1
  Ac  Ac7  1  0.107955  0.607955  0.500000  1
  Ac  Ac8  1  0.392045  0.107955  0.500000  1
  Ac  Ac9  1  0.607955  0.892045  0.500000  1
  Sn  Sn10  1  0.569486  0.069486  0.000000  1
  Sn  Sn11  1  0.430514  0.930514  0.000000  1
  Sn  Sn12  1  0.069486  0.430514  0.000000  1
  Sn  Sn13  1  0.930514  0.569486  0.000000  1
  Sn  Sn14  1  0.649992  0.701491  0.000000  1
  Sn  Sn15  1  0.350008  0.298509  0.000000  1
  Sn  Sn16  1  0.149992  0.798509  0.000000  1
  Sn  Sn17  1  0.850008  0.201491  0.000000  1
  Sn  Sn18  1  0.298509  0.649992  0.000000  1
  Sn  Sn19  1  0.701491  0.350008  0.000000  1
  Sn  Sn20  1  0.201491  0.149992  0.000000  1
  Sn  Sn21  1  0.798509  0.850008  0.000000  1
  Sn  Sn22  1  0.664445  0.496165  0.500000  1
  Sn  Sn23  1  0.335555  0.503835  0.500000  1
  Sn  Sn24  1  0.164445  0.003835  0.500000  1
  Sn  Sn25  1  0.835555  0.996165  0.500000  1
  Sn  Sn26  1  0.503835  0.664445  0.500000  1
  Sn  Sn27  1  0.496165  0.335555  0.500000  1
  Sn  Sn28  1  0.996165  0.164445  0.500000  1
  Sn  Sn29  1  0.003835  0.835555  0.500000  1
  Pt  Pt30  1  0.743237  0.533857  0.000000  1
  Pt  Pt31  1  0.256763  0.466143  0.000000  1
  Pt  Pt32  1  0.243237  0.966143  0.000000  1
  Pt  Pt33  1  0.756763  0.033857  0.000000  1
  Pt  Pt34  1  0.466143  0.743237  0.000000  1
  Pt  Pt35  1  0.533857  0.256763  0.000000  1
  Pt  Pt36  1  0.033857  0.243237  0.000000  1
  Pt  Pt37  1  0.966143  0.756763  0.000000  1
