# generated using pymatgen
data_ErZnCdCuPd2
_symmetry_space_group_name_H-M   'P 1'
_cell_length_a   5.23399501
_cell_length_b   5.53453820
_cell_length_c   5.25997089
_cell_angle_alpha   58.25768226
_cell_angle_beta   58.40017386
_cell_angle_gamma   58.08160158
_symmetry_Int_Tables_number   1
_chemical_formula_structural   ErZnCdCuPd2
_chemical_formula_sum   'Er1 Zn1 Cd1 Cu1 Pd2'
_cell_volume   103.41187048
_cell_formula_units_Z   1
loop_
 _symmetry_equiv_pos_site_id
 _symmetry_equiv_pos_as_xyz
  1  'x, y, z'
loop_
 _atom_site_type_symbol
 _atom_site_label
 _atom_site_symmetry_multiplicity
 _atom_site_fract_x
 _atom_site_fract_y
 _atom_site_fract_z
 _atom_site_occupancy
  Er  Er0  1  0.740819  0.756299  0.746584  1
  Zn  Zn1  1  0.882267  0.370525  0.376683  1
  Cd  Cd2  1  0.990217  0.007245  0.995293  1
  Cu  Cu3  1  0.380428  0.370984  0.877604  1
  Pd  Pd4  1  0.378134  0.871959  0.376918  1
  Pd  Pd5  1  0.378134  0.372989  0.376918  1
