# generated using pymatgen
data_Cs12DyScSe8
_symmetry_space_group_name_H-M   'P 1'
_cell_length_a   11.60183900
_cell_length_b   11.60183985
_cell_length_c   8.79006300
_cell_angle_alpha   90.00000000
_cell_angle_beta   90.00000000
_cell_angle_gamma   120.00000042
_symmetry_Int_Tables_number   1
_chemical_formula_structural   Cs12DyScSe8
_chemical_formula_sum   'Cs12 Dy1 Sc1 Se8'
_cell_volume   1024.65182603
_cell_formula_units_Z   1
loop_
 _symmetry_equiv_pos_site_id
 _symmetry_equiv_pos_as_xyz
  1  'x, y, z'
loop_
 _atom_site_type_symbol
 _atom_site_label
 _atom_site_symmetry_multiplicity
 _atom_site_fract_x
 _atom_site_fract_y
 _atom_site_fract_z
 _atom_site_occupancy
  Cs  Cs0  1  0.134710  0.865290  0.547078  1
  Cs  Cs1  1  0.270657  0.135329  0.045348  1
  Cs  Cs2  1  0.864671  0.729343  0.045348  1
  Cs  Cs3  1  0.134710  0.269420  0.547078  1
  Cs  Cs4  1  0.730580  0.865290  0.547078  1
  Cs  Cs5  1  0.864671  0.135329  0.045348  1
  Cs  Cs6  1  0.532975  0.467025  0.360857  1
  Cs  Cs7  1  0.061523  0.530762  0.859171  1
  Cs  Cs8  1  0.469238  0.938477  0.859171  1
  Cs  Cs9  1  0.532975  0.065951  0.360857  1
  Cs  Cs10  1  0.934049  0.467025  0.360857  1
  Cs  Cs11  1  0.469238  0.530762  0.859171  1
  Dy  Dy12  1  0.333333  0.666667  0.257593  1
  Sc  Sc13  1  0.666667  0.333333  0.757781  1
  Se  Se14  1  0.333333  0.666667  0.569534  1
  Se  Se15  1  0.666667  0.333333  0.054630  1
  Se  Se16  1  0.204442  0.795558  0.154980  1
  Se  Se17  1  0.421884  0.210942  0.659188  1
  Se  Se18  1  0.789058  0.578116  0.659188  1
  Se  Se19  1  0.204442  0.408885  0.154980  1
  Se  Se20  1  0.591115  0.795558  0.154980  1
  Se  Se21  1  0.789058  0.210942  0.659188  1
