# generated using pymatgen
data_Tb3DyGaBr6
_symmetry_space_group_name_H-M   'P 1'
_cell_length_a   4.07322900
_cell_length_b   13.41021499
_cell_length_c   14.18992111
_cell_angle_alpha   89.93751479
_cell_angle_beta   90.00000000
_cell_angle_gamma   90.00000000
_symmetry_Int_Tables_number   1
_chemical_formula_structural   Tb3DyGaBr6
_chemical_formula_sum   'Tb6 Dy2 Ga2 Br12'
_cell_volume   775.09384892
_cell_formula_units_Z   2
loop_
 _symmetry_equiv_pos_site_id
 _symmetry_equiv_pos_as_xyz
  1  'x, y, z'
loop_
 _atom_site_type_symbol
 _atom_site_label
 _atom_site_symmetry_multiplicity
 _atom_site_fract_x
 _atom_site_fract_y
 _atom_site_fract_z
 _atom_site_occupancy
  Tb  Tb0  1  0.500000  0.618806  0.160535  1
  Tb  Tb1  1  0.500000  0.381194  0.839465  1
  Tb  Tb2  1  0.000000  0.121767  0.580598  1
  Tb  Tb3  1  0.000000  0.878233  0.419402  1
  Tb  Tb4  1  0.000000  0.621961  0.919105  1
  Tb  Tb5  1  0.000000  0.378039  0.080895  1
  Dy  Dy6  1  0.500000  0.118643  0.339789  1
  Dy  Dy7  1  0.500000  0.881357  0.660211  1
  Ga  Ga8  1  0.500000  0.000000  0.500000  1
  Ga  Ga9  1  0.500000  0.500000  0.000000  1
  Br  Br10  1  0.500000  0.244442  0.165152  1
  Br  Br11  1  0.500000  0.755558  0.834848  1
  Br  Br12  1  0.500000  0.744999  0.335500  1
  Br  Br13  1  0.500000  0.255001  0.664500  1
  Br  Br14  1  0.000000  0.254005  0.410404  1
  Br  Br15  1  0.000000  0.745995  0.589596  1
  Br  Br16  1  0.000000  0.754506  0.089059  1
  Br  Br17  1  0.000000  0.245494  0.910941  1
  Br  Br18  1  0.000000  0.002853  0.243936  1
  Br  Br19  1  0.000000  0.997147  0.756064  1
  Br  Br20  1  0.000000  0.502095  0.256541  1
  Br  Br21  1  0.000000  0.497905  0.743459  1
