# generated using pymatgen
data_Dy5Co17Si11PW2
_symmetry_space_group_name_H-M   'P 1'
_cell_length_a   12.23502491
_cell_length_b   12.22985913
_cell_length_c   3.73644500
_cell_angle_alpha   90.00000000
_cell_angle_beta   90.00000000
_cell_angle_gamma   119.98602225
_symmetry_Int_Tables_number   1
_chemical_formula_structural   Dy5Co17Si11PW2
_chemical_formula_sum   'Dy5 Co17 Si11 P1 W2'
_cell_volume   484.25787381
_cell_formula_units_Z   1
loop_
 _symmetry_equiv_pos_site_id
 _symmetry_equiv_pos_as_xyz
  1  'x, y, z'
loop_
 _atom_site_type_symbol
 _atom_site_label
 _atom_site_symmetry_multiplicity
 _atom_site_fract_x
 _atom_site_fract_y
 _atom_site_fract_z
 _atom_site_occupancy
  Dy  Dy0  1  0.667808  0.332062  0.000000  1
  Dy  Dy1  1  0.332192  0.664256  0.000000  1
  Dy  Dy2  1  0.183489  0.184022  0.500000  1
  Dy  Dy3  1  0.816511  0.000533  0.500000  1
  Dy  Dy4  1  0.000000  0.813124  0.500000  1
  Co  Co5  1  0.000000  0.440811  0.000000  1
  Co  Co6  1  0.826292  0.199791  0.000000  1
  Co  Co7  1  0.804928  0.622209  0.000000  1
  Co  Co8  1  0.375217  0.180208  0.000000  1
  Co  Co9  1  0.195072  0.817281  0.000000  1
  Co  Co10  1  0.624783  0.804991  0.000000  1
  Co  Co11  1  0.173708  0.373501  0.000000  1
  Co  Co12  1  0.646644  0.126172  0.500000  1
  Co  Co13  1  0.879454  0.519584  0.500000  1
  Co  Co14  1  0.478346  0.357571  0.500000  1
  Co  Co15  1  0.120546  0.640131  0.500000  1
  Co  Co16  1  0.521654  0.879225  0.500000  1
  Co  Co17  1  0.353356  0.479528  0.500000  1
  Co  Co18  1  0.719065  0.717171  0.500000  1
  Co  Co19  1  0.280935  0.998106  0.500000  1
  Co  Co20  1  0.000000  0.279082  0.500000  1
  Co  Co21  1  0.000000  0.006223  0.000000  1
  Si  Si22  1  0.361156  0.364731  0.000000  1
  Si  Si23  1  0.638844  0.003576  0.000000  1
  Si  Si24  1  0.000000  0.627433  0.000000  1
  Si  Si25  1  0.840560  0.316953  0.500000  1
  Si  Si26  1  0.688140  0.519012  0.500000  1
  Si  Si27  1  0.478639  0.168349  0.500000  1
  Si  Si28  1  0.311860  0.830872  0.500000  1
  Si  Si29  1  0.521361  0.689711  0.500000  1
  Si  Si30  1  0.159440  0.476393  0.500000  1
  Si  Si31  1  0.818733  0.817647  0.000000  1
  Si  Si32  1  0.181267  0.998914  0.000000  1
  P  P33  1  0.000000  0.184961  0.000000  1
  W  W34  1  0.565556  0.565712  0.000000  1
  W  W35  1  0.434444  0.000156  0.000000  1
