# generated using pymatgen
data_Yb4Pr5Rh6
_symmetry_space_group_name_H-M   'P 1'
_cell_length_a   7.52512219
_cell_length_b   7.56626328
_cell_length_c   7.56486663
_cell_angle_alpha   70.45637735
_cell_angle_beta   70.54495888
_cell_angle_gamma   70.67444685
_symmetry_Int_Tables_number   1
_chemical_formula_structural   Yb4Pr5Rh6
_chemical_formula_sum   'Yb4 Pr5 Rh6'
_cell_volume   370.86737942
_cell_formula_units_Z   1
loop_
 _symmetry_equiv_pos_site_id
 _symmetry_equiv_pos_as_xyz
  1  'x, y, z'
loop_
 _atom_site_type_symbol
 _atom_site_label
 _atom_site_symmetry_multiplicity
 _atom_site_fract_x
 _atom_site_fract_y
 _atom_site_fract_z
 _atom_site_occupancy
  Yb  Yb0  1  0.000945  0.005071  0.995818  1
  Yb  Yb1  1  0.806687  0.802571  0.801033  1
  Yb  Yb2  1  0.194739  0.192780  0.197141  1
  Yb  Yb3  1  0.151771  0.398314  0.675648  1
  Pr  Pr4  1  0.670307  0.154685  0.397672  1
  Pr  Pr5  1  0.397539  0.672531  0.148969  1
  Pr  Pr6  1  0.853059  0.601980  0.330547  1
  Pr  Pr7  1  0.327638  0.844319  0.603851  1
  Pr  Pr8  1  0.600822  0.325092  0.847018  1
  Rh  Rh9  1  0.955850  0.171293  0.588375  1
  Rh  Rh10  1  0.583903  0.954465  0.172305  1
  Rh  Rh11  1  0.169841  0.575555  0.956348  1
  Rh  Rh12  1  0.044827  0.839589  0.411649  1
  Rh  Rh13  1  0.415008  0.042001  0.827433  1
  Rh  Rh14  1  0.827064  0.419754  0.046192  1
