# generated using pymatgen
data_Tm12Mn2In3
_symmetry_space_group_name_H-M   'P 1'
_cell_length_a   8.35215354
_cell_length_b   8.35216334
_cell_length_c   8.35215284
_cell_angle_alpha   110.08159262
_cell_angle_beta   110.09238888
_cell_angle_gamma   108.24653260
_symmetry_Int_Tables_number   1
_chemical_formula_structural   Tm12Mn2In3
_chemical_formula_sum   'Tm12 Mn2 In3'
_cell_volume   448.35888404
_cell_formula_units_Z   1
loop_
 _symmetry_equiv_pos_site_id
 _symmetry_equiv_pos_as_xyz
  1  'x, y, z'
loop_
 _atom_site_type_symbol
 _atom_site_label
 _atom_site_symmetry_multiplicity
 _atom_site_fract_x
 _atom_site_fract_y
 _atom_site_fract_z
 _atom_site_occupancy
  Tm  Tm0  1  0.304077  0.304041  0.608126  1
  Tm  Tm1  1  0.695923  0.695959  0.391874  1
  Tm  Tm2  1  0.304085  0.695959  0.000036  1
  Tm  Tm3  1  0.695915  0.304041  0.999964  1
  Tm  Tm4  1  0.456810  0.210010  0.246788  1
  Tm  Tm5  1  0.543190  0.789990  0.753212  1
  Tm  Tm6  1  0.963221  0.210010  0.753200  1
  Tm  Tm7  1  0.209999  0.963204  0.753206  1
  Tm  Tm8  1  0.036779  0.789990  0.246800  1
  Tm  Tm9  1  0.790001  0.036796  0.246794  1
  Tm  Tm10  1  0.209998  0.456800  0.246802  1
  Tm  Tm11  1  0.790002  0.543200  0.753198  1
  Mn  Mn12  1  0.392625  0.392628  0.000003  1
  Mn  Mn13  1  0.607375  0.607372  0.999997  1
  In  In14  1  0.000000  0.000000  0.000000  1
  In  In15  1  0.500000  0.000000  0.500000  1
  In  In16  1  0.000000  0.500000  0.500000  1
