# generated using pymatgen
data_Pr12Pt3RhBr12
_symmetry_space_group_name_H-M   'P 1'
_cell_length_a   10.57776058
_cell_length_b   10.57776086
_cell_length_c   10.57776197
_cell_angle_alpha   109.16513186
_cell_angle_beta   109.16514213
_cell_angle_gamma   109.16514256
_symmetry_Int_Tables_number   1
_chemical_formula_structural   Pr12Pt3RhBr12
_chemical_formula_sum   'Pr12 Pt3 Rh1 Br12'
_cell_volume   921.26611645
_cell_formula_units_Z   1
loop_
 _symmetry_equiv_pos_site_id
 _symmetry_equiv_pos_as_xyz
  1  'x, y, z'
loop_
 _atom_site_type_symbol
 _atom_site_label
 _atom_site_symmetry_multiplicity
 _atom_site_fract_x
 _atom_site_fract_y
 _atom_site_fract_z
 _atom_site_occupancy
  Pr  Pr0  1  0.470639  0.482551  0.237023  1
  Pr  Pr1  1  0.750000  0.235963  0.264037  1
  Pr  Pr2  1  0.750000  0.015580  0.484420  1
  Pr  Pr3  1  0.237023  0.470639  0.482551  1
  Pr  Pr4  1  0.264037  0.750000  0.235963  1
  Pr  Pr5  1  0.029361  0.262977  0.017449  1
  Pr  Pr6  1  0.017449  0.029361  0.262977  1
  Pr  Pr7  1  0.484420  0.750000  0.015580  1
  Pr  Pr8  1  0.482551  0.237023  0.470639  1
  Pr  Pr9  1  0.015580  0.484420  0.750000  1
  Pr  Pr10  1  0.262977  0.017449  0.029361  1
  Pr  Pr11  1  0.235963  0.264037  0.750000  1
  Pt  Pt12  1  0.498580  0.001420  0.250000  1
  Pt  Pt13  1  0.001420  0.250000  0.498580  1
  Pt  Pt14  1  0.250000  0.498580  0.001420  1
  Rh  Rh15  1  0.250000  0.250000  0.250000  1
  Br  Br16  1  0.250000  0.753408  0.746592  1
  Br  Br17  1  0.507787  0.504904  0.754557  1
  Br  Br18  1  0.992213  0.745443  0.995096  1
  Br  Br19  1  0.746592  0.250000  0.753408  1
  Br  Br20  1  0.995096  0.992213  0.745443  1
  Br  Br21  1  0.250000  0.995137  0.504863  1
  Br  Br22  1  0.754557  0.507787  0.504904  1
  Br  Br23  1  0.504863  0.250000  0.995137  1
  Br  Br24  1  0.753408  0.746592  0.250000  1
  Br  Br25  1  0.745443  0.995096  0.992213  1
  Br  Br26  1  0.995137  0.504863  0.250000  1
  Br  Br27  1  0.504904  0.754557  0.507787  1
