# generated using pymatgen
data_Ce2YIn3CuIr2
_symmetry_space_group_name_H-M   'P 1'
_cell_length_a   7.52318700
_cell_length_b   7.65344108
_cell_length_c   3.89865300
_cell_angle_alpha   90.00000000
_cell_angle_beta   90.00000000
_cell_angle_gamma   119.43859857
_symmetry_Int_Tables_number   1
_chemical_formula_structural   Ce2YIn3CuIr2
_chemical_formula_sum   'Ce2 Y1 In3 Cu1 Ir2'
_cell_volume   195.49378186
_cell_formula_units_Z   1
loop_
 _symmetry_equiv_pos_site_id
 _symmetry_equiv_pos_as_xyz
  1  'x, y, z'
loop_
 _atom_site_type_symbol
 _atom_site_label
 _atom_site_symmetry_multiplicity
 _atom_site_fract_x
 _atom_site_fract_y
 _atom_site_fract_z
 _atom_site_occupancy
  Ce  Ce0  1  0.000232  0.580719  0.500000  1
  Ce  Ce1  1  0.419512  0.419281  0.500000  1
  Y  Y2  1  0.588134  0.000000  0.500000  1
  In  In3  1  0.992285  0.241068  0.000000  1
  In  In4  1  0.257494  0.000000  0.000000  1
  In  In5  1  0.751217  0.758932  0.000000  1
  Cu  Cu6  1  0.005369  0.000000  0.500000  1
  Ir  Ir7  1  0.316546  0.647337  0.000000  1
  Ir  Ir8  1  0.669209  0.352663  0.000000  1
