# generated using pymatgen
data_ZnCd6Pd12Au5
_symmetry_space_group_name_H-M   'P 1'
_cell_length_a   4.27811600
_cell_length_b   7.34656100
_cell_length_c   12.96944600
_cell_angle_alpha   90.00000000
_cell_angle_beta   90.00008403
_cell_angle_gamma   90.00000000
_symmetry_Int_Tables_number   1
_chemical_formula_structural   ZnCd6Pd12Au5
_chemical_formula_sum   'Zn1 Cd6 Pd12 Au5'
_cell_volume   407.62242704
_cell_formula_units_Z   1
loop_
 _symmetry_equiv_pos_site_id
 _symmetry_equiv_pos_as_xyz
  1  'x, y, z'
loop_
 _atom_site_type_symbol
 _atom_site_label
 _atom_site_symmetry_multiplicity
 _atom_site_fract_x
 _atom_site_fract_y
 _atom_site_fract_z
 _atom_site_occupancy
  Zn  Zn0  1  0.000000  0.500000  0.000000  1
  Cd  Cd1  1  0.000000  0.000000  0.000000  1
  Cd  Cd2  1  0.499990  0.500000  0.171605  1
  Cd  Cd3  1  0.999996  0.000000  0.329488  1
  Cd  Cd4  1  0.500001  0.500000  0.500000  1
  Cd  Cd5  1  0.000004  0.000000  0.670512  1
  Cd  Cd6  1  0.500010  0.500000  0.828396  1
  Pd  Pd7  1  0.500000  0.268730  0.000000  1
  Pd  Pd8  1  0.500000  0.731270  0.000000  1
  Pd  Pd9  1  0.999992  0.256728  0.160010  1
  Pd  Pd10  1  0.999992  0.743272  0.160010  1
  Pd  Pd11  1  0.499994  0.247346  0.332990  1
  Pd  Pd12  1  0.499994  0.752653  0.332990  1
  Pd  Pd13  1  0.000000  0.249424  0.500000  1
  Pd  Pd14  1  0.000000  0.750576  0.500000  1
  Pd  Pd15  1  0.500005  0.247346  0.667010  1
  Pd  Pd16  1  0.500005  0.752653  0.667010  1
  Pd  Pd17  1  0.000008  0.256728  0.839990  1
  Pd  Pd18  1  0.000008  0.743272  0.839990  1
  Au  Au19  1  0.499993  0.000000  0.162682  1
  Au  Au20  1  0.999996  0.500000  0.332533  1
  Au  Au21  1  0.500001  0.000000  0.500000  1
  Au  Au22  1  0.000004  0.500000  0.667466  1
  Au  Au23  1  0.500007  0.000000  0.837318  1
