# generated using pymatgen
data_Dy5ErH18
_symmetry_space_group_name_H-M   'P 1'
_cell_length_a   6.31457501
_cell_length_b   6.31524992
_cell_length_c   6.57385202
_cell_angle_alpha   90.01205475
_cell_angle_beta   89.99394128
_cell_angle_gamma   120.00362608
_symmetry_Int_Tables_number   1
_chemical_formula_structural   Dy5ErH18
_chemical_formula_sum   'Dy5 Er1 H18'
_cell_volume   227.02273180
_cell_formula_units_Z   1
loop_
 _symmetry_equiv_pos_site_id
 _symmetry_equiv_pos_as_xyz
  1  'x, y, z'
loop_
 _atom_site_type_symbol
 _atom_site_label
 _atom_site_symmetry_multiplicity
 _atom_site_fract_x
 _atom_site_fract_y
 _atom_site_fract_z
 _atom_site_occupancy
  Dy  Dy0  1  0.670084  0.669955  0.750198  1
  Dy  Dy1  1  0.329912  0.999866  0.750198  1
  Dy  Dy2  1  0.999999  0.330145  0.750277  1
  Dy  Dy3  1  0.329948  0.329977  0.250238  1
  Dy  Dy4  1  0.670052  0.000029  0.250241  1
  Er  Er5  1  0.000007  0.670080  0.250122  1
  H  H6  1  0.305034  0.305032  0.592224  1
  H  H7  1  0.694966  0.999998  0.592223  1
  H  H8  1  0.000000  0.694691  0.591058  1
  H  H9  1  0.695569  0.695013  0.092649  1
  H  H10  1  0.304429  0.999444  0.092649  1
  H  H11  1  0.000000  0.304836  0.092163  1
  H  H12  1  0.355532  0.355536  0.907592  1
  H  H13  1  0.644468  0.000005  0.907592  1
  H  H14  1  0.000001  0.644648  0.908711  1
  H  H15  1  0.644680  0.644496  0.407462  1
  H  H16  1  0.355320  0.999816  0.407463  1
  H  H17  1  0.000000  0.356335  0.406963  1
  H  H18  1  0.999999  0.000036  0.819983  1
  H  H19  1  0.000000  0.998518  0.319762  1
  H  H20  1  0.333368  0.666664  0.703956  1
  H  H21  1  0.666633  0.333295  0.703955  1
  H  H22  1  0.668314  0.334950  0.204167  1
  H  H23  1  0.331685  0.666635  0.204167  1
