# generated using pymatgen
data_Ba3TcI2O5
_symmetry_space_group_name_H-M   'P 1'
_cell_length_a   8.40207751
_cell_length_b   8.40207659
_cell_length_c   11.82479800
_cell_angle_alpha   90.00000000
_cell_angle_beta   90.00000000
_cell_angle_gamma   138.00246370
_symmetry_Int_Tables_number   1
_chemical_formula_structural   Ba3TcI2O5
_chemical_formula_sum   'Ba6 Tc2 I4 O10'
_cell_volume   558.54376015
_cell_formula_units_Z   2
loop_
 _symmetry_equiv_pos_site_id
 _symmetry_equiv_pos_as_xyz
  1  'x, y, z'
loop_
 _atom_site_type_symbol
 _atom_site_label
 _atom_site_symmetry_multiplicity
 _atom_site_fract_x
 _atom_site_fract_y
 _atom_site_fract_z
 _atom_site_occupancy
  Ba  Ba0  1  0.337681  0.662319  0.963355  1
  Ba  Ba1  1  0.662319  0.337681  0.463355  1
  Ba  Ba2  1  0.337681  0.662319  0.536645  1
  Ba  Ba3  1  0.124823  0.875177  0.750000  1
  Ba  Ba4  1  0.662319  0.337681  0.036645  1
  Ba  Ba5  1  0.875177  0.124823  0.250000  1
  Tc  Tc6  1  0.237418  0.762582  0.250000  1
  Tc  Tc7  1  0.762582  0.237418  0.750000  1
  I  I8  1  0.504371  0.495629  0.750000  1
  I  I9  1  0.000000  0.000000  0.000000  1
  I  I10  1  0.000000  0.000000  0.500000  1
  I  I11  1  0.495629  0.504371  0.250000  1
  O  O12  1  0.490623  0.945751  0.138337  1
  O  O13  1  0.871303  0.128697  0.750000  1
  O  O14  1  0.945751  0.490623  0.638337  1
  O  O15  1  0.509377  0.054249  0.861663  1
  O  O16  1  0.128697  0.871303  0.250000  1
  O  O17  1  0.509377  0.054249  0.638337  1
  O  O18  1  0.945751  0.490623  0.861663  1
  O  O19  1  0.054249  0.509377  0.138337  1
  O  O20  1  0.490623  0.945751  0.361663  1
  O  O21  1  0.054249  0.509377  0.361663  1
