# generated using pymatgen
data_Zr10CuSnBi5As
_symmetry_space_group_name_H-M   'P 1'
_cell_length_a   8.80052399
_cell_length_b   8.82277665
_cell_length_c   5.95261767
_cell_angle_alpha   90.02709256
_cell_angle_beta   89.94567786
_cell_angle_gamma   119.91659811
_symmetry_Int_Tables_number   1
_chemical_formula_structural   Zr10CuSnBi5As
_chemical_formula_sum   'Zr10 Cu1 Sn1 Bi5 As1'
_cell_volume   400.60523066
_cell_formula_units_Z   1
loop_
 _symmetry_equiv_pos_site_id
 _symmetry_equiv_pos_as_xyz
  1  'x, y, z'
loop_
 _atom_site_type_symbol
 _atom_site_label
 _atom_site_symmetry_multiplicity
 _atom_site_fract_x
 _atom_site_fract_y
 _atom_site_fract_z
 _atom_site_occupancy
  Zr  Zr0  1  0.737054  0.000000  0.248698  1
  Zr  Zr1  1  0.005527  0.743641  0.248191  1
  Zr  Zr2  1  0.261886  0.256359  0.248191  1
  Zr  Zr3  1  0.260286  0.000000  0.752307  1
  Zr  Zr4  1  0.999294  0.258816  0.751449  1
  Zr  Zr5  1  0.740478  0.741184  0.751449  1
  Zr  Zr6  1  0.334138  0.670331  0.498410  1
  Zr  Zr7  1  0.663808  0.329669  0.498410  1
  Zr  Zr8  1  0.664145  0.329920  0.001318  1
  Zr  Zr9  1  0.334225  0.670080  0.001318  1
  Cu  Cu10  1  0.999759  0.000000  0.000557  1
  Sn  Sn11  1  0.390519  0.000000  0.246941  1
  Bi  Bi12  1  0.001026  0.390064  0.247230  1
  Bi  Bi13  1  0.610962  0.609936  0.247230  1
  Bi  Bi14  1  0.608027  0.000000  0.753908  1
  Bi  Bi15  1  0.998967  0.608720  0.752550  1
  Bi  Bi16  1  0.390247  0.391280  0.752550  1
  As  As17  1  0.999651  0.000000  0.499293  1
