# generated using pymatgen
data_Dy10Y2Co4SnPd
_symmetry_space_group_name_H-M   'P 1'
_cell_length_a   8.30871194
_cell_length_b   8.30871223
_cell_length_c   8.30871200
_cell_angle_alpha   107.22346161
_cell_angle_beta   110.56930588
_cell_angle_gamma   110.64401795
_symmetry_Int_Tables_number   1
_chemical_formula_structural   Dy10Y2Co4SnPd
_chemical_formula_sum   'Dy10 Y2 Co4 Sn1 Pd1'
_cell_volume   441.04195251
_cell_formula_units_Z   1
loop_
 _symmetry_equiv_pos_site_id
 _symmetry_equiv_pos_as_xyz
  1  'x, y, z'
loop_
 _atom_site_type_symbol
 _atom_site_label
 _atom_site_symmetry_multiplicity
 _atom_site_fract_x
 _atom_site_fract_y
 _atom_site_fract_z
 _atom_site_occupancy
  Dy  Dy0  1  0.892614  0.705148  0.187468  1
  Dy  Dy1  1  0.517681  0.705148  0.812532  1
  Dy  Dy2  1  0.305497  0.619809  0.314312  1
  Dy  Dy3  1  0.305497  0.991185  0.685688  1
  Dy  Dy4  1  0.694753  0.381254  0.686501  1
  Dy  Dy5  1  0.694753  0.008252  0.313499  1
  Dy  Dy6  1  0.199539  0.212200  0.411719  1
  Dy  Dy7  1  0.800480  0.787820  0.588281  1
  Dy  Dy8  1  0.199539  0.787820  0.987339  1
  Dy  Dy9  1  0.800480  0.212200  0.012661  1
  Y  Y10  1  0.483440  0.294866  0.188574  1
  Y  Y11  1  0.106293  0.294866  0.811426  1
  Co  Co12  1  0.500971  0.613467  0.112496  1
  Co  Co13  1  0.500971  0.388475  0.887504  1
  Co  Co14  1  0.378745  0.000451  0.378293  1
  Co  Co15  1  0.622159  0.000451  0.621707  1
  Sn  Sn16  1  0.999718  0.499718  0.500000  1
  Pd  Pd17  1  0.996871  0.996871  0.000000  1
