# generated using pymatgen
data_Er3Lu(ScAu)4
_symmetry_space_group_name_H-M   'P 1'
_cell_length_a   4.73405100
_cell_length_b   6.94342358
_cell_length_c   8.53933620
_cell_angle_alpha   89.77588651
_cell_angle_beta   90.00000000
_cell_angle_gamma   90.00000000
_symmetry_Int_Tables_number   1
_chemical_formula_structural   Er3Lu(ScAu)4
_chemical_formula_sum   'Er3 Lu1 Sc4 Au4'
_cell_volume   280.69028585
_cell_formula_units_Z   1
loop_
 _symmetry_equiv_pos_site_id
 _symmetry_equiv_pos_as_xyz
  1  'x, y, z'
loop_
 _atom_site_type_symbol
 _atom_site_label
 _atom_site_symmetry_multiplicity
 _atom_site_fract_x
 _atom_site_fract_y
 _atom_site_fract_z
 _atom_site_occupancy
  Er  Er0  1  0.250000  0.981591  0.319971  1
  Er  Er1  1  0.750000  0.518159  0.820935  1
  Er  Er2  1  0.750000  0.018647  0.679432  1
  Lu  Lu3  1  0.250000  0.481561  0.179315  1
  Sc  Sc4  1  0.250000  0.853644  0.924434  1
  Sc  Sc5  1  0.250000  0.354017  0.575438  1
  Sc  Sc6  1  0.750000  0.146501  0.076428  1
  Sc  Sc7  1  0.750000  0.645863  0.422901  1
  Au  Au8  1  0.250000  0.248983  0.897615  1
  Au  Au9  1  0.250000  0.748161  0.603735  1
  Au  Au10  1  0.750000  0.750437  0.104164  1
  Au  Au11  1  0.750000  0.252436  0.395633  1
