# generated using pymatgen
data_K5Mo4H27
_symmetry_space_group_name_H-M   'P 1'
_cell_length_a   9.52394000
_cell_length_b   9.09699259
_cell_length_c   5.23268800
_cell_angle_alpha   90.00000000
_cell_angle_beta   90.00000000
_cell_angle_gamma   118.52784885
_symmetry_Int_Tables_number   1
_chemical_formula_structural   K5Mo4H27
_chemical_formula_sum   'K5 Mo4 H27'
_cell_volume   398.31178681
_cell_formula_units_Z   1
loop_
 _symmetry_equiv_pos_site_id
 _symmetry_equiv_pos_as_xyz
  1  'x, y, z'
loop_
 _atom_site_type_symbol
 _atom_site_label
 _atom_site_symmetry_multiplicity
 _atom_site_fract_x
 _atom_site_fract_y
 _atom_site_fract_z
 _atom_site_occupancy
  K  K0  1  0.734683  0.764556  0.500000  1
  K  K1  1  0.265317  0.029874  0.500000  1
  K  K2  1  0.000000  0.643583  0.000000  1
  K  K3  1  0.425551  0.385892  0.000000  1
  K  K4  1  0.574449  0.960341  0.000000  1
  Mo  Mo5  1  0.000000  0.286606  0.500000  1
  Mo  Mo6  1  0.728430  0.331023  0.500000  1
  Mo  Mo7  1  0.271570  0.602594  0.500000  1
  Mo  Mo8  1  0.000000  0.052433  0.000000  1
  H  H9  1  0.893815  0.343967  0.728246  1
  H  H10  1  0.711247  0.414279  0.781737  1
  H  H11  1  0.572404  0.192374  0.691346  1
  H  H12  1  0.106185  0.450153  0.271754  1
  H  H13  1  0.572404  0.192374  0.308654  1
  H  H14  1  0.893815  0.343967  0.271754  1
  H  H15  1  0.711247  0.414279  0.218263  1
  H  H16  1  0.288753  0.703033  0.781737  1
  H  H17  1  0.427596  0.619971  0.691346  1
  H  H18  1  0.186743  0.058313  0.000000  1
  H  H19  1  0.813257  0.871570  0.000000  1
  H  H20  1  0.000000  0.237528  0.000000  1
  H  H21  1  0.881035  0.068061  0.255755  1
  H  H22  1  0.118965  0.187027  0.744245  1
  H  H23  1  0.000000  0.912758  0.765509  1
  H  H24  1  0.000000  0.912758  0.234491  1
  H  H25  1  0.118965  0.187027  0.255755  1
  H  H26  1  0.881035  0.068061  0.744245  1
  H  H27  1  0.168988  0.715364  0.500000  1
  H  H28  1  0.423271  0.811117  0.500000  1
  H  H29  1  0.229259  0.380499  0.500000  1
  H  H30  1  0.576729  0.387847  0.500000  1
  H  H31  1  0.831012  0.546375  0.500000  1
  H  H32  1  0.770741  0.151240  0.500000  1
  H  H33  1  0.106185  0.450153  0.728246  1
  H  H34  1  0.288753  0.703033  0.218263  1
  H  H35  1  0.427596  0.619971  0.308654  1
