# generated using pymatgen
data_Y9Ho11Cd6RuRh
_symmetry_space_group_name_H-M   'P 1'
_cell_length_a   9.63381400
_cell_length_b   9.63381343
_cell_length_c   9.79092500
_cell_angle_alpha   90.00000000
_cell_angle_beta   90.00000000
_cell_angle_gamma   120.00000196
_symmetry_Int_Tables_number   1
_chemical_formula_structural   Y9Ho11Cd6RuRh
_chemical_formula_sum   'Y9 Ho11 Cd6 Ru1 Rh1'
_cell_volume   786.95669681
_cell_formula_units_Z   1
loop_
 _symmetry_equiv_pos_site_id
 _symmetry_equiv_pos_as_xyz
  1  'x, y, z'
loop_
 _atom_site_type_symbol
 _atom_site_label
 _atom_site_symmetry_multiplicity
 _atom_site_fract_x
 _atom_site_fract_y
 _atom_site_fract_z
 _atom_site_occupancy
  Y  Y0  1  0.208777  0.791223  0.059569  1
  Y  Y1  1  0.208777  0.417553  0.059569  1
  Y  Y2  1  0.582447  0.791223  0.059569  1
  Y  Y3  1  0.542138  0.457862  0.250295  1
  Y  Y4  1  0.542138  0.084277  0.250295  1
  Y  Y5  1  0.915723  0.457862  0.250295  1
  Y  Y6  1  0.459058  0.540942  0.749589  1
  Y  Y7  1  0.459058  0.918117  0.749589  1
  Y  Y8  1  0.081883  0.540942  0.749589  1
  Ho  Ho9  1  0.000000  0.000000  0.499827  1
  Ho  Ho10  1  0.000000  0.000000  0.999892  1
  Ho  Ho11  1  0.209355  0.790645  0.440123  1
  Ho  Ho12  1  0.209355  0.418711  0.440123  1
  Ho  Ho13  1  0.581289  0.790645  0.440123  1
  Ho  Ho14  1  0.790164  0.209836  0.560511  1
  Ho  Ho15  1  0.790164  0.580326  0.560511  1
  Ho  Ho16  1  0.419674  0.209836  0.560511  1
  Ho  Ho17  1  0.790085  0.209915  0.939423  1
  Ho  Ho18  1  0.790085  0.580168  0.939423  1
  Ho  Ho19  1  0.419832  0.209915  0.939423  1
  Cd  Cd20  1  0.885222  0.114778  0.249993  1
  Cd  Cd21  1  0.885222  0.770447  0.249993  1
  Cd  Cd22  1  0.229553  0.114778  0.249993  1
  Cd  Cd23  1  0.114624  0.885376  0.749993  1
  Cd  Cd24  1  0.114624  0.229245  0.749993  1
  Cd  Cd25  1  0.770755  0.885376  0.749993  1
  Ru  Ru26  1  0.666667  0.333333  0.749801  1
  Rh  Rh27  1  0.333333  0.666667  0.251986  1
