# generated using pymatgen
data_La6RuCl11
_symmetry_space_group_name_H-M   'P 1'
_cell_length_a   8.39948057
_cell_length_b   8.39948008
_cell_length_c   7.49774181
_cell_angle_alpha   86.74165020
_cell_angle_beta   86.74165170
_cell_angle_gamma   101.77291239
_symmetry_Int_Tables_number   1
_chemical_formula_structural   La6RuCl11
_chemical_formula_sum   'La6 Ru1 Cl11'
_cell_volume   515.74159051
_cell_formula_units_Z   1
loop_
 _symmetry_equiv_pos_site_id
 _symmetry_equiv_pos_as_xyz
  1  'x, y, z'
loop_
 _atom_site_type_symbol
 _atom_site_label
 _atom_site_symmetry_multiplicity
 _atom_site_fract_x
 _atom_site_fract_y
 _atom_site_fract_z
 _atom_site_occupancy
  La  La0  1  0.708150  0.016634  0.770960  1
  La  La1  1  0.192666  0.192666  0.762335  1
  La  La2  1  0.983366  0.291850  0.229040  1
  La  La3  1  0.016634  0.708150  0.770960  1
  La  La4  1  0.807334  0.807334  0.237665  1
  La  La5  1  0.291850  0.983366  0.229040  1
  Ru  Ru6  1  0.000000  0.000000  0.000000  1
  Cl  Cl7  1  0.000000  0.000000  0.500000  1
  Cl  Cl8  1  0.661036  0.092980  0.363099  1
  Cl  Cl9  1  0.490750  0.202171  0.943199  1
  Cl  Cl10  1  0.305344  0.305344  0.364870  1
  Cl  Cl11  1  0.907020  0.338964  0.636901  1
  Cl  Cl12  1  0.202171  0.490750  0.943199  1
  Cl  Cl13  1  0.797829  0.509250  0.056801  1
  Cl  Cl14  1  0.092980  0.661036  0.363099  1
  Cl  Cl15  1  0.694656  0.694656  0.635130  1
  Cl  Cl16  1  0.509250  0.797829  0.056801  1
  Cl  Cl17  1  0.338964  0.907020  0.636901  1
