# generated using pymatgen
data_Yb4FeOs4Ru3
_symmetry_space_group_name_H-M   'P 1'
_cell_length_a   5.17144400
_cell_length_b   5.24620457
_cell_length_c   8.78666900
_cell_angle_alpha   90.00000000
_cell_angle_beta   90.00000000
_cell_angle_gamma   119.22228280
_symmetry_Int_Tables_number   1
_chemical_formula_structural   Yb4FeOs4Ru3
_chemical_formula_sum   'Yb4 Fe1 Os4 Ru3'
_cell_volume   208.04742884
_cell_formula_units_Z   1
loop_
 _symmetry_equiv_pos_site_id
 _symmetry_equiv_pos_as_xyz
  1  'x, y, z'
loop_
 _atom_site_type_symbol
 _atom_site_label
 _atom_site_symmetry_multiplicity
 _atom_site_fract_x
 _atom_site_fract_y
 _atom_site_fract_z
 _atom_site_occupancy
  Yb  Yb0  1  0.663349  0.331683  0.564771  1
  Yb  Yb1  1  0.332267  0.665436  0.436160  1
  Yb  Yb2  1  0.332267  0.665436  0.063840  1
  Yb  Yb3  1  0.663349  0.331683  0.935229  1
  Fe  Fe4  1  0.343735  0.171966  0.250000  1
  Os  Os5  1  0.181150  0.833979  0.750000  1
  Os  Os6  1  0.674184  0.842003  0.750000  1
  Os  Os7  1  0.831297  0.653304  0.250000  1
  Os  Os8  1  0.831310  0.180413  0.250000  1
  Ru  Ru9  1  0.986498  0.986940  0.491525  1
  Ru  Ru10  1  0.986498  0.986940  0.008475  1
  Ru  Ru11  1  0.174096  0.350219  0.750000  1
