# generated using pymatgen
data_Ti12Sn3Ir
_symmetry_space_group_name_H-M   'P 1'
_cell_length_a   5.17541500
_cell_length_b   5.15936500
_cell_length_c   10.32407300
_cell_angle_alpha   90.00000000
_cell_angle_beta   90.00000000
_cell_angle_gamma   90.00000000
_symmetry_Int_Tables_number   1
_chemical_formula_structural   Ti12Sn3Ir
_chemical_formula_sum   'Ti12 Sn3 Ir1'
_cell_volume   275.67190037
_cell_formula_units_Z   1
loop_
 _symmetry_equiv_pos_site_id
 _symmetry_equiv_pos_as_xyz
  1  'x, y, z'
loop_
 _atom_site_type_symbol
 _atom_site_label
 _atom_site_symmetry_multiplicity
 _atom_site_fract_x
 _atom_site_fract_y
 _atom_site_fract_z
 _atom_site_occupancy
  Ti  Ti0  1  0.500000  0.000000  0.380690  1
  Ti  Ti1  1  0.500000  0.000000  0.874573  1
  Ti  Ti2  1  0.748998  0.500000  0.000000  1
  Ti  Ti3  1  0.759581  0.500000  0.500000  1
  Ti  Ti4  1  0.000000  0.756374  0.263314  1
  Ti  Ti5  1  0.000000  0.756374  0.736686  1
  Ti  Ti6  1  0.500000  0.000000  0.125427  1
  Ti  Ti7  1  0.500000  0.000000  0.619310  1
  Ti  Ti8  1  0.251002  0.500000  0.000000  1
  Ti  Ti9  1  0.240419  0.500000  0.500000  1
  Ti  Ti10  1  0.000000  0.243626  0.263314  1
  Ti  Ti11  1  0.000000  0.243626  0.736686  1
  Sn  Sn12  1  0.500000  0.500000  0.251312  1
  Sn  Sn13  1  0.500000  0.500000  0.748688  1
  Sn  Sn14  1  0.000000  0.000000  0.000000  1
  Ir  Ir15  1  0.000000  0.000000  0.500000  1
