# generated using pymatgen
data_Sm2Si6SnRh12
_symmetry_space_group_name_H-M   'P 1'
_cell_length_a   9.94409300
_cell_length_b   9.94409485
_cell_length_c   3.86479400
_cell_angle_alpha   90.00000000
_cell_angle_beta   90.00000000
_cell_angle_gamma   119.99999718
_symmetry_Int_Tables_number   1
_chemical_formula_structural   Sm2Si6SnRh12
_chemical_formula_sum   'Sm2 Si6 Sn1 Rh12'
_cell_volume   330.96908519
_cell_formula_units_Z   1
loop_
 _symmetry_equiv_pos_site_id
 _symmetry_equiv_pos_as_xyz
  1  'x, y, z'
loop_
 _atom_site_type_symbol
 _atom_site_label
 _atom_site_symmetry_multiplicity
 _atom_site_fract_x
 _atom_site_fract_y
 _atom_site_fract_z
 _atom_site_occupancy
  Sm  Sm0  1  0.333333  0.666667  0.248317  1
  Sm  Sm1  1  0.666667  0.333333  0.751683  1
  Si  Si2  1  0.400406  0.107766  0.253068  1
  Si  Si3  1  0.707360  0.599594  0.253068  1
  Si  Si4  1  0.892234  0.292640  0.253068  1
  Si  Si5  1  0.599594  0.892234  0.746932  1
  Si  Si6  1  0.292640  0.400406  0.746932  1
  Si  Si7  1  0.107766  0.707360  0.746932  1
  Sn  Sn8  1  0.000000  0.000000  0.500000  1
  Rh  Rh9  1  0.446784  0.382655  0.249747  1
  Rh  Rh10  1  0.935870  0.553216  0.249747  1
  Rh  Rh11  1  0.617345  0.064130  0.249747  1
  Rh  Rh12  1  0.553216  0.617345  0.750253  1
  Rh  Rh13  1  0.064130  0.446784  0.750253  1
  Rh  Rh14  1  0.382655  0.935870  0.750253  1
  Rh  Rh15  1  0.151420  0.871382  0.245099  1
  Rh  Rh16  1  0.719962  0.848580  0.245099  1
  Rh  Rh17  1  0.128618  0.280038  0.245099  1
  Rh  Rh18  1  0.848580  0.128618  0.754901  1
  Rh  Rh19  1  0.280038  0.151420  0.754901  1
  Rh  Rh20  1  0.871382  0.719962  0.754901  1
