# generated using pymatgen
data_Ba2CuTcN4
_symmetry_space_group_name_H-M   'P 1'
_cell_length_a   5.97807800
_cell_length_b   6.59070575
_cell_length_c   7.71968157
_cell_angle_alpha   68.86276860
_cell_angle_beta   90.00000000
_cell_angle_gamma   90.00000000
_symmetry_Int_Tables_number   1
_chemical_formula_structural   Ba2CuTcN4
_chemical_formula_sum   'Ba4 Cu2 Tc2 N8'
_cell_volume   283.68991696
_cell_formula_units_Z   2
loop_
 _symmetry_equiv_pos_site_id
 _symmetry_equiv_pos_as_xyz
  1  'x, y, z'
loop_
 _atom_site_type_symbol
 _atom_site_label
 _atom_site_symmetry_multiplicity
 _atom_site_fract_x
 _atom_site_fract_y
 _atom_site_fract_z
 _atom_site_occupancy
  Ba  Ba0  1  0.250000  0.264777  0.053796  1
  Ba  Ba1  1  0.750000  0.735223  0.946204  1
  Ba  Ba2  1  0.750000  0.825946  0.414277  1
  Ba  Ba3  1  0.250000  0.174054  0.585723  1
  Cu  Cu4  1  0.750000  0.352936  0.390552  1
  Cu  Cu5  1  0.250000  0.647064  0.609448  1
  Tc  Tc6  1  0.250000  0.702043  0.216398  1
  Tc  Tc7  1  0.750000  0.297957  0.783602  1
  N  N8  1  0.503300  0.473335  0.735802  1
  N  N9  1  0.003300  0.526665  0.264198  1
  N  N10  1  0.496700  0.526665  0.264198  1
  N  N11  1  0.996700  0.473335  0.735802  1
  N  N12  1  0.750000  0.121590  0.634920  1
  N  N13  1  0.250000  0.878410  0.365080  1
  N  N14  1  0.750000  0.124895  0.025273  1
  N  N15  1  0.250000  0.875105  0.974727  1
