# generated using pymatgen
data_Pr8Si12Ir3Pt
_symmetry_space_group_name_H-M   'P 1'
_cell_length_a   8.26336700
_cell_length_b   8.26336884
_cell_length_c   8.58462800
_cell_angle_alpha   90.00000000
_cell_angle_beta   90.00000000
_cell_angle_gamma   120.00000465
_symmetry_Int_Tables_number   1
_chemical_formula_structural   Pr8Si12Ir3Pt
_chemical_formula_sum   'Pr8 Si12 Ir3 Pt1'
_cell_volume   507.65219859
_cell_formula_units_Z   1
loop_
 _symmetry_equiv_pos_site_id
 _symmetry_equiv_pos_as_xyz
  1  'x, y, z'
loop_
 _atom_site_type_symbol
 _atom_site_label
 _atom_site_symmetry_multiplicity
 _atom_site_fract_x
 _atom_site_fract_y
 _atom_site_fract_z
 _atom_site_occupancy
  Pr  Pr0  1  0.497131  0.502869  0.752472  1
  Pr  Pr1  1  0.500350  0.499650  0.247905  1
  Pr  Pr2  1  0.005737  0.502869  0.752472  1
  Pr  Pr3  1  0.999301  0.499650  0.247905  1
  Pr  Pr4  1  0.497131  0.994263  0.752472  1
  Pr  Pr5  1  0.500350  0.000699  0.247905  1
  Pr  Pr6  1  0.000000  0.000000  0.749567  1
  Pr  Pr7  1  0.000000  0.000000  0.249604  1
  Si  Si8  1  0.832916  0.167084  0.002178  1
  Si  Si9  1  0.166540  0.833460  0.997867  1
  Si  Si10  1  0.334167  0.167084  0.002178  1
  Si  Si11  1  0.167427  0.832573  0.502511  1
  Si  Si12  1  0.666921  0.833460  0.997867  1
  Si  Si13  1  0.834882  0.165118  0.497281  1
  Si  Si14  1  0.832916  0.665833  0.002178  1
  Si  Si15  1  0.665146  0.832573  0.502511  1
  Si  Si16  1  0.166540  0.333079  0.997867  1
  Si  Si17  1  0.330234  0.165118  0.497281  1
  Si  Si18  1  0.167427  0.334854  0.502511  1
  Si  Si19  1  0.834882  0.669766  0.497281  1
  Ir  Ir20  1  0.666667  0.333333  0.992590  1
  Ir  Ir21  1  0.333333  0.666667  0.007244  1
  Ir  Ir22  1  0.333333  0.666667  0.492495  1
  Pt  Pt23  1  0.666667  0.333333  0.507854  1
