# generated using pymatgen
data_Tb6Dy9Tm(CdPt)4
_symmetry_space_group_name_H-M   'P 1'
_cell_length_a   9.69831042
_cell_length_b   9.69831054
_cell_length_c   9.68636400
_cell_angle_alpha   60.04073981
_cell_angle_beta   60.04073940
_cell_angle_gamma   59.96249263
_symmetry_Int_Tables_number   1
_chemical_formula_structural   Tb6Dy9Tm(CdPt)4
_chemical_formula_sum   'Tb6 Dy9 Tm1 Cd4 Pt4'
_cell_volume   644.43883075
_cell_formula_units_Z   1
loop_
 _symmetry_equiv_pos_site_id
 _symmetry_equiv_pos_as_xyz
  1  'x, y, z'
loop_
 _atom_site_type_symbol
 _atom_site_label
 _atom_site_symmetry_multiplicity
 _atom_site_fract_x
 _atom_site_fract_y
 _atom_site_fract_z
 _atom_site_occupancy
  Tb  Tb0  1  0.936268  0.564213  0.563751  1
  Tb  Tb1  1  0.564213  0.936268  0.935768  1
  Tb  Tb2  1  0.564213  0.936268  0.563751  1
  Tb  Tb3  1  0.936268  0.564213  0.935768  1
  Tb  Tb4  1  0.565248  0.565248  0.934752  1
  Tb  Tb5  1  0.937323  0.937323  0.562677  1
  Dy  Dy6  1  0.351924  0.351924  0.349467  1
  Dy  Dy7  1  0.351924  0.351924  0.946686  1
  Dy  Dy8  1  0.356317  0.939960  0.351862  1
  Dy  Dy9  1  0.939960  0.356317  0.351862  1
  Dy  Dy10  1  0.810862  0.188144  0.190873  1
  Dy  Dy11  1  0.188144  0.810862  0.810120  1
  Dy  Dy12  1  0.188144  0.810862  0.190873  1
  Dy  Dy13  1  0.810862  0.188144  0.810120  1
  Dy  Dy14  1  0.190903  0.190903  0.809097  1
  Tm  Tm15  1  0.811096  0.811096  0.188904  1
  Cd  Cd16  1  0.581018  0.581018  0.581382  1
  Cd  Cd17  1  0.581018  0.581018  0.256582  1
  Cd  Cd18  1  0.581160  0.254725  0.582057  1
  Cd  Cd19  1  0.254725  0.581160  0.582057  1
  Pt  Pt20  1  0.143644  0.143644  0.145525  1
  Pt  Pt21  1  0.143644  0.143644  0.567189  1
  Pt  Pt22  1  0.138821  0.572302  0.144439  1
  Pt  Pt23  1  0.572302  0.138821  0.144439  1
