# generated using pymatgen
data_TmScCo4(PIr)6
_symmetry_space_group_name_H-M   'P 1'
_cell_length_a   3.82971900
_cell_length_b   10.58321200
_cell_length_c   12.16804600
_cell_angle_alpha   90.00000000
_cell_angle_beta   90.00000000
_cell_angle_gamma   90.00000000
_symmetry_Int_Tables_number   1
_chemical_formula_structural   TmScCo4(PIr)6
_chemical_formula_sum   'Tm2 Sc2 Co8 P12 Ir12'
_cell_volume   493.17976366
_cell_formula_units_Z   2
loop_
 _symmetry_equiv_pos_site_id
 _symmetry_equiv_pos_as_xyz
  1  'x, y, z'
loop_
 _atom_site_type_symbol
 _atom_site_label
 _atom_site_symmetry_multiplicity
 _atom_site_fract_x
 _atom_site_fract_y
 _atom_site_fract_z
 _atom_site_occupancy
  Tm  Tm0  1  0.750000  0.415993  0.289083  1
  Tm  Tm1  1  0.750000  0.084007  0.789083  1
  Sc  Sc2  1  0.250000  0.584006  0.710149  1
  Sc  Sc3  1  0.250000  0.915994  0.210149  1
  Co  Co4  1  0.250000  0.883356  0.697120  1
  Co  Co5  1  0.250000  0.616644  0.197120  1
  Co  Co6  1  0.750000  0.115582  0.302602  1
  Co  Co7  1  0.750000  0.384418  0.802602  1
  Co  Co8  1  0.250000  0.465463  0.931327  1
  Co  Co9  1  0.250000  0.034537  0.431327  1
  Co  Co10  1  0.750000  0.537352  0.065485  1
  Co  Co11  1  0.750000  0.962648  0.565485  1
  P  P12  1  0.250000  0.432467  0.110350  1
  P  P13  1  0.250000  0.067533  0.610350  1
  P  P14  1  0.750000  0.567728  0.885956  1
  P  P15  1  0.750000  0.932272  0.385956  1
  P  P16  1  0.250000  0.273881  0.871053  1
  P  P17  1  0.250000  0.226119  0.371053  1
  P  P18  1  0.750000  0.727227  0.130701  1
  P  P19  1  0.750000  0.772773  0.630701  1
  P  P20  1  0.250000  0.598152  0.376570  1
  P  P21  1  0.250000  0.901848  0.876570  1
  P  P22  1  0.750000  0.403967  0.625134  1
  P  P23  1  0.750000  0.096033  0.125134  1
  Ir  Ir24  1  0.250000  0.723438  0.991606  1
  Ir  Ir25  1  0.250000  0.776562  0.491606  1
  Ir  Ir26  1  0.750000  0.276284  0.009586  1
  Ir  Ir27  1  0.750000  0.223716  0.509586  1
  Ir  Ir28  1  0.250000  0.411268  0.476046  1
  Ir  Ir29  1  0.250000  0.088732  0.976046  1
  Ir  Ir30  1  0.750000  0.589776  0.527505  1
  Ir  Ir31  1  0.750000  0.910224  0.027505  1
  Ir  Ir32  1  0.250000  0.228116  0.179130  1
  Ir  Ir33  1  0.250000  0.271884  0.679130  1
  Ir  Ir34  1  0.750000  0.770321  0.820598  1
  Ir  Ir35  1  0.750000  0.729679  0.320598  1
