# generated using pymatgen
data_NaDy2(GaIr2)3
_symmetry_space_group_name_H-M   'P 1'
_cell_length_a   5.54424200
_cell_length_b   5.54424114
_cell_length_c   15.74246600
_cell_angle_alpha   90.00000000
_cell_angle_beta   90.00000000
_cell_angle_gamma   119.99999320
_symmetry_Int_Tables_number   1
_chemical_formula_structural   NaDy2(GaIr2)3
_chemical_formula_sum   'Na2 Dy4 Ga6 Ir12'
_cell_volume   419.07110285
_cell_formula_units_Z   2
loop_
 _symmetry_equiv_pos_site_id
 _symmetry_equiv_pos_as_xyz
  1  'x, y, z'
loop_
 _atom_site_type_symbol
 _atom_site_label
 _atom_site_symmetry_multiplicity
 _atom_site_fract_x
 _atom_site_fract_y
 _atom_site_fract_z
 _atom_site_occupancy
  Na  Na0  1  0.333333  0.666667  0.750000  1
  Na  Na1  1  0.666667  0.333333  0.250000  1
  Dy  Dy2  1  0.333333  0.666667  0.546948  1
  Dy  Dy3  1  0.666667  0.333333  0.453052  1
  Dy  Dy4  1  0.666667  0.333333  0.046948  1
  Dy  Dy5  1  0.333333  0.666667  0.953052  1
  Ga  Ga6  1  0.000000  0.000000  0.250000  1
  Ga  Ga7  1  0.000000  0.000000  0.750000  1
  Ga  Ga8  1  0.333333  0.666667  0.250000  1
  Ga  Ga9  1  0.666667  0.333333  0.750000  1
  Ga  Ga10  1  0.000000  0.000000  0.000000  1
  Ga  Ga11  1  0.000000  0.000000  0.500000  1
  Ir  Ir12  1  0.169953  0.339907  0.123701  1
  Ir  Ir13  1  0.830047  0.660093  0.876299  1
  Ir  Ir14  1  0.660093  0.830047  0.123701  1
  Ir  Ir15  1  0.830047  0.660093  0.623701  1
  Ir  Ir16  1  0.339907  0.169953  0.876299  1
  Ir  Ir17  1  0.169953  0.339907  0.376299  1
  Ir  Ir18  1  0.169953  0.830047  0.123701  1
  Ir  Ir19  1  0.339907  0.169953  0.623701  1
  Ir  Ir20  1  0.830047  0.169953  0.876299  1
  Ir  Ir21  1  0.660093  0.830047  0.376299  1
  Ir  Ir22  1  0.830047  0.169953  0.623701  1
  Ir  Ir23  1  0.169953  0.830047  0.376299  1
