# generated using pymatgen
data_LiCr20(ReC3)2
_symmetry_space_group_name_H-M   'P 1'
_cell_length_a   7.50768053
_cell_length_b   7.50294008
_cell_length_c   7.50577021
_cell_angle_alpha   60.01958266
_cell_angle_beta   60.07253670
_cell_angle_gamma   60.05726783
_symmetry_Int_Tables_number   1
_chemical_formula_structural   LiCr20(ReC3)2
_chemical_formula_sum   'Li1 Cr20 Re2 C6'
_cell_volume   299.30034491
_cell_formula_units_Z   1
loop_
 _symmetry_equiv_pos_site_id
 _symmetry_equiv_pos_as_xyz
  1  'x, y, z'
loop_
 _atom_site_type_symbol
 _atom_site_label
 _atom_site_symmetry_multiplicity
 _atom_site_fract_x
 _atom_site_fract_y
 _atom_site_fract_z
 _atom_site_occupancy
  Li  Li0  1  0.000000  0.000000  0.000000  1
  Cr  Cr1  1  0.616142  0.616267  0.151301  1
  Cr  Cr2  1  0.616258  0.151271  0.616212  1
  Cr  Cr3  1  0.151283  0.616336  0.616177  1
  Cr  Cr4  1  0.616149  0.616273  0.616233  1
  Cr  Cr5  1  0.383858  0.383733  0.848699  1
  Cr  Cr6  1  0.383742  0.848729  0.383788  1
  Cr  Cr7  1  0.848717  0.383664  0.383823  1
  Cr  Cr8  1  0.383851  0.383727  0.383767  1
  Cr  Cr9  1  0.999968  0.999962  0.343498  1
  Cr  Cr10  1  0.656612  0.000052  0.343340  1
  Cr  Cr11  1  0.999990  0.656646  0.343439  1
  Cr  Cr12  1  0.656578  0.343316  0.000057  1
  Cr  Cr13  1  0.000002  0.343331  0.999998  1
  Cr  Cr14  1  0.000010  0.343354  0.656561  1
  Cr  Cr15  1  0.343422  0.656684  0.999943  1
  Cr  Cr16  1  0.343388  0.999948  0.656660  1
  Cr  Cr17  1  0.343498  0.999908  0.999985  1
  Cr  Cr18  1  0.000032  0.000038  0.656502  1
  Cr  Cr19  1  0.999998  0.656669  0.000002  1
  Cr  Cr20  1  0.656502  0.000092  0.000015  1
  Re  Re21  1  0.750022  0.750129  0.749975  1
  Re  Re22  1  0.249978  0.249871  0.250025  1
  C  C23  1  0.726777  0.726894  0.273181  1
  C  C24  1  0.273088  0.726941  0.273050  1
  C  C25  1  0.727079  0.272861  0.272908  1
  C  C26  1  0.273223  0.273106  0.726819  1
  C  C27  1  0.726912  0.273059  0.726950  1
  C  C28  1  0.272921  0.727139  0.727092  1
