# generated using pymatgen
data_Ca2PrPd9
_symmetry_space_group_name_H-M   'P 1'
_cell_length_a   9.49557104
_cell_length_b   9.49557133
_cell_length_c   9.49557015
_cell_angle_alpha   33.15191074
_cell_angle_beta   33.15191113
_cell_angle_gamma   33.15190653
_symmetry_Int_Tables_number   1
_chemical_formula_structural   Ca2PrPd9
_chemical_formula_sum   'Ca2 Pr1 Pd9'
_cell_volume   227.91434689
_cell_formula_units_Z   1
loop_
 _symmetry_equiv_pos_site_id
 _symmetry_equiv_pos_as_xyz
  1  'x, y, z'
loop_
 _atom_site_type_symbol
 _atom_site_label
 _atom_site_symmetry_multiplicity
 _atom_site_fract_x
 _atom_site_fract_y
 _atom_site_fract_z
 _atom_site_occupancy
  Ca  Ca0  1  0.141378  0.141378  0.141378  1
  Ca  Ca1  1  0.858622  0.858622  0.858622  1
  Pr  Pr2  1  0.000000  0.000000  0.000000  1
  Pd  Pd3  1  0.585404  0.585404  0.083156  1
  Pd  Pd4  1  0.332684  0.332684  0.332684  1
  Pd  Pd5  1  0.916844  0.414595  0.414597  1
  Pd  Pd6  1  0.414595  0.916844  0.414597  1
  Pd  Pd7  1  0.500000  0.500000  0.500000  1
  Pd  Pd8  1  0.585405  0.083156  0.585403  1
  Pd  Pd9  1  0.083156  0.585405  0.585403  1
  Pd  Pd10  1  0.667316  0.667316  0.667316  1
  Pd  Pd11  1  0.414596  0.414596  0.916844  1
