# generated using pymatgen
data_NpSc19Tc6
_symmetry_space_group_name_H-M   'P 1'
_cell_length_a   8.84831500
_cell_length_b   8.84831512
_cell_length_c   8.12599900
_cell_angle_alpha   90.00000000
_cell_angle_beta   90.00000000
_cell_angle_gamma   119.99999581
_symmetry_Int_Tables_number   1
_chemical_formula_structural   NpSc19Tc6
_chemical_formula_sum   'Np1 Sc19 Tc6'
_cell_volume   550.97078454
_cell_formula_units_Z   1
loop_
 _symmetry_equiv_pos_site_id
 _symmetry_equiv_pos_as_xyz
  1  'x, y, z'
loop_
 _atom_site_type_symbol
 _atom_site_label
 _atom_site_symmetry_multiplicity
 _atom_site_fract_x
 _atom_site_fract_y
 _atom_site_fract_z
 _atom_site_occupancy
  Np  Np0  1  0.000000  0.000000  0.000000  1
  Sc  Sc1  1  0.408380  0.204190  0.055658  1
  Sc  Sc2  1  0.795810  0.204190  0.055658  1
  Sc  Sc3  1  0.795809  0.591619  0.055658  1
  Sc  Sc4  1  0.095459  0.547730  0.248669  1
  Sc  Sc5  1  0.452270  0.547730  0.248669  1
  Sc  Sc6  1  0.452270  0.904542  0.248669  1
  Sc  Sc7  1  0.404811  0.202405  0.445893  1
  Sc  Sc8  1  0.797595  0.202405  0.445893  1
  Sc  Sc9  1  0.797594  0.595188  0.445893  1
  Sc  Sc10  1  0.000000  0.000000  0.500000  1
  Sc  Sc11  1  0.202405  0.404812  0.554108  1
  Sc  Sc12  1  0.202404  0.797595  0.554108  1
  Sc  Sc13  1  0.595189  0.797595  0.554108  1
  Sc  Sc14  1  0.547729  0.095458  0.751332  1
  Sc  Sc15  1  0.547730  0.452270  0.751332  1
  Sc  Sc16  1  0.904542  0.452270  0.751332  1
  Sc  Sc17  1  0.204190  0.408381  0.944341  1
  Sc  Sc18  1  0.204189  0.795810  0.944341  1
  Sc  Sc19  1  0.591620  0.795810  0.944341  1
  Tc  Tc20  1  0.113614  0.227228  0.241692  1
  Tc  Tc21  1  0.113613  0.886386  0.241692  1
  Tc  Tc22  1  0.772773  0.886386  0.241692  1
  Tc  Tc23  1  0.227228  0.113614  0.758309  1
  Tc  Tc24  1  0.886386  0.113614  0.758309  1
  Tc  Tc25  1  0.886385  0.772772  0.758309  1
