# generated using pymatgen
data_Sm4Tc3B16Ru
_symmetry_space_group_name_H-M   'P 1'
_cell_length_a   3.63373300
_cell_length_b   6.02691436
_cell_length_c   11.65616529
_cell_angle_alpha   89.87146207
_cell_angle_beta   90.00000000
_cell_angle_gamma   90.00000000
_symmetry_Int_Tables_number   1
_chemical_formula_structural   Sm4Tc3B16Ru
_chemical_formula_sum   'Sm4 Tc3 B16 Ru1'
_cell_volume   255.27168065
_cell_formula_units_Z   1
loop_
 _symmetry_equiv_pos_site_id
 _symmetry_equiv_pos_as_xyz
  1  'x, y, z'
loop_
 _atom_site_type_symbol
 _atom_site_label
 _atom_site_symmetry_multiplicity
 _atom_site_fract_x
 _atom_site_fract_y
 _atom_site_fract_z
 _atom_site_occupancy
  Sm  Sm0  1  0.500000  0.128095  0.149421  1
  Sm  Sm1  1  0.500000  0.872500  0.851356  1
  Sm  Sm2  1  0.500000  0.626645  0.348264  1
  Sm  Sm3  1  0.500000  0.373592  0.651316  1
  Tc  Tc4  1  0.500000  0.130293  0.414401  1
  Tc  Tc5  1  0.500000  0.868859  0.586532  1
  Tc  Tc6  1  0.500000  0.637880  0.089463  1
  B  B7  1  0.000000  0.475712  0.190381  1
  B  B8  1  0.000000  0.524272  0.809400  1
  B  B9  1  0.000000  0.978475  0.309126  1
  B  B10  1  0.000000  0.022791  0.691156  1
  B  B11  1  0.000000  0.284930  0.315877  1
  B  B12  1  0.000000  0.713893  0.684194  1
  B  B13  1  0.000000  0.785755  0.184448  1
  B  B14  1  0.000000  0.213744  0.816095  1
  B  B15  1  0.000000  0.361852  0.468194  1
  B  B16  1  0.000000  0.637665  0.531926  1
  B  B17  1  0.000000  0.862100  0.030808  1
  B  B18  1  0.000000  0.138593  0.968512  1
  B  B19  1  0.000000  0.388091  0.045611  1
  B  B20  1  0.000000  0.611588  0.953534  1
  B  B21  1  0.000000  0.887949  0.453924  1
  B  B22  1  0.000000  0.111766  0.546813  1
  Ru  Ru23  1  0.500000  0.362955  0.909246  1
