# generated using pymatgen
data_HfZr5Zn15SiAu8
_symmetry_space_group_name_H-M   'P 1'
_cell_length_a   8.93012352
_cell_length_b   8.92892854
_cell_length_c   8.92892808
_cell_angle_alpha   60.00892131
_cell_angle_beta   59.99561967
_cell_angle_gamma   59.99563984
_symmetry_Int_Tables_number   1
_chemical_formula_structural   HfZr5Zn15SiAu8
_chemical_formula_sum   'Hf1 Zr5 Zn15 Si1 Au8'
_cell_volume   503.43304446
_cell_formula_units_Z   1
loop_
 _symmetry_equiv_pos_site_id
 _symmetry_equiv_pos_as_xyz
  1  'x, y, z'
loop_
 _atom_site_type_symbol
 _atom_site_label
 _atom_site_symmetry_multiplicity
 _atom_site_fract_x
 _atom_site_fract_y
 _atom_site_fract_z
 _atom_site_occupancy
  Hf  Hf0  1  0.711230  0.288770  0.288770  1
  Zr  Zr1  1  0.289978  0.710022  0.710022  1
  Zr  Zr2  1  0.290011  0.709989  0.289586  1
  Zr  Zr3  1  0.710414  0.289586  0.709989  1
  Zr  Zr4  1  0.290010  0.289586  0.709990  1
  Zr  Zr5  1  0.710414  0.709989  0.289586  1
  Zn  Zn6  1  0.499954  0.000047  0.000045  1
  Zn  Zn7  1  0.999953  0.500046  0.500047  1
  Zn  Zn8  1  0.000004  0.500085  0.999996  1
  Zn  Zn9  1  0.499915  0.999996  0.500085  1
  Zn  Zn10  1  0.000003  0.999997  0.500086  1
  Zn  Zn11  1  0.499915  0.500085  0.999996  1
  Zn  Zn12  1  0.337460  0.336716  0.336716  1
  Zn  Zn13  1  0.663202  0.663242  0.663242  1
  Zn  Zn14  1  0.336758  0.336797  0.989687  1
  Zn  Zn15  1  0.336757  0.989688  0.336798  1
  Zn  Zn16  1  0.663285  0.662540  0.010892  1
  Zn  Zn17  1  0.663284  0.010892  0.662540  1
  Zn  Zn18  1  0.989107  0.336717  0.336716  1
  Zn  Zn19  1  0.010313  0.663243  0.663243  1
  Zn  Zn20  1  0.000270  0.999730  0.999730  1
  Si  Si21  1  0.500788  0.499213  0.499215  1
  Au  Au22  1  0.120319  0.122865  0.122865  1
  Au  Au23  1  0.877731  0.877891  0.877891  1
  Au  Au24  1  0.122109  0.122269  0.633512  1
  Au  Au25  1  0.122109  0.633513  0.122269  1
  Au  Au26  1  0.877135  0.879681  0.366050  1
  Au  Au27  1  0.877135  0.366049  0.879681  1
  Au  Au28  1  0.633951  0.122865  0.122865  1
  Au  Au29  1  0.366487  0.877891  0.877891  1
