# generated using pymatgen
data_ErLu2Ta3(B2Ru5)2
_symmetry_space_group_name_H-M   'P 1'
_cell_length_a   9.55629833
_cell_length_b   9.55578804
_cell_length_c   3.11163500
_cell_angle_alpha   90.00000000
_cell_angle_beta   90.00000000
_cell_angle_gamma   90.29366169
_symmetry_Int_Tables_number   1
_chemical_formula_structural   ErLu2Ta3(B2Ru5)2
_chemical_formula_sum   'Er1 Lu2 Ta3 B4 Ru10'
_cell_volume   284.14443223
_cell_formula_units_Z   1
loop_
 _symmetry_equiv_pos_site_id
 _symmetry_equiv_pos_as_xyz
  1  'x, y, z'
loop_
 _atom_site_type_symbol
 _atom_site_label
 _atom_site_symmetry_multiplicity
 _atom_site_fract_x
 _atom_site_fract_y
 _atom_site_fract_z
 _atom_site_occupancy
  Er  Er0  1  0.824492  0.674825  0.000000  1
  Lu  Lu1  1  0.175049  0.324366  0.000000  1
  Lu  Lu2  1  0.325650  0.825672  0.000000  1
  Ta  Ta3  1  0.675439  0.175417  0.000000  1
  Ta  Ta4  1  0.497572  0.503121  0.000000  1
  Ta  Ta5  1  0.003486  0.998352  0.000000  1
  B  B6  1  0.623019  0.880690  0.000000  1
  B  B7  1  0.380189  0.123449  0.000000  1
  B  B8  1  0.119671  0.619233  0.000000  1
  B  B9  1  0.876662  0.376304  0.000000  1
  Ru  Ru10  1  0.570663  0.721796  0.500000  1
  Ru  Ru11  1  0.439151  0.280810  0.500000  1
  Ru  Ru12  1  0.070861  0.780771  0.500000  1
  Ru  Ru13  1  0.916792  0.213423  0.500000  1
  Ru  Ru14  1  0.280513  0.569845  0.500000  1
  Ru  Ru15  1  0.713215  0.416190  0.500000  1
  Ru  Ru16  1  0.221438  0.071899  0.500000  1
  Ru  Ru17  1  0.780642  0.940109  0.500000  1
  Ru  Ru18  1  0.508230  0.008515  0.500000  1
  Ru  Ru19  1  0.997265  0.495213  0.500000  1
