# generated using pymatgen
data_Eu4Ga10Ir5Au
_symmetry_space_group_name_H-M   'P 1'
_cell_length_a   8.75027273
_cell_length_b   8.75443723
_cell_length_c   8.75455600
_cell_angle_alpha   140.52380526
_cell_angle_beta   107.70363460
_cell_angle_gamma   85.64851595
_symmetry_Int_Tables_number   1
_chemical_formula_structural   Eu4Ga10Ir5Au
_chemical_formula_sum   'Eu4 Ga10 Ir5 Au1'
_cell_volume   391.94808818
_cell_formula_units_Z   1
loop_
 _symmetry_equiv_pos_site_id
 _symmetry_equiv_pos_as_xyz
  1  'x, y, z'
loop_
 _atom_site_type_symbol
 _atom_site_label
 _atom_site_symmetry_multiplicity
 _atom_site_fract_x
 _atom_site_fract_y
 _atom_site_fract_z
 _atom_site_occupancy
  Eu  Eu0  1  0.094759  0.862633  0.231729  1
  Eu  Eu1  1  0.637240  0.362414  0.274828  1
  Eu  Eu2  1  0.906630  0.138100  0.768034  1
  Eu  Eu3  1  0.368248  0.638510  0.729763  1
  Ga  Ga4  1  0.301325  0.051460  0.764469  1
  Ga  Ga5  1  0.301443  0.537109  0.249971  1
  Ga  Ga6  1  0.003915  0.236434  0.249931  1
  Ga  Ga7  1  0.237878  0.408272  0.828818  1
  Ga  Ga8  1  0.744652  0.589611  0.155374  1
  Ga  Ga9  1  0.709313  0.460366  0.748391  1
  Ga  Ga10  1  0.579155  0.909142  0.670362  1
  Ga  Ga11  1  0.709590  0.961585  0.249025  1
  Ga  Ga12  1  0.421655  0.093028  0.328830  1
  Ga  Ga13  1  0.004146  0.754472  0.767377  1
  Ir  Ir14  1  0.756937  0.854099  0.901571  1
  Ir  Ir15  1  0.952400  0.355209  0.598411  1
  Ir  Ir16  1  0.239324  0.145508  0.094325  1
  Ir  Ir17  1  0.494399  0.752027  0.249508  1
  Ir  Ir18  1  0.494467  0.244884  0.742420  1
  Au  Au19  1  0.042524  0.645139  0.396861  1
