# generated using pymatgen
data_Ca4Tb2Si24OsRu7
_symmetry_space_group_name_H-M   'P 1'
_cell_length_a   10.18010333
_cell_length_b   10.18010354
_cell_length_c   8.16636561
_cell_angle_alpha   90.01569284
_cell_angle_beta   90.01569008
_cell_angle_gamma   132.71544840
_symmetry_Int_Tables_number   1
_chemical_formula_structural   Ca4Tb2Si24OsRu7
_chemical_formula_sum   'Ca4 Tb2 Si24 Os1 Ru7'
_cell_volume   621.81599383
_cell_formula_units_Z   1
loop_
 _symmetry_equiv_pos_site_id
 _symmetry_equiv_pos_as_xyz
  1  'x, y, z'
loop_
 _atom_site_type_symbol
 _atom_site_label
 _atom_site_symmetry_multiplicity
 _atom_site_fract_x
 _atom_site_fract_y
 _atom_site_fract_z
 _atom_site_occupancy
  Ca  Ca0  1  0.500009  0.499991  0.500000  1
  Ca  Ca1  1  0.999919  0.000081  0.000000  1
  Ca  Ca2  1  0.500492  0.000247  0.749903  1
  Ca  Ca3  1  0.999753  0.499508  0.250097  1
  Tb  Tb4  1  0.499562  0.999714  0.250019  1
  Tb  Tb5  1  0.000286  0.500438  0.749981  1
  Si  Si6  1  0.795925  0.204075  0.500000  1
  Si  Si7  1  0.294987  0.705013  0.000000  1
  Si  Si8  1  0.205092  0.794908  0.500000  1
  Si  Si9  1  0.704571  0.295429  0.000000  1
  Si  Si10  1  0.332310  0.335783  0.832171  1
  Si  Si11  1  0.664217  0.667690  0.167829  1
  Si  Si12  1  0.167839  0.163857  0.331884  1
  Si  Si13  1  0.836143  0.832161  0.668116  1
  Si  Si14  1  0.122561  0.889853  0.730208  1
  Si  Si15  1  0.110147  0.877439  0.269792  1
  Si  Si16  1  0.607548  0.375219  0.229183  1
  Si  Si17  1  0.624781  0.392452  0.770817  1
  Si  Si18  1  0.874562  0.106931  0.269380  1
  Si  Si19  1  0.893069  0.125438  0.730620  1
  Si  Si20  1  0.390542  0.623368  0.769998  1
  Si  Si21  1  0.376632  0.609458  0.230002  1
  Si  Si22  1  0.345806  0.112723  0.506165  1
  Si  Si23  1  0.887277  0.654194  0.493835  1
  Si  Si24  1  0.386171  0.153268  0.009167  1
  Si  Si25  1  0.846732  0.613829  0.990833  1
  Si  Si26  1  0.652970  0.885713  0.489823  1
  Si  Si27  1  0.114287  0.347030  0.510177  1
  Si  Si28  1  0.613030  0.846650  0.993985  1
  Si  Si29  1  0.153350  0.386970  0.006015  1
  Os  Os30  1  0.670741  0.329259  0.500000  1
  Ru  Ru31  1  0.170102  0.829898  0.000000  1
  Ru  Ru32  1  0.330005  0.669995  0.500000  1
  Ru  Ru33  1  0.829121  0.170879  0.000000  1
  Ru  Ru34  1  0.126868  0.127101  0.624770  1
  Ru  Ru35  1  0.872899  0.873132  0.375230  1
  Ru  Ru36  1  0.372838  0.373142  0.124692  1
  Ru  Ru37  1  0.626858  0.627162  0.875308  1
