# generated using pymatgen
data_NdY7(HgRh)2
_symmetry_space_group_name_H-M   'P 1'
_cell_length_a   9.68116232
_cell_length_b   9.68099191
_cell_length_c   9.69842800
_cell_angle_alpha   59.94035108
_cell_angle_beta   59.94117141
_cell_angle_gamma   59.99268707
_symmetry_Int_Tables_number   1
_chemical_formula_structural   NdY7(HgRh)2
_chemical_formula_sum   'Nd2 Y14 Hg4 Rh4'
_cell_volume   642.12606172
_cell_formula_units_Z   2
loop_
 _symmetry_equiv_pos_site_id
 _symmetry_equiv_pos_as_xyz
  1  'x, y, z'
loop_
 _atom_site_type_symbol
 _atom_site_label
 _atom_site_symmetry_multiplicity
 _atom_site_fract_x
 _atom_site_fract_y
 _atom_site_fract_z
 _atom_site_occupancy
  Nd  Nd0  1  0.601534  0.601582  0.601761  1
  Nd  Nd1  1  0.601527  0.601568  0.195134  1
  Y  Y2  1  0.603680  0.191977  0.602168  1
  Y  Y3  1  0.191989  0.603696  0.602156  1
  Y  Y4  1  0.061403  0.437603  0.440280  1
  Y  Y5  1  0.437607  0.061399  0.060710  1
  Y  Y6  1  0.437607  0.061397  0.440282  1
  Y  Y7  1  0.061409  0.437603  0.060712  1
  Y  Y8  1  0.438125  0.438124  0.061875  1
  Y  Y9  1  0.060040  0.060021  0.439970  1
  Y  Y10  1  0.187118  0.813743  0.813705  1
  Y  Y11  1  0.813756  0.187109  0.185443  1
  Y  Y12  1  0.813749  0.187115  0.813689  1
  Y  Y13  1  0.187117  0.813739  0.185443  1
  Y  Y14  1  0.814729  0.814722  0.185277  1
  Y  Y15  1  0.187714  0.187702  0.812293  1
  Hg  Hg16  1  0.836658  0.836658  0.832243  1
  Hg  Hg17  1  0.836664  0.836661  0.494438  1
  Hg  Hg18  1  0.838231  0.493174  0.834299  1
  Hg  Hg19  1  0.493181  0.838225  0.834299  1
  Rh  Rh20  1  0.390662  0.390685  0.395042  1
  Rh  Rh21  1  0.390692  0.390710  0.823579  1
  Rh  Rh22  1  0.388767  0.826041  0.392598  1
  Rh  Rh23  1  0.826045  0.388746  0.392603  1
