# generated using pymatgen
data_Y4MnOs7
_symmetry_space_group_name_H-M   'P 1'
_cell_length_a   5.34564200
_cell_length_b   5.34564220
_cell_length_c   8.79619400
_cell_angle_alpha   90.00000000
_cell_angle_beta   90.00000000
_cell_angle_gamma   119.99999878
_symmetry_Int_Tables_number   1
_chemical_formula_structural   Y4MnOs7
_chemical_formula_sum   'Y4 Mn1 Os7'
_cell_volume   217.68334046
_cell_formula_units_Z   1
loop_
 _symmetry_equiv_pos_site_id
 _symmetry_equiv_pos_as_xyz
  1  'x, y, z'
loop_
 _atom_site_type_symbol
 _atom_site_label
 _atom_site_symmetry_multiplicity
 _atom_site_fract_x
 _atom_site_fract_y
 _atom_site_fract_z
 _atom_site_occupancy
  Y  Y0  1  0.333333  0.666667  0.431537  1
  Y  Y1  1  0.666667  0.333333  0.568463  1
  Y  Y2  1  0.666667  0.333333  0.935282  1
  Y  Y3  1  0.333333  0.666667  0.064718  1
  Mn  Mn4  1  0.000000  0.000000  0.500000  1
  Os  Os5  1  0.000000  0.000000  0.000000  1
  Os  Os6  1  0.829210  0.170790  0.252536  1
  Os  Os7  1  0.829210  0.658419  0.252536  1
  Os  Os8  1  0.341581  0.170790  0.252536  1
  Os  Os9  1  0.170790  0.829210  0.747464  1
  Os  Os10  1  0.170790  0.341581  0.747464  1
  Os  Os11  1  0.658419  0.829210  0.747464  1
