# generated using pymatgen
data_Y9Lu11Si15P
_symmetry_space_group_name_H-M   'P 1'
_cell_length_a   7.49786211
_cell_length_b   7.53918196
_cell_length_c   13.81986400
_cell_angle_alpha   89.17267178
_cell_angle_beta   90.49702455
_cell_angle_gamma   90.14241643
_symmetry_Int_Tables_number   1
_chemical_formula_structural   Y9Lu11Si15P
_chemical_formula_sum   'Y9 Lu11 Si15 P1'
_cell_volume   781.09276566
_cell_formula_units_Z   1
loop_
 _symmetry_equiv_pos_site_id
 _symmetry_equiv_pos_as_xyz
  1  'x, y, z'
loop_
 _atom_site_type_symbol
 _atom_site_label
 _atom_site_symmetry_multiplicity
 _atom_site_fract_x
 _atom_site_fract_y
 _atom_site_fract_z
 _atom_site_occupancy
  Y  Y0  1  0.008501  0.856471  0.127080  1
  Y  Y1  1  0.641296  0.993927  0.463421  1
  Y  Y2  1  0.356448  0.003080  0.958174  1
  Y  Y3  1  0.996155  0.646413  0.537737  1
  Y  Y4  1  0.494365  0.850286  0.212438  1
  Y  Y5  1  0.506860  0.151225  0.712244  1
  Y  Y6  1  0.853149  0.496082  0.787839  1
  Y  Y7  1  0.141471  0.500145  0.288243  1
  Y  Y8  1  0.006132  0.352750  0.039229  1
  Lu  Lu9  1  0.491953  0.353778  0.122612  1
  Lu  Lu10  1  0.996043  0.146609  0.628018  1
  Lu  Lu11  1  0.856973  0.005673  0.873071  1
  Lu  Lu12  1  0.145188  0.988492  0.381001  1
  Lu  Lu13  1  0.498948  0.653025  0.618346  1
  Lu  Lu14  1  0.358392  0.494655  0.875301  1
  Lu  Lu15  1  0.646236  0.499779  0.376103  1
  Lu  Lu16  1  0.320074  0.323636  0.499858  1
  Lu  Lu17  1  0.180409  0.823513  0.748580  1
  Lu  Lu18  1  0.819231  0.176334  0.251184  1
  Lu  Lu19  1  0.681101  0.678083  0.999278  1
  Si  Si20  1  0.705094  0.055475  0.061468  1
  Si  Si21  1  0.943964  0.290988  0.439060  1
  Si  Si22  1  0.444335  0.199806  0.313476  1
  Si  Si23  1  0.557222  0.794463  0.810418  1
  Si  Si24  1  0.205470  0.450776  0.686277  1
  Si  Si25  1  0.790431  0.552106  0.187410  1
  Si  Si26  1  0.057054  0.703643  0.935461  1
  Si  Si27  1  0.795214  0.853312  0.680678  1
  Si  Si28  1  0.205512  0.148832  0.189050  1
  Si  Si29  1  0.849651  0.794852  0.319833  1
  Si  Si30  1  0.353744  0.691776  0.421802  1
  Si  Si31  1  0.649933  0.294547  0.933585  1
  Si  Si32  1  0.702933  0.355577  0.568570  1
  Si  Si33  1  0.297052  0.646628  0.063317  1
  Si  Si34  1  0.147683  0.206891  0.817935  1
  P  P35  1  0.295790  0.966366  0.571904  1
