# generated using pymatgen
data_Ti6SiB4Mo4P
_symmetry_space_group_name_H-M   'P 1'
_cell_length_a   7.09952947
_cell_length_b   7.07891660
_cell_length_c   7.07929651
_cell_angle_alpha   129.59434914
_cell_angle_beta   129.71436938
_cell_angle_gamma   73.89485748
_symmetry_Int_Tables_number   1
_chemical_formula_structural   Ti6SiB4Mo4P
_chemical_formula_sum   'Ti6 Si1 B4 Mo4 P1'
_cell_volume   205.77212437
_cell_formula_units_Z   1
loop_
 _symmetry_equiv_pos_site_id
 _symmetry_equiv_pos_as_xyz
  1  'x, y, z'
loop_
 _atom_site_type_symbol
 _atom_site_label
 _atom_site_symmetry_multiplicity
 _atom_site_fract_x
 _atom_site_fract_y
 _atom_site_fract_z
 _atom_site_occupancy
  Ti  Ti0  1  0.806490  0.962164  0.495782  1
  Ti  Ti1  1  0.310233  0.806184  0.843833  1
  Ti  Ti2  1  0.191003  0.034849  0.497319  1
  Ti  Ti3  1  0.536299  0.692485  0.503772  1
  Ti  Ti4  1  0.032768  0.535912  0.843873  1
  Ti  Ti5  1  0.694228  0.190400  0.156293  1
  Si  Si6  1  0.249860  0.250689  0.000768  1
  B  B7  1  0.389347  0.890078  0.278630  1
  B  B8  1  0.889330  0.611010  0.499861  1
  B  B9  1  0.611728  0.111195  0.723141  1
  B  B10  1  0.111393  0.388562  0.499762  1
  Mo  Mo11  1  0.002467  0.001163  0.000185  1
  Mo  Mo12  1  0.960852  0.464924  0.154065  1
  Mo  Mo13  1  0.500230  0.500733  0.001190  1
  Mo  Mo14  1  0.464167  0.309486  0.502070  1
  P  P15  1  0.749606  0.750166  0.999458  1
