# generated using pymatgen
data_Tb13Ho3(CoAg)4
_symmetry_space_group_name_H-M   'P 1'
_cell_length_a   9.41137200
_cell_length_b   9.41192998
_cell_length_c   9.40885815
_cell_angle_alpha   60.00687114
_cell_angle_beta   59.98869801
_cell_angle_gamma   59.98035988
_symmetry_Int_Tables_number   1
_chemical_formula_structural   Tb13Ho3(CoAg)4
_chemical_formula_sum   'Tb13 Ho3 Co4 Ag4'
_cell_volume   589.21593810
_cell_formula_units_Z   1
loop_
 _symmetry_equiv_pos_site_id
 _symmetry_equiv_pos_as_xyz
  1  'x, y, z'
loop_
 _atom_site_type_symbol
 _atom_site_label
 _atom_site_symmetry_multiplicity
 _atom_site_fract_x
 _atom_site_fract_y
 _atom_site_fract_z
 _atom_site_occupancy
  Tb  Tb0  1  0.812427  0.187573  0.812427  1
  Tb  Tb1  1  0.187591  0.187363  0.812667  1
  Tb  Tb2  1  0.812667  0.812379  0.187591  1
  Tb  Tb3  1  0.937633  0.562591  0.562324  1
  Tb  Tb4  1  0.562323  0.937451  0.937634  1
  Tb  Tb5  1  0.562421  0.937579  0.562421  1
  Tb  Tb6  1  0.937575  0.562424  0.937576  1
  Tb  Tb7  1  0.562258  0.562519  0.937696  1
  Tb  Tb8  1  0.937695  0.937526  0.562258  1
  Tb  Tb9  1  0.348181  0.348213  0.347883  1
  Tb  Tb10  1  0.347947  0.348264  0.955813  1
  Tb  Tb11  1  0.347883  0.955723  0.348181  1
  Tb  Tb12  1  0.955813  0.347977  0.347947  1
  Ho  Ho13  1  0.812504  0.187520  0.187712  1
  Ho  Ho14  1  0.187712  0.812264  0.812504  1
  Ho  Ho15  1  0.187528  0.812472  0.187528  1
  Co  Co16  1  0.141246  0.141280  0.141295  1
  Co  Co17  1  0.141295  0.141266  0.576122  1
  Co  Co18  1  0.141295  0.576180  0.141246  1
  Co  Co19  1  0.576122  0.141318  0.141295  1
  Ag  Ag20  1  0.581024  0.581163  0.581151  1
  Ag  Ag21  1  0.581063  0.581080  0.256644  1
  Ag  Ag22  1  0.581151  0.256661  0.581024  1
  Ag  Ag23  1  0.256644  0.581213  0.581063  1
