# generated using pymatgen
data_Nd7Gd(SeO5)4
_symmetry_space_group_name_H-M   'P 1'
_cell_length_a   8.86641128
_cell_length_b   8.91697689
_cell_length_c   11.32452500
_cell_angle_alpha   89.74392484
_cell_angle_beta   90.35404867
_cell_angle_gamma   142.83447627
_symmetry_Int_Tables_number   1
_chemical_formula_structural   Nd7Gd(SeO5)4
_chemical_formula_sum   'Nd7 Gd1 Se4 O20'
_cell_volume   540.87897739
_cell_formula_units_Z   1
loop_
 _symmetry_equiv_pos_site_id
 _symmetry_equiv_pos_as_xyz
  1  'x, y, z'
loop_
 _atom_site_type_symbol
 _atom_site_label
 _atom_site_symmetry_multiplicity
 _atom_site_fract_x
 _atom_site_fract_y
 _atom_site_fract_z
 _atom_site_occupancy
  Nd  Nd0  1  0.747441  0.293470  0.605185  1
  Nd  Nd1  1  0.247559  0.795235  0.393127  1
  Nd  Nd2  1  0.261791  0.739625  0.884103  1
  Nd  Nd3  1  0.765431  0.241308  0.116471  1
  Nd  Nd4  1  0.853659  0.076217  0.391234  1
  Nd  Nd5  1  0.051358  0.933347  0.604710  1
  Nd  Nd6  1  0.354666  0.579047  0.609241  1
  Gd  Gd7  1  0.545874  0.433429  0.402622  1
  Se  Se8  1  0.399778  0.560793  0.133485  1
  Se  Se9  1  0.595616  0.383831  0.865126  1
  Se  Se10  1  0.897661  0.063271  0.868125  1
  Se  Se11  1  0.110445  0.894672  0.135655  1
  O  O12  1  0.135461  0.414064  0.208390  1
  O  O13  1  0.453051  0.121892  0.789029  1
  O  O14  1  0.634734  0.920236  0.792000  1
  O  O15  1  0.971309  0.630372  0.205824  1
  O  O16  1  0.558027  0.937027  0.520173  1
  O  O17  1  0.887122  0.607816  0.491411  1
  O  O18  1  0.056948  0.436382  0.479058  1
  O  O19  1  0.392386  0.112204  0.505040  1
  O  O20  1  0.115677  0.570682  0.715317  1
  O  O21  1  0.611728  0.058545  0.281844  1
  O  O22  1  0.504990  0.803562  0.057873  1
  O  O23  1  0.835673  0.486917  0.944344  1
  O  O24  1  0.276478  0.099451  0.251240  1
  O  O25  1  0.108608  0.204501  0.755078  1
  O  O26  1  0.752991  0.590793  0.750866  1
  O  O27  1  0.609759  0.698686  0.248064  1
  O  O28  1  0.212799  0.259800  0.493765  1
  O  O29  1  0.708701  0.755774  0.507478  1
  O  O30  1  0.343366  0.996097  0.050715  1
  O  O31  1  0.003958  0.306003  0.943408  1
