# generated using pymatgen
data_Ho4TmLu3(B6Os)4
_symmetry_space_group_name_H-M   'P 1'
_cell_length_a   3.61876400
_cell_length_b   9.07004402
_cell_length_c   11.45262602
_cell_angle_alpha   90.00739757
_cell_angle_beta   90.00000000
_cell_angle_gamma   90.00000000
_symmetry_Int_Tables_number   1
_chemical_formula_structural   Ho4TmLu3(B6Os)4
_chemical_formula_sum   'Ho4 Tm1 Lu3 B24 Os4'
_cell_volume   375.90208260
_cell_formula_units_Z   1
loop_
 _symmetry_equiv_pos_site_id
 _symmetry_equiv_pos_as_xyz
  1  'x, y, z'
loop_
 _atom_site_type_symbol
 _atom_site_label
 _atom_site_symmetry_multiplicity
 _atom_site_fract_x
 _atom_site_fract_y
 _atom_site_fract_z
 _atom_site_occupancy
  Ho  Ho0  1  0.000000  0.321402  0.414053  1
  Ho  Ho1  1  0.000000  0.678637  0.586071  1
  Ho  Ho2  1  0.000000  0.821262  0.085898  1
  Ho  Ho3  1  0.000000  0.178726  0.914000  1
  Tm  Tm4  1  0.000000  0.944291  0.373226  1
  Lu  Lu5  1  0.000000  0.055776  0.626997  1
  Lu  Lu6  1  0.000000  0.444316  0.126745  1
  Lu  Lu7  1  0.000000  0.555680  0.873223  1
  B  B8  1  0.500000  0.554174  0.433063  1
  B  B9  1  0.500000  0.445717  0.566974  1
  B  B10  1  0.500000  0.054284  0.066894  1
  B  B11  1  0.500000  0.945733  0.933036  1
  B  B12  1  0.500000  0.749333  0.419802  1
  B  B13  1  0.500000  0.250300  0.580254  1
  B  B14  1  0.500000  0.249786  0.080206  1
  B  B15  1  0.500000  0.750255  0.919766  1
  B  B16  1  0.500000  0.791708  0.266042  1
  B  B17  1  0.500000  0.207930  0.733839  1
  B  B18  1  0.500000  0.292201  0.233786  1
  B  B19  1  0.500000  0.707915  0.766173  1
  B  B20  1  0.500000  0.630906  0.184368  1
  B  B21  1  0.500000  0.369037  0.815588  1
  B  B22  1  0.500000  0.131325  0.315426  1
  B  B23  1  0.500000  0.869005  0.684449  1
  B  B24  1  0.500000  0.982810  0.213344  1
  B  B25  1  0.500000  0.017379  0.786369  1
  B  B26  1  0.500000  0.482558  0.286342  1
  B  B27  1  0.500000  0.517398  0.713646  1
  B  B28  1  0.500000  0.604649  0.028805  1
  B  B29  1  0.500000  0.395338  0.971183  1
  B  B30  1  0.500000  0.105167  0.471433  1
  B  B31  1  0.500000  0.895159  0.529244  1
  Os  Os32  1  0.000000  0.637719  0.320458  1
  Os  Os33  1  0.000000  0.361821  0.679537  1
  Os  Os34  1  0.000000  0.138526  0.179209  1
  Os  Os35  1  0.000000  0.861777  0.820552  1
