# generated using pymatgen
data_HoZn3AgPd
_symmetry_space_group_name_H-M   'P 1'
_cell_length_a   5.23545684
_cell_length_b   5.23545686
_cell_length_c   5.25041600
_cell_angle_alpha   60.09419344
_cell_angle_beta   60.09419334
_cell_angle_gamma   59.99999776
_symmetry_Int_Tables_number   1
_chemical_formula_structural   HoZn3AgPd
_chemical_formula_sum   'Ho1 Zn3 Ag1 Pd1'
_cell_volume   101.90716798
_cell_formula_units_Z   1
loop_
 _symmetry_equiv_pos_site_id
 _symmetry_equiv_pos_as_xyz
  1  'x, y, z'
loop_
 _atom_site_type_symbol
 _atom_site_label
 _atom_site_symmetry_multiplicity
 _atom_site_fract_x
 _atom_site_fract_y
 _atom_site_fract_z
 _atom_site_occupancy
  Ho  Ho0  1  0.998435  0.998435  0.004695  1
  Zn  Zn1  1  0.623854  0.131311  0.620982  1
  Zn  Zn2  1  0.131311  0.623854  0.620982  1
  Zn  Zn3  1  0.623854  0.623854  0.620982  1
  Ag  Ag4  1  0.245145  0.245145  0.264566  1
  Pd  Pd5  1  0.627402  0.627402  0.117797  1
