# generated using pymatgen
data_Tb4Tm8Tc3Rh
_symmetry_space_group_name_H-M   'P 1'
_cell_length_a   6.24464300
_cell_length_b   7.33928455
_cell_length_c   9.04425700
_cell_angle_alpha   90.00000000
_cell_angle_beta   90.00000000
_cell_angle_gamma   89.92346284
_symmetry_Int_Tables_number   1
_chemical_formula_structural   Tb4Tm8Tc3Rh
_chemical_formula_sum   'Tb4 Tm8 Tc3 Rh1'
_cell_volume   414.50888902
_cell_formula_units_Z   1
loop_
 _symmetry_equiv_pos_site_id
 _symmetry_equiv_pos_as_xyz
  1  'x, y, z'
loop_
 _atom_site_type_symbol
 _atom_site_label
 _atom_site_symmetry_multiplicity
 _atom_site_fract_x
 _atom_site_fract_y
 _atom_site_fract_z
 _atom_site_occupancy
  Tb  Tb0  1  0.874315  0.540753  0.250000  1
  Tb  Tb1  1  0.623833  0.038291  0.250000  1
  Tb  Tb2  1  0.129904  0.457503  0.750000  1
  Tb  Tb3  1  0.373332  0.959372  0.750000  1
  Tm  Tm4  1  0.333015  0.676872  0.065317  1
  Tm  Tm5  1  0.161901  0.176338  0.436976  1
  Tm  Tm6  1  0.662354  0.321374  0.561622  1
  Tm  Tm7  1  0.838279  0.826045  0.938302  1
  Tm  Tm8  1  0.662354  0.321374  0.938378  1
  Tm  Tm9  1  0.838279  0.826045  0.561698  1
  Tm  Tm10  1  0.333015  0.676872  0.434683  1
  Tm  Tm11  1  0.161901  0.176338  0.063024  1
  Tc  Tc12  1  0.040852  0.884225  0.250000  1
  Tc  Tc13  1  0.460753  0.386668  0.250000  1
  Tc  Tc14  1  0.958497  0.116722  0.750000  1
  Rh  Rh15  1  0.547419  0.615207  0.750000  1
