# generated using pymatgen
data_Yb4CuNi19Sn4
_symmetry_space_group_name_H-M   'P 1'
_cell_length_a   4.83044300
_cell_length_b   8.02153093
_cell_length_c   10.21691639
_cell_angle_alpha   90.19826089
_cell_angle_beta   90.00000000
_cell_angle_gamma   90.00000000
_symmetry_Int_Tables_number   1
_chemical_formula_structural   Yb4CuNi19Sn4
_chemical_formula_sum   'Yb4 Cu1 Ni19 Sn4'
_cell_volume   395.87808740
_cell_formula_units_Z   1
loop_
 _symmetry_equiv_pos_site_id
 _symmetry_equiv_pos_as_xyz
  1  'x, y, z'
loop_
 _atom_site_type_symbol
 _atom_site_label
 _atom_site_symmetry_multiplicity
 _atom_site_fract_x
 _atom_site_fract_y
 _atom_site_fract_z
 _atom_site_occupancy
  Yb  Yb0  1  0.750000  0.249358  0.560318  1
  Yb  Yb1  1  0.250000  0.253464  0.060050  1
  Yb  Yb2  1  0.750000  0.746089  0.941281  1
  Yb  Yb3  1  0.250000  0.750864  0.439429  1
  Cu  Cu4  1  0.750000  0.918258  0.481982  1
  Ni  Ni5  1  0.250000  0.585848  0.983562  1
  Ni  Ni6  1  0.750000  0.413420  0.016611  1
  Ni  Ni7  1  0.250000  0.085334  0.516729  1
  Ni  Ni8  1  0.250000  0.189013  0.742474  1
  Ni  Ni9  1  0.750000  0.311276  0.242668  1
  Ni  Ni10  1  0.250000  0.688542  0.757753  1
  Ni  Ni11  1  0.750000  0.810723  0.256021  1
  Ni  Ni12  1  0.750000  0.547176  0.400044  1
  Ni  Ni13  1  0.250000  0.952024  0.899450  1
  Ni  Ni14  1  0.750000  0.047815  0.100092  1
  Ni  Ni15  1  0.250000  0.452202  0.600751  1
  Ni  Ni16  1  0.496603  0.066704  0.307777  1
  Ni  Ni17  1  0.501290  0.434188  0.810373  1
  Ni  Ni18  1  0.001671  0.565126  0.190316  1
  Ni  Ni19  1  0.999017  0.934264  0.691148  1
  Ni  Ni20  1  0.500983  0.934264  0.691148  1
  Ni  Ni21  1  0.498329  0.565126  0.190316  1
  Ni  Ni22  1  0.998710  0.434188  0.810373  1
  Ni  Ni23  1  0.003397  0.066704  0.307777  1
  Sn  Sn24  1  0.750000  0.636669  0.640189  1
  Sn  Sn25  1  0.250000  0.860745  0.137974  1
  Sn  Sn26  1  0.750000  0.139334  0.861516  1
  Sn  Sn27  1  0.250000  0.361281  0.361879  1
