# generated using pymatgen
data_Tb2HoFe4Co5P6
_symmetry_space_group_name_H-M   'P 1'
_cell_length_a   3.70776400
_cell_length_b   10.53672500
_cell_length_c   12.13479200
_cell_angle_alpha   90.00000000
_cell_angle_beta   90.00000000
_cell_angle_gamma   90.00000000
_symmetry_Int_Tables_number   1
_chemical_formula_structural   Tb2HoFe4Co5P6
_chemical_formula_sum   'Tb4 Ho2 Fe8 Co10 P12'
_cell_volume   474.07828762
_cell_formula_units_Z   2
loop_
 _symmetry_equiv_pos_site_id
 _symmetry_equiv_pos_as_xyz
  1  'x, y, z'
loop_
 _atom_site_type_symbol
 _atom_site_label
 _atom_site_symmetry_multiplicity
 _atom_site_fract_x
 _atom_site_fract_y
 _atom_site_fract_z
 _atom_site_occupancy
  Tb  Tb0  1  0.000000  0.500000  0.523275  1
  Tb  Tb1  1  0.500000  0.000000  0.477234  1
  Tb  Tb2  1  0.500000  0.818492  0.204975  1
  Tb  Tb3  1  0.500000  0.181508  0.204975  1
  Ho  Ho4  1  0.000000  0.681219  0.794990  1
  Ho  Ho5  1  0.000000  0.318781  0.794990  1
  Fe  Fe6  1  0.000000  0.500000  0.986413  1
  Fe  Fe7  1  0.500000  0.000000  0.012201  1
  Fe  Fe8  1  0.500000  0.298424  0.429338  1
  Fe  Fe9  1  0.500000  0.701576  0.429338  1
  Fe  Fe10  1  0.000000  0.201951  0.571710  1
  Fe  Fe11  1  0.000000  0.798049  0.571710  1
  Fe  Fe12  1  0.500000  0.500000  0.154938  1
  Fe  Fe13  1  0.000000  0.000000  0.844834  1
  Co  Co14  1  0.500000  0.880562  0.712326  1
  Co  Co15  1  0.500000  0.119438  0.712326  1
  Co  Co16  1  0.000000  0.618944  0.288078  1
  Co  Co17  1  0.000000  0.381056  0.288078  1
  Co  Co18  1  0.500000  0.332373  0.993327  1
  Co  Co19  1  0.500000  0.667627  0.993327  1
  Co  Co20  1  0.000000  0.168150  0.005471  1
  Co  Co21  1  0.000000  0.831850  0.005471  1
  Co  Co22  1  0.500000  0.500000  0.700308  1
  Co  Co23  1  0.000000  0.000000  0.300204  1
  P  P24  1  0.500000  0.306998  0.615046  1
  P  P25  1  0.500000  0.693002  0.615046  1
  P  P26  1  0.000000  0.193365  0.386121  1
  P  P27  1  0.000000  0.806635  0.386121  1
  P  P28  1  0.500000  0.500000  0.883027  1
  P  P29  1  0.000000  0.000000  0.115748  1
  P  P30  1  0.500000  0.847856  0.894090  1
  P  P31  1  0.500000  0.152144  0.894090  1
  P  P32  1  0.000000  0.651140  0.105301  1
  P  P33  1  0.000000  0.348860  0.105301  1
  P  P34  1  0.500000  0.500000  0.341939  1
  P  P35  1  0.000000  0.000000  0.658335  1
