# generated using pymatgen
data_HoTm3(Al3Rh)6
_symmetry_space_group_name_H-M   'P 1'
_cell_length_a   7.53652373
_cell_length_b   7.53907861
_cell_length_c   9.41904900
_cell_angle_alpha   90.00000000
_cell_angle_beta   90.00000000
_cell_angle_gamma   119.30996383
_symmetry_Int_Tables_number   1
_chemical_formula_structural   HoTm3(Al3Rh)6
_chemical_formula_sum   'Ho1 Tm3 Al18 Rh6'
_cell_volume   466.66474477
_cell_formula_units_Z   1
loop_
 _symmetry_equiv_pos_site_id
 _symmetry_equiv_pos_as_xyz
  1  'x, y, z'
loop_
 _atom_site_type_symbol
 _atom_site_label
 _atom_site_symmetry_multiplicity
 _atom_site_fract_x
 _atom_site_fract_y
 _atom_site_fract_z
 _atom_site_occupancy
  Ho  Ho0  1  0.993840  0.671933  0.250000  1
  Tm  Tm1  1  0.005951  0.328018  0.750000  1
  Tm  Tm2  1  0.671956  0.994086  0.250000  1
  Tm  Tm3  1  0.328212  0.006031  0.750000  1
  Al  Al4  1  0.127776  0.128411  0.250000  1
  Al  Al5  1  0.871599  0.871887  0.750000  1
  Al  Al6  1  0.000596  0.334949  0.075083  1
  Al  Al7  1  0.999342  0.664021  0.923400  1
  Al  Al8  1  0.999342  0.664021  0.576600  1
  Al  Al9  1  0.336609  0.001351  0.424729  1
  Al  Al10  1  0.000596  0.334949  0.424917  1
  Al  Al11  1  0.664079  0.999447  0.575512  1
  Al  Al12  1  0.664079  0.999447  0.924488  1
  Al  Al13  1  0.336609  0.001351  0.075271  1
  Al  Al14  1  0.332283  0.332238  0.550864  1
  Al  Al15  1  0.666993  0.667792  0.450440  1
  Al  Al16  1  0.666993  0.667792  0.049560  1
  Al  Al17  1  0.332283  0.332238  0.949136  1
  Al  Al18  1  0.340514  0.551077  0.250000  1
  Al  Al19  1  0.660176  0.449728  0.750000  1
  Al  Al20  1  0.550222  0.338827  0.250000  1
  Al  Al21  1  0.450080  0.660412  0.750000  1
  Rh  Rh22  1  0.671866  0.327340  0.999398  1
  Rh  Rh23  1  0.327646  0.671941  0.999433  1
  Rh  Rh24  1  0.327646  0.671941  0.500567  1
  Rh  Rh25  1  0.671866  0.327340  0.500602  1
  Rh  Rh26  1  0.000422  0.000715  0.999151  1
  Rh  Rh27  1  0.000422  0.000715  0.500849  1
