# generated using pymatgen
data_Yb4P8Pd15Pt
_symmetry_space_group_name_H-M   'P 1'
_cell_length_a   4.18833800
_cell_length_b   7.42270329
_cell_length_c   15.08694400
_cell_angle_alpha   89.94605968
_cell_angle_beta   90.00000000
_cell_angle_gamma   90.00000000
_symmetry_Int_Tables_number   1
_chemical_formula_structural   Yb4P8Pd15Pt
_chemical_formula_sum   'Yb4 P8 Pd15 Pt1'
_cell_volume   469.03462967
_cell_formula_units_Z   1
loop_
 _symmetry_equiv_pos_site_id
 _symmetry_equiv_pos_as_xyz
  1  'x, y, z'
loop_
 _atom_site_type_symbol
 _atom_site_label
 _atom_site_symmetry_multiplicity
 _atom_site_fract_x
 _atom_site_fract_y
 _atom_site_fract_z
 _atom_site_occupancy
  Yb  Yb0  1  0.250000  0.858560  0.183717  1
  Yb  Yb1  1  0.750000  0.139451  0.816425  1
  Yb  Yb2  1  0.250000  0.360152  0.315808  1
  Yb  Yb3  1  0.750000  0.641870  0.683805  1
  P  P4  1  0.250000  0.312840  0.694896  1
  P  P5  1  0.250000  0.778961  0.553947  1
  P  P6  1  0.750000  0.219010  0.443365  1
  P  P7  1  0.750000  0.186379  0.193921  1
  P  P8  1  0.250000  0.813007  0.805325  1
  P  P9  1  0.250000  0.280206  0.946032  1
  P  P10  1  0.750000  0.718903  0.054387  1
  P  P11  1  0.750000  0.685959  0.305764  1
  Pd  Pd12  1  0.250000  0.984639  0.674385  1
  Pd  Pd13  1  0.250000  0.484321  0.824706  1
  Pd  Pd14  1  0.750000  0.379773  0.994108  1
  Pd  Pd15  1  0.750000  0.741192  0.884275  1
  Pd  Pd16  1  0.750000  0.534648  0.445708  1
  Pd  Pd17  1  0.750000  0.239644  0.616631  1
  Pd  Pd18  1  0.750000  0.514827  0.175315  1
  Pd  Pd19  1  0.750000  0.032680  0.055586  1
  Pd  Pd20  1  0.250000  0.758184  0.384408  1
  Pd  Pd21  1  0.250000  0.258245  0.115655  1
  Pd  Pd22  1  0.250000  0.966875  0.943903  1
  Pd  Pd23  1  0.250000  0.124784  0.493683  1
  Pd  Pd24  1  0.750000  0.882571  0.505890  1
  Pd  Pd25  1  0.750000  0.013808  0.323683  1
  Pd  Pd26  1  0.250000  0.620437  0.005613  1
  Pt  Pt27  1  0.250000  0.468076  0.559060  1
