# generated using pymatgen
data_Yb3Th5GaPd24
_symmetry_space_group_name_H-M   'P 1'
_cell_length_a   8.44085223
_cell_length_b   8.44085223
_cell_length_c   8.44085223
_cell_angle_alpha   89.69684726
_cell_angle_beta   89.69684726
_cell_angle_gamma   90.30315274
_symmetry_Int_Tables_number   1
_chemical_formula_structural   Yb3Th5GaPd24
_chemical_formula_sum   'Yb3 Th5 Ga1 Pd24'
_cell_volume   601.36838188
_cell_formula_units_Z   1
loop_
 _symmetry_equiv_pos_site_id
 _symmetry_equiv_pos_as_xyz
  1  'x, y, z'
loop_
 _atom_site_type_symbol
 _atom_site_label
 _atom_site_symmetry_multiplicity
 _atom_site_fract_x
 _atom_site_fract_y
 _atom_site_fract_z
 _atom_site_occupancy
  Yb  Yb0  1  0.748610  0.251255  0.748745  1
  Yb  Yb1  1  0.251255  0.748610  0.748745  1
  Yb  Yb2  1  0.251255  0.251255  0.251390  1
  Th  Th3  1  0.252395  0.252395  0.747605  1
  Th  Th4  1  0.251669  0.747603  0.252397  1
  Th  Th5  1  0.747603  0.251669  0.252397  1
  Th  Th6  1  0.747603  0.747603  0.748331  1
  Th  Th7  1  0.749945  0.749945  0.250055  1
  Ga  Ga8  1  0.999156  0.999156  0.000844  1
  Pd  Pd9  1  0.500071  0.500071  0.747410  1
  Pd  Pd10  1  0.500071  0.252590  0.499929  1
  Pd  Pd11  1  0.252590  0.500071  0.499929  1
  Pd  Pd12  1  0.499409  0.499409  0.253046  1
  Pd  Pd13  1  0.499409  0.746954  0.500591  1
  Pd  Pd14  1  0.746954  0.499409  0.500591  1
  Pd  Pd15  1  0.998575  0.998575  0.708882  1
  Pd  Pd16  1  0.998575  0.291118  0.001425  1
  Pd  Pd17  1  0.291118  0.998575  0.001425  1
  Pd  Pd18  1  0.004327  0.004327  0.293485  1
  Pd  Pd19  1  0.004327  0.706515  0.995673  1
  Pd  Pd20  1  0.706515  0.004327  0.995673  1
  Pd  Pd21  1  0.998893  0.498816  0.739642  1
  Pd  Pd22  1  0.498816  0.260358  0.001107  1
  Pd  Pd23  1  0.260358  0.998893  0.501184  1
  Pd  Pd24  1  0.998893  0.260358  0.501184  1
  Pd  Pd25  1  0.498816  0.998893  0.739642  1
  Pd  Pd26  1  0.260358  0.498816  0.001107  1
  Pd  Pd27  1  0.001011  0.499856  0.259650  1
  Pd  Pd28  1  0.499856  0.740350  0.998989  1
  Pd  Pd29  1  0.001011  0.740350  0.500144  1
  Pd  Pd30  1  0.499856  0.001011  0.259650  1
  Pd  Pd31  1  0.740350  0.001011  0.500144  1
  Pd  Pd32  1  0.740350  0.499856  0.998989  1
