# generated using pymatgen
data_TbHo3Sc6(GaSi3)2
_symmetry_space_group_name_H-M   'P 1'
_cell_length_a   7.12733241
_cell_length_b   7.40636013
_cell_length_c   14.13460373
_cell_angle_alpha   90.04204033
_cell_angle_beta   89.87380566
_cell_angle_gamma   90.16190939
_symmetry_Int_Tables_number   1
_chemical_formula_structural   TbHo3Sc6(GaSi3)2
_chemical_formula_sum   'Tb2 Ho6 Sc12 Ga4 Si12'
_cell_volume   746.12668810
_cell_formula_units_Z   2
loop_
 _symmetry_equiv_pos_site_id
 _symmetry_equiv_pos_as_xyz
  1  'x, y, z'
loop_
 _atom_site_type_symbol
 _atom_site_label
 _atom_site_symmetry_multiplicity
 _atom_site_fract_x
 _atom_site_fract_y
 _atom_site_fract_z
 _atom_site_occupancy
  Tb  Tb0  1  0.013696  0.174434  0.096910  1
  Tb  Tb1  1  0.988006  0.825253  0.901833  1
  Ho  Ho2  1  0.486987  0.676870  0.901315  1
  Ho  Ho3  1  0.987650  0.827524  0.600483  1
  Ho  Ho4  1  0.510827  0.321445  0.097349  1
  Ho  Ho5  1  0.009819  0.174731  0.400543  1
  Ho  Ho6  1  0.511223  0.324541  0.400602  1
  Ho  Ho7  1  0.490157  0.675870  0.600666  1
  Sc  Sc8  1  0.162623  0.501066  0.751216  1
  Sc  Sc9  1  0.836682  0.498101  0.250194  1
  Sc  Sc10  1  0.336516  0.002146  0.248575  1
  Sc  Sc11  1  0.663057  0.998396  0.749919  1
  Sc  Sc12  1  0.333191  0.174938  0.627611  1
  Sc  Sc13  1  0.669315  0.825982  0.373898  1
  Sc  Sc14  1  0.170249  0.674028  0.373194  1
  Sc  Sc15  1  0.668693  0.825785  0.125487  1
  Sc  Sc16  1  0.828868  0.324400  0.626623  1
  Sc  Sc17  1  0.330593  0.175852  0.874574  1
  Sc  Sc18  1  0.829088  0.323389  0.874179  1
  Sc  Sc19  1  0.173197  0.675455  0.124517  1
  Ga  Ga20  1  0.161612  0.461598  0.539835  1
  Ga  Ga21  1  0.839259  0.537938  0.461366  1
  Ga  Ga22  1  0.339420  0.961816  0.461585  1
  Ga  Ga23  1  0.839469  0.538023  0.038715  1
  Si  Si24  1  0.033050  0.117069  0.751042  1
  Si  Si25  1  0.966690  0.883438  0.249378  1
  Si  Si26  1  0.467157  0.614369  0.248474  1
  Si  Si27  1  0.532906  0.385133  0.751184  1
  Si  Si28  1  0.286679  0.871847  0.750817  1
  Si  Si29  1  0.714588  0.127618  0.248914  1
  Si  Si30  1  0.214564  0.372567  0.248990  1
  Si  Si31  1  0.786544  0.628528  0.751245  1
  Si  Si32  1  0.658123  0.036258  0.539429  1
  Si  Si33  1  0.158470  0.463556  0.960565  1
  Si  Si34  1  0.655673  0.036238  0.961182  1
  Si  Si35  1  0.345357  0.963792  0.037594  1
