# generated using pymatgen
data_SmEr2Tm(Si3Rh)2
_symmetry_space_group_name_H-M   'P 1'
_cell_length_a   8.15737701
_cell_length_b   8.15685333
_cell_length_c   7.89073100
_cell_angle_alpha   90.00000000
_cell_angle_beta   90.00000000
_cell_angle_gamma   119.99787452
_symmetry_Int_Tables_number   1
_chemical_formula_structural   SmEr2Tm(Si3Rh)2
_chemical_formula_sum   'Sm2 Er4 Tm2 Si12 Rh4'
_cell_volume   454.70565825
_cell_formula_units_Z   2
loop_
 _symmetry_equiv_pos_site_id
 _symmetry_equiv_pos_as_xyz
  1  'x, y, z'
loop_
 _atom_site_type_symbol
 _atom_site_label
 _atom_site_symmetry_multiplicity
 _atom_site_fract_x
 _atom_site_fract_y
 _atom_site_fract_z
 _atom_site_occupancy
  Sm  Sm0  1  0.999871  0.999935  0.250000  1
  Sm  Sm1  1  0.000019  0.000010  0.750000  1
  Er  Er2  1  0.017024  0.508512  0.250000  1
  Er  Er3  1  0.508109  0.491849  0.750000  1
  Er  Er4  1  0.983703  0.491852  0.750000  1
  Er  Er5  1  0.508109  0.016262  0.750000  1
  Tm  Tm6  1  0.491872  0.508291  0.250000  1
  Tm  Tm7  1  0.491872  0.983580  0.250000  1
  Si  Si8  1  0.831913  0.168155  0.501681  1
  Si  Si9  1  0.831913  0.663758  0.501681  1
  Si  Si10  1  0.336054  0.168027  0.501574  1
  Si  Si11  1  0.831913  0.168155  0.998319  1
  Si  Si12  1  0.831913  0.663758  0.998319  1
  Si  Si13  1  0.336054  0.168027  0.998426  1
  Si  Si14  1  0.167960  0.832038  0.002431  1
  Si  Si15  1  0.664173  0.832087  0.002850  1
  Si  Si16  1  0.167960  0.335922  0.002431  1
  Si  Si17  1  0.167960  0.832038  0.497569  1
  Si  Si18  1  0.664173  0.832087  0.497150  1
  Si  Si19  1  0.167960  0.335922  0.497569  1
  Rh  Rh20  1  0.666051  0.333025  0.463337  1
  Rh  Rh21  1  0.666051  0.333025  0.036663  1
  Rh  Rh22  1  0.333686  0.666843  0.966384  1
  Rh  Rh23  1  0.333686  0.666843  0.533616  1
