# generated using pymatgen
data_Y9Tm11Cd3Ni2Au3
_symmetry_space_group_name_H-M   'P 1'
_cell_length_a   9.55002303
_cell_length_b   9.55002038
_cell_length_c   9.48341000
_cell_angle_alpha   89.99833228
_cell_angle_beta   90.00160741
_cell_angle_gamma   119.99431550
_symmetry_Int_Tables_number   1
_chemical_formula_structural   Y9Tm11Cd3Ni2Au3
_chemical_formula_sum   'Y9 Tm11 Cd3 Ni2 Au3'
_cell_volume   749.08094489
_cell_formula_units_Z   1
loop_
 _symmetry_equiv_pos_site_id
 _symmetry_equiv_pos_as_xyz
  1  'x, y, z'
loop_
 _atom_site_type_symbol
 _atom_site_label
 _atom_site_symmetry_multiplicity
 _atom_site_fract_x
 _atom_site_fract_y
 _atom_site_fract_z
 _atom_site_occupancy
  Y  Y0  1  0.457269  0.542605  0.746801  1
  Y  Y1  1  0.457414  0.914675  0.746811  1
  Y  Y2  1  0.085320  0.542706  0.746812  1
  Y  Y3  1  0.790991  0.209064  0.940958  1
  Y  Y4  1  0.790926  0.581924  0.940918  1
  Y  Y5  1  0.418077  0.209016  0.940916  1
  Y  Y6  1  0.208890  0.791190  0.064338  1
  Y  Y7  1  0.208792  0.417675  0.064355  1
  Y  Y8  1  0.582328  0.791122  0.064353  1
  Tm  Tm9  1  0.000012  0.999994  0.458406  1
  Tm  Tm10  1  0.000017  0.999990  0.043071  1
  Tm  Tm11  1  0.542200  0.457597  0.253003  1
  Tm  Tm12  1  0.542367  0.084613  0.253009  1
  Tm  Tm13  1  0.915381  0.457831  0.253009  1
  Tm  Tm14  1  0.210044  0.790027  0.437272  1
  Tm  Tm15  1  0.209974  0.420032  0.437267  1
  Tm  Tm16  1  0.579969  0.789948  0.437267  1
  Tm  Tm17  1  0.790375  0.209684  0.556371  1
  Tm  Tm18  1  0.790291  0.580663  0.556393  1
  Tm  Tm19  1  0.419338  0.209649  0.556392  1
  Cd  Cd20  1  0.108958  0.891092  0.749167  1
  Cd  Cd21  1  0.108932  0.217851  0.749151  1
  Cd  Cd22  1  0.782149  0.891020  0.749151  1
  Ni  Ni23  1  0.333337  0.666667  0.254281  1
  Ni  Ni24  1  0.666669  0.333337  0.745002  1
  Au  Au25  1  0.869225  0.130894  0.251823  1
  Au  Au26  1  0.869105  0.738353  0.251853  1
  Au  Au27  1  0.261653  0.130781  0.251852  1
