# generated using pymatgen
data_RbCr(PtSe3)2
_symmetry_space_group_name_H-M   'P 1'
_cell_length_a   9.11668299
_cell_length_b   9.11668198
_cell_length_c   9.11668231
_cell_angle_alpha   41.52928193
_cell_angle_beta   41.52929310
_cell_angle_gamma   41.52929353
_symmetry_Int_Tables_number   1
_chemical_formula_structural   RbCr(PtSe3)2
_chemical_formula_sum   'Rb1 Cr1 Pt2 Se6'
_cell_volume   301.00670633
_cell_formula_units_Z   1
loop_
 _symmetry_equiv_pos_site_id
 _symmetry_equiv_pos_as_xyz
  1  'x, y, z'
loop_
 _atom_site_type_symbol
 _atom_site_label
 _atom_site_symmetry_multiplicity
 _atom_site_fract_x
 _atom_site_fract_y
 _atom_site_fract_z
 _atom_site_occupancy
  Rb  Rb0  1  0.999821  0.999821  0.999821  1
  Cr  Cr1  1  0.166013  0.166013  0.166013  1
  Pt  Pt2  1  0.500327  0.500327  0.500327  1
  Pt  Pt3  1  0.833617  0.833617  0.833617  1
  Se  Se4  1  0.552949  0.222055  0.886895  1
  Se  Se5  1  0.886895  0.552949  0.222055  1
  Se  Se6  1  0.222055  0.886895  0.552949  1
  Se  Se7  1  0.774554  0.112672  0.451098  1
  Se  Se8  1  0.112672  0.451098  0.774554  1
  Se  Se9  1  0.451098  0.774554  0.112672  1
