# generated using pymatgen
data_Pr6Si(P3Rh5)4
_symmetry_space_group_name_H-M   'P 1'
_cell_length_a   13.53188100
_cell_length_b   13.53187927
_cell_length_c   3.97351300
_cell_angle_alpha   90.00000000
_cell_angle_beta   90.00000000
_cell_angle_gamma   120.00000178
_symmetry_Int_Tables_number   1
_chemical_formula_structural   Pr6Si(P3Rh5)4
_chemical_formula_sum   'Pr6 Si1 P12 Rh20'
_cell_volume   630.11750761
_cell_formula_units_Z   1
loop_
 _symmetry_equiv_pos_site_id
 _symmetry_equiv_pos_as_xyz
  1  'x, y, z'
loop_
 _atom_site_type_symbol
 _atom_site_label
 _atom_site_symmetry_multiplicity
 _atom_site_fract_x
 _atom_site_fract_y
 _atom_site_fract_z
 _atom_site_occupancy
  Pr  Pr0  1  0.530559  0.717691  0.247656  1
  Pr  Pr1  1  0.282309  0.812868  0.247656  1
  Pr  Pr2  1  0.187132  0.469441  0.247656  1
  Pr  Pr3  1  0.469441  0.282309  0.752344  1
  Pr  Pr4  1  0.717691  0.187132  0.752344  1
  Pr  Pr5  1  0.812868  0.530559  0.752344  1
  Si  Si6  1  0.000000  0.000000  0.000000  1
  P  P7  1  0.521736  0.135180  0.250673  1
  P  P8  1  0.864820  0.386558  0.250673  1
  P  P9  1  0.613442  0.478264  0.250673  1
  P  P10  1  0.948273  0.720244  0.253502  1
  P  P11  1  0.279756  0.228027  0.253502  1
  P  P12  1  0.771973  0.051727  0.253502  1
  P  P13  1  0.386558  0.521736  0.749327  1
  P  P14  1  0.478264  0.864820  0.749327  1
  P  P15  1  0.135180  0.613442  0.749327  1
  P  P16  1  0.720244  0.771973  0.746498  1
  P  P17  1  0.228027  0.948273  0.746498  1
  P  P18  1  0.051727  0.279756  0.746498  1
  Rh  Rh19  1  0.333333  0.666667  0.751819  1
  Rh  Rh20  1  0.923700  0.250209  0.255596  1
  Rh  Rh21  1  0.749791  0.673492  0.255596  1
  Rh  Rh22  1  0.326508  0.076300  0.255596  1
  Rh  Rh23  1  0.440516  0.024885  0.751856  1
  Rh  Rh24  1  0.975115  0.415632  0.751856  1
  Rh  Rh25  1  0.584368  0.559484  0.751856  1
  Rh  Rh26  1  0.666667  0.333333  0.248181  1
  Rh  Rh27  1  0.094145  0.188935  0.244702  1
  Rh  Rh28  1  0.811065  0.905209  0.244702  1
  Rh  Rh29  1  0.094791  0.905855  0.244702  1
  Rh  Rh30  1  0.024885  0.584368  0.248144  1
  Rh  Rh31  1  0.415632  0.440516  0.248144  1
  Rh  Rh32  1  0.559484  0.975115  0.248144  1
  Rh  Rh33  1  0.673492  0.923700  0.744404  1
  Rh  Rh34  1  0.076300  0.749791  0.744404  1
  Rh  Rh35  1  0.250209  0.326508  0.744404  1
  Rh  Rh36  1  0.905855  0.811065  0.755298  1
  Rh  Rh37  1  0.188935  0.094791  0.755298  1
  Rh  Rh38  1  0.905209  0.094145  0.755298  1
