# generated using pymatgen
data_TbNdNi2(B4Os3)2
_symmetry_space_group_name_H-M   'P 1'
_cell_length_a   7.59412439
_cell_length_b   7.29296254
_cell_length_c   3.98670200
_cell_angle_alpha   90.00000000
_cell_angle_beta   90.00000000
_cell_angle_gamma   87.78671429
_symmetry_Int_Tables_number   1
_chemical_formula_structural   TbNdNi2(B4Os3)2
_chemical_formula_sum   'Tb1 Nd1 Ni2 B8 Os6'
_cell_volume   220.63344883
_cell_formula_units_Z   1
loop_
 _symmetry_equiv_pos_site_id
 _symmetry_equiv_pos_as_xyz
  1  'x, y, z'
loop_
 _atom_site_type_symbol
 _atom_site_label
 _atom_site_symmetry_multiplicity
 _atom_site_fract_x
 _atom_site_fract_y
 _atom_site_fract_z
 _atom_site_occupancy
  Tb  Tb0  1  0.000000  0.000000  0.401986  1
  Nd  Nd1  1  0.500000  0.500000  0.987730  1
  Ni  Ni2  1  0.359857  0.114939  0.118616  1
  Ni  Ni3  1  0.640143  0.885061  0.118616  1
  B  B4  1  0.655932  0.807888  0.615656  1
  B  B5  1  0.172543  0.278810  0.893178  1
  B  B6  1  0.292254  0.831932  0.117595  1
  B  B7  1  0.707746  0.168068  0.117595  1
  B  B8  1  0.344068  0.192112  0.615656  1
  B  B9  1  0.827457  0.721190  0.893178  1
  B  B10  1  0.218020  0.665486  0.397738  1
  B  B11  1  0.781980  0.334514  0.397738  1
  Os  Os12  1  0.619852  0.130785  0.623793  1
  Os  Os13  1  0.101910  0.652471  0.894970  1
  Os  Os14  1  0.151832  0.384949  0.393596  1
  Os  Os15  1  0.848168  0.615051  0.393596  1
  Os  Os16  1  0.898090  0.347529  0.894970  1
  Os  Os17  1  0.380148  0.869215  0.623793  1
