# generated using pymatgen
data_Eu6TmLuSb6
_symmetry_space_group_name_H-M   'P 1'
_cell_length_a   8.24716479
_cell_length_b   8.24082433
_cell_length_c   8.31385401
_cell_angle_alpha   70.62662037
_cell_angle_beta   70.58118006
_cell_angle_gamma   108.96912137
_symmetry_Int_Tables_number   1
_chemical_formula_structural   Eu6TmLuSb6
_chemical_formula_sum   'Eu6 Tm1 Lu1 Sb6'
_cell_volume   438.42721955
_cell_formula_units_Z   1
loop_
 _symmetry_equiv_pos_site_id
 _symmetry_equiv_pos_as_xyz
  1  'x, y, z'
loop_
 _atom_site_type_symbol
 _atom_site_label
 _atom_site_symmetry_multiplicity
 _atom_site_fract_x
 _atom_site_fract_y
 _atom_site_fract_z
 _atom_site_occupancy
  Eu  Eu0  1  0.000933  0.361806  0.494390  1
  Eu  Eu1  1  0.495373  0.495783  0.147196  1
  Eu  Eu2  1  0.642618  0.146070  0.359480  1
  Eu  Eu3  1  0.362076  0.000989  0.994289  1
  Eu  Eu4  1  0.495590  0.495171  0.647281  1
  Eu  Eu5  1  0.146172  0.642582  0.859594  1
  Tm  Tm6  1  0.002352  0.858288  0.497201  1
  Lu  Lu7  1  0.858735  0.002303  0.997183  1
  Sb  Sb8  1  0.643433  0.875430  0.748270  1
  Sb  Sb9  1  0.875223  0.644025  0.247366  1
  Sb  Sb10  1  0.229080  0.112423  0.633886  1
  Sb  Sb11  1  0.758787  0.376920  0.870665  1
  Sb  Sb12  1  0.377611  0.758853  0.370372  1
  Sb  Sb13  1  0.112016  0.229355  0.132823  1
