# generated using pymatgen
data_Y7Er13(GaBi2)4
_symmetry_space_group_name_H-M   'P 1'
_cell_length_a   8.05170522
_cell_length_b   9.22958900
_cell_length_c   12.07094633
_cell_angle_alpha   90.00000000
_cell_angle_beta   90.02693187
_cell_angle_gamma   90.00000000
_symmetry_Int_Tables_number   1
_chemical_formula_structural   Y7Er13(GaBi2)4
_chemical_formula_sum   'Y7 Er13 Ga4 Bi8'
_cell_volume   897.03936117
_cell_formula_units_Z   1
loop_
 _symmetry_equiv_pos_site_id
 _symmetry_equiv_pos_as_xyz
  1  'x, y, z'
loop_
 _atom_site_type_symbol
 _atom_site_label
 _atom_site_symmetry_multiplicity
 _atom_site_fract_x
 _atom_site_fract_y
 _atom_site_fract_z
 _atom_site_occupancy
  Y  Y0  1  0.667969  0.750000  0.715756  1
  Y  Y1  1  0.331990  0.250000  0.284150  1
  Y  Y2  1  0.168121  0.250000  0.784069  1
  Y  Y3  1  0.831758  0.750000  0.215898  1
  Y  Y4  1  0.143654  0.750000  0.794832  1
  Y  Y5  1  0.856489  0.250000  0.205161  1
  Y  Y6  1  0.643546  0.250000  0.705101  1
  Er  Er7  1  0.356525  0.750000  0.295099  1
  Er  Er8  1  0.539644  0.750000  0.002756  1
  Er  Er9  1  0.460159  0.250000  0.997545  1
  Er  Er10  1  0.039816  0.250000  0.497525  1
  Er  Er11  1  0.960316  0.750000  0.502502  1
  Er  Er12  1  0.819286  0.446854  0.936199  1
  Er  Er13  1  0.180902  0.553442  0.064049  1
  Er  Er14  1  0.319296  0.553388  0.563519  1
  Er  Er15  1  0.180902  0.946558  0.064049  1
  Er  Er16  1  0.680659  0.446763  0.436183  1
  Er  Er17  1  0.819286  0.053146  0.936199  1
  Er  Er18  1  0.680659  0.053237  0.436183  1
  Er  Er19  1  0.319296  0.946612  0.563519  1
  Ga  Ga20  1  0.908517  0.750000  0.975858  1
  Ga  Ga21  1  0.091476  0.250000  0.024244  1
  Ga  Ga22  1  0.408519  0.250000  0.524227  1
  Ga  Ga23  1  0.590841  0.750000  0.475154  1
  Bi  Bi24  1  0.935450  0.008682  0.673529  1
  Bi  Bi25  1  0.064975  0.990967  0.326380  1
  Bi  Bi26  1  0.435532  0.991268  0.826398  1
  Bi  Bi27  1  0.064975  0.509033  0.326380  1
  Bi  Bi28  1  0.564230  0.008363  0.173805  1
  Bi  Bi29  1  0.935450  0.491318  0.673529  1
  Bi  Bi30  1  0.564230  0.491637  0.173805  1
  Bi  Bi31  1  0.435532  0.508732  0.826398  1
