# generated using pymatgen
data_Rb4UIrBr12
_symmetry_space_group_name_H-M   'P 1'
_cell_length_a   7.65856000
_cell_length_b   7.65856000
_cell_length_c   11.16971900
_cell_angle_alpha   90.00000000
_cell_angle_beta   90.00000000
_cell_angle_gamma   90.00000000
_symmetry_Int_Tables_number   1
_chemical_formula_structural   Rb4UIrBr12
_chemical_formula_sum   'Rb4 U1 Ir1 Br12'
_cell_volume   655.14357441
_cell_formula_units_Z   1
loop_
 _symmetry_equiv_pos_site_id
 _symmetry_equiv_pos_as_xyz
  1  'x, y, z'
loop_
 _atom_site_type_symbol
 _atom_site_label
 _atom_site_symmetry_multiplicity
 _atom_site_fract_x
 _atom_site_fract_y
 _atom_site_fract_z
 _atom_site_occupancy
  Rb  Rb0  1  0.500000  0.000000  0.788088  1
  Rb  Rb1  1  0.500000  0.000000  0.211912  1
  Rb  Rb2  1  0.000000  0.500000  0.211912  1
  Rb  Rb3  1  0.000000  0.500000  0.788088  1
  U  U4  1  0.500000  0.500000  0.500000  1
  Ir  Ir5  1  0.000000  0.000000  0.000000  1
  Br  Br6  1  0.776727  0.242037  0.000000  1
  Br  Br7  1  0.223273  0.757963  0.000000  1
  Br  Br8  1  0.500000  0.500000  0.256070  1
  Br  Br9  1  0.307421  0.204107  0.500000  1
  Br  Br10  1  0.242037  0.223273  0.000000  1
  Br  Br11  1  0.795893  0.307421  0.500000  1
  Br  Br12  1  0.000000  0.000000  0.226359  1
  Br  Br13  1  0.692579  0.795893  0.500000  1
  Br  Br14  1  0.204107  0.692579  0.500000  1
  Br  Br15  1  0.500000  0.500000  0.743930  1
  Br  Br16  1  0.757963  0.776727  0.000000  1
  Br  Br17  1  0.000000  0.000000  0.773641  1
