# generated using pymatgen
data_DyYEr4FeBi2
_symmetry_space_group_name_H-M   'P 1'
_cell_length_a   8.27668982
_cell_length_b   8.27994900
_cell_length_c   4.17148600
_cell_angle_alpha   90.00000000
_cell_angle_beta   90.00000000
_cell_angle_gamma   119.97048828
_symmetry_Int_Tables_number   1
_chemical_formula_structural   DyYEr4FeBi2
_chemical_formula_sum   'Dy1 Y1 Er4 Fe1 Bi2'
_cell_volume   247.64800708
_cell_formula_units_Z   1
loop_
 _symmetry_equiv_pos_site_id
 _symmetry_equiv_pos_as_xyz
  1  'x, y, z'
loop_
 _atom_site_type_symbol
 _atom_site_label
 _atom_site_symmetry_multiplicity
 _atom_site_fract_x
 _atom_site_fract_y
 _atom_site_fract_z
 _atom_site_occupancy
  Dy  Dy0  1  0.607723  0.000321  0.000000  1
  Y  Y1  1  0.000297  0.607633  0.000000  1
  Er  Er2  1  0.230330  0.000521  0.500000  1
  Er  Er3  1  0.000510  0.230307  0.500000  1
  Er  Er4  1  0.770713  0.770733  0.500000  1
  Er  Er5  1  0.389825  0.389841  0.000000  1
  Fe  Fe6  1  0.001466  0.001501  0.000000  1
  Bi  Bi7  1  0.333395  0.665657  0.500000  1
  Bi  Bi8  1  0.665743  0.333487  0.500000  1
