# generated using pymatgen
data_Rb8Hf6BI20
_symmetry_space_group_name_H-M   'P 1'
_cell_length_a   12.86050968
_cell_length_b   12.86050979
_cell_length_c   12.86050900
_cell_angle_alpha   59.99999947
_cell_angle_beta   59.99999919
_cell_angle_gamma   59.99999677
_symmetry_Int_Tables_number   1
_chemical_formula_structural   Rb8Hf6BI20
_chemical_formula_sum   'Rb8 Hf6 B1 I20'
_cell_volume   1504.04042802
_cell_formula_units_Z   1
loop_
 _symmetry_equiv_pos_site_id
 _symmetry_equiv_pos_as_xyz
  1  'x, y, z'
loop_
 _atom_site_type_symbol
 _atom_site_label
 _atom_site_symmetry_multiplicity
 _atom_site_fract_x
 _atom_site_fract_y
 _atom_site_fract_z
 _atom_site_occupancy
  Rb  Rb0  1  0.361601  0.361601  0.361601  1
  Rb  Rb1  1  0.638399  0.638399  0.638399  1
  Rb  Rb2  1  0.361601  0.361601  0.915198  1
  Rb  Rb3  1  0.361601  0.915198  0.361601  1
  Rb  Rb4  1  0.638399  0.638399  0.084802  1
  Rb  Rb5  1  0.638399  0.084802  0.638399  1
  Rb  Rb6  1  0.915198  0.361601  0.361601  1
  Rb  Rb7  1  0.084802  0.638399  0.638399  1
  Hf  Hf8  1  0.872305  0.127695  0.127695  1
  Hf  Hf9  1  0.127695  0.872305  0.872305  1
  Hf  Hf10  1  0.127695  0.872305  0.127695  1
  Hf  Hf11  1  0.872305  0.127695  0.872305  1
  Hf  Hf12  1  0.127695  0.127695  0.872305  1
  Hf  Hf13  1  0.872305  0.872305  0.127695  1
  B  B14  1  0.000000  0.000000  0.000000  1
  I  I15  1  0.314890  0.000000  0.000000  1
  I  I16  1  0.685110  0.000000  0.000000  1
  I  I17  1  0.000000  0.314890  0.685110  1
  I  I18  1  0.000000  0.685110  0.314890  1
  I  I19  1  0.000000  0.314890  0.000000  1
  I  I20  1  0.685110  0.000000  0.314890  1
  I  I21  1  0.000000  0.685110  0.000000  1
  I  I22  1  0.314890  0.000000  0.685110  1
  I  I23  1  0.000000  0.000000  0.314890  1
  I  I24  1  0.000000  0.000000  0.685110  1
  I  I25  1  0.685110  0.314890  0.000000  1
  I  I26  1  0.314890  0.685110  0.000000  1
  I  I27  1  0.692179  0.307821  0.307821  1
  I  I28  1  0.307821  0.692179  0.692179  1
  I  I29  1  0.307821  0.692179  0.307821  1
  I  I30  1  0.692179  0.307821  0.692179  1
  I  I31  1  0.307821  0.307821  0.692179  1
  I  I32  1  0.692179  0.692179  0.307821  1
  I  I33  1  0.250000  0.250000  0.250000  1
  I  I34  1  0.750000  0.750000  0.750000  1
