# generated using pymatgen
data_HfZr3TiIr3
_symmetry_space_group_name_H-M   'P 1'
_cell_length_a   8.01377200
_cell_length_b   8.01377275
_cell_length_c   5.39686000
_cell_angle_alpha   90.00000000
_cell_angle_beta   90.00000000
_cell_angle_gamma   119.99999690
_symmetry_Int_Tables_number   1
_chemical_formula_structural   HfZr3TiIr3
_chemical_formula_sum   'Hf2 Zr6 Ti2 Ir6'
_cell_volume   300.15515220
_cell_formula_units_Z   2
loop_
 _symmetry_equiv_pos_site_id
 _symmetry_equiv_pos_as_xyz
  1  'x, y, z'
loop_
 _atom_site_type_symbol
 _atom_site_label
 _atom_site_symmetry_multiplicity
 _atom_site_fract_x
 _atom_site_fract_y
 _atom_site_fract_z
 _atom_site_occupancy
  Hf  Hf0  1  0.666667  0.333333  0.000000  1
  Hf  Hf1  1  0.333333  0.666667  0.000000  1
  Zr  Zr2  1  0.753546  0.753546  0.748650  1
  Zr  Zr3  1  0.246454  0.000000  0.748650  1
  Zr  Zr4  1  0.000000  0.246454  0.748650  1
  Zr  Zr5  1  0.246454  0.246454  0.251350  1
  Zr  Zr6  1  0.753546  0.000000  0.251350  1
  Zr  Zr7  1  0.000000  0.753546  0.251350  1
  Ti  Ti8  1  0.333333  0.666667  0.500000  1
  Ti  Ti9  1  0.666667  0.333333  0.500000  1
  Ir  Ir10  1  0.403995  0.403995  0.742508  1
  Ir  Ir11  1  0.596005  0.000000  0.742508  1
  Ir  Ir12  1  0.000000  0.596005  0.742508  1
  Ir  Ir13  1  0.596005  0.596005  0.257492  1
  Ir  Ir14  1  0.403995  0.000000  0.257492  1
  Ir  Ir15  1  0.000000  0.403995  0.257492  1
