# generated using pymatgen
data_K4Zr6GeBr18
_symmetry_space_group_name_H-M   'P 1'
_cell_length_a   10.69774231
_cell_length_b   10.82550114
_cell_length_c   10.92362723
_cell_angle_alpha   118.46388077
_cell_angle_beta   100.17651381
_cell_angle_gamma   103.81443718
_symmetry_Int_Tables_number   1
_chemical_formula_structural   K4Zr6GeBr18
_chemical_formula_sum   'K4 Zr6 Ge1 Br18'
_cell_volume   1015.51376243
_cell_formula_units_Z   1
loop_
 _symmetry_equiv_pos_site_id
 _symmetry_equiv_pos_as_xyz
  1  'x, y, z'
loop_
 _atom_site_type_symbol
 _atom_site_label
 _atom_site_symmetry_multiplicity
 _atom_site_fract_x
 _atom_site_fract_y
 _atom_site_fract_z
 _atom_site_occupancy
  K  K0  1  0.653226  0.538355  0.227642  1
  K  K1  1  0.346774  0.461645  0.772358  1
  K  K2  1  0.686846  0.224338  0.563331  1
  K  K3  1  0.313154  0.775662  0.436669  1
  Zr  Zr4  1  0.156643  0.058615  0.240591  1
  Zr  Zr5  1  0.843357  0.941385  0.759409  1
  Zr  Zr6  1  0.855390  0.131913  0.138516  1
  Zr  Zr7  1  0.144610  0.868087  0.861484  1
  Zr  Zr8  1  0.151547  0.249492  0.047017  1
  Zr  Zr9  1  0.848453  0.750508  0.952983  1
  Ge  Ge10  1  0.000000  0.000000  0.000000  1
  Br  Br11  1  0.007505  0.409453  0.197142  1
  Br  Br12  1  0.992495  0.590547  0.802858  1
  Br  Br13  1  0.328138  0.333175  0.310917  1
  Br  Br14  1  0.671862  0.666825  0.689083  1
  Br  Br15  1  0.322542  0.523191  0.100592  1
  Br  Br16  1  0.677458  0.476809  0.899408  1
  Br  Br17  1  0.004254  0.795873  0.209244  1
  Br  Br18  1  0.995746  0.204127  0.790756  1
  Br  Br19  1  0.701497  0.276868  0.289484  1
  Br  Br20  1  0.298503  0.723132  0.710516  1
  Br  Br21  1  0.316738  0.127387  0.903096  1
  Br  Br22  1  0.683262  0.872613  0.096904  1
  Br  Br23  1  0.014002  0.204660  0.408139  1
  Br  Br24  1  0.985998  0.795340  0.591861  1
  Br  Br25  1  0.320610  0.922476  0.110015  1
  Br  Br26  1  0.679390  0.077524  0.889985  1
  Br  Br27  1  0.333355  0.121119  0.503153  1
  Br  Br28  1  0.666645  0.878881  0.496847  1
