# generated using pymatgen
data_ZrNb3Ga2FeB4Ru9
_symmetry_space_group_name_H-M   'P 1'
_cell_length_a   9.28369000
_cell_length_b   9.28369096
_cell_length_c   2.97983400
_cell_angle_alpha   90.00000000
_cell_angle_beta   90.00000000
_cell_angle_gamma   89.83615456
_symmetry_Int_Tables_number   1
_chemical_formula_structural   ZrNb3Ga2FeB4Ru9
_chemical_formula_sum   'Zr1 Nb3 Ga2 Fe1 B4 Ru9'
_cell_volume   256.82163146
_cell_formula_units_Z   1
loop_
 _symmetry_equiv_pos_site_id
 _symmetry_equiv_pos_as_xyz
  1  'x, y, z'
loop_
 _atom_site_type_symbol
 _atom_site_label
 _atom_site_symmetry_multiplicity
 _atom_site_fract_x
 _atom_site_fract_y
 _atom_site_fract_z
 _atom_site_occupancy
  Zr  Zr0  1  0.822376  0.677624  0.000000  1
  Nb  Nb1  1  0.178223  0.321777  0.000000  1
  Nb  Nb2  1  0.328102  0.830332  0.000000  1
  Nb  Nb3  1  0.669668  0.171898  0.000000  1
  Ga  Ga4  1  0.502021  0.500644  0.000000  1
  Ga  Ga5  1  0.999356  0.997979  0.000000  1
  Fe  Fe6  1  0.498855  0.001145  0.500000  1
  B  B7  1  0.615002  0.884998  0.000000  1
  B  B8  1  0.382555  0.117445  0.000000  1
  B  B9  1  0.126711  0.624702  0.000000  1
  B  B10  1  0.875298  0.373289  0.000000  1
  Ru  Ru11  1  0.559715  0.722995  0.500000  1
  Ru  Ru12  1  0.434389  0.280304  0.500000  1
  Ru  Ru13  1  0.074120  0.786265  0.500000  1
  Ru  Ru14  1  0.933516  0.213061  0.500000  1
  Ru  Ru15  1  0.286939  0.566484  0.500000  1
  Ru  Ru16  1  0.713735  0.425880  0.500000  1
  Ru  Ru17  1  0.219696  0.065611  0.500000  1
  Ru  Ru18  1  0.777005  0.940285  0.500000  1
  Ru  Ru19  1  0.002717  0.497283  0.500000  1
