# generated using pymatgen
data_Zr6Al16Cu2Rh5
_symmetry_space_group_name_H-M   'P 1'
_cell_length_a   8.69018638
_cell_length_b   8.69018580
_cell_length_c   8.73795200
_cell_angle_alpha   59.81800780
_cell_angle_beta   59.81801002
_cell_angle_gamma   60.36397665
_symmetry_Int_Tables_number   1
_chemical_formula_structural   Zr6Al16Cu2Rh5
_chemical_formula_sum   'Zr6 Al16 Cu2 Rh5'
_cell_volume   466.58030658
_cell_formula_units_Z   1
loop_
 _symmetry_equiv_pos_site_id
 _symmetry_equiv_pos_as_xyz
  1  'x, y, z'
loop_
 _atom_site_type_symbol
 _atom_site_label
 _atom_site_symmetry_multiplicity
 _atom_site_fract_x
 _atom_site_fract_y
 _atom_site_fract_z
 _atom_site_occupancy
  Zr  Zr0  1  0.673888  0.673888  0.326112  1
  Zr  Zr1  1  0.302575  0.697425  0.302575  1
  Zr  Zr2  1  0.697425  0.302575  0.302575  1
  Zr  Zr3  1  0.326112  0.326112  0.673888  1
  Zr  Zr4  1  0.697425  0.302575  0.697425  1
  Zr  Zr5  1  0.302575  0.697425  0.697425  1
  Al  Al6  1  0.876011  0.876011  0.359008  1
  Al  Al7  1  0.888968  0.359008  0.876011  1
  Al  Al8  1  0.359008  0.888968  0.876011  1
  Al  Al9  1  0.876011  0.876011  0.888968  1
  Al  Al10  1  0.123989  0.123989  0.640992  1
  Al  Al11  1  0.111032  0.640992  0.123989  1
  Al  Al12  1  0.640992  0.111032  0.123989  1
  Al  Al13  1  0.123989  0.123989  0.111032  1
  Al  Al14  1  0.663577  0.663577  0.004444  1
  Al  Al15  1  0.668400  0.004444  0.663577  1
  Al  Al16  1  0.004444  0.668400  0.663577  1
  Al  Al17  1  0.663577  0.663577  0.668400  1
  Al  Al18  1  0.336423  0.336423  0.995556  1
  Al  Al19  1  0.331600  0.995556  0.336423  1
  Al  Al20  1  0.995556  0.331600  0.336423  1
  Al  Al21  1  0.336423  0.336423  0.331600  1
  Cu  Cu22  1  0.000000  0.000000  0.500000  1
  Cu  Cu23  1  0.500000  0.500000  0.000000  1
  Rh  Rh24  1  0.000000  0.000000  0.000000  1
  Rh  Rh25  1  0.500000  0.000000  0.500000  1
  Rh  Rh26  1  0.000000  0.500000  0.500000  1
  Rh  Rh27  1  0.000000  0.500000  0.000000  1
  Rh  Rh28  1  0.500000  0.000000  0.000000  1
