# generated using pymatgen
data_Nd4Al18(Ga2Pt3)3
_symmetry_space_group_name_H-M   'P 1'
_cell_length_a   7.52918844
_cell_length_b   7.57153691
_cell_length_c   13.43849503
_cell_angle_alpha   84.76458332
_cell_angle_beta   100.63636003
_cell_angle_gamma   119.85446593
_symmetry_Int_Tables_number   1
_chemical_formula_structural   Nd4Al18(Ga2Pt3)3
_chemical_formula_sum   'Nd4 Al18 Ga6 Pt9'
_cell_volume   653.01276187
_cell_formula_units_Z   1
loop_
 _symmetry_equiv_pos_site_id
 _symmetry_equiv_pos_as_xyz
  1  'x, y, z'
loop_
 _atom_site_type_symbol
 _atom_site_label
 _atom_site_symmetry_multiplicity
 _atom_site_fract_x
 _atom_site_fract_y
 _atom_site_fract_z
 _atom_site_occupancy
  Nd  Nd0  1  0.436609  0.831748  0.807790  1
  Nd  Nd1  1  0.563391  0.168252  0.192210  1
  Nd  Nd2  1  0.768976  0.501830  0.807988  1
  Nd  Nd3  1  0.231024  0.498170  0.192012  1
  Al  Al4  1  0.478554  0.166505  0.946663  1
  Al  Al5  1  0.521446  0.833495  0.053337  1
  Al  Al6  1  0.021013  0.167903  0.558355  1
  Al  Al7  1  0.978987  0.832097  0.441645  1
  Al  Al8  1  0.353954  0.833083  0.557500  1
  Al  Al9  1  0.646046  0.166917  0.442500  1
  Al  Al10  1  0.619891  0.834322  0.333836  1
  Al  Al11  1  0.380109  0.165678  0.666164  1
  Al  Al12  1  0.055288  0.493647  0.665279  1
  Al  Al13  1  0.944712  0.506353  0.334721  1
  Al  Al14  1  0.729613  0.840039  0.664136  1
  Al  Al15  1  0.270387  0.159961  0.335864  1
  Al  Al16  1  0.148271  0.497277  0.947229  1
  Al  Al17  1  0.851729  0.502723  0.052771  1
  Al  Al18  1  0.819669  0.835471  0.953189  1
  Al  Al19  1  0.180331  0.164529  0.046811  1
  Al  Al20  1  0.314334  0.501371  0.442116  1
  Al  Al21  1  0.685666  0.498629  0.557884  1
  Ga  Ga22  1  0.099538  0.835119  0.185064  1
  Ga  Ga23  1  0.900462  0.164881  0.814936  1
  Ga  Ga24  1  0.304359  0.367172  0.814395  1
  Ga  Ga25  1  0.695641  0.632828  0.185605  1
  Ga  Ga26  1  0.102536  0.962455  0.814678  1
  Ga  Ga27  1  0.897464  0.037545  0.185322  1
  Pt  Pt28  1  0.384959  0.505315  0.634133  1
  Pt  Pt29  1  0.615041  0.494685  0.365867  1
  Pt  Pt30  1  0.171397  0.829559  0.999914  1
  Pt  Pt31  1  0.828603  0.170441  0.000086  1
  Pt  Pt32  1  0.294658  0.834120  0.365675  1
  Pt  Pt33  1  0.705342  0.165880  0.634325  1
  Pt  Pt34  1  0.045681  0.827805  0.633148  1
  Pt  Pt35  1  0.954319  0.172195  0.366852  1
  Pt  Pt36  1  0.500000  0.500000  0.000000  1
