# generated using pymatgen
data_Dy4MgSc3Pt4
_symmetry_space_group_name_H-M   'P 1'
_cell_length_a   4.52501100
_cell_length_b   7.03412795
_cell_length_c   8.47265972
_cell_angle_alpha   93.42798817
_cell_angle_beta   90.00000000
_cell_angle_gamma   90.00000000
_symmetry_Int_Tables_number   1
_chemical_formula_structural   Dy4MgSc3Pt4
_chemical_formula_sum   'Dy4 Mg1 Sc3 Pt4'
_cell_volume   269.19804759
_cell_formula_units_Z   1
loop_
 _symmetry_equiv_pos_site_id
 _symmetry_equiv_pos_as_xyz
  1  'x, y, z'
loop_
 _atom_site_type_symbol
 _atom_site_label
 _atom_site_symmetry_multiplicity
 _atom_site_fract_x
 _atom_site_fract_y
 _atom_site_fract_z
 _atom_site_occupancy
  Dy  Dy0  1  0.250000  0.978363  0.318195  1
  Dy  Dy1  1  0.250000  0.468934  0.170296  1
  Dy  Dy2  1  0.750000  0.030657  0.681986  1
  Dy  Dy3  1  0.750000  0.510691  0.837117  1
  Mg  Mg4  1  0.750000  0.140240  0.069266  1
  Sc  Sc5  1  0.250000  0.371734  0.569626  1
  Sc  Sc6  1  0.250000  0.854479  0.932509  1
  Sc  Sc7  1  0.750000  0.640088  0.430519  1
  Pt  Pt8  1  0.250000  0.237781  0.877362  1
  Pt  Pt9  1  0.250000  0.756152  0.597630  1
  Pt  Pt10  1  0.750000  0.753702  0.115596  1
  Pt  Pt11  1  0.750000  0.257181  0.399899  1
