# generated using pymatgen
data_Ca2Ni2PdRh
_symmetry_space_group_name_H-M   'P 1'
_cell_length_a   5.11284045
_cell_length_b   5.24916809
_cell_length_c   5.21404608
_cell_angle_alpha   62.53773755
_cell_angle_beta   60.64002710
_cell_angle_gamma   60.85547077
_symmetry_Int_Tables_number   1
_chemical_formula_structural   Ca2Ni2PdRh
_chemical_formula_sum   'Ca2 Ni2 Pd1 Rh1'
_cell_volume   101.87350927
_cell_formula_units_Z   1
loop_
 _symmetry_equiv_pos_site_id
 _symmetry_equiv_pos_as_xyz
  1  'x, y, z'
loop_
 _atom_site_type_symbol
 _atom_site_label
 _atom_site_symmetry_multiplicity
 _atom_site_fract_x
 _atom_site_fract_y
 _atom_site_fract_z
 _atom_site_occupancy
  Ca  Ca0  1  0.503219  0.493259  0.500302  1
  Ca  Ca1  1  0.746781  0.756741  0.749698  1
  Ni  Ni2  1  0.125000  0.125000  0.125000  1
  Ni  Ni3  1  0.625000  0.125000  0.125000  1
  Pd  Pd4  1  0.125000  0.625000  0.125000  1
  Rh  Rh5  1  0.125000  0.125000  0.625000  1
