# generated using pymatgen
data_V5B2P
_symmetry_space_group_name_H-M   'P 1'
_cell_length_a   6.68137260
_cell_length_b   6.68137225
_cell_length_c   6.68137333
_cell_angle_alpha   129.17265048
_cell_angle_beta   129.17264421
_cell_angle_gamma   74.73293309
_symmetry_Int_Tables_number   1
_chemical_formula_structural   V5B2P
_chemical_formula_sum   'V10 B4 P2'
_cell_volume   174.62976795
_cell_formula_units_Z   2
loop_
 _symmetry_equiv_pos_site_id
 _symmetry_equiv_pos_as_xyz
  1  'x, y, z'
loop_
 _atom_site_type_symbol
 _atom_site_label
 _atom_site_symmetry_multiplicity
 _atom_site_fract_x
 _atom_site_fract_y
 _atom_site_fract_z
 _atom_site_occupancy
  V  V0  1  0.190539  0.690539  0.161179  1
  V  V1  1  0.470641  0.970641  0.161179  1
  V  V2  1  0.000000  0.000000  0.000000  1
  V  V3  1  0.500000  0.500000  0.000000  1
  V  V4  1  0.529359  0.029359  0.838821  1
  V  V5  1  0.029359  0.190539  0.500000  1
  V  V6  1  0.690539  0.529359  0.500000  1
  V  V7  1  0.970641  0.809461  0.500000  1
  V  V8  1  0.309461  0.470641  0.500000  1
  V  V9  1  0.809461  0.309461  0.838821  1
  B  B10  1  0.884816  0.384816  0.269632  1
  B  B11  1  0.384816  0.115184  0.500000  1
  B  B12  1  0.615184  0.884816  0.500000  1
  B  B13  1  0.115184  0.615184  0.730368  1
  P  P14  1  0.750000  0.750000  0.000000  1
  P  P15  1  0.250000  0.250000  0.000000  1
