# generated using pymatgen
data_Ba4Ca(OsO6)2
_symmetry_space_group_name_H-M   'P 1'
_cell_length_a   10.10759493
_cell_length_b   10.10759523
_cell_length_c   10.10759514
_cell_angle_alpha   33.87032633
_cell_angle_beta   33.87032608
_cell_angle_gamma   33.87032638
_symmetry_Int_Tables_number   1
_chemical_formula_structural   Ba4Ca(OsO6)2
_chemical_formula_sum   'Ba4 Ca1 Os2 O12'
_cell_volume   285.83319932
_cell_formula_units_Z   1
loop_
 _symmetry_equiv_pos_site_id
 _symmetry_equiv_pos_as_xyz
  1  'x, y, z'
loop_
 _atom_site_type_symbol
 _atom_site_label
 _atom_site_symmetry_multiplicity
 _atom_site_fract_x
 _atom_site_fract_y
 _atom_site_fract_z
 _atom_site_occupancy
  Ba  Ba0  1  0.710490  0.710490  0.710490  1
  Ba  Ba1  1  0.289510  0.289510  0.289510  1
  Ba  Ba2  1  0.867709  0.867709  0.867709  1
  Ba  Ba3  1  0.132291  0.132291  0.132291  1
  Ca  Ca4  1  0.000000  0.000000  0.000000  1
  Os  Os5  1  0.578960  0.578960  0.578960  1
  Os  Os6  1  0.421040  0.421040  0.421040  1
  O  O7  1  0.227467  0.684565  0.227467  1
  O  O8  1  0.227467  0.227467  0.684565  1
  O  O9  1  0.684565  0.227467  0.227467  1
  O  O10  1  0.772533  0.315435  0.772533  1
  O  O11  1  0.772533  0.772533  0.315435  1
  O  O12  1  0.315435  0.772533  0.772533  1
  O  O13  1  0.388443  0.855798  0.388443  1
  O  O14  1  0.388443  0.388443  0.855798  1
  O  O15  1  0.855798  0.388443  0.388443  1
  O  O16  1  0.611557  0.144202  0.611557  1
  O  O17  1  0.611557  0.611557  0.144202  1
  O  O18  1  0.144202  0.611557  0.611557  1
