# generated using pymatgen
data_CeTi(Sb4Os)3
_symmetry_space_group_name_H-M   'P 1'
_cell_length_a   8.26021159
_cell_length_b   8.26021146
_cell_length_c   8.16783700
_cell_angle_alpha   109.24484646
_cell_angle_beta   109.24484615
_cell_angle_gamma   109.69664222
_symmetry_Int_Tables_number   1
_chemical_formula_structural   CeTi(Sb4Os)3
_chemical_formula_sum   'Ce1 Ti1 Sb12 Os3'
_cell_volume   430.20277765
_cell_formula_units_Z   1
loop_
 _symmetry_equiv_pos_site_id
 _symmetry_equiv_pos_as_xyz
  1  'x, y, z'
loop_
 _atom_site_type_symbol
 _atom_site_label
 _atom_site_symmetry_multiplicity
 _atom_site_fract_x
 _atom_site_fract_y
 _atom_site_fract_z
 _atom_site_occupancy
  Ce  Ce0  1  0.000000  0.000000  0.000000  1
  Ti  Ti1  1  0.000000  0.000000  0.500000  1
  Sb  Sb2  1  0.347166  0.186778  0.852448  1
  Sb  Sb3  1  0.652834  0.813222  0.147552  1
  Sb  Sb4  1  0.664908  0.507519  0.844456  1
  Sb  Sb5  1  0.335092  0.492481  0.155544  1
  Sb  Sb6  1  0.186778  0.839612  0.334330  1
  Sb  Sb7  1  0.813222  0.160388  0.665670  1
  Sb  Sb8  1  0.507519  0.842610  0.663062  1
  Sb  Sb9  1  0.492481  0.157390  0.336938  1
  Sb  Sb10  1  0.842610  0.335092  0.179548  1
  Sb  Sb11  1  0.157390  0.664908  0.820452  1
  Sb  Sb12  1  0.839612  0.652834  0.505283  1
  Sb  Sb13  1  0.160388  0.347166  0.494717  1
  Os  Os14  1  0.500000  0.000000  0.000000  1
  Os  Os15  1  0.000000  0.500000  0.000000  1
  Os  Os16  1  0.500000  0.500000  0.500000  1
