# generated using pymatgen
data_Ti8CrTc3Ir4
_symmetry_space_group_name_H-M   'P 1'
_cell_length_a   6.18690200
_cell_length_b   4.37297000
_cell_length_c   8.75052200
_cell_angle_alpha   90.00000000
_cell_angle_beta   89.99988551
_cell_angle_gamma   90.00000000
_symmetry_Int_Tables_number   1
_chemical_formula_structural   Ti8CrTc3Ir4
_chemical_formula_sum   'Ti8 Cr1 Tc3 Ir4'
_cell_volume   236.74657012
_cell_formula_units_Z   1
loop_
 _symmetry_equiv_pos_site_id
 _symmetry_equiv_pos_as_xyz
  1  'x, y, z'
loop_
 _atom_site_type_symbol
 _atom_site_label
 _atom_site_symmetry_multiplicity
 _atom_site_fract_x
 _atom_site_fract_y
 _atom_site_fract_z
 _atom_site_occupancy
  Ti  Ti0  1  0.498009  0.750000  0.122228  1
  Ti  Ti1  1  0.001967  0.750000  0.122228  1
  Ti  Ti2  1  0.500523  0.250000  0.374984  1
  Ti  Ti3  1  0.999464  0.250000  0.374987  1
  Ti  Ti4  1  0.001969  0.750000  0.627761  1
  Ti  Ti5  1  0.498018  0.750000  0.627764  1
  Ti  Ti6  1  0.003633  0.250000  0.874997  1
  Ti  Ti7  1  0.496371  0.250000  0.874997  1
  Cr  Cr8  1  0.250069  0.750000  0.875077  1
  Tc  Tc9  1  0.749992  0.250000  0.125474  1
  Tc  Tc10  1  0.249998  0.750000  0.374996  1
  Tc  Tc11  1  0.749997  0.250000  0.624515  1
  Ir  Ir12  1  0.249992  0.250000  0.124072  1
  Ir  Ir13  1  0.749990  0.750000  0.374996  1
  Ir  Ir14  1  0.249997  0.250000  0.625930  1
  Ir  Ir15  1  0.750010  0.750000  0.874994  1
