# generated using pymatgen
data_Rb6Tc2O9
_symmetry_space_group_name_H-M   'P 1'
_cell_length_a   8.75828763
_cell_length_b   8.75828785
_cell_length_c   11.12219600
_cell_angle_alpha   67.80393491
_cell_angle_beta   67.80393445
_cell_angle_gamma   92.14961607
_symmetry_Int_Tables_number   1
_chemical_formula_structural   Rb6Tc2O9
_chemical_formula_sum   'Rb12 Tc4 O18'
_cell_volume   715.05326622
_cell_formula_units_Z   2
loop_
 _symmetry_equiv_pos_site_id
 _symmetry_equiv_pos_as_xyz
  1  'x, y, z'
loop_
 _atom_site_type_symbol
 _atom_site_label
 _atom_site_symmetry_multiplicity
 _atom_site_fract_x
 _atom_site_fract_y
 _atom_site_fract_z
 _atom_site_occupancy
  Rb  Rb0  1  0.497289  0.706721  0.022191  1
  Rb  Rb1  1  0.293279  0.502711  0.477809  1
  Rb  Rb2  1  0.502711  0.293279  0.977809  1
  Rb  Rb3  1  0.706721  0.497289  0.522191  1
  Rb  Rb4  1  0.002677  0.706699  0.030623  1
  Rb  Rb5  1  0.293301  0.997323  0.469377  1
  Rb  Rb6  1  0.997323  0.293301  0.969377  1
  Rb  Rb7  1  0.706699  0.002677  0.530623  1
  Rb  Rb8  1  0.095353  0.319284  0.268562  1
  Rb  Rb9  1  0.680716  0.904647  0.231438  1
  Rb  Rb10  1  0.904647  0.680716  0.731438  1
  Rb  Rb11  1  0.319284  0.095353  0.768562  1
  Tc  Tc12  1  0.373260  0.626740  0.750000  1
  Tc  Tc13  1  0.626740  0.373260  0.250000  1
  Tc  Tc14  1  0.145369  0.854631  0.250000  1
  Tc  Tc15  1  0.854631  0.145369  0.750000  1
  O  O16  1  0.090594  0.635246  0.282284  1
  O  O17  1  0.364754  0.909406  0.217716  1
  O  O18  1  0.909406  0.364754  0.717716  1
  O  O19  1  0.635246  0.090594  0.782284  1
  O  O20  1  0.878504  0.015523  0.910515  1
  O  O21  1  0.984477  0.121496  0.589485  1
  O  O22  1  0.121496  0.984477  0.089485  1
  O  O23  1  0.015523  0.878504  0.410515  1
  O  O24  1  0.670014  0.575556  0.256974  1
  O  O25  1  0.424444  0.329986  0.243026  1
  O  O26  1  0.329986  0.424444  0.743026  1
  O  O27  1  0.575556  0.670014  0.756974  1
  O  O28  1  0.518960  0.263740  0.456605  1
  O  O29  1  0.736260  0.481040  0.043395  1
  O  O30  1  0.481040  0.736260  0.543395  1
  O  O31  1  0.263740  0.518960  0.956605  1
  O  O32  1  0.228235  0.771765  0.750000  1
  O  O33  1  0.771765  0.228235  0.250000  1
