# generated using pymatgen
data_Zr10GaBi5P
_symmetry_space_group_name_H-M   'P 1'
_cell_length_a   8.62382080
_cell_length_b   8.68450737
_cell_length_c   5.88668700
_cell_angle_alpha   90.01838715
_cell_angle_beta   89.96296691
_cell_angle_gamma   119.76911351
_symmetry_Int_Tables_number   1
_chemical_formula_structural   Zr10GaBi5P
_chemical_formula_sum   'Zr10 Ga1 Bi5 P1'
_cell_volume   382.69440915
_cell_formula_units_Z   1
loop_
 _symmetry_equiv_pos_site_id
 _symmetry_equiv_pos_as_xyz
  1  'x, y, z'
loop_
 _atom_site_type_symbol
 _atom_site_label
 _atom_site_symmetry_multiplicity
 _atom_site_fract_x
 _atom_site_fract_y
 _atom_site_fract_z
 _atom_site_occupancy
  Zr  Zr0  1  0.003187  0.756412  0.242585  1
  Zr  Zr1  1  0.246775  0.243588  0.242585  1
  Zr  Zr2  1  0.754927  0.000000  0.232811  1
  Zr  Zr3  1  0.982046  0.236394  0.758972  1
  Zr  Zr4  1  0.745651  0.763606  0.758972  1
  Zr  Zr5  1  0.254904  0.000000  0.757185  1
  Zr  Zr6  1  0.340733  0.675396  0.504351  1
  Zr  Zr7  1  0.665337  0.324604  0.504351  1
  Zr  Zr8  1  0.665410  0.325061  0.995470  1
  Zr  Zr9  1  0.340348  0.674939  0.995470  1
  Ga  Ga10  1  0.604274  0.000000  0.752799  1
  Bi  Bi11  1  0.002594  0.394978  0.251737  1
  Bi  Bi12  1  0.607616  0.605022  0.251737  1
  Bi  Bi13  1  0.399919  0.000000  0.250087  1
  Bi  Bi14  1  0.997740  0.610232  0.749352  1
  Bi  Bi15  1  0.387507  0.389768  0.749352  1
  P  P16  1  0.001032  0.000000  0.502181  1
