# generated using pymatgen
data_Lu8B24Ir3Rh
_symmetry_space_group_name_H-M   'P 1'
_cell_length_a   3.58641200
_cell_length_b   9.06577073
_cell_length_c   11.40593686
_cell_angle_alpha   90.05541582
_cell_angle_beta   90.00000000
_cell_angle_gamma   90.00000000
_symmetry_Int_Tables_number   1
_chemical_formula_structural   Lu8B24Ir3Rh
_chemical_formula_sum   'Lu8 B24 Ir3 Rh1'
_cell_volume   370.84776916
_cell_formula_units_Z   1
loop_
 _symmetry_equiv_pos_site_id
 _symmetry_equiv_pos_as_xyz
  1  'x, y, z'
loop_
 _atom_site_type_symbol
 _atom_site_label
 _atom_site_symmetry_multiplicity
 _atom_site_fract_x
 _atom_site_fract_y
 _atom_site_fract_z
 _atom_site_occupancy
  Lu  Lu0  1  0.500000  0.320814  0.413427  1
  Lu  Lu1  1  0.500000  0.679157  0.585641  1
  Lu  Lu2  1  0.500000  0.180245  0.913568  1
  Lu  Lu3  1  0.500000  0.820290  0.086972  1
  Lu  Lu4  1  0.500000  0.444674  0.126356  1
  Lu  Lu5  1  0.500000  0.556236  0.874715  1
  Lu  Lu6  1  0.500000  0.055917  0.625140  1
  Lu  Lu7  1  0.500000  0.942604  0.374070  1
  B  B8  1  0.000000  0.106834  0.470389  1
  B  B9  1  0.000000  0.892237  0.529414  1
  B  B10  1  0.000000  0.393028  0.970760  1
  B  B11  1  0.000000  0.607725  0.029503  1
  B  B12  1  0.000000  0.131006  0.316618  1
  B  B13  1  0.000000  0.868638  0.683080  1
  B  B14  1  0.000000  0.368485  0.816996  1
  B  B15  1  0.000000  0.632037  0.183243  1
  B  B16  1  0.000000  0.053144  0.065037  1
  B  B17  1  0.000000  0.947894  0.934693  1
  B  B18  1  0.000000  0.447209  0.565135  1
  B  B19  1  0.000000  0.552420  0.435230  1
  B  B20  1  0.000000  0.480197  0.287815  1
  B  B21  1  0.000000  0.519558  0.712729  1
  B  B22  1  0.000000  0.020038  0.787074  1
  B  B23  1  0.000000  0.980090  0.212682  1
  B  B24  1  0.000000  0.250634  0.079136  1
  B  B25  1  0.000000  0.749922  0.920905  1
  B  B26  1  0.000000  0.249844  0.578790  1
  B  B27  1  0.000000  0.749279  0.420981  1
  B  B28  1  0.000000  0.293919  0.236171  1
  B  B29  1  0.000000  0.706351  0.764181  1
  B  B30  1  0.000000  0.206294  0.735832  1
  B  B31  1  0.000000  0.793772  0.263379  1
  Ir  Ir32  1  0.500000  0.138690  0.178808  1
  Ir  Ir33  1  0.500000  0.861677  0.821028  1
  Ir  Ir34  1  0.500000  0.360749  0.679724  1
  Rh  Rh35  1  0.500000  0.638390  0.320784  1
