# generated using pymatgen
data_Tm10In8Co3Ag
_symmetry_space_group_name_H-M   'P 1'
_cell_length_a   3.53560500
_cell_length_b   8.00521653
_cell_length_c   17.95921960
_cell_angle_alpha   90.09723047
_cell_angle_beta   90.00000000
_cell_angle_gamma   90.00000000
_symmetry_Int_Tables_number   1
_chemical_formula_structural   Tm10In8Co3Ag
_chemical_formula_sum   'Tm10 In8 Co3 Ag1'
_cell_volume   508.30415341
_cell_formula_units_Z   1
loop_
 _symmetry_equiv_pos_site_id
 _symmetry_equiv_pos_as_xyz
  1  'x, y, z'
loop_
 _atom_site_type_symbol
 _atom_site_label
 _atom_site_symmetry_multiplicity
 _atom_site_fract_x
 _atom_site_fract_y
 _atom_site_fract_z
 _atom_site_occupancy
  Tm  Tm0  1  0.000000  0.115606  0.414577  1
  Tm  Tm1  1  0.000000  0.883317  0.592281  1
  Tm  Tm2  1  0.000000  0.383373  0.906327  1
  Tm  Tm3  1  0.000000  0.623218  0.076810  1
  Tm  Tm4  1  0.000000  0.215095  0.225284  1
  Tm  Tm5  1  0.000000  0.755990  0.776334  1
  Tm  Tm6  1  0.000000  0.252527  0.721939  1
  Tm  Tm7  1  0.000000  0.772064  0.284498  1
  Tm  Tm8  1  0.000000  0.002282  0.996998  1
  Tm  Tm9  1  0.000000  0.499830  0.502649  1
  In  In10  1  0.500000  0.422134  0.352933  1
  In  In11  1  0.500000  0.567975  0.652772  1
  In  In12  1  0.500000  0.069069  0.846216  1
  In  In13  1  0.500000  0.922043  0.149136  1
  In  In14  1  0.500000  0.294831  0.065149  1
  In  In15  1  0.500000  0.705774  0.926127  1
  In  In16  1  0.500000  0.203732  0.570309  1
  In  In17  1  0.500000  0.795032  0.435129  1
  Co  Co18  1  0.500000  0.024876  0.307617  1
  Co  Co19  1  0.500000  0.983692  0.695289  1
  Co  Co20  1  0.500000  0.483644  0.802692  1
  Ag  Ag21  1  0.500000  0.523895  0.198936  1
