# generated using pymatgen
data_Nd8SiAsI12
_symmetry_space_group_name_H-M   'P 1'
_cell_length_a   4.37717900
_cell_length_b   14.42583720
_cell_length_c   15.24412005
_cell_angle_alpha   90.06240135
_cell_angle_beta   90.00000000
_cell_angle_gamma   90.00000000
_symmetry_Int_Tables_number   1
_chemical_formula_structural   Nd8SiAsI12
_chemical_formula_sum   'Nd8 Si1 As1 I12'
_cell_volume   962.58133541
_cell_formula_units_Z   1
loop_
 _symmetry_equiv_pos_site_id
 _symmetry_equiv_pos_as_xyz
  1  'x, y, z'
loop_
 _atom_site_type_symbol
 _atom_site_label
 _atom_site_symmetry_multiplicity
 _atom_site_fract_x
 _atom_site_fract_y
 _atom_site_fract_z
 _atom_site_occupancy
  Nd  Nd0  1  0.500000  0.115203  0.345795  1
  Nd  Nd1  1  0.500000  0.884797  0.654205  1
  Nd  Nd2  1  0.500000  0.614834  0.153362  1
  Nd  Nd3  1  0.500000  0.385166  0.846638  1
  Nd  Nd4  1  0.000000  0.111533  0.574301  1
  Nd  Nd5  1  0.000000  0.888467  0.425699  1
  Nd  Nd6  1  0.000000  0.613167  0.924414  1
  Nd  Nd7  1  0.000000  0.386833  0.075586  1
  Si  Si8  1  0.500000  0.500000  0.000000  1
  As  As9  1  0.500000  0.000000  0.500000  1
  I  I10  1  0.500000  0.244031  0.162419  1
  I  I11  1  0.500000  0.755969  0.837581  1
  I  I12  1  0.500000  0.746210  0.339997  1
  I  I13  1  0.500000  0.253790  0.660003  1
  I  I14  1  0.000000  0.258338  0.413935  1
  I  I15  1  0.000000  0.741662  0.586065  1
  I  I16  1  0.000000  0.758842  0.086121  1
  I  I17  1  0.000000  0.241158  0.913879  1
  I  I18  1  0.000000  0.998802  0.241040  1
  I  I19  1  0.000000  0.001198  0.758960  1
  I  I20  1  0.000000  0.499097  0.259602  1
  I  I21  1  0.000000  0.500903  0.740398  1
