# generated using pymatgen
data_Y6TiCo22
_symmetry_space_group_name_H-M   'P 1'
_cell_length_a   8.38069631
_cell_length_b   8.38069643
_cell_length_c   8.38069700
_cell_angle_alpha   60.00000171
_cell_angle_beta   60.00000124
_cell_angle_gamma   59.99999902
_symmetry_Int_Tables_number   1
_chemical_formula_structural   Y6TiCo22
_chemical_formula_sum   'Y6 Ti1 Co22'
_cell_volume   416.22231598
_cell_formula_units_Z   1
loop_
 _symmetry_equiv_pos_site_id
 _symmetry_equiv_pos_as_xyz
  1  'x, y, z'
loop_
 _atom_site_type_symbol
 _atom_site_label
 _atom_site_symmetry_multiplicity
 _atom_site_fract_x
 _atom_site_fract_y
 _atom_site_fract_z
 _atom_site_occupancy
  Y  Y0  1  0.786834  0.786834  0.213166  1
  Y  Y1  1  0.213166  0.786834  0.213166  1
  Y  Y2  1  0.786834  0.213166  0.213166  1
  Y  Y3  1  0.213166  0.213166  0.786834  1
  Y  Y4  1  0.786834  0.213166  0.786834  1
  Y  Y5  1  0.213166  0.786834  0.786834  1
  Ti  Ti6  1  0.500000  0.500000  0.500000  1
  Co  Co7  1  0.000000  0.000000  0.500000  1
  Co  Co8  1  0.500000  0.000000  0.500000  1
  Co  Co9  1  0.000000  0.500000  0.500000  1
  Co  Co10  1  0.500000  0.500000  0.000000  1
  Co  Co11  1  0.000000  0.500000  0.000000  1
  Co  Co12  1  0.500000  0.000000  0.000000  1
  Co  Co13  1  0.822663  0.822663  0.532008  1
  Co  Co14  1  0.822663  0.532008  0.822663  1
  Co  Co15  1  0.532008  0.822663  0.822663  1
  Co  Co16  1  0.822663  0.822663  0.822663  1
  Co  Co17  1  0.177337  0.177337  0.467992  1
  Co  Co18  1  0.177337  0.467992  0.177337  1
  Co  Co19  1  0.467992  0.177337  0.177337  1
  Co  Co20  1  0.177337  0.177337  0.177337  1
  Co  Co21  1  0.625643  0.625643  0.123071  1
  Co  Co22  1  0.625643  0.123071  0.625643  1
  Co  Co23  1  0.123071  0.625643  0.625643  1
  Co  Co24  1  0.625643  0.625643  0.625643  1
  Co  Co25  1  0.374357  0.374357  0.876929  1
  Co  Co26  1  0.374357  0.876929  0.374357  1
  Co  Co27  1  0.876929  0.374357  0.374357  1
  Co  Co28  1  0.374357  0.374357  0.374357  1
