# generated using pymatgen
data_Er5Th3(P7Ir8)2
_symmetry_space_group_name_H-M   'P 1'
_cell_length_a   3.96072700
_cell_length_b   12.74630589
_cell_length_c   13.09633573
_cell_angle_alpha   81.81183357
_cell_angle_beta   90.00000000
_cell_angle_gamma   90.00000000
_symmetry_Int_Tables_number   1
_chemical_formula_structural   Er5Th3(P7Ir8)2
_chemical_formula_sum   'Er5 Th3 P14 Ir16'
_cell_volume   654.42364399
_cell_formula_units_Z   1
loop_
 _symmetry_equiv_pos_site_id
 _symmetry_equiv_pos_as_xyz
  1  'x, y, z'
loop_
 _atom_site_type_symbol
 _atom_site_label
 _atom_site_symmetry_multiplicity
 _atom_site_fract_x
 _atom_site_fract_y
 _atom_site_fract_z
 _atom_site_occupancy
  Er  Er0  1  0.750000  0.792353  0.559250  1
  Er  Er1  1  0.250000  0.207046  0.441802  1
  Er  Er2  1  0.750000  0.481643  0.708579  1
  Er  Er3  1  0.250000  0.520036  0.293018  1
  Er  Er4  1  0.750000  0.716612  0.900482  1
  Th  Th5  1  0.250000  0.108860  0.790402  1
  Th  Th6  1  0.750000  0.891642  0.211507  1
  Th  Th7  1  0.250000  0.282406  0.099971  1
  P  P8  1  0.250000  0.905611  0.412752  1
  P  P9  1  0.750000  0.473682  0.128187  1
  P  P10  1  0.250000  0.529053  0.869646  1
  P  P11  1  0.750000  0.094366  0.588644  1
  P  P12  1  0.250000  0.744291  0.082468  1
  P  P13  1  0.750000  0.253605  0.915871  1
  P  P14  1  0.750000  0.158099  0.284788  1
  P  P15  1  0.250000  0.841900  0.716314  1
  P  P16  1  0.250000  0.052390  0.100013  1
  P  P17  1  0.750000  0.941308  0.899824  1
  P  P18  1  0.250000  0.318680  0.685771  1
  P  P19  1  0.750000  0.681272  0.313987  1
  P  P20  1  0.250000  0.608652  0.567285  1
  P  P21  1  0.750000  0.391443  0.433718  1
  Ir  Ir22  1  0.250000  0.992382  0.576189  1
  Ir  Ir23  1  0.750000  0.007513  0.423814  1
  Ir  Ir24  1  0.250000  0.662510  0.730012  1
  Ir  Ir25  1  0.750000  0.339605  0.268990  1
  Ir  Ir26  1  0.250000  0.551954  0.049005  1
  Ir  Ir27  1  0.750000  0.453254  0.949436  1
  Ir  Ir28  1  0.250000  0.062457  0.275496  1
  Ir  Ir29  1  0.750000  0.937512  0.724716  1
  Ir  Ir30  1  0.250000  0.424606  0.522679  1
  Ir  Ir31  1  0.750000  0.577196  0.477919  1
  Ir  Ir32  1  0.250000  0.915121  0.995435  1
  Ir  Ir33  1  0.750000  0.080807  0.002281  1
  Ir  Ir34  1  0.250000  0.727404  0.398405  1
  Ir  Ir35  1  0.750000  0.273107  0.600835  1
  Ir  Ir36  1  0.250000  0.340369  0.858485  1
  Ir  Ir37  1  0.750000  0.659249  0.142024  1
