# generated using pymatgen
data_Tb2Y6Re3TcC8
_symmetry_space_group_name_H-M   'P 1'
_cell_length_a   5.13094100
_cell_length_b   6.59766515
_cell_length_c   9.90963300
_cell_angle_alpha   90.03442647
_cell_angle_beta   90.00000000
_cell_angle_gamma   90.00000000
_symmetry_Int_Tables_number   1
_chemical_formula_structural   Tb2Y6Re3TcC8
_chemical_formula_sum   'Tb2 Y6 Re3 Tc1 C8'
_cell_volume   335.46312115
_cell_formula_units_Z   1
loop_
 _symmetry_equiv_pos_site_id
 _symmetry_equiv_pos_as_xyz
  1  'x, y, z'
loop_
 _atom_site_type_symbol
 _atom_site_label
 _atom_site_symmetry_multiplicity
 _atom_site_fract_x
 _atom_site_fract_y
 _atom_site_fract_z
 _atom_site_occupancy
  Tb  Tb0  1  0.750000  0.531781  0.784014  1
  Tb  Tb1  1  0.250000  0.967585  0.283706  1
  Y  Y2  1  0.750000  0.679604  0.443596  1
  Y  Y3  1  0.250000  0.821657  0.943764  1
  Y  Y4  1  0.750000  0.179534  0.056757  1
  Y  Y5  1  0.250000  0.319636  0.557182  1
  Y  Y6  1  0.250000  0.467002  0.216408  1
  Y  Y7  1  0.750000  0.032450  0.716450  1
  Re  Re8  1  0.250000  0.778618  0.635052  1
  Re  Re9  1  0.750000  0.221905  0.365068  1
  Re  Re10  1  0.750000  0.721745  0.134923  1
  Tc  Tc11  1  0.250000  0.278400  0.865103  1
  C  C12  1  0.250000  0.678265  0.452196  1
  C  C13  1  0.250000  0.546433  0.758180  1
  C  C14  1  0.750000  0.455098  0.240812  1
  C  C15  1  0.750000  0.821336  0.952142  1
  C  C16  1  0.250000  0.044686  0.740404  1
  C  C17  1  0.250000  0.178359  0.047063  1
  C  C18  1  0.750000  0.321190  0.547953  1
  C  C19  1  0.750000  0.954718  0.259228  1
