# generated using pymatgen
data_NdErBeCoSi4
_symmetry_space_group_name_H-M   'P 1'
_cell_length_a   8.45976258
_cell_length_b   8.45976244
_cell_length_c   3.96685400
_cell_angle_alpha   90.00000000
_cell_angle_beta   90.00000000
_cell_angle_gamma   152.21525010
_symmetry_Int_Tables_number   1
_chemical_formula_structural   NdErBeCoSi4
_chemical_formula_sum   'Nd1 Er1 Be1 Co1 Si4'
_cell_volume   132.33945652
_cell_formula_units_Z   1
loop_
 _symmetry_equiv_pos_site_id
 _symmetry_equiv_pos_as_xyz
  1  'x, y, z'
loop_
 _atom_site_type_symbol
 _atom_site_label
 _atom_site_symmetry_multiplicity
 _atom_site_fract_x
 _atom_site_fract_y
 _atom_site_fract_z
 _atom_site_occupancy
  Nd  Nd0  1  0.111990  0.888010  0.250000  1
  Er  Er1  1  0.897316  0.102684  0.750000  1
  Be  Be2  1  0.673196  0.326804  0.750000  1
  Co  Co3  1  0.318212  0.681788  0.250000  1
  Si  Si4  1  0.755492  0.244508  0.250000  1
  Si  Si5  1  0.253751  0.746249  0.750000  1
  Si  Si6  1  0.536303  0.463697  0.750000  1
  Si  Si7  1  0.453739  0.546261  0.250000  1
