# generated using pymatgen
data_Ho3Er5Ga12CoAg3
_symmetry_space_group_name_H-M   'P 1'
_cell_length_a   7.04111400
_cell_length_b   8.90879894
_cell_length_c   8.90879933
_cell_angle_alpha   120.03101736
_cell_angle_beta   89.99678413
_cell_angle_gamma   90.00321474
_symmetry_Int_Tables_number   1
_chemical_formula_structural   Ho3Er5Ga12CoAg3
_chemical_formula_sum   'Ho3 Er5 Ga12 Co1 Ag3'
_cell_volume   483.80963897
_cell_formula_units_Z   1
loop_
 _symmetry_equiv_pos_site_id
 _symmetry_equiv_pos_as_xyz
  1  'x, y, z'
loop_
 _atom_site_type_symbol
 _atom_site_label
 _atom_site_symmetry_multiplicity
 _atom_site_fract_x
 _atom_site_fract_y
 _atom_site_fract_z
 _atom_site_occupancy
  Ho  Ho0  1  0.739785  0.999981  0.000019  1
  Ho  Ho1  1  0.252238  0.999969  0.000031  1
  Ho  Ho2  1  0.749188  0.488148  0.511852  1
  Er  Er3  1  0.258395  0.523025  0.476975  1
  Er  Er4  1  0.749115  0.023426  0.511739  1
  Er  Er5  1  0.258482  0.954114  0.477140  1
  Er  Er6  1  0.749115  0.488261  0.976574  1
  Er  Er7  1  0.258482  0.522860  0.045886  1
  Ga  Ga8  1  0.963228  0.836592  0.163408  1
  Ga  Ga9  1  0.040220  0.165635  0.834365  1
  Ga  Ga10  1  0.963970  0.326830  0.163243  1
  Ga  Ga11  1  0.464247  0.164415  0.835585  1
  Ga  Ga12  1  0.040454  0.668473  0.834364  1
  Ga  Ga13  1  0.539941  0.825823  0.174177  1
  Ga  Ga14  1  0.963970  0.836757  0.673170  1
  Ga  Ga15  1  0.464019  0.671047  0.835612  1
  Ga  Ga16  1  0.040454  0.165636  0.331527  1
  Ga  Ga17  1  0.539528  0.348343  0.173958  1
  Ga  Ga18  1  0.464019  0.164388  0.328953  1
  Ga  Ga19  1  0.539528  0.826042  0.651657  1
  Co  Co20  1  0.511553  0.666803  0.333197  1
  Ag  Ag21  1  0.943531  0.667122  0.332878  1
  Ag  Ag22  1  0.040536  0.333007  0.666993  1
  Ag  Ag23  1  0.466004  0.333301  0.666699  1
