# generated using pymatgen
data_Tb12Sm8Si15Au
_symmetry_space_group_name_H-M   'P 1'
_cell_length_a   7.51747856
_cell_length_b   7.79222435
_cell_length_c   14.84822501
_cell_angle_alpha   89.81032888
_cell_angle_beta   89.42173164
_cell_angle_gamma   90.21712565
_symmetry_Int_Tables_number   1
_chemical_formula_structural   Tb12Sm8Si15Au
_chemical_formula_sum   'Tb12 Sm8 Si15 Au1'
_cell_volume   869.72211555
_cell_formula_units_Z   1
loop_
 _symmetry_equiv_pos_site_id
 _symmetry_equiv_pos_as_xyz
  1  'x, y, z'
loop_
 _atom_site_type_symbol
 _atom_site_label
 _atom_site_symmetry_multiplicity
 _atom_site_fract_x
 _atom_site_fract_y
 _atom_site_fract_z
 _atom_site_occupancy
  Tb  Tb0  1  0.162061  0.511278  0.749570  1
  Tb  Tb1  1  0.840016  0.489210  0.251603  1
  Tb  Tb2  1  0.339936  0.007832  0.249874  1
  Tb  Tb3  1  0.662469  0.987970  0.750014  1
  Tb  Tb4  1  0.333313  0.177194  0.622816  1
  Tb  Tb5  1  0.668242  0.821858  0.376113  1
  Tb  Tb6  1  0.171611  0.672864  0.376461  1
  Tb  Tb7  1  0.675246  0.821366  0.123008  1
  Tb  Tb8  1  0.827584  0.324991  0.622093  1
  Tb  Tb9  1  0.325434  0.179335  0.877566  1
  Tb  Tb10  1  0.825619  0.319115  0.878346  1
  Tb  Tb11  1  0.173507  0.679450  0.122702  1
  Sm  Sm12  1  0.022100  0.181763  0.099647  1
  Sm  Sm13  1  0.978419  0.819142  0.902146  1
  Sm  Sm14  1  0.478129  0.681655  0.902060  1
  Sm  Sm15  1  0.980596  0.825073  0.599323  1
  Sm  Sm16  1  0.520233  0.318078  0.097836  1
  Sm  Sm17  1  0.015834  0.177353  0.398846  1
  Sm  Sm18  1  0.517789  0.317831  0.399161  1
  Sm  Sm19  1  0.485628  0.682999  0.600438  1
  Si  Si20  1  0.035450  0.111021  0.751302  1
  Si  Si21  1  0.966409  0.891618  0.249771  1
  Si  Si22  1  0.466001  0.605841  0.247968  1
  Si  Si23  1  0.536173  0.393552  0.752169  1
  Si  Si24  1  0.275454  0.878272  0.751124  1
  Si  Si25  1  0.723464  0.124008  0.248482  1
  Si  Si26  1  0.225257  0.373544  0.248138  1
  Si  Si27  1  0.776740  0.623074  0.753206  1
  Si  Si28  1  0.836773  0.532702  0.458853  1
  Si  Si29  1  0.343533  0.967951  0.460356  1
  Si  Si30  1  0.849544  0.531734  0.038442  1
  Si  Si31  1  0.654867  0.033375  0.537432  1
  Si  Si32  1  0.148640  0.468103  0.962369  1
  Si  Si33  1  0.648778  0.030055  0.961225  1
  Si  Si34  1  0.350338  0.968762  0.039066  1
  Au  Au35  1  0.158810  0.470035  0.540474  1
