# generated using pymatgen
data_Dy7Y3(GeB4)4
_symmetry_space_group_name_H-M   'P 1'
_cell_length_a   7.26292100
_cell_length_b   7.26292100
_cell_length_c   8.15830100
_cell_angle_alpha   90.00185790
_cell_angle_beta   90.00185790
_cell_angle_gamma   90.00186174
_symmetry_Int_Tables_number   1
_chemical_formula_structural   Dy7Y3(GeB4)4
_chemical_formula_sum   'Dy7 Y3 Ge4 B16'
_cell_volume   430.35055242
_cell_formula_units_Z   1
loop_
 _symmetry_equiv_pos_site_id
 _symmetry_equiv_pos_as_xyz
  1  'x, y, z'
loop_
 _atom_site_type_symbol
 _atom_site_label
 _atom_site_symmetry_multiplicity
 _atom_site_fract_x
 _atom_site_fract_y
 _atom_site_fract_z
 _atom_site_occupancy
  Dy  Dy0  1  0.319592  0.819592  0.779265  1
  Dy  Dy1  1  0.319555  0.819555  0.220760  1
  Dy  Dy2  1  0.819605  0.680420  0.220793  1
  Dy  Dy3  1  0.819599  0.680395  0.779216  1
  Dy  Dy4  1  0.680401  0.180401  0.779267  1
  Dy  Dy5  1  0.180395  0.319599  0.779216  1
  Dy  Dy6  1  0.180420  0.319605  0.220793  1
  Y  Y7  1  0.680374  0.180374  0.220909  1
  Y  Y8  1  0.000018  0.999979  0.500017  1
  Y  Y9  1  0.499979  0.500018  0.500017  1
  Ge  Ge10  1  0.120091  0.620091  0.499997  1
  Ge  Ge11  1  0.879955  0.379955  0.500083  1
  Ge  Ge12  1  0.379845  0.120094  0.500066  1
  Ge  Ge13  1  0.620094  0.879845  0.500066  1
  B  B14  1  0.172194  0.039275  0.000006  1
  B  B15  1  0.827862  0.960616  0.999930  1
  B  B16  1  0.960807  0.172184  0.999954  1
  B  B17  1  0.327814  0.539284  0.000013  1
  B  B18  1  0.039284  0.827814  0.000013  1
  B  B19  1  0.672184  0.460807  0.999954  1
  B  B20  1  0.539275  0.672194  0.000006  1
  B  B21  1  0.460616  0.327862  0.999930  1
  B  B22  1  0.090303  0.590303  0.999997  1
  B  B23  1  0.909761  0.409761  0.999922  1
  B  B24  1  0.409651  0.090264  0.999913  1
  B  B25  1  0.590264  0.909651  0.999913  1
  B  B26  1  0.000111  0.999940  0.161634  1
  B  B27  1  0.999989  0.000023  0.838357  1
  B  B28  1  0.500023  0.499989  0.838357  1
  B  B29  1  0.499940  0.500111  0.161634  1
