# generated using pymatgen
data_Cs3VRhBr9
_symmetry_space_group_name_H-M   'P 1'
_cell_length_a   7.85107720
_cell_length_b   7.85142285
_cell_length_c   19.30912400
_cell_angle_alpha   90.00000000
_cell_angle_beta   90.00000000
_cell_angle_gamma   120.02550509
_symmetry_Int_Tables_number   1
_chemical_formula_structural   Cs3VRhBr9
_chemical_formula_sum   'Cs6 V2 Rh2 Br18'
_cell_volume   1030.52645456
_cell_formula_units_Z   2
loop_
 _symmetry_equiv_pos_site_id
 _symmetry_equiv_pos_as_xyz
  1  'x, y, z'
loop_
 _atom_site_type_symbol
 _atom_site_label
 _atom_site_symmetry_multiplicity
 _atom_site_fract_x
 _atom_site_fract_y
 _atom_site_fract_z
 _atom_site_occupancy
  Cs  Cs0  1  0.666660  0.333347  0.932058  1
  Cs  Cs1  1  0.333340  0.666653  0.432058  1
  Cs  Cs2  1  0.666652  0.333359  0.570480  1
  Cs  Cs3  1  0.333348  0.666641  0.070480  1
  Cs  Cs4  1  0.999998  0.000014  0.748680  1
  Cs  Cs5  1  0.000002  0.999986  0.248680  1
  V  V6  1  0.666692  0.333240  0.335842  1
  V  V7  1  0.333308  0.666760  0.835842  1
  Rh  Rh8  1  0.333339  0.666666  0.668826  1
  Rh  Rh9  1  0.666661  0.333334  0.168826  1
  Br  Br10  1  0.821899  0.643804  0.404907  1
  Br  Br11  1  0.178101  0.356196  0.904907  1
  Br  Br12  1  0.178105  0.821890  0.904896  1
  Br  Br13  1  0.182619  0.365255  0.594940  1
  Br  Br14  1  0.643785  0.821883  0.904897  1
  Br  Br15  1  0.356215  0.178117  0.404897  1
  Br  Br16  1  0.033735  0.516856  0.748199  1
  Br  Br17  1  0.821895  0.178110  0.404896  1
  Br  Br18  1  0.516869  0.033727  0.248201  1
  Br  Br19  1  0.483064  0.516909  0.748167  1
  Br  Br20  1  0.516936  0.483091  0.248167  1
  Br  Br21  1  0.966265  0.483144  0.248199  1
  Br  Br22  1  0.365269  0.182621  0.094942  1
  Br  Br23  1  0.483131  0.966273  0.748201  1
  Br  Br24  1  0.817381  0.634745  0.094940  1
  Br  Br25  1  0.182669  0.817341  0.594965  1
  Br  Br26  1  0.634731  0.817379  0.594942  1
  Br  Br27  1  0.817331  0.182659  0.094965  1
