# generated using pymatgen
data_Hf11Sc5(Si4W)4
_symmetry_space_group_name_H-M   'P 1'
_cell_length_a   6.98777850
_cell_length_b   6.98039862
_cell_length_c   12.72942954
_cell_angle_alpha   89.97209863
_cell_angle_beta   89.98189963
_cell_angle_gamma   89.96075101
_symmetry_Int_Tables_number   1
_chemical_formula_structural   Hf11Sc5(Si4W)4
_chemical_formula_sum   'Hf11 Sc5 Si16 W4'
_cell_volume   620.90923612
_cell_formula_units_Z   1
loop_
 _symmetry_equiv_pos_site_id
 _symmetry_equiv_pos_as_xyz
  1  'x, y, z'
loop_
 _atom_site_type_symbol
 _atom_site_label
 _atom_site_symmetry_multiplicity
 _atom_site_fract_x
 _atom_site_fract_y
 _atom_site_fract_z
 _atom_site_occupancy
  Hf  Hf0  1  0.155069  0.499499  0.468667  1
  Hf  Hf1  1  0.000597  0.655334  0.718444  1
  Hf  Hf2  1  0.999308  0.344010  0.218616  1
  Hf  Hf3  1  0.494898  0.355569  0.126380  1
  Hf  Hf4  1  0.503923  0.644051  0.625499  1
  Hf  Hf5  1  0.856798  0.004728  0.874963  1
  Hf  Hf6  1  0.143852  0.995186  0.375698  1
  Hf  Hf7  1  0.643431  0.503575  0.375049  1
  Hf  Hf8  1  0.355789  0.495946  0.873673  1
  Hf  Hf9  1  0.004506  0.856325  0.125478  1
  Hf  Hf10  1  0.995997  0.144340  0.624767  1
  Sc  Sc11  1  0.497399  0.156374  0.531823  1
  Sc  Sc12  1  0.502467  0.844963  0.031865  1
  Sc  Sc13  1  0.655627  0.002732  0.281750  1
  Sc  Sc14  1  0.344282  0.997004  0.781449  1
  Sc  Sc15  1  0.844229  0.501440  0.968817  1
  Si  Si16  1  0.799136  0.148248  0.070970  1
  Si  Si17  1  0.200537  0.851268  0.571219  1
  Si  Si18  1  0.649258  0.700272  0.820930  1
  Si  Si19  1  0.351262  0.299433  0.321237  1
  Si  Si20  1  0.852527  0.201737  0.428003  1
  Si  Si21  1  0.148022  0.799030  0.928587  1
  Si  Si22  1  0.701331  0.647678  0.179022  1
  Si  Si23  1  0.297904  0.352261  0.677777  1
  Si  Si24  1  0.546876  0.196472  0.933412  1
  Si  Si25  1  0.453587  0.804321  0.433451  1
  Si  Si26  1  0.695868  0.953293  0.683201  1
  Si  Si27  1  0.304576  0.045851  0.183370  1
  Si  Si28  1  0.803855  0.452793  0.566190  1
  Si  Si29  1  0.195855  0.547102  0.065923  1
  Si  Si30  1  0.952175  0.695809  0.316312  1
  Si  Si31  1  0.046504  0.305128  0.816674  1
  W  W32  1  0.678494  0.325834  0.749468  1
  W  W33  1  0.322000  0.673723  0.250749  1
  W  W34  1  0.826945  0.821559  0.500396  1
  W  W35  1  0.175117  0.177114  0.000170  1
