# generated using pymatgen
data_YbY4Ni2Sb
_symmetry_space_group_name_H-M   'P 1'
_cell_length_a   8.64186783
_cell_length_b   8.64186714
_cell_length_c   8.64186729
_cell_angle_alpha   127.84569022
_cell_angle_beta   127.84568777
_cell_angle_gamma   76.87513701
_symmetry_Int_Tables_number   1
_chemical_formula_structural   YbY4Ni2Sb
_chemical_formula_sum   'Yb2 Y8 Ni4 Sb2'
_cell_volume   390.73394418
_cell_formula_units_Z   2
loop_
 _symmetry_equiv_pos_site_id
 _symmetry_equiv_pos_as_xyz
  1  'x, y, z'
loop_
 _atom_site_type_symbol
 _atom_site_label
 _atom_site_symmetry_multiplicity
 _atom_site_fract_x
 _atom_site_fract_y
 _atom_site_fract_z
 _atom_site_occupancy
  Yb  Yb0  1  0.000000  0.000000  0.000000  1
  Yb  Yb1  1  0.500000  0.500000  0.000000  1
  Y  Y2  1  0.795412  0.295412  0.816402  1
  Y  Y3  1  0.204588  0.704588  0.183598  1
  Y  Y4  1  0.479010  0.979010  0.183598  1
  Y  Y5  1  0.295412  0.479010  0.500000  1
  Y  Y6  1  0.020990  0.204588  0.500000  1
  Y  Y7  1  0.520990  0.020990  0.816402  1
  Y  Y8  1  0.704588  0.520990  0.500000  1
  Y  Y9  1  0.979010  0.795412  0.500000  1
  Ni  Ni10  1  0.127434  0.627434  0.754866  1
  Ni  Ni11  1  0.872566  0.372566  0.245134  1
  Ni  Ni12  1  0.627434  0.872566  0.500000  1
  Ni  Ni13  1  0.372566  0.127434  0.500000  1
  Sb  Sb14  1  0.250000  0.250000  0.000000  1
  Sb  Sb15  1  0.750000  0.750000  0.000000  1
