# generated using pymatgen
data_Zr11Sc(OsRu)6
_symmetry_space_group_name_H-M   'P 1'
_cell_length_a   4.63564000
_cell_length_b   6.53412300
_cell_length_c   13.95764000
_cell_angle_alpha   89.99983021
_cell_angle_beta   90.00017272
_cell_angle_gamma   90.00000000
_symmetry_Int_Tables_number   1
_chemical_formula_structural   Zr11Sc(OsRu)6
_chemical_formula_sum   'Zr11 Sc1 Os6 Ru6'
_cell_volume   422.77470951
_cell_formula_units_Z   1
loop_
 _symmetry_equiv_pos_site_id
 _symmetry_equiv_pos_as_xyz
  1  'x, y, z'
loop_
 _atom_site_type_symbol
 _atom_site_label
 _atom_site_symmetry_multiplicity
 _atom_site_fract_x
 _atom_site_fract_y
 _atom_site_fract_z
 _atom_site_occupancy
  Zr  Zr0  1  0.500001  0.749750  0.000001  1
  Zr  Zr1  1  0.999975  0.249924  0.164315  1
  Zr  Zr2  1  0.999973  0.750124  0.165729  1
  Zr  Zr3  1  0.499962  0.250205  0.332756  1
  Zr  Zr4  1  0.499962  0.750000  0.332906  1
  Zr  Zr5  1  0.000002  0.249874  0.499999  1
  Zr  Zr6  1  0.000001  0.750034  0.500000  1
  Zr  Zr7  1  0.500037  0.250206  0.667245  1
  Zr  Zr8  1  0.500042  0.750002  0.667094  1
  Zr  Zr9  1  0.000027  0.249924  0.835687  1
  Zr  Zr10  1  0.000027  0.750123  0.834272  1
  Sc  Sc11  1  0.499998  0.249892  0.999998  1
  Os  Os12  1  0.999999  0.998785  0.999999  1
  Os  Os13  1  0.499964  0.500612  0.166904  1
  Os  Os14  1  0.999956  0.000097  0.333254  1
  Os  Os15  1  0.499999  0.499920  0.499999  1
  Os  Os16  1  0.000045  0.000099  0.666745  1
  Os  Os17  1  0.500034  0.500612  0.833098  1
  Ru  Ru18  1  0.000001  0.499527  0.000000  1
  Ru  Ru19  1  0.499973  0.000180  0.166811  1
  Ru  Ru20  1  0.999958  0.499778  0.333401  1
  Ru  Ru21  1  0.500001  0.000372  0.500001  1
  Ru  Ru22  1  0.000037  0.499778  0.666596  1
  Ru  Ru23  1  0.500021  0.000181  0.833189  1
