# generated using pymatgen
data_DyHo9(SnSb)3
_symmetry_space_group_name_H-M   'P 1'
_cell_length_a   6.38056400
_cell_length_b   8.96045828
_cell_length_c   8.95549500
_cell_angle_alpha   119.98225752
_cell_angle_beta   89.99874162
_cell_angle_gamma   90.00065466
_symmetry_Int_Tables_number   1
_chemical_formula_structural   DyHo9(SnSb)3
_chemical_formula_sum   'Dy1 Ho9 Sn3 Sb3'
_cell_volume   443.49337481
_cell_formula_units_Z   1
loop_
 _symmetry_equiv_pos_site_id
 _symmetry_equiv_pos_as_xyz
  1  'x, y, z'
loop_
 _atom_site_type_symbol
 _atom_site_label
 _atom_site_symmetry_multiplicity
 _atom_site_fract_x
 _atom_site_fract_y
 _atom_site_fract_z
 _atom_site_occupancy
  Dy  Dy0  1  0.250002  0.999994  0.758133  1
  Ho  Ho1  1  0.500778  0.333286  0.666652  1
  Ho  Ho2  1  0.500778  0.666703  0.333338  1
  Ho  Ho3  1  0.999222  0.666709  0.333346  1
  Ho  Ho4  1  0.999221  0.333281  0.666643  1
  Ho  Ho5  1  0.749996  0.241493  0.000077  1
  Ho  Ho6  1  0.750003  0.758507  0.758568  1
  Ho  Ho7  1  0.750002  0.000005  0.241328  1
  Ho  Ho8  1  0.249996  0.758068  0.999966  1
  Ho  Ho9  1  0.249997  0.241944  0.241919  1
  Sn  Sn10  1  0.750000  0.607173  0.000012  1
  Sn  Sn11  1  0.750000  0.392856  0.392873  1
  Sn  Sn12  1  0.750006  0.999996  0.607125  1
  Sb  Sb13  1  0.249992  0.391806  0.000243  1
  Sb  Sb14  1  0.250004  0.608183  0.608429  1
  Sb  Sb15  1  0.250005  0.999999  0.391348  1
