# generated using pymatgen
data_Tb4AlGa3Ir3Pd
_symmetry_space_group_name_H-M   'P 1'
_cell_length_a   4.35613900
_cell_length_b   6.89784455
_cell_length_c   7.82155786
_cell_angle_alpha   90.07609375
_cell_angle_beta   90.00000000
_cell_angle_gamma   90.00000000
_symmetry_Int_Tables_number   1
_chemical_formula_structural   Tb4AlGa3Ir3Pd
_chemical_formula_sum   'Tb4 Al1 Ga3 Ir3 Pd1'
_cell_volume   235.02172587
_cell_formula_units_Z   1
loop_
 _symmetry_equiv_pos_site_id
 _symmetry_equiv_pos_as_xyz
  1  'x, y, z'
loop_
 _atom_site_type_symbol
 _atom_site_label
 _atom_site_symmetry_multiplicity
 _atom_site_fract_x
 _atom_site_fract_y
 _atom_site_fract_z
 _atom_site_occupancy
  Tb  Tb0  1  0.250000  0.475980  0.190015  1
  Tb  Tb1  1  0.750000  0.525249  0.815673  1
  Tb  Tb2  1  0.250000  0.977486  0.309487  1
  Tb  Tb3  1  0.750000  0.031134  0.685388  1
  Al  Al4  1  0.750000  0.149385  0.067974  1
  Ga  Ga5  1  0.250000  0.850755  0.934575  1
  Ga  Ga6  1  0.250000  0.338121  0.568935  1
  Ga  Ga7  1  0.750000  0.654070  0.429560  1
  Ir  Ir8  1  0.750000  0.772008  0.111224  1
  Ir  Ir9  1  0.250000  0.231669  0.891495  1
  Ir  Ir10  1  0.750000  0.268908  0.385157  1
  Pd  Pd11  1  0.250000  0.725236  0.610518  1
