# generated using pymatgen
data_Dy9Th(Sn3Ge)2
_symmetry_space_group_name_H-M   'P 1'
_cell_length_a   9.25775400
_cell_length_b   9.28405015
_cell_length_c   6.52140400
_cell_angle_alpha   90.00000000
_cell_angle_beta   90.00000000
_cell_angle_gamma   119.90634910
_symmetry_Int_Tables_number   1
_chemical_formula_structural   Dy9Th(Sn3Ge)2
_chemical_formula_sum   'Dy9 Th1 Sn6 Ge2'
_cell_volume   485.87428761
_cell_formula_units_Z   1
loop_
 _symmetry_equiv_pos_site_id
 _symmetry_equiv_pos_as_xyz
  1  'x, y, z'
loop_
 _atom_site_type_symbol
 _atom_site_label
 _atom_site_symmetry_multiplicity
 _atom_site_fract_x
 _atom_site_fract_y
 _atom_site_fract_z
 _atom_site_occupancy
  Dy  Dy0  1  0.999629  0.744366  0.750000  1
  Dy  Dy1  1  0.255263  0.255634  0.750000  1
  Dy  Dy2  1  0.333318  0.665515  0.500385  1
  Dy  Dy3  1  0.667804  0.334485  0.500385  1
  Dy  Dy4  1  0.746163  0.745421  0.250000  1
  Dy  Dy5  1  0.743042  0.000000  0.750000  1
  Dy  Dy6  1  0.000742  0.254579  0.250000  1
  Dy  Dy7  1  0.333318  0.665515  0.999615  1
  Dy  Dy8  1  0.667804  0.334485  0.999615  1
  Th  Th9  1  0.255097  0.000000  0.250000  1
  Sn  Sn10  1  0.609672  0.609679  0.750000  1
  Sn  Sn11  1  0.999993  0.390321  0.750000  1
  Sn  Sn12  1  0.389312  0.000000  0.750000  1
  Sn  Sn13  1  0.614038  0.000000  0.250000  1
  Sn  Sn14  1  0.393448  0.395821  0.250000  1
  Sn  Sn15  1  0.997627  0.604179  0.250000  1
  Ge  Ge16  1  0.996865  0.000000  0.994252  1
  Ge  Ge17  1  0.996865  0.000000  0.505748  1
