# generated using pymatgen
data_Dy2TiZnIr2
_symmetry_space_group_name_H-M   'P 1'
_cell_length_a   4.30311400
_cell_length_b   6.91065902
_cell_length_c   7.99176795
_cell_angle_alpha   91.63866549
_cell_angle_beta   90.00000000
_cell_angle_gamma   90.00000000
_symmetry_Int_Tables_number   1
_chemical_formula_structural   Dy2TiZnIr2
_chemical_formula_sum   'Dy4 Ti2 Zn2 Ir4'
_cell_volume   237.55683939
_cell_formula_units_Z   2
loop_
 _symmetry_equiv_pos_site_id
 _symmetry_equiv_pos_as_xyz
  1  'x, y, z'
loop_
 _atom_site_type_symbol
 _atom_site_label
 _atom_site_symmetry_multiplicity
 _atom_site_fract_x
 _atom_site_fract_y
 _atom_site_fract_z
 _atom_site_occupancy
  Dy  Dy0  1  0.250000  0.527739  0.195433  1
  Dy  Dy1  1  0.750000  0.472261  0.804567  1
  Dy  Dy2  1  0.250000  0.028985  0.328503  1
  Dy  Dy3  1  0.750000  0.971015  0.671497  1
  Ti  Ti4  1  0.250000  0.134826  0.927873  1
  Ti  Ti5  1  0.750000  0.865174  0.072127  1
  Zn  Zn6  1  0.250000  0.647614  0.570707  1
  Zn  Zn7  1  0.750000  0.352386  0.429293  1
  Ir  Ir8  1  0.750000  0.735026  0.371846  1
  Ir  Ir9  1  0.250000  0.264974  0.628154  1
  Ir  Ir10  1  0.750000  0.225523  0.094586  1
  Ir  Ir11  1  0.250000  0.774477  0.905414  1
