# generated using pymatgen
data_Tb3Er13(In3Co)2
_symmetry_space_group_name_H-M   'P 1'
_cell_length_a   10.30600500
_cell_length_b   10.30600413
_cell_length_c   6.98090200
_cell_angle_alpha   90.00000000
_cell_angle_beta   90.00000000
_cell_angle_gamma   119.99999317
_symmetry_Int_Tables_number   1
_chemical_formula_structural   Tb3Er13(In3Co)2
_chemical_formula_sum   'Tb3 Er13 In6 Co2'
_cell_volume   642.12985708
_cell_formula_units_Z   1
loop_
 _symmetry_equiv_pos_site_id
 _symmetry_equiv_pos_as_xyz
  1  'x, y, z'
loop_
 _atom_site_type_symbol
 _atom_site_label
 _atom_site_symmetry_multiplicity
 _atom_site_fract_x
 _atom_site_fract_y
 _atom_site_fract_z
 _atom_site_occupancy
  Tb  Tb0  1  0.534291  0.068582  0.790853  1
  Tb  Tb1  1  0.931418  0.465709  0.790853  1
  Tb  Tb2  1  0.534291  0.465709  0.790853  1
  Er  Er3  1  0.464643  0.929286  0.291416  1
  Er  Er4  1  0.070714  0.535357  0.291416  1
  Er  Er5  1  0.464643  0.535357  0.291416  1
  Er  Er6  1  0.821832  0.643665  0.497806  1
  Er  Er7  1  0.356335  0.178168  0.497806  1
  Er  Er8  1  0.821832  0.178168  0.497806  1
  Er  Er9  1  0.178329  0.356657  0.000000  1
  Er  Er10  1  0.643343  0.821671  0.000000  1
  Er  Er11  1  0.178329  0.821671  0.000000  1
  Er  Er12  1  0.666667  0.333333  0.184147  1
  Er  Er13  1  0.333333  0.666667  0.683193  1
  Er  Er14  1  0.000000  0.000000  0.779426  1
  Er  Er15  1  0.000000  0.000000  0.279794  1
  In  In16  1  0.837364  0.674729  0.039470  1
  In  In17  1  0.325271  0.162636  0.039470  1
  In  In18  1  0.837364  0.162636  0.039470  1
  In  In19  1  0.163216  0.326431  0.538718  1
  In  In20  1  0.673569  0.836784  0.538718  1
  In  In21  1  0.163216  0.836784  0.538718  1
  Co  Co22  1  0.666667  0.333333  0.566546  1
  Co  Co23  1  0.333333  0.666667  0.068010  1
