# generated using pymatgen
data_Tb3Th(CdCu2)2
_symmetry_space_group_name_H-M   'P 1'
_cell_length_a   7.67026396
_cell_length_b   7.67026396
_cell_length_c   3.70434700
_cell_angle_alpha   90.00000000
_cell_angle_beta   90.00000000
_cell_angle_gamma   91.23846674
_symmetry_Int_Tables_number   1
_chemical_formula_structural   Tb3Th(CdCu2)2
_chemical_formula_sum   'Tb3 Th1 Cd2 Cu4'
_cell_volume   217.88674828
_cell_formula_units_Z   1
loop_
 _symmetry_equiv_pos_site_id
 _symmetry_equiv_pos_as_xyz
  1  'x, y, z'
loop_
 _atom_site_type_symbol
 _atom_site_label
 _atom_site_symmetry_multiplicity
 _atom_site_fract_x
 _atom_site_fract_y
 _atom_site_fract_z
 _atom_site_occupancy
  Tb  Tb0  1  0.323209  0.823209  0.500000  1
  Tb  Tb1  1  0.176451  0.327005  0.500000  1
  Tb  Tb2  1  0.827005  0.676451  0.500000  1
  Th  Th3  1  0.674237  0.174237  0.500000  1
  Cd  Cd4  1  0.005021  0.997285  0.000000  1
  Cd  Cd5  1  0.497285  0.505021  0.000000  1
  Cu  Cu6  1  0.117845  0.617845  0.000000  1
  Cu  Cu7  1  0.882394  0.382394  0.000000  1
  Cu  Cu8  1  0.618258  0.878294  0.000000  1
  Cu  Cu9  1  0.378294  0.118258  0.000000  1
