# generated using pymatgen
data_Pa2TlSe5
_symmetry_space_group_name_H-M   'P 1'
_cell_length_a   7.77834700
_cell_length_b   8.83368012
_cell_length_c   12.37359828
_cell_angle_alpha   90.02562205
_cell_angle_beta   90.00000000
_cell_angle_gamma   90.00000000
_symmetry_Int_Tables_number   1
_chemical_formula_structural   Pa2TlSe5
_chemical_formula_sum   'Pa8 Tl4 Se20'
_cell_volume   850.20753817
_cell_formula_units_Z   4
loop_
 _symmetry_equiv_pos_site_id
 _symmetry_equiv_pos_as_xyz
  1  'x, y, z'
loop_
 _atom_site_type_symbol
 _atom_site_label
 _atom_site_symmetry_multiplicity
 _atom_site_fract_x
 _atom_site_fract_y
 _atom_site_fract_z
 _atom_site_occupancy
  Pa  Pa0  1  0.024663  0.997600  0.317721  1
  Pa  Pa1  1  0.524663  0.002400  0.182279  1
  Pa  Pa2  1  0.975337  0.002400  0.682279  1
  Pa  Pa3  1  0.475337  0.997600  0.817721  1
  Pa  Pa4  1  0.072226  0.749048  0.007134  1
  Pa  Pa5  1  0.572226  0.250952  0.492866  1
  Pa  Pa6  1  0.927774  0.250952  0.992866  1
  Pa  Pa7  1  0.427774  0.749048  0.507134  1
  Tl  Tl8  1  0.048587  0.491468  0.331176  1
  Tl  Tl9  1  0.548587  0.508532  0.168824  1
  Tl  Tl10  1  0.951413  0.508532  0.668824  1
  Tl  Tl11  1  0.451413  0.491468  0.831176  1
  Se  Se12  1  0.663413  0.954782  0.402581  1
  Se  Se13  1  0.163413  0.045218  0.097419  1
  Se  Se14  1  0.336587  0.045218  0.597419  1
  Se  Se15  1  0.836587  0.954782  0.902581  1
  Se  Se16  1  0.450007  0.794513  0.003183  1
  Se  Se17  1  0.950007  0.205487  0.496817  1
  Se  Se18  1  0.549993  0.205487  0.996817  1
  Se  Se19  1  0.049993  0.794513  0.503183  1
  Se  Se20  1  0.834275  0.789795  0.181801  1
  Se  Se21  1  0.334275  0.210205  0.318199  1
  Se  Se22  1  0.165725  0.210205  0.818199  1
  Se  Se23  1  0.665725  0.789795  0.681801  1
  Se  Se24  1  0.308447  0.778690  0.284901  1
  Se  Se25  1  0.808447  0.221310  0.215099  1
  Se  Se26  1  0.691553  0.221310  0.715099  1
  Se  Se27  1  0.191553  0.778690  0.784901  1
  Se  Se28  1  0.170127  0.461017  0.077677  1
  Se  Se29  1  0.670127  0.538983  0.422323  1
  Se  Se30  1  0.829873  0.538983  0.922323  1
  Se  Se31  1  0.329873  0.461017  0.577677  1
