# generated using pymatgen
data_YbPd2PbO7
_symmetry_space_group_name_H-M   'P 1'
_cell_length_a   7.15705018
_cell_length_b   7.23816644
_cell_length_c   7.23816741
_cell_angle_alpha   60.44743277
_cell_angle_beta   60.37003799
_cell_angle_gamma   60.37003849
_symmetry_Int_Tables_number   1
_chemical_formula_structural   YbPd2PbO7
_chemical_formula_sum   'Yb2 Pd4 Pb2 O14'
_cell_volume   267.51380848
_cell_formula_units_Z   2
loop_
 _symmetry_equiv_pos_site_id
 _symmetry_equiv_pos_as_xyz
  1  'x, y, z'
loop_
 _atom_site_type_symbol
 _atom_site_label
 _atom_site_symmetry_multiplicity
 _atom_site_fract_x
 _atom_site_fract_y
 _atom_site_fract_z
 _atom_site_occupancy
  Yb  Yb0  1  0.625000  0.125000  0.125000  1
  Yb  Yb1  1  0.125000  0.125000  0.125000  1
  Pd  Pd2  1  0.125000  0.625000  0.625000  1
  Pd  Pd3  1  0.625000  0.125000  0.625000  1
  Pd  Pd4  1  0.625000  0.625000  0.125000  1
  Pd  Pd5  1  0.625000  0.625000  0.625000  1
  Pb  Pb6  1  0.125000  0.625000  0.125000  1
  Pb  Pb7  1  0.125000  0.125000  0.625000  1
  O  O8  1  0.715701  0.710846  0.288186  1
  O  O9  1  0.285266  0.288186  0.710846  1
  O  O10  1  0.715701  0.288186  0.710846  1
  O  O11  1  0.285266  0.710846  0.288186  1
  O  O12  1  0.290268  0.709732  0.709732  1
  O  O13  1  0.713655  0.286345  0.286345  1
  O  O14  1  0.534299  0.539154  0.961814  1
  O  O15  1  0.964734  0.961814  0.539154  1
  O  O16  1  0.534299  0.961814  0.539154  1
  O  O17  1  0.964734  0.539154  0.961814  1
  O  O18  1  0.959732  0.540268  0.540268  1
  O  O19  1  0.536345  0.963655  0.963655  1
  O  O20  1  0.238263  0.261737  0.261737  1
  O  O21  1  0.011737  0.988263  0.988263  1
