# generated using pymatgen
data_Tb4Ta2Ir5Ru
_symmetry_space_group_name_H-M   'P 1'
_cell_length_a   5.66826621
_cell_length_b   5.67095430
_cell_length_c   8.23074800
_cell_angle_alpha   90.00000000
_cell_angle_beta   90.00000000
_cell_angle_gamma   120.01569777
_symmetry_Int_Tables_number   1
_chemical_formula_structural   Tb4Ta2Ir5Ru
_chemical_formula_sum   'Tb4 Ta2 Ir5 Ru1'
_cell_volume   229.09077660
_cell_formula_units_Z   1
loop_
 _symmetry_equiv_pos_site_id
 _symmetry_equiv_pos_as_xyz
  1  'x, y, z'
loop_
 _atom_site_type_symbol
 _atom_site_label
 _atom_site_symmetry_multiplicity
 _atom_site_fract_x
 _atom_site_fract_y
 _atom_site_fract_z
 _atom_site_occupancy
  Tb  Tb0  1  0.334559  0.667280  0.438849  1
  Tb  Tb1  1  0.666326  0.333163  0.561250  1
  Tb  Tb2  1  0.666326  0.333163  0.938750  1
  Tb  Tb3  1  0.334559  0.667280  0.061151  1
  Ta  Ta4  1  0.997652  0.998826  0.502663  1
  Ta  Ta5  1  0.997652  0.998826  0.997337  1
  Ir  Ir6  1  0.828516  0.172023  0.250000  1
  Ir  Ir7  1  0.828516  0.656493  0.250000  1
  Ir  Ir8  1  0.343319  0.171659  0.250000  1
  Ir  Ir9  1  0.173160  0.827997  0.750000  1
  Ir  Ir10  1  0.173160  0.345163  0.750000  1
  Ru  Ru11  1  0.656255  0.828128  0.750000  1
