# generated using pymatgen
data_Sc(WF4)3
_symmetry_space_group_name_H-M   'P 1'
_cell_length_a   5.72054082
_cell_length_b   5.84393667
_cell_length_c   8.17942127
_cell_angle_alpha   91.76607513
_cell_angle_beta   89.99905580
_cell_angle_gamma   89.96168229
_symmetry_Int_Tables_number   1
_chemical_formula_structural   Sc(WF4)3
_chemical_formula_sum   'Sc1 W3 F12'
_cell_volume   273.31201418
_cell_formula_units_Z   1
loop_
 _symmetry_equiv_pos_site_id
 _symmetry_equiv_pos_as_xyz
  1  'x, y, z'
loop_
 _atom_site_type_symbol
 _atom_site_label
 _atom_site_symmetry_multiplicity
 _atom_site_fract_x
 _atom_site_fract_y
 _atom_site_fract_z
 _atom_site_occupancy
  Sc  Sc0  1  0.501340  0.512399  0.496430  1
  W  W1  1  0.998621  0.001792  0.996662  1
  W  W2  1  0.000969  0.012303  0.496772  1
  W  W3  1  0.499034  0.501472  0.996329  1
  F  F4  1  0.284898  0.238210  0.463052  1
  F  F5  1  0.091828  0.006974  0.747045  1
  F  F6  1  0.296997  0.799776  0.042753  1
  F  F7  1  0.227405  0.728230  0.462715  1
  F  F8  1  0.799683  0.701043  0.951803  1
  F  F9  1  0.433385  0.507661  0.741375  1
  F  F10  1  0.566885  0.503275  0.251121  1
  F  F11  1  0.199333  0.300856  0.041656  1
  F  F12  1  0.778565  0.299855  0.529949  1
  F  F13  1  0.698384  0.201064  0.950329  1
  F  F14  1  0.907233  0.006648  0.246791  1
  F  F15  1  0.715439  0.788043  0.530418  1
