# generated using pymatgen
data_Pr2Gd(OsO5)2
_symmetry_space_group_name_H-M   'P 1'
_cell_length_a   5.52697444
_cell_length_b   5.52697415
_cell_length_c   6.97664197
_cell_angle_alpha   72.87549332
_cell_angle_beta   72.87550051
_cell_angle_gamma   90.17899492
_symmetry_Int_Tables_number   1
_chemical_formula_structural   Pr2Gd(OsO5)2
_chemical_formula_sum   'Pr2 Gd1 Os2 O10'
_cell_volume   193.69748391
_cell_formula_units_Z   1
loop_
 _symmetry_equiv_pos_site_id
 _symmetry_equiv_pos_as_xyz
  1  'x, y, z'
loop_
 _atom_site_type_symbol
 _atom_site_label
 _atom_site_symmetry_multiplicity
 _atom_site_fract_x
 _atom_site_fract_y
 _atom_site_fract_z
 _atom_site_occupancy
  Pr  Pr0  1  0.753495  0.246505  0.500000  1
  Pr  Pr1  1  0.246505  0.753495  0.500000  1
  Gd  Gd2  1  0.500000  0.500000  0.000000  1
  Os  Os3  1  0.130451  0.130451  0.826113  1
  Os  Os4  1  0.869549  0.869549  0.173887  1
  O  O5  1  0.826117  0.826117  0.472534  1
  O  O6  1  0.173883  0.173883  0.527466  1
  O  O7  1  0.593697  0.593697  0.277416  1
  O  O8  1  0.406303  0.406303  0.722584  1
  O  O9  1  0.381860  0.892676  0.791368  1
  O  O10  1  0.851963  0.851963  0.897107  1
  O  O11  1  0.148037  0.148037  0.102893  1
  O  O12  1  0.892676  0.381860  0.791368  1
  O  O13  1  0.618140  0.107324  0.208632  1
  O  O14  1  0.107324  0.618140  0.208632  1
