# generated using pymatgen
data_Yb2Ru(CN)2
_symmetry_space_group_name_H-M   'P 1'
_cell_length_a   6.58982768
_cell_length_b   6.58982775
_cell_length_c   6.58982667
_cell_angle_alpha   133.55044209
_cell_angle_beta   109.89276825
_cell_angle_gamma   88.32366059
_symmetry_Int_Tables_number   1
_chemical_formula_structural   Yb2Ru(CN)2
_chemical_formula_sum   'Yb4 Ru2 C4 N4'
_cell_volume   185.98141385
_cell_formula_units_Z   2
loop_
 _symmetry_equiv_pos_site_id
 _symmetry_equiv_pos_as_xyz
  1  'x, y, z'
loop_
 _atom_site_type_symbol
 _atom_site_label
 _atom_site_symmetry_multiplicity
 _atom_site_fract_x
 _atom_site_fract_y
 _atom_site_fract_z
 _atom_site_occupancy
  Yb  Yb0  1  0.200475  0.346017  0.854459  1
  Yb  Yb1  1  0.799525  0.653983  0.145541  1
  Yb  Yb2  1  0.491557  0.846015  0.645541  1
  Yb  Yb3  1  0.508443  0.153985  0.354459  1
  Ru  Ru4  1  0.000000  0.250000  0.250000  1
  Ru  Ru5  1  0.000000  0.750000  0.750000  1
  C  C6  1  0.895031  0.074531  0.820501  1
  C  C7  1  0.104969  0.925469  0.179499  1
  C  C8  1  0.254029  0.574530  0.679499  1
  C  C9  1  0.745971  0.425470  0.320501  1
  N  N10  1  0.786717  0.125916  0.660802  1
  N  N11  1  0.213283  0.874084  0.339198  1
  N  N12  1  0.465115  0.625916  0.839198  1
  N  N13  1  0.534885  0.374084  0.160802  1
