# generated using pymatgen
data_LiCe(CuSe)6
_symmetry_space_group_name_H-M   'P 1'
_cell_length_a   7.65892020
_cell_length_b   7.65891931
_cell_length_c   7.65891800
_cell_angle_alpha   53.15636137
_cell_angle_beta   53.15636637
_cell_angle_gamma   53.15637181
_symmetry_Int_Tables_number   1
_chemical_formula_structural   LiCe(CuSe)6
_chemical_formula_sum   'Li1 Ce1 Cu6 Se6'
_cell_volume   266.74692242
_cell_formula_units_Z   1
loop_
 _symmetry_equiv_pos_site_id
 _symmetry_equiv_pos_as_xyz
  1  'x, y, z'
loop_
 _atom_site_type_symbol
 _atom_site_label
 _atom_site_symmetry_multiplicity
 _atom_site_fract_x
 _atom_site_fract_y
 _atom_site_fract_z
 _atom_site_occupancy
  Li  Li0  1  0.333788  0.333788  0.333788  1
  Ce  Ce1  1  0.666632  0.666632  0.666632  1
  Cu  Cu2  1  0.862377  0.534331  0.225816  1
  Cu  Cu3  1  0.534331  0.225816  0.862377  1
  Cu  Cu4  1  0.225816  0.862377  0.534331  1
  Cu  Cu5  1  0.786495  0.115415  0.475387  1
  Cu  Cu6  1  0.475387  0.786495  0.115415  1
  Cu  Cu7  1  0.115415  0.475387  0.786495  1
  Se  Se8  1  0.090063  0.752624  0.401853  1
  Se  Se9  1  0.401853  0.090063  0.752624  1
  Se  Se10  1  0.752624  0.401853  0.090063  1
  Se  Se11  1  0.238026  0.588944  0.928249  1
  Se  Se12  1  0.588944  0.928249  0.238026  1
  Se  Se13  1  0.928249  0.238026  0.588944  1
