# generated using pymatgen
data_KRb2V6F21
_symmetry_space_group_name_H-M   'P 1'
_cell_length_a   7.63869675
_cell_length_b   7.63869592
_cell_length_c   10.90316203
_cell_angle_alpha   69.65915210
_cell_angle_beta   69.65915500
_cell_angle_gamma   60.00500571
_symmetry_Int_Tables_number   1
_chemical_formula_structural   KRb2V6F21
_chemical_formula_sum   'K1 Rb2 V6 F21'
_cell_volume   504.65574215
_cell_formula_units_Z   1
loop_
 _symmetry_equiv_pos_site_id
 _symmetry_equiv_pos_as_xyz
  1  'x, y, z'
loop_
 _atom_site_type_symbol
 _atom_site_label
 _atom_site_symmetry_multiplicity
 _atom_site_fract_x
 _atom_site_fract_y
 _atom_site_fract_z
 _atom_site_occupancy
  K  K0  1  0.502765  0.497235  0.500000  1
  Rb  Rb1  1  0.125054  0.152532  0.589987  1
  Rb  Rb2  1  0.847468  0.874946  0.410013  1
  V  V3  1  0.455320  0.915445  0.198365  1
  V  V4  1  0.084555  0.544680  0.801635  1
  V  V5  1  0.960994  0.410811  0.195672  1
  V  V6  1  0.456491  0.410291  0.196554  1
  V  V7  1  0.589709  0.543509  0.803446  1
  V  V8  1  0.589189  0.039006  0.804328  1
  F  F9  1  0.702105  0.573122  0.615924  1
  F  F10  1  0.426878  0.297895  0.384076  1
  F  F11  1  0.161600  0.493218  0.213028  1
  F  F12  1  0.506782  0.838400  0.786972  1
  F  F13  1  0.871282  0.451734  0.832127  1
  F  F14  1  0.516759  0.948315  0.001625  1
  F  F15  1  0.750643  0.336944  0.180412  1
  F  F16  1  0.107933  0.604989  0.613456  1
  F  F17  1  0.878853  0.835678  0.810712  1
  F  F18  1  0.749088  0.698933  0.205787  1
  F  F19  1  0.663056  0.249357  0.819588  1
  F  F20  1  0.483156  0.516844  0.000000  1
  F  F21  1  0.896828  0.326170  0.384197  1
  F  F22  1  0.308540  0.628730  0.770558  1
  F  F23  1  0.395011  0.892067  0.386544  1
  F  F24  1  0.301067  0.250912  0.794213  1
  F  F25  1  0.548266  0.128718  0.167873  1
  F  F26  1  0.371270  0.691460  0.229442  1
  F  F27  1  0.164322  0.121147  0.189288  1
  F  F28  1  0.051685  0.483241  0.998375  1
  F  F29  1  0.673830  0.103172  0.615803  1
