# generated using pymatgen
data_Pr8Si11GePt4
_symmetry_space_group_name_H-M   'P 1'
_cell_length_a   8.28580569
_cell_length_b   8.28580696
_cell_length_c   8.68755500
_cell_angle_alpha   89.99858518
_cell_angle_beta   90.00145228
_cell_angle_gamma   120.12187235
_symmetry_Int_Tables_number   1
_chemical_formula_structural   Pr8Si11GePt4
_chemical_formula_sum   'Pr8 Si11 Ge1 Pt4'
_cell_volume   515.89711632
_cell_formula_units_Z   1
loop_
 _symmetry_equiv_pos_site_id
 _symmetry_equiv_pos_as_xyz
  1  'x, y, z'
loop_
 _atom_site_type_symbol
 _atom_site_label
 _atom_site_symmetry_multiplicity
 _atom_site_fract_x
 _atom_site_fract_y
 _atom_site_fract_z
 _atom_site_occupancy
  Pr  Pr0  1  0.499790  0.500210  0.748980  1
  Pr  Pr1  1  0.500475  0.499525  0.250971  1
  Pr  Pr2  1  0.000889  0.500873  0.749649  1
  Pr  Pr3  1  0.999546  0.500272  0.250384  1
  Pr  Pr4  1  0.499128  0.999111  0.749650  1
  Pr  Pr5  1  0.499727  0.000453  0.250384  1
  Pr  Pr6  1  0.000590  0.999410  0.748909  1
  Pr  Pr7  1  0.000618  0.999383  0.251124  1
  Si  Si8  1  0.166008  0.833992  0.999472  1
  Si  Si9  1  0.331245  0.165115  0.000565  1
  Si  Si10  1  0.166115  0.833885  0.500517  1
  Si  Si11  1  0.664867  0.827584  0.999383  1
  Si  Si12  1  0.833947  0.166053  0.499510  1
  Si  Si13  1  0.834885  0.668755  0.000565  1
  Si  Si14  1  0.668147  0.834091  0.500496  1
  Si  Si15  1  0.172416  0.335133  0.999383  1
  Si  Si16  1  0.331981  0.166153  0.499493  1
  Si  Si17  1  0.165910  0.331854  0.500496  1
  Si  Si18  1  0.833847  0.668019  0.499493  1
  Ge  Ge19  1  0.835084  0.164915  0.000682  1
  Pt  Pt20  1  0.662169  0.337831  0.998326  1
  Pt  Pt21  1  0.332636  0.667364  0.001555  1
  Pt  Pt22  1  0.333114  0.666886  0.498539  1
  Pt  Pt23  1  0.666867  0.333134  0.501473  1
