# generated using pymatgen
data_Mn2Ag2(MoO4)3
_symmetry_space_group_name_H-M   'P 1'
_cell_length_a   7.21484638
_cell_length_b   9.03776765
_cell_length_c   10.64202275
_cell_angle_alpha   106.76508036
_cell_angle_beta   105.18150679
_cell_angle_gamma   104.00867099
_symmetry_Int_Tables_number   1
_chemical_formula_structural   Mn2Ag2(MoO4)3
_chemical_formula_sum   'Mn4 Ag4 Mo6 O24'
_cell_volume   602.17706811
_cell_formula_units_Z   2
loop_
 _symmetry_equiv_pos_site_id
 _symmetry_equiv_pos_as_xyz
  1  'x, y, z'
loop_
 _atom_site_type_symbol
 _atom_site_label
 _atom_site_symmetry_multiplicity
 _atom_site_fract_x
 _atom_site_fract_y
 _atom_site_fract_z
 _atom_site_occupancy
  Mn  Mn0  1  0.871096  0.458291  0.105434  1
  Mn  Mn1  1  0.128442  0.542613  0.894638  1
  Mn  Mn2  1  0.465228  0.297723  0.482000  1
  Mn  Mn3  1  0.538535  0.704401  0.520629  1
  Ag  Ag4  1  0.821637  0.831683  0.332754  1
  Ag  Ag5  1  0.183501  0.174162  0.674313  1
  Ag  Ag6  1  0.481506  0.998827  0.990959  1
  Ag  Ag7  1  0.984658  0.018275  0.047475  1
  Mo  Mo8  1  0.284614  0.837642  0.235869  1
  Mo  Mo9  1  0.714696  0.162352  0.764620  1
  Mo  Mo10  1  0.911695  0.241696  0.363630  1
  Mo  Mo11  1  0.095469  0.759092  0.636031  1
  Mo  Mo12  1  0.623057  0.596191  0.835193  1
  Mo  Mo13  1  0.373101  0.403417  0.167434  1
  O  O14  1  0.328556  0.050500  0.319878  1
  O  O15  1  0.666880  0.950026  0.678702  1
  O  O16  1  0.033329  0.725126  0.225465  1
  O  O17  1  0.965349  0.275060  0.774437  1
  O  O18  1  0.177691  0.477785  0.084975  1
  O  O19  1  0.823481  0.526078  0.917691  1
  O  O20  1  0.746592  0.295951  0.453936  1
  O  O21  1  0.249312  0.693893  0.539852  1
  O  O22  1  0.605562  0.489401  0.144233  1
  O  O23  1  0.389385  0.500292  0.853194  1
  O  O24  1  0.287033  0.798168  0.058254  1
  O  O25  1  0.716156  0.201874  0.943679  1
  O  O26  1  0.948788  0.362629  0.259653  1
  O  O27  1  0.057820  0.640335  0.741623  1
  O  O28  1  0.287190  0.184108  0.080813  1
  O  O29  1  0.694193  0.812862  0.925526  1
  O  O30  1  0.848741  0.739581  0.516854  1
  O  O31  1  0.156839  0.266864  0.486880  1
  O  O32  1  0.792924  0.030255  0.240756  1
  O  O33  1  0.232311  0.969967  0.754526  1
  O  O34  1  0.476157  0.779984  0.340194  1
  O  O35  1  0.526152  0.223901  0.661825  1
  O  O36  1  0.422905  0.449170  0.353221  1
  O  O37  1  0.580923  0.555227  0.650755  1
