# generated using pymatgen
data_Ho6Tm10Ni3Ag4Ru
_symmetry_space_group_name_H-M   'P 1'
_cell_length_a   9.39499541
_cell_length_b   9.39575386
_cell_length_c   9.39339458
_cell_angle_alpha   59.50978978
_cell_angle_beta   59.48148926
_cell_angle_gamma   59.53563097
_symmetry_Int_Tables_number   1
_chemical_formula_structural   Ho6Tm10Ni3Ag4Ru
_chemical_formula_sum   'Ho6 Tm10 Ni3 Ag4 Ru1'
_cell_volume   579.77387812
_cell_formula_units_Z   1
loop_
 _symmetry_equiv_pos_site_id
 _symmetry_equiv_pos_as_xyz
  1  'x, y, z'
loop_
 _atom_site_type_symbol
 _atom_site_label
 _atom_site_symmetry_multiplicity
 _atom_site_fract_x
 _atom_site_fract_y
 _atom_site_fract_z
 _atom_site_occupancy
  Ho  Ho0  1  0.936280  0.564391  0.564605  1
  Ho  Ho1  1  0.558078  0.938358  0.938269  1
  Ho  Ho2  1  0.564477  0.936287  0.564611  1
  Ho  Ho3  1  0.938445  0.557877  0.938407  1
  Ho  Ho4  1  0.564476  0.564369  0.936335  1
  Ho  Ho5  1  0.938203  0.938241  0.558237  1
  Tm  Tm6  1  0.348657  0.348563  0.349088  1
  Tm  Tm7  1  0.353465  0.353451  0.948238  1
  Tm  Tm8  1  0.353253  0.948538  0.353612  1
  Tm  Tm9  1  0.948452  0.353226  0.353681  1
  Tm  Tm10  1  0.811540  0.187288  0.187387  1
  Tm  Tm11  1  0.188017  0.811351  0.811817  1
  Tm  Tm12  1  0.187422  0.811321  0.187493  1
  Tm  Tm13  1  0.811384  0.188031  0.811679  1
  Tm  Tm14  1  0.187257  0.187208  0.811825  1
  Tm  Tm15  1  0.811672  0.811553  0.188013  1
  Ni  Ni16  1  0.143068  0.142664  0.571286  1
  Ni  Ni17  1  0.142194  0.573193  0.142661  1
  Ni  Ni18  1  0.572779  0.142462  0.142842  1
  Ag  Ag19  1  0.581249  0.581336  0.581091  1
  Ag  Ag20  1  0.580506  0.580716  0.254603  1
  Ag  Ag21  1  0.580545  0.255114  0.580348  1
  Ag  Ag22  1  0.254956  0.580690  0.580222  1
  Ru  Ru23  1  0.143624  0.143771  0.143651  1
