# generated using pymatgen
data_KMnSb12Os2Pd
_symmetry_space_group_name_H-M   'P 1'
_cell_length_a   8.19479453
_cell_length_b   8.20270881
_cell_length_c   8.19647774
_cell_angle_alpha   109.50235246
_cell_angle_beta   109.46467026
_cell_angle_gamma   109.32981999
_symmetry_Int_Tables_number   1
_chemical_formula_structural   KMnSb12Os2Pd
_chemical_formula_sum   'K1 Mn1 Sb12 Os2 Pd1'
_cell_volume   424.74127767
_cell_formula_units_Z   1
loop_
 _symmetry_equiv_pos_site_id
 _symmetry_equiv_pos_as_xyz
  1  'x, y, z'
loop_
 _atom_site_type_symbol
 _atom_site_label
 _atom_site_symmetry_multiplicity
 _atom_site_fract_x
 _atom_site_fract_y
 _atom_site_fract_z
 _atom_site_occupancy
  K  K0  1  0.000000  0.000000  0.000000  1
  Mn  Mn1  1  0.500000  0.000000  0.000000  1
  Sb  Sb2  1  0.158919  0.809791  0.659490  1
  Sb  Sb3  1  0.841081  0.190209  0.340510  1
  Sb  Sb4  1  0.842359  0.503526  0.661605  1
  Sb  Sb5  1  0.157641  0.496474  0.338395  1
  Sb  Sb6  1  0.809595  0.651024  0.150406  1
  Sb  Sb7  1  0.190405  0.348976  0.849594  1
  Sb  Sb8  1  0.502159  0.660056  0.840920  1
  Sb  Sb9  1  0.497841  0.339944  0.159080  1
  Sb  Sb10  1  0.661408  0.159474  0.819605  1
  Sb  Sb11  1  0.338592  0.840526  0.180395  1
  Sb  Sb12  1  0.650871  0.841236  0.500982  1
  Sb  Sb13  1  0.349129  0.158764  0.499018  1
  Os  Os14  1  0.000000  0.500000  0.000000  1
  Os  Os15  1  0.500000  0.500000  0.500000  1
  Pd  Pd16  1  0.000000  0.000000  0.500000  1
