# generated using pymatgen
data_TbTh5PtBr15
_symmetry_space_group_name_H-M   'P 1'
_cell_length_a   10.21936232
_cell_length_b   10.21936215
_cell_length_c   10.21936296
_cell_angle_alpha   109.80243483
_cell_angle_beta   109.30586816
_cell_angle_gamma   109.30586424
_symmetry_Int_Tables_number   1
_chemical_formula_structural   TbTh5PtBr15
_chemical_formula_sum   'Tb1 Th5 Pt1 Br15'
_cell_volume   821.55878753
_cell_formula_units_Z   1
loop_
 _symmetry_equiv_pos_site_id
 _symmetry_equiv_pos_as_xyz
  1  'x, y, z'
loop_
 _atom_site_type_symbol
 _atom_site_label
 _atom_site_symmetry_multiplicity
 _atom_site_fract_x
 _atom_site_fract_y
 _atom_site_fract_z
 _atom_site_occupancy
  Tb  Tb0  1  0.000000  0.242545  0.242545  1
  Th  Th1  1  0.000000  0.751365  0.751365  1
  Th  Th2  1  0.242364  0.003499  0.245863  1
  Th  Th3  1  0.757636  0.003499  0.761135  1
  Th  Th4  1  0.242364  0.245863  0.003499  1
  Th  Th5  1  0.757636  0.761135  0.003499  1
  Pt  Pt6  1  0.000000  0.995524  0.995524  1
  Br  Br7  1  0.497592  0.248619  0.248619  1
  Br  Br8  1  0.502408  0.751026  0.751026  1
  Br  Br9  1  0.000000  0.248619  0.751026  1
  Br  Br10  1  0.000000  0.751026  0.248619  1
  Br  Br11  1  0.244137  0.494025  0.249888  1
  Br  Br12  1  0.755863  0.005752  0.249888  1
  Br  Br13  1  0.750998  0.502313  0.751315  1
  Br  Br14  1  0.249002  0.000316  0.751315  1
  Br  Br15  1  0.244137  0.249888  0.494025  1
  Br  Br16  1  0.750998  0.751315  0.502313  1
  Br  Br17  1  0.755863  0.249888  0.005752  1
  Br  Br18  1  0.249002  0.751315  0.000316  1
  Br  Br19  1  0.000000  0.497158  0.497158  1
  Br  Br20  1  0.500000  0.997653  0.497653  1
  Br  Br21  1  0.500000  0.497653  0.997653  1
