# generated using pymatgen
data_Tb17Y3Cd3Ru2Au3
_symmetry_space_group_name_H-M   'P 1'
_cell_length_a   9.65492900
_cell_length_b   9.65493020
_cell_length_c   9.65267200
_cell_angle_alpha   90.00000000
_cell_angle_beta   90.00000000
_cell_angle_gamma   120.00006917
_symmetry_Int_Tables_number   1
_chemical_formula_structural   Tb17Y3Cd3Ru2Au3
_chemical_formula_sum   'Tb17 Y3 Cd3 Ru2 Au3'
_cell_volume   779.24872615
_cell_formula_units_Z   1
loop_
 _symmetry_equiv_pos_site_id
 _symmetry_equiv_pos_as_xyz
  1  'x, y, z'
loop_
 _atom_site_type_symbol
 _atom_site_label
 _atom_site_symmetry_multiplicity
 _atom_site_fract_x
 _atom_site_fract_y
 _atom_site_fract_z
 _atom_site_occupancy
  Tb  Tb0  1  0.000000  0.000000  0.458729  1
  Tb  Tb1  1  0.000000  0.000000  0.041271  1
  Tb  Tb2  1  0.209570  0.790429  0.440256  1
  Tb  Tb3  1  0.209571  0.419142  0.440256  1
  Tb  Tb4  1  0.580858  0.790429  0.440256  1
  Tb  Tb5  1  0.791579  0.208422  0.559345  1
  Tb  Tb6  1  0.791578  0.583156  0.559345  1
  Tb  Tb7  1  0.416844  0.208422  0.559346  1
  Tb  Tb8  1  0.791579  0.208422  0.940655  1
  Tb  Tb9  1  0.791578  0.583156  0.940655  1
  Tb  Tb10  1  0.416844  0.208422  0.940654  1
  Tb  Tb11  1  0.209570  0.790429  0.059744  1
  Tb  Tb12  1  0.209571  0.419142  0.059744  1
  Tb  Tb13  1  0.580858  0.790429  0.059744  1
  Tb  Tb14  1  0.540210  0.459790  0.250000  1
  Tb  Tb15  1  0.540210  0.080420  0.250000  1
  Tb  Tb16  1  0.919579  0.459790  0.250000  1
  Y  Y17  1  0.458418  0.541581  0.750000  1
  Y  Y18  1  0.458417  0.916835  0.750000  1
  Y  Y19  1  0.083165  0.541582  0.750000  1
  Cd  Cd20  1  0.109842  0.890158  0.750000  1
  Cd  Cd21  1  0.109843  0.219684  0.750000  1
  Cd  Cd22  1  0.780316  0.890158  0.750000  1
  Ru  Ru23  1  0.333333  0.666668  0.250000  1
  Ru  Ru24  1  0.666670  0.333334  0.750000  1
  Au  Au25  1  0.868945  0.131054  0.250000  1
  Au  Au26  1  0.868945  0.737890  0.250000  1
  Au  Au27  1  0.262109  0.131054  0.250000  1
