# generated using pymatgen
data_Tm7LuSc12(Ga7Si)2
_symmetry_space_group_name_H-M   'P 1'
_cell_length_a   7.21359526
_cell_length_b   7.44845212
_cell_length_c   14.42335714
_cell_angle_alpha   89.98576917
_cell_angle_beta   89.99239565
_cell_angle_gamma   90.24105203
_symmetry_Int_Tables_number   1
_chemical_formula_structural   Tm7LuSc12(Ga7Si)2
_chemical_formula_sum   'Tm7 Lu1 Sc12 Ga14 Si2'
_cell_volume   774.96180471
_cell_formula_units_Z   1
loop_
 _symmetry_equiv_pos_site_id
 _symmetry_equiv_pos_as_xyz
  1  'x, y, z'
loop_
 _atom_site_type_symbol
 _atom_site_label
 _atom_site_symmetry_multiplicity
 _atom_site_fract_x
 _atom_site_fract_y
 _atom_site_fract_z
 _atom_site_occupancy
  Tm  Tm0  1  0.987009  0.820908  0.903732  1
  Tm  Tm1  1  0.489248  0.678050  0.904476  1
  Tm  Tm2  1  0.987045  0.820841  0.596326  1
  Tm  Tm3  1  0.510714  0.321823  0.095562  1
  Tm  Tm4  1  0.012964  0.179143  0.403716  1
  Tm  Tm5  1  0.510717  0.321904  0.404436  1
  Tm  Tm6  1  0.489274  0.678077  0.595538  1
  Lu  Lu7  1  0.012936  0.179351  0.096405  1
  Sc  Sc8  1  0.160871  0.504293  0.750003  1
  Sc  Sc9  1  0.839178  0.495527  0.249941  1
  Sc  Sc10  1  0.336651  0.006496  0.249897  1
  Sc  Sc11  1  0.663245  0.993592  0.749997  1
  Sc  Sc12  1  0.331296  0.174378  0.622878  1
  Sc  Sc13  1  0.668813  0.825644  0.377039  1
  Sc  Sc14  1  0.170653  0.671482  0.376156  1
  Sc  Sc15  1  0.668867  0.825729  0.122932  1
  Sc  Sc16  1  0.829313  0.328511  0.623792  1
  Sc  Sc17  1  0.331182  0.174379  0.877090  1
  Sc  Sc18  1  0.829405  0.328509  0.876243  1
  Sc  Sc19  1  0.170616  0.671505  0.123806  1
  Ga  Ga20  1  0.032491  0.117275  0.750013  1
  Ga  Ga21  1  0.967516  0.882857  0.249957  1
  Ga  Ga22  1  0.467364  0.611884  0.249993  1
  Ga  Ga23  1  0.532616  0.388079  0.750010  1
  Ga  Ga24  1  0.285589  0.870566  0.750016  1
  Ga  Ga25  1  0.714606  0.129485  0.249920  1
  Ga  Ga26  1  0.159938  0.465796  0.540497  1
  Ga  Ga27  1  0.840056  0.534201  0.459482  1
  Ga  Ga28  1  0.338401  0.965168  0.459212  1
  Ga  Ga29  1  0.840155  0.533967  0.040552  1
  Ga  Ga30  1  0.661634  0.034865  0.540806  1
  Ga  Ga31  1  0.159896  0.465713  0.959576  1
  Ga  Ga32  1  0.661714  0.034800  0.959223  1
  Ga  Ga33  1  0.338146  0.965341  0.040885  1
  Si  Si34  1  0.214956  0.372735  0.249891  1
  Si  Si35  1  0.784927  0.627125  0.750002  1
