# generated using pymatgen
data_Sr11Y9Pb16
_symmetry_space_group_name_H-M   'P 1'
_cell_length_a   8.22036300
_cell_length_b   8.82060376
_cell_length_c   16.64731500
_cell_angle_alpha   90.00000000
_cell_angle_beta   90.00000000
_cell_angle_gamma   89.85117092
_symmetry_Int_Tables_number   1
_chemical_formula_structural   Sr11Y9Pb16
_chemical_formula_sum   'Sr11 Y9 Pb16'
_cell_volume   1207.06884563
_cell_formula_units_Z   1
loop_
 _symmetry_equiv_pos_site_id
 _symmetry_equiv_pos_as_xyz
  1  'x, y, z'
loop_
 _atom_site_type_symbol
 _atom_site_label
 _atom_site_symmetry_multiplicity
 _atom_site_fract_x
 _atom_site_fract_y
 _atom_site_fract_z
 _atom_site_occupancy
  Sr  Sr0  1  0.499588  0.680979  0.593953  1
  Sr  Sr1  1  0.999141  0.818273  0.908641  1
  Sr  Sr2  1  0.500065  0.318070  0.089824  1
  Sr  Sr3  1  0.999939  0.183387  0.410242  1
  Sr  Sr4  1  0.500065  0.318070  0.410176  1
  Sr  Sr5  1  0.999939  0.183387  0.089758  1
  Sr  Sr6  1  0.499588  0.680979  0.906047  1
  Sr  Sr7  1  0.999141  0.818273  0.591359  1
  Sr  Sr8  1  0.327963  0.987029  0.750000  1
  Sr  Sr9  1  0.174986  0.484365  0.250000  1
  Sr  Sr10  1  0.674056  0.015807  0.250000  1
  Y  Y11  1  0.672054  0.162031  0.622953  1
  Y  Y12  1  0.170953  0.336319  0.876708  1
  Y  Y13  1  0.328565  0.834301  0.121115  1
  Y  Y14  1  0.829570  0.664758  0.379277  1
  Y  Y15  1  0.328565  0.834301  0.378885  1
  Y  Y16  1  0.829570  0.664758  0.120723  1
  Y  Y17  1  0.672054  0.162031  0.877047  1
  Y  Y18  1  0.170953  0.336319  0.623292  1
  Y  Y19  1  0.830440  0.507373  0.750000  1
  Pb  Pb20  1  0.672250  0.957412  0.461002  1
  Pb  Pb21  1  0.171318  0.542227  0.038421  1
  Pb  Pb22  1  0.328592  0.043288  0.959188  1
  Pb  Pb23  1  0.827188  0.460258  0.545674  1
  Pb  Pb24  1  0.328592  0.043288  0.540812  1
  Pb  Pb25  1  0.827188  0.460258  0.954326  1
  Pb  Pb26  1  0.672250  0.957412  0.038998  1
  Pb  Pb27  1  0.171318  0.542227  0.461579  1
  Pb  Pb28  1  0.474290  0.371740  0.750000  1
  Pb  Pb29  1  0.963331  0.146659  0.750000  1
  Pb  Pb30  1  0.535257  0.644514  0.250000  1
  Pb  Pb31  1  0.034315  0.855696  0.250000  1
  Pb  Pb32  1  0.719749  0.864158  0.750000  1
  Pb  Pb33  1  0.197252  0.620592  0.750000  1
  Pb  Pb34  1  0.284554  0.115864  0.250000  1
  Pb  Pb35  1  0.785363  0.383598  0.250000  1
