# generated using pymatgen
data_Ho16NiHg4Rh3
_symmetry_space_group_name_H-M   'P 1'
_cell_length_a   9.52917111
_cell_length_b   9.52917060
_cell_length_c   9.52339088
_cell_angle_alpha   59.97991751
_cell_angle_beta   59.97992146
_cell_angle_gamma   60.00000018
_symmetry_Int_Tables_number   1
_chemical_formula_structural   Ho16NiHg4Rh3
_chemical_formula_sum   'Ho16 Ni1 Hg4 Rh3'
_cell_volume   611.30079095
_cell_formula_units_Z   1
loop_
 _symmetry_equiv_pos_site_id
 _symmetry_equiv_pos_as_xyz
  1  'x, y, z'
loop_
 _atom_site_type_symbol
 _atom_site_label
 _atom_site_symmetry_multiplicity
 _atom_site_fract_x
 _atom_site_fract_y
 _atom_site_fract_z
 _atom_site_occupancy
  Ho  Ho0  1  0.936071  0.936071  0.563801  1
  Ho  Ho1  1  0.564590  0.564590  0.936790  1
  Ho  Ho2  1  0.688363  0.688363  0.311843  1
  Ho  Ho3  1  0.150885  0.552738  0.145491  1
  Ho  Ho4  1  0.686649  0.311732  0.689888  1
  Ho  Ho5  1  0.150885  0.150885  0.145491  1
  Ho  Ho6  1  0.552738  0.150885  0.145491  1
  Ho  Ho7  1  0.688363  0.311431  0.311843  1
  Ho  Ho8  1  0.148307  0.148307  0.555077  1
  Ho  Ho9  1  0.311431  0.688363  0.311843  1
  Ho  Ho10  1  0.311732  0.686649  0.689888  1
  Ho  Ho11  1  0.936071  0.564056  0.563801  1
  Ho  Ho12  1  0.934030  0.564590  0.936790  1
  Ho  Ho13  1  0.564056  0.936071  0.563801  1
  Ho  Ho14  1  0.564590  0.934030  0.936790  1
  Ho  Ho15  1  0.311732  0.311732  0.689888  1
  Ni  Ni16  1  0.357424  0.357424  0.927728  1
  Hg  Hg17  1  0.915118  0.915118  0.254645  1
  Hg  Hg18  1  0.253886  0.915199  0.915714  1
  Hg  Hg19  1  0.915199  0.915199  0.915714  1
  Hg  Hg20  1  0.915199  0.253886  0.915714  1
  Rh  Rh21  1  0.356827  0.929024  0.357322  1
  Rh  Rh22  1  0.929024  0.356827  0.357322  1
  Rh  Rh23  1  0.356827  0.356827  0.357322  1
