# generated using pymatgen
data_Sc2Al9NiRh2
_symmetry_space_group_name_H-M   'P 1'
_cell_length_a   7.44858764
_cell_length_b   7.44858685
_cell_length_c   9.21439500
_cell_angle_alpha   90.00000000
_cell_angle_beta   90.00000000
_cell_angle_gamma   120.23449528
_symmetry_Int_Tables_number   1
_chemical_formula_structural   Sc2Al9NiRh2
_chemical_formula_sum   'Sc4 Al18 Ni2 Rh4'
_cell_volume   441.68658608
_cell_formula_units_Z   2
loop_
 _symmetry_equiv_pos_site_id
 _symmetry_equiv_pos_as_xyz
  1  'x, y, z'
loop_
 _atom_site_type_symbol
 _atom_site_label
 _atom_site_symmetry_multiplicity
 _atom_site_fract_x
 _atom_site_fract_y
 _atom_site_fract_z
 _atom_site_occupancy
  Sc  Sc0  1  0.994994  0.665088  0.250000  1
  Sc  Sc1  1  0.005006  0.334912  0.750000  1
  Sc  Sc2  1  0.665088  0.994994  0.250000  1
  Sc  Sc3  1  0.334912  0.005006  0.750000  1
  Al  Al4  1  0.327120  0.327121  0.557787  1
  Al  Al5  1  0.672879  0.672880  0.442213  1
  Al  Al6  1  0.672879  0.672880  0.057787  1
  Al  Al7  1  0.327120  0.327121  0.942213  1
  Al  Al8  1  0.337305  0.549507  0.250000  1
  Al  Al9  1  0.662695  0.450493  0.750000  1
  Al  Al10  1  0.549507  0.337305  0.250000  1
  Al  Al11  1  0.450493  0.662695  0.750000  1
  Al  Al12  1  0.996334  0.330273  0.076438  1
  Al  Al13  1  0.003666  0.669727  0.923562  1
  Al  Al14  1  0.003666  0.669727  0.576438  1
  Al  Al15  1  0.330273  0.996334  0.423562  1
  Al  Al16  1  0.996334  0.330273  0.423562  1
  Al  Al17  1  0.669727  0.003666  0.576438  1
  Al  Al18  1  0.669727  0.003666  0.923562  1
  Al  Al19  1  0.330273  0.996334  0.076438  1
  Al  Al20  1  0.111219  0.111219  0.250000  1
  Al  Al21  1  0.888781  0.888781  0.750000  1
  Ni  Ni22  1  0.000000  0.000000  0.000000  1
  Ni  Ni23  1  0.000000  0.000000  0.500000  1
  Rh  Rh24  1  0.672068  0.327932  0.000000  1
  Rh  Rh25  1  0.327932  0.672068  0.000000  1
  Rh  Rh26  1  0.327932  0.672068  0.500000  1
  Rh  Rh27  1  0.672068  0.327932  0.500000  1
