# generated using pymatgen
data_Sc4VOs5W2
_symmetry_space_group_name_H-M   'P 1'
_cell_length_a   5.32502065
_cell_length_b   5.20315935
_cell_length_c   8.68033500
_cell_angle_alpha   90.00000000
_cell_angle_beta   90.00000000
_cell_angle_gamma   121.21105717
_symmetry_Int_Tables_number   1
_chemical_formula_structural   Sc4VOs5W2
_chemical_formula_sum   'Sc4 V1 Os5 W2'
_cell_volume   205.69571290
_cell_formula_units_Z   1
loop_
 _symmetry_equiv_pos_site_id
 _symmetry_equiv_pos_as_xyz
  1  'x, y, z'
loop_
 _atom_site_type_symbol
 _atom_site_label
 _atom_site_symmetry_multiplicity
 _atom_site_fract_x
 _atom_site_fract_y
 _atom_site_fract_z
 _atom_site_occupancy
  Sc  Sc0  1  0.330599  0.659803  0.440152  1
  Sc  Sc1  1  0.669143  0.337932  0.566406  1
  Sc  Sc2  1  0.669143  0.337932  0.933594  1
  Sc  Sc3  1  0.330599  0.659803  0.059848  1
  V  V4  1  0.167953  0.335707  0.750000  1
  Os  Os5  1  0.175125  0.823593  0.750000  1
  Os  Os6  1  0.650898  0.826679  0.750000  1
  Os  Os7  1  0.004195  0.001807  0.994955  1
  Os  Os8  1  0.824378  0.176584  0.250000  1
  Os  Os9  1  0.004195  0.001807  0.505045  1
  W  W10  1  0.340711  0.170585  0.250000  1
  W  W11  1  0.833057  0.667768  0.250000  1
