# generated using pymatgen
data_Ho2Lu2CoB14
_symmetry_space_group_name_H-M   'P 1'
_cell_length_a   7.15616900
_cell_length_b   7.15598286
_cell_length_c   7.31633900
_cell_angle_alpha   90.00000000
_cell_angle_beta   90.00000000
_cell_angle_gamma   89.78610863
_symmetry_Int_Tables_number   1
_chemical_formula_structural   Ho2Lu2CoB14
_chemical_formula_sum   'Ho4 Lu4 Co2 B28'
_cell_volume   374.66288600
_cell_formula_units_Z   2
loop_
 _symmetry_equiv_pos_site_id
 _symmetry_equiv_pos_as_xyz
  1  'x, y, z'
loop_
 _atom_site_type_symbol
 _atom_site_label
 _atom_site_symmetry_multiplicity
 _atom_site_fract_x
 _atom_site_fract_y
 _atom_site_fract_z
 _atom_site_occupancy
  Ho  Ho0  1  0.306199  0.830292  0.500000  1
  Ho  Ho1  1  0.805186  0.670430  0.000000  1
  Ho  Ho2  1  0.829579  0.694794  0.500000  1
  Ho  Ho3  1  0.169881  0.305733  0.500000  1
  Lu  Lu4  1  0.194728  0.330169  0.000000  1
  Lu  Lu5  1  0.669078  0.193617  0.000000  1
  Lu  Lu6  1  0.330251  0.805788  0.000000  1
  Lu  Lu7  1  0.693657  0.169090  0.500000  1
  Co  Co8  1  0.000424  0.001672  0.000000  1
  Co  Co9  1  0.500468  0.498327  0.500000  1
  B  B10  1  0.175137  0.039290  0.228598  1
  B  B11  1  0.960551  0.175970  0.228648  1
  B  B12  1  0.039624  0.825868  0.229114  1
  B  B13  1  0.675042  0.459567  0.269392  1
  B  B14  1  0.324945  0.538366  0.268556  1
  B  B15  1  0.824729  0.962774  0.229429  1
  B  B16  1  0.538210  0.674290  0.268581  1
  B  B17  1  0.461967  0.323895  0.269079  1
  B  B18  1  0.824729  0.962774  0.770571  1
  B  B19  1  0.039624  0.825868  0.770886  1
  B  B20  1  0.960551  0.175970  0.771352  1
  B  B21  1  0.324945  0.538366  0.731444  1
  B  B22  1  0.675042  0.459567  0.730608  1
  B  B23  1  0.175137  0.039290  0.771402  1
  B  B24  1  0.461967  0.323895  0.730921  1
  B  B25  1  0.538210  0.674290  0.731419  1
  B  B26  1  0.088272  0.587908  0.248074  1
  B  B27  1  0.412161  0.088132  0.248028  1
  B  B28  1  0.588114  0.911891  0.248631  1
  B  B29  1  0.912139  0.412107  0.248662  1
  B  B30  1  0.912139  0.412107  0.751338  1
  B  B31  1  0.588114  0.911891  0.751369  1
  B  B32  1  0.412161  0.088132  0.751972  1
  B  B33  1  0.088272  0.587908  0.751926  1
  B  B34  1  0.999639  0.001145  0.387648  1
  B  B35  1  0.499746  0.498841  0.111378  1
  B  B36  1  0.999639  0.001145  0.612352  1
  B  B37  1  0.499746  0.498841  0.888622  1
