# generated using pymatgen
data_Zr8Al12Si3Ir7
_symmetry_space_group_name_H-M   'P 1'
_cell_length_a   8.82269751
_cell_length_b   8.82269620
_cell_length_c   8.82269700
_cell_angle_alpha   119.76924447
_cell_angle_beta   120.05520824
_cell_angle_gamma   90.15227746
_symmetry_Int_Tables_number   1
_chemical_formula_structural   Zr8Al12Si3Ir7
_chemical_formula_sum   'Zr8 Al12 Si3 Ir7'
_cell_volume   486.25024287
_cell_formula_units_Z   1
loop_
 _symmetry_equiv_pos_site_id
 _symmetry_equiv_pos_as_xyz
  1  'x, y, z'
loop_
 _atom_site_type_symbol
 _atom_site_label
 _atom_site_symmetry_multiplicity
 _atom_site_fract_x
 _atom_site_fract_y
 _atom_site_fract_z
 _atom_site_occupancy
  Zr  Zr0  1  0.806234  0.297510  0.090826  1
  Zr  Zr1  1  0.206682  0.297510  0.491276  1
  Zr  Zr2  1  0.195992  0.695992  0.500000  1
  Zr  Zr3  1  0.206682  0.715408  0.909174  1
  Zr  Zr4  1  0.806234  0.715408  0.508724  1
  Zr  Zr5  1  0.785320  0.285320  0.500000  1
  Zr  Zr6  1  0.379044  0.121893  0.742850  1
  Zr  Zr7  1  0.379044  0.636195  0.257150  1
  Al  Al8  1  0.152938  0.340864  0.812074  1
  Al  Al9  1  0.528790  0.340864  0.187926  1
  Al  Al10  1  0.835316  0.663076  0.827760  1
  Al  Al11  1  0.835316  0.007556  0.172240  1
  Al  Al12  1  0.833070  0.664466  0.168604  1
  Al  Al13  1  0.495862  0.664466  0.831396  1
  Al  Al14  1  0.381799  0.121723  0.260077  1
  Al  Al15  1  0.861647  0.121723  0.739923  1
  Al  Al16  1  0.620413  0.877545  0.257132  1
  Al  Al17  1  0.620413  0.363282  0.742868  1
  Al  Al18  1  0.623119  0.880200  0.742919  1
  Al  Al19  1  0.137280  0.880200  0.257081  1
  Si  Si20  1  0.990018  0.490018  0.500000  1
  Si  Si21  1  0.161184  0.338155  0.176969  1
  Si  Si22  1  0.161184  0.984215  0.823031  1
  Ir  Ir23  1  0.998262  0.997319  0.503373  1
  Ir  Ir24  1  0.493947  0.997319  0.999057  1
  Ir  Ir25  1  0.499362  0.499362  0.000000  1
  Ir  Ir26  1  0.493947  0.494888  0.496627  1
  Ir  Ir27  1  0.998262  0.494888  0.000943  1
  Ir  Ir28  1  0.007596  0.007596  0.000000  1
  Ir  Ir29  1  0.505037  0.005037  0.500000  1
