# generated using pymatgen
data_Pu2(CN2)3
_symmetry_space_group_name_H-M   'P 1'
_cell_length_a   7.55666022
_cell_length_b   3.94275478
_cell_length_c   5.30420363
_cell_angle_alpha   90.00000010
_cell_angle_beta   83.64030910
_cell_angle_gamma   74.87776035
_symmetry_Int_Tables_number   1
_chemical_formula_structural   Pu2(CN2)3
_chemical_formula_sum   'Pu2 C3 N6'
_cell_volume   151.55363268
_cell_formula_units_Z   1
loop_
 _symmetry_equiv_pos_site_id
 _symmetry_equiv_pos_as_xyz
  1  'x, y, z'
loop_
 _atom_site_type_symbol
 _atom_site_label
 _atom_site_symmetry_multiplicity
 _atom_site_fract_x
 _atom_site_fract_y
 _atom_site_fract_z
 _atom_site_occupancy
  Pu  Pu0  1  0.272237  0.863881  0.939784  1
  Pu  Pu1  1  0.727763  0.136119  0.060216  1
  C  C2  1  0.658309  0.670845  0.579996  1
  C  C3  1  0.341691  0.329155  0.420004  1
  C  C4  1  0.000000  0.000000  0.500000  1
  N  N5  1  0.312221  0.343890  0.651219  1
  N  N6  1  0.687779  0.656110  0.348781  1
  N  N7  1  0.376466  0.311767  0.182994  1
  N  N8  1  0.623534  0.688233  0.817006  1
  N  N9  1  0.015341  0.992329  0.266029  1
  N  N10  1  0.984659  0.007670  0.733971  1
