# generated using pymatgen
data_PmRe2
_symmetry_space_group_name_H-M   'P 1'
_cell_length_a   5.49389788
_cell_length_b   5.49568609
_cell_length_c   5.50160604
_cell_angle_alpha   60.03982168
_cell_angle_beta   60.03386636
_cell_angle_gamma   60.00636097
_symmetry_Int_Tables_number   1
_chemical_formula_structural   PmRe2
_chemical_formula_sum   'Pm2 Re4'
_cell_volume   117.52750541
_cell_formula_units_Z   2
loop_
 _symmetry_equiv_pos_site_id
 _symmetry_equiv_pos_as_xyz
  1  'x, y, z'
loop_
 _atom_site_type_symbol
 _atom_site_label
 _atom_site_symmetry_multiplicity
 _atom_site_fract_x
 _atom_site_fract_y
 _atom_site_fract_z
 _atom_site_occupancy
  Pm  Pm0  1  0.749995  0.749985  0.749993  1
  Pm  Pm1  1  0.000005  0.000015  0.000007  1
  Re  Re2  1  0.875000  0.375000  0.375000  1
  Re  Re3  1  0.375000  0.875000  0.375000  1
  Re  Re4  1  0.375000  0.375000  0.875000  1
  Re  Re5  1  0.375000  0.375000  0.375000  1
