# generated using pymatgen
data_Th8Ti9Si16W3
_symmetry_space_group_name_H-M   'P 1'
_cell_length_a   7.14203378
_cell_length_b   7.14203361
_cell_length_c   13.22929858
_cell_angle_alpha   90.08906393
_cell_angle_beta   89.91093881
_cell_angle_gamma   90.05095904
_symmetry_Int_Tables_number   1
_chemical_formula_structural   Th8Ti9Si16W3
_chemical_formula_sum   'Th8 Ti9 Si16 W3'
_cell_volume   674.80670276
_cell_formula_units_Z   1
loop_
 _symmetry_equiv_pos_site_id
 _symmetry_equiv_pos_as_xyz
  1  'x, y, z'
loop_
 _atom_site_type_symbol
 _atom_site_label
 _atom_site_symmetry_multiplicity
 _atom_site_fract_x
 _atom_site_fract_y
 _atom_site_fract_z
 _atom_site_occupancy
  Th  Th0  1  0.337282  0.001693  0.468339  1
  Th  Th1  1  0.495751  0.837692  0.719031  1
  Th  Th2  1  0.500523  0.161598  0.218649  1
  Th  Th3  1  0.837692  0.495751  0.280969  1
  Th  Th4  1  0.161598  0.500523  0.781351  1
  Th  Th5  1  0.662259  0.999715  0.968644  1
  Th  Th6  1  0.001693  0.337282  0.531661  1
  Th  Th7  1  0.999715  0.662259  0.031356  1
  Ti  Ti8  1  0.671093  0.671093  0.500000  1
  Ti  Ti9  1  0.158294  0.006875  0.877189  1
  Ti  Ti10  1  0.491714  0.658420  0.126984  1
  Ti  Ti11  1  0.505715  0.341871  0.628712  1
  Ti  Ti12  1  0.658420  0.491714  0.873016  1
  Ti  Ti13  1  0.341871  0.505715  0.371288  1
  Ti  Ti14  1  0.842509  0.994458  0.375952  1
  Ti  Ti15  1  0.006875  0.158294  0.122811  1
  Ti  Ti16  1  0.994458  0.842509  0.624048  1
  Si  Si17  1  0.194995  0.123312  0.687448  1
  Si  Si18  1  0.378512  0.694274  0.937334  1
  Si  Si19  1  0.623822  0.302853  0.438508  1
  Si  Si20  1  0.694274  0.378512  0.062666  1
  Si  Si21  1  0.302853  0.623822  0.561492  1
  Si  Si22  1  0.804791  0.876647  0.187507  1
  Si  Si23  1  0.123312  0.194995  0.312552  1
  Si  Si24  1  0.876647  0.804791  0.812493  1
  Si  Si25  1  0.287169  0.958568  0.065460  1
  Si  Si26  1  0.541710  0.786449  0.315927  1
  Si  Si27  1  0.457437  0.213226  0.815984  1
  Si  Si28  1  0.786449  0.541710  0.684073  1
  Si  Si29  1  0.213226  0.457437  0.184016  1
  Si  Si30  1  0.712187  0.044042  0.567153  1
  Si  Si31  1  0.958568  0.287169  0.934540  1
  Si  Si32  1  0.044042  0.712187  0.432847  1
  W  W33  1  0.329857  0.329857  0.000000  1
  W  W34  1  0.171322  0.831368  0.248766  1
  W  W35  1  0.831368  0.171322  0.751234  1
