# generated using pymatgen
data_Er5Tm5Hg3Bi2Au
_symmetry_space_group_name_H-M   'P 1'
_cell_length_a   8.69440426
_cell_length_b   8.69314780
_cell_length_c   8.71540055
_cell_angle_alpha   123.89189830
_cell_angle_beta   123.89451453
_cell_angle_gamma   83.21852430
_symmetry_Int_Tables_number   1
_chemical_formula_structural   Er5Tm5Hg3Bi2Au
_chemical_formula_sum   'Er5 Tm5 Hg3 Bi2 Au1'
_cell_volume   435.73422129
_cell_formula_units_Z   1
loop_
 _symmetry_equiv_pos_site_id
 _symmetry_equiv_pos_as_xyz
  1  'x, y, z'
loop_
 _atom_site_type_symbol
 _atom_site_label
 _atom_site_symmetry_multiplicity
 _atom_site_fract_x
 _atom_site_fract_y
 _atom_site_fract_z
 _atom_site_occupancy
  Er  Er0  1  0.702064  0.507163  0.500004  1
  Er  Er1  1  0.491309  0.997548  0.199420  1
  Er  Er2  1  0.791890  0.298143  0.800579  1
  Er  Er3  1  0.992833  0.798209  0.499999  1
  Er  Er4  1  0.301787  0.485265  0.500012  1
  Tm  Tm5  1  0.497874  0.495493  0.993669  1
  Tm  Tm6  1  0.004205  0.001821  0.006332  1
  Tm  Tm7  1  0.502246  0.008829  0.799744  1
  Tm  Tm8  1  0.202498  0.709083  0.200255  1
  Tm  Tm9  1  0.015148  0.198543  0.499997  1
  Hg  Hg10  1  0.140764  0.640810  0.781979  1
  Hg  Hg11  1  0.858776  0.358830  0.218020  1
  Hg  Hg12  1  0.640205  0.859380  0.500000  1
  Bi  Bi13  1  0.248338  0.251555  0.999911  1
  Bi  Bi14  1  0.748424  0.751644  0.000086  1
  Au  Au15  1  0.361637  0.137687  0.499993  1
