# generated using pymatgen
data_Tb4Y12Cd4OsPt3
_symmetry_space_group_name_H-M   'P 1'
_cell_length_a   9.72640719
_cell_length_b   9.72640733
_cell_length_c   9.72640756
_cell_angle_alpha   59.72978613
_cell_angle_beta   59.72978885
_cell_angle_gamma   59.72978810
_symmetry_Int_Tables_number   1
_chemical_formula_structural   Tb4Y12Cd4OsPt3
_chemical_formula_sum   'Tb4 Y12 Cd4 Os1 Pt3'
_cell_volume   646.64959886
_cell_formula_units_Z   1
loop_
 _symmetry_equiv_pos_site_id
 _symmetry_equiv_pos_as_xyz
  1  'x, y, z'
loop_
 _atom_site_type_symbol
 _atom_site_label
 _atom_site_symmetry_multiplicity
 _atom_site_fract_x
 _atom_site_fract_y
 _atom_site_fract_z
 _atom_site_occupancy
  Tb  Tb0  1  0.352116  0.352116  0.352116  1
  Tb  Tb1  1  0.349745  0.349745  0.947794  1
  Tb  Tb2  1  0.349745  0.947794  0.349745  1
  Tb  Tb3  1  0.947794  0.349745  0.349745  1
  Y  Y4  1  0.815259  0.188816  0.188816  1
  Y  Y5  1  0.189429  0.809634  0.809634  1
  Y  Y6  1  0.188816  0.815259  0.188816  1
  Y  Y7  1  0.809634  0.189429  0.809634  1
  Y  Y8  1  0.188816  0.188816  0.815259  1
  Y  Y9  1  0.809634  0.809634  0.189429  1
  Y  Y10  1  0.935633  0.564853  0.564853  1
  Y  Y11  1  0.558583  0.937466  0.937466  1
  Y  Y12  1  0.564853  0.935633  0.564853  1
  Y  Y13  1  0.937466  0.558583  0.937466  1
  Y  Y14  1  0.564853  0.564853  0.935633  1
  Y  Y15  1  0.937466  0.937466  0.558583  1
  Cd  Cd16  1  0.580494  0.580494  0.580494  1
  Cd  Cd17  1  0.581263  0.581263  0.254540  1
  Cd  Cd18  1  0.581263  0.254540  0.581263  1
  Cd  Cd19  1  0.254540  0.581263  0.581263  1
  Os  Os20  1  0.143558  0.143558  0.143558  1
  Pt  Pt21  1  0.143800  0.143800  0.571443  1
  Pt  Pt22  1  0.143800  0.571443  0.143800  1
  Pt  Pt23  1  0.571443  0.143800  0.143800  1
