# generated using pymatgen
data_Pr2Co(PN2)7
_symmetry_space_group_name_H-M   'P 1'
_cell_length_a   7.84589841
_cell_length_b   7.50068143
_cell_length_c   5.22323749
_cell_angle_alpha   79.80967181
_cell_angle_beta   80.27530757
_cell_angle_gamma   69.71176405
_symmetry_Int_Tables_number   1
_chemical_formula_structural   Pr2Co(PN2)7
_chemical_formula_sum   'Pr2 Co1 P7 N14'
_cell_volume   281.83419416
_cell_formula_units_Z   1
loop_
 _symmetry_equiv_pos_site_id
 _symmetry_equiv_pos_as_xyz
  1  'x, y, z'
loop_
 _atom_site_type_symbol
 _atom_site_label
 _atom_site_symmetry_multiplicity
 _atom_site_fract_x
 _atom_site_fract_y
 _atom_site_fract_z
 _atom_site_occupancy
  Pr  Pr0  1  0.809166  0.215900  0.268367  1
  Pr  Pr1  1  0.210816  0.744817  0.757028  1
  Co  Co2  1  0.297182  0.481605  0.248753  1
  P  P3  1  0.555037  0.686330  0.209402  1
  P  P4  1  0.108255  0.257773  0.712585  1
  P  P5  1  0.729619  0.922758  0.797284  1
  P  P6  1  0.886990  0.765394  0.293912  1
  P  P7  1  0.271323  0.085995  0.203984  1
  P  P8  1  0.442798  0.299632  0.803585  1
  P  P9  1  0.702143  0.539972  0.714088  1
  N  N10  1  0.248429  0.384810  0.666305  1
  N  N11  1  0.642081  0.736343  0.887477  1
  N  N12  1  0.730676  0.646863  0.398682  1
  N  N13  1  0.397781  0.225463  0.113930  1
  N  N14  1  0.888872  0.378097  0.794338  1
  N  N15  1  0.597403  0.120518  0.663297  1
  N  N16  1  0.070483  0.639340  0.161451  1
  N  N17  1  0.386572  0.864852  0.305501  1
  N  N18  1  0.898672  0.853307  0.561140  1
  N  N19  1  0.158113  0.083584  0.961670  1
  N  N20  1  0.540553  0.483978  0.223030  1
  N  N21  1  0.527248  0.476141  0.730427  1
  N  N22  1  0.787029  0.945672  0.073027  1
  N  N23  1  0.112758  0.160857  0.450736  1
