# generated using pymatgen
data_La8LuU3S20
_symmetry_space_group_name_H-M   'P 1'
_cell_length_a   7.53430258
_cell_length_b   8.10744200
_cell_length_c   11.93062000
_cell_angle_alpha   90.00000000
_cell_angle_beta   90.37755109
_cell_angle_gamma   90.00000000
_symmetry_Int_Tables_number   1
_chemical_formula_structural   La8LuU3S20
_chemical_formula_sum   'La8 Lu1 U3 S20'
_cell_volume   728.75322911
_cell_formula_units_Z   1
loop_
 _symmetry_equiv_pos_site_id
 _symmetry_equiv_pos_as_xyz
  1  'x, y, z'
loop_
 _atom_site_type_symbol
 _atom_site_label
 _atom_site_symmetry_multiplicity
 _atom_site_fract_x
 _atom_site_fract_y
 _atom_site_fract_z
 _atom_site_occupancy
  La  La0  1  0.532622  0.502744  0.325931  1
  La  La1  1  0.968761  0.998551  0.823007  1
  La  La2  1  0.469392  0.000938  0.672468  1
  La  La3  1  0.029942  0.500413  0.178683  1
  La  La4  1  0.469392  0.499062  0.672468  1
  La  La5  1  0.029942  0.999587  0.178683  1
  La  La6  1  0.532622  0.997256  0.325931  1
  La  La7  1  0.968761  0.501449  0.823007  1
  Lu  Lu8  1  0.066646  0.750000  0.495466  1
  U  U9  1  0.429312  0.750000  0.989686  1
  U  U10  1  0.940404  0.250000  0.505899  1
  U  U11  1  0.568762  0.250000  0.009035  1
  S  S12  1  0.833919  0.965723  0.591669  1
  S  S13  1  0.662701  0.542177  0.090993  1
  S  S14  1  0.163835  0.460526  0.410778  1
  S  S15  1  0.336478  0.042246  0.907473  1
  S  S16  1  0.163835  0.039474  0.410778  1
  S  S17  1  0.336478  0.457754  0.907473  1
  S  S18  1  0.833919  0.534277  0.591669  1
  S  S19  1  0.662701  0.957823  0.090993  1
  S  S20  1  0.837311  0.750000  0.314083  1
  S  S21  1  0.662273  0.750000  0.812471  1
  S  S22  1  0.163586  0.250000  0.686268  1
  S  S23  1  0.338169  0.250000  0.187329  1
  S  S24  1  0.449281  0.750000  0.496527  1
  S  S25  1  0.047525  0.750000  0.998495  1
  S  S26  1  0.550812  0.250000  0.500089  1
  S  S27  1  0.951543  0.250000  0.002517  1
  S  S28  1  0.188689  0.750000  0.713003  1
  S  S29  1  0.312101  0.750000  0.210849  1
  S  S30  1  0.810799  0.250000  0.287360  1
  S  S31  1  0.687483  0.250000  0.788916  1
