# generated using pymatgen
data_Rb2VO2F3
_symmetry_space_group_name_H-M   'P 1'
_cell_length_a   5.96403800
_cell_length_b   7.73657500
_cell_length_c   12.06844800
_cell_angle_alpha   90.00000000
_cell_angle_beta   90.00000000
_cell_angle_gamma   90.00000000
_symmetry_Int_Tables_number   1
_chemical_formula_structural   Rb2VO2F3
_chemical_formula_sum   'Rb8 V4 O8 F12'
_cell_volume   556.85300220
_cell_formula_units_Z   4
loop_
 _symmetry_equiv_pos_site_id
 _symmetry_equiv_pos_as_xyz
  1  'x, y, z'
loop_
 _atom_site_type_symbol
 _atom_site_label
 _atom_site_symmetry_multiplicity
 _atom_site_fract_x
 _atom_site_fract_y
 _atom_site_fract_z
 _atom_site_occupancy
  Rb  Rb0  1  0.250000  0.472667  0.284511  1
  Rb  Rb1  1  0.750000  0.527333  0.715489  1
  Rb  Rb2  1  0.250000  0.972667  0.215489  1
  Rb  Rb3  1  0.750000  0.027333  0.784511  1
  Rb  Rb4  1  0.250000  0.185495  0.587483  1
  Rb  Rb5  1  0.750000  0.814505  0.412517  1
  Rb  Rb6  1  0.250000  0.685495  0.912517  1
  Rb  Rb7  1  0.750000  0.314505  0.087483  1
  V  V8  1  0.250000  0.196356  0.930435  1
  V  V9  1  0.750000  0.803644  0.069565  1
  V  V10  1  0.250000  0.696356  0.569565  1
  V  V11  1  0.750000  0.303644  0.430435  1
  O  O12  1  0.469440  0.814081  0.610859  1
  O  O13  1  0.969440  0.185919  0.389141  1
  O  O14  1  0.530560  0.685919  0.110859  1
  O  O15  1  0.469440  0.314081  0.889141  1
  O  O16  1  0.969440  0.685919  0.110859  1
  O  O17  1  0.030560  0.814081  0.610859  1
  O  O18  1  0.530560  0.185919  0.389141  1
  O  O19  1  0.030560  0.314081  0.889141  1
  F  F20  1  0.750000  0.466065  0.312926  1
  F  F21  1  0.500000  0.000000  0.000000  1
  F  F22  1  0.000000  0.500000  0.500000  1
  F  F23  1  0.500000  0.500000  0.500000  1
  F  F24  1  0.250000  0.533935  0.687074  1
  F  F25  1  0.750000  0.966065  0.187074  1
  F  F26  1  0.250000  0.033935  0.812926  1
  F  F27  1  0.750000  0.233610  0.583215  1
  F  F28  1  0.250000  0.266390  0.083215  1
  F  F29  1  0.750000  0.733610  0.916785  1
  F  F30  1  0.000000  0.000000  0.000000  1
  F  F31  1  0.250000  0.766390  0.416785  1
