# generated using pymatgen
data_TbY3V4(WO6)4
_symmetry_space_group_name_H-M   'P 1'
_cell_length_a   7.45104811
_cell_length_b   5.25347803
_cell_length_c   11.18985111
_cell_angle_alpha   90.00159349
_cell_angle_beta   89.98409973
_cell_angle_gamma   89.98891551
_symmetry_Int_Tables_number   1
_chemical_formula_structural   TbY3V4(WO6)4
_chemical_formula_sum   'Tb1 Y3 V4 W4 O24'
_cell_volume   438.01458332
_cell_formula_units_Z   1
loop_
 _symmetry_equiv_pos_site_id
 _symmetry_equiv_pos_as_xyz
  1  'x, y, z'
loop_
 _atom_site_type_symbol
 _atom_site_label
 _atom_site_symmetry_multiplicity
 _atom_site_fract_x
 _atom_site_fract_y
 _atom_site_fract_z
 _atom_site_occupancy
  Tb  Tb0  1  0.753647  0.294422  0.954346  1
  Y  Y1  1  0.253569  0.204893  0.045568  1
  Y  Y2  1  0.753708  0.705117  0.454477  1
  Y  Y3  1  0.253730  0.794928  0.545477  1
  V  V4  1  0.506064  0.699470  0.134219  1
  V  V5  1  0.006529  0.199498  0.365721  1
  V  V6  1  0.506191  0.300503  0.634343  1
  V  V7  1  0.006051  0.800366  0.865725  1
  W  W8  1  0.998478  0.693446  0.143454  1
  W  W9  1  0.498617  0.193569  0.356621  1
  W  W10  1  0.998422  0.306534  0.643305  1
  W  W11  1  0.498022  0.806468  0.856583  1
  O  O12  1  0.543673  0.993251  0.019769  1
  O  O13  1  0.958911  0.984384  0.029225  1
  O  O14  1  0.755156  0.572865  0.116213  1
  O  O15  1  0.246279  0.814826  0.143006  1
  O  O16  1  0.070741  0.375923  0.206700  1
  O  O17  1  0.436820  0.358692  0.214230  1
  O  O18  1  0.936974  0.858601  0.285895  1
  O  O19  1  0.570818  0.876211  0.293161  1
  O  O20  1  0.746421  0.314822  0.357197  1
  O  O21  1  0.255335  0.072139  0.383920  1
  O  O22  1  0.458622  0.484595  0.470889  1
  O  O23  1  0.044439  0.493547  0.480275  1
  O  O24  1  0.544448  0.006475  0.519674  1
  O  O25  1  0.958634  0.015322  0.529132  1
  O  O26  1  0.755122  0.427879  0.616146  1
  O  O27  1  0.246302  0.185159  0.642730  1
  O  O28  1  0.070673  0.623815  0.706769  1
  O  O29  1  0.436689  0.641256  0.714252  1
  O  O30  1  0.936815  0.141391  0.785688  1
  O  O31  1  0.570285  0.123822  0.793156  1
  O  O32  1  0.746201  0.686167  0.857235  1
  O  O33  1  0.254876  0.927923  0.883798  1
  O  O34  1  0.458619  0.515117  0.970775  1
  O  O35  1  0.044517  0.506582  0.980325  1
