# generated using pymatgen
data_SmHo2Fe3(CoP)6
_symmetry_space_group_name_H-M   'P 1'
_cell_length_a   3.71809600
_cell_length_b   10.58186500
_cell_length_c   12.15844800
_cell_angle_alpha   90.00000000
_cell_angle_beta   90.00000000
_cell_angle_gamma   90.00000000
_symmetry_Int_Tables_number   1
_chemical_formula_structural   SmHo2Fe3(CoP)6
_chemical_formula_sum   'Sm2 Ho4 Fe6 Co12 P12'
_cell_volume   478.36671904
_cell_formula_units_Z   2
loop_
 _symmetry_equiv_pos_site_id
 _symmetry_equiv_pos_as_xyz
  1  'x, y, z'
loop_
 _atom_site_type_symbol
 _atom_site_label
 _atom_site_symmetry_multiplicity
 _atom_site_fract_x
 _atom_site_fract_y
 _atom_site_fract_z
 _atom_site_occupancy
  Sm  Sm0  1  0.000000  0.500000  0.523173  1
  Sm  Sm1  1  0.500000  0.000000  0.477465  1
  Ho  Ho2  1  0.500000  0.819522  0.203992  1
  Ho  Ho3  1  0.500000  0.180478  0.203992  1
  Ho  Ho4  1  0.000000  0.680699  0.795983  1
  Ho  Ho5  1  0.000000  0.319301  0.795983  1
  Fe  Fe6  1  0.000000  0.500000  0.988524  1
  Fe  Fe7  1  0.500000  0.000000  0.011619  1
  Fe  Fe8  1  0.500000  0.296950  0.428522  1
  Fe  Fe9  1  0.500000  0.703050  0.428522  1
  Fe  Fe10  1  0.500000  0.500000  0.155047  1
  Fe  Fe11  1  0.000000  0.000000  0.845954  1
  Co  Co12  1  0.000000  0.203411  0.571358  1
  Co  Co13  1  0.000000  0.796589  0.571358  1
  Co  Co14  1  0.500000  0.879122  0.711460  1
  Co  Co15  1  0.500000  0.120878  0.711460  1
  Co  Co16  1  0.000000  0.619952  0.287630  1
  Co  Co17  1  0.000000  0.380048  0.287630  1
  Co  Co18  1  0.500000  0.332414  0.994812  1
  Co  Co19  1  0.500000  0.667586  0.994812  1
  Co  Co20  1  0.000000  0.168488  0.005474  1
  Co  Co21  1  0.000000  0.831512  0.005474  1
  Co  Co22  1  0.500000  0.500000  0.703481  1
  Co  Co23  1  0.000000  0.000000  0.296875  1
  P  P24  1  0.500000  0.307453  0.615526  1
  P  P25  1  0.500000  0.692547  0.615526  1
  P  P26  1  0.000000  0.193643  0.383116  1
  P  P27  1  0.000000  0.806357  0.383116  1
  P  P28  1  0.500000  0.500000  0.885062  1
  P  P29  1  0.000000  0.000000  0.114876  1
  P  P30  1  0.500000  0.847004  0.894333  1
  P  P31  1  0.500000  0.152996  0.894333  1
  P  P32  1  0.000000  0.652485  0.105784  1
  P  P33  1  0.000000  0.347515  0.105784  1
  P  P34  1  0.500000  0.500000  0.340813  1
  P  P35  1  0.000000  0.000000  0.661132  1
