# generated using pymatgen
data_Nb6Al8Cu3Rh
_symmetry_space_group_name_H-M   'P 1'
_cell_length_a   8.80655869
_cell_length_b   8.87449090
_cell_length_c   8.17883900
_cell_angle_alpha   90.00000000
_cell_angle_beta   90.00000000
_cell_angle_gamma   121.00426022
_symmetry_Int_Tables_number   1
_chemical_formula_structural   Nb6Al8Cu3Rh
_chemical_formula_sum   'Nb12 Al16 Cu6 Rh2'
_cell_volume   547.88263011
_cell_formula_units_Z   2
loop_
 _symmetry_equiv_pos_site_id
 _symmetry_equiv_pos_as_xyz
  1  'x, y, z'
loop_
 _atom_site_type_symbol
 _atom_site_label
 _atom_site_symmetry_multiplicity
 _atom_site_fract_x
 _atom_site_fract_y
 _atom_site_fract_z
 _atom_site_occupancy
  Nb  Nb0  1  0.329285  0.990622  0.066883  1
  Nb  Nb1  1  0.670715  0.009378  0.933117  1
  Nb  Nb2  1  0.996621  0.331568  0.069517  1
  Nb  Nb3  1  0.670715  0.009378  0.566883  1
  Nb  Nb4  1  0.996621  0.331568  0.430483  1
  Nb  Nb5  1  0.003379  0.668432  0.930483  1
  Nb  Nb6  1  0.329285  0.990622  0.433117  1
  Nb  Nb7  1  0.003379  0.668432  0.569517  1
  Nb  Nb8  1  0.666708  0.663079  0.067474  1
  Nb  Nb9  1  0.333292  0.336921  0.932526  1
  Nb  Nb10  1  0.333292  0.336921  0.567474  1
  Nb  Nb11  1  0.666708  0.663079  0.432526  1
  Al  Al12  1  0.344163  0.848577  0.750000  1
  Al  Al13  1  0.654455  0.506114  0.750000  1
  Al  Al14  1  0.655837  0.151423  0.250000  1
  Al  Al15  1  0.345545  0.493886  0.250000  1
  Al  Al16  1  0.845740  0.342428  0.750000  1
  Al  Al17  1  0.154260  0.657572  0.250000  1
  Al  Al18  1  0.340316  0.665447  0.505226  1
  Al  Al19  1  0.659684  0.334553  0.494774  1
  Al  Al20  1  0.659684  0.334553  0.005226  1
  Al  Al21  1  0.340316  0.665447  0.994774  1
  Al  Al22  1  0.178757  0.009885  0.750000  1
  Al  Al23  1  0.821243  0.990115  0.250000  1
  Al  Al24  1  0.008991  0.179473  0.750000  1
  Al  Al25  1  0.991009  0.820527  0.250000  1
  Al  Al26  1  0.825666  0.835380  0.750000  1
  Al  Al27  1  0.174334  0.164620  0.250000  1
  Cu  Cu28  1  0.168074  0.500053  0.750000  1
  Cu  Cu29  1  0.831926  0.499947  0.250000  1
  Cu  Cu30  1  0.506286  0.672704  0.750000  1
  Cu  Cu31  1  0.503663  0.171469  0.750000  1
  Cu  Cu32  1  0.493714  0.327296  0.250000  1
  Cu  Cu33  1  0.496337  0.828531  0.250000  1
  Rh  Rh34  1  0.000000  0.000000  0.500000  1
  Rh  Rh35  1  0.000000  0.000000  0.000000  1
