# generated using pymatgen
data_HfZr2B2Ru5
_symmetry_space_group_name_H-M   'P 1'
_cell_length_a   9.53278200
_cell_length_b   9.53278200
_cell_length_c   3.15208000
_cell_angle_alpha   90.00000000
_cell_angle_beta   90.00000000
_cell_angle_gamma   90.00000000
_symmetry_Int_Tables_number   1
_chemical_formula_structural   HfZr2B2Ru5
_chemical_formula_sum   'Hf2 Zr4 B4 Ru10'
_cell_volume   286.44190566
_cell_formula_units_Z   2
loop_
 _symmetry_equiv_pos_site_id
 _symmetry_equiv_pos_as_xyz
  1  'x, y, z'
loop_
 _atom_site_type_symbol
 _atom_site_label
 _atom_site_symmetry_multiplicity
 _atom_site_fract_x
 _atom_site_fract_y
 _atom_site_fract_z
 _atom_site_occupancy
  Hf  Hf0  1  0.000000  0.000000  0.000000  1
  Hf  Hf1  1  0.500000  0.500000  0.000000  1
  Zr  Zr2  1  0.674738  0.174738  0.000000  1
  Zr  Zr3  1  0.325262  0.825262  0.000000  1
  Zr  Zr4  1  0.174738  0.325262  0.000000  1
  Zr  Zr5  1  0.825262  0.674738  0.000000  1
  B  B6  1  0.122659  0.622659  0.000000  1
  B  B7  1  0.877341  0.377341  0.000000  1
  B  B8  1  0.622659  0.877341  0.000000  1
  B  B9  1  0.377341  0.122659  0.000000  1
  Ru  Ru10  1  0.220827  0.072679  0.500000  1
  Ru  Ru11  1  0.779173  0.927321  0.500000  1
  Ru  Ru12  1  0.072679  0.779173  0.500000  1
  Ru  Ru13  1  0.720827  0.427321  0.500000  1
  Ru  Ru14  1  0.927321  0.220827  0.500000  1
  Ru  Ru15  1  0.279173  0.572679  0.500000  1
  Ru  Ru16  1  0.572679  0.720827  0.500000  1
  Ru  Ru17  1  0.427321  0.279173  0.500000  1
  Ru  Ru18  1  0.500000  0.000000  0.500000  1
  Ru  Ru19  1  0.000000  0.500000  0.500000  1
