# generated using pymatgen
data_Ho2Tm6B24Rh3W
_symmetry_space_group_name_H-M   'P 1'
_cell_length_a   3.63069500
_cell_length_b   9.14004265
_cell_length_c   11.50936800
_cell_angle_alpha   90.25229653
_cell_angle_beta   90.00000000
_cell_angle_gamma   90.00000000
_symmetry_Int_Tables_number   1
_chemical_formula_structural   Ho2Tm6B24Rh3W
_chemical_formula_sum   'Ho2 Tm6 B24 Rh3 W1'
_cell_volume   381.93130381
_cell_formula_units_Z   1
loop_
 _symmetry_equiv_pos_site_id
 _symmetry_equiv_pos_as_xyz
  1  'x, y, z'
loop_
 _atom_site_type_symbol
 _atom_site_label
 _atom_site_symmetry_multiplicity
 _atom_site_fract_x
 _atom_site_fract_y
 _atom_site_fract_z
 _atom_site_occupancy
  Ho  Ho0  1  0.500000  0.318785  0.410873  1
  Ho  Ho1  1  0.500000  0.676876  0.585121  1
  Tm  Tm2  1  0.500000  0.179192  0.916566  1
  Tm  Tm3  1  0.500000  0.823133  0.086566  1
  Tm  Tm4  1  0.500000  0.445680  0.125243  1
  Tm  Tm5  1  0.500000  0.557347  0.871759  1
  Tm  Tm6  1  0.500000  0.055875  0.629237  1
  Tm  Tm7  1  0.500000  0.944361  0.374599  1
  B  B8  1  0.000000  0.105460  0.473258  1
  B  B9  1  0.000000  0.892907  0.530467  1
  B  B10  1  0.000000  0.395898  0.969073  1
  B  B11  1  0.000000  0.608580  0.028259  1
  B  B12  1  0.000000  0.131541  0.317562  1
  B  B13  1  0.000000  0.867104  0.683947  1
  B  B14  1  0.000000  0.368711  0.816424  1
  B  B15  1  0.000000  0.633123  0.183264  1
  B  B16  1  0.000000  0.051249  0.063909  1
  B  B17  1  0.000000  0.946682  0.933224  1
  B  B18  1  0.000000  0.444867  0.565498  1
  B  B19  1  0.000000  0.552777  0.433734  1
  B  B20  1  0.000000  0.483299  0.286952  1
  B  B21  1  0.000000  0.517330  0.712177  1
  B  B22  1  0.000000  0.018116  0.787810  1
  B  B23  1  0.000000  0.978702  0.214076  1
  B  B24  1  0.000000  0.251937  0.077703  1
  B  B25  1  0.000000  0.751248  0.919826  1
  B  B26  1  0.000000  0.249565  0.579798  1
  B  B27  1  0.000000  0.748842  0.421003  1
  B  B28  1  0.000000  0.296087  0.235798  1
  B  B29  1  0.000000  0.706169  0.763684  1
  B  B30  1  0.000000  0.207457  0.736537  1
  B  B31  1  0.000000  0.792136  0.265940  1
  Rh  Rh32  1  0.500000  0.861234  0.820878  1
  Rh  Rh33  1  0.500000  0.360662  0.679540  1
  Rh  Rh34  1  0.500000  0.639100  0.320794  1
  W  W35  1  0.500000  0.137968  0.178900  1
