# generated using pymatgen
data_Pr3Dy5Cd2RuPt
_symmetry_space_group_name_H-M   'P 1'
_cell_length_a   9.79413969
_cell_length_b   9.79414053
_cell_length_c   9.81015900
_cell_angle_alpha   59.94587267
_cell_angle_beta   59.94586982
_cell_angle_gamma   60.04318566
_symmetry_Int_Tables_number   1
_chemical_formula_structural   Pr3Dy5Cd2RuPt
_chemical_formula_sum   'Pr6 Dy10 Cd4 Ru2 Pt2'
_cell_volume   665.08810055
_cell_formula_units_Z   2
loop_
 _symmetry_equiv_pos_site_id
 _symmetry_equiv_pos_as_xyz
  1  'x, y, z'
loop_
 _atom_site_type_symbol
 _atom_site_label
 _atom_site_symmetry_multiplicity
 _atom_site_fract_x
 _atom_site_fract_y
 _atom_site_fract_z
 _atom_site_occupancy
  Pr  Pr0  1  0.939893  0.556217  0.562786  1
  Pr  Pr1  1  0.556217  0.939893  0.941103  1
  Pr  Pr2  1  0.556217  0.939893  0.562786  1
  Pr  Pr3  1  0.939893  0.556217  0.941103  1
  Pr  Pr4  1  0.560443  0.560443  0.939557  1
  Pr  Pr5  1  0.940421  0.940421  0.559579  1
  Dy  Dy6  1  0.347572  0.347572  0.351968  1
  Dy  Dy7  1  0.347572  0.347572  0.952889  1
  Dy  Dy8  1  0.344400  0.959271  0.348164  1
  Dy  Dy9  1  0.959271  0.344400  0.348164  1
  Dy  Dy10  1  0.817165  0.186390  0.188205  1
  Dy  Dy11  1  0.186390  0.817165  0.808239  1
  Dy  Dy12  1  0.186390  0.817165  0.188205  1
  Dy  Dy13  1  0.817165  0.186390  0.808239  1
  Dy  Dy14  1  0.186694  0.186694  0.813306  1
  Dy  Dy15  1  0.809774  0.809774  0.190226  1
  Cd  Cd16  1  0.578994  0.578994  0.579360  1
  Cd  Cd17  1  0.578994  0.578994  0.262649  1
  Cd  Cd18  1  0.580120  0.261117  0.579381  1
  Cd  Cd19  1  0.261117  0.580120  0.579381  1
  Ru  Ru20  1  0.143064  0.143064  0.137791  1
  Ru  Ru21  1  0.143064  0.143064  0.576081  1
  Pt  Pt22  1  0.144052  0.575112  0.140418  1
  Pt  Pt23  1  0.575112  0.144052  0.140418  1
