# generated using pymatgen
data_Sr4YbCe(IrO6)2
_symmetry_space_group_name_H-M   'P 1'
_cell_length_a   5.83100523
_cell_length_b   5.90928551
_cell_length_c   8.26895134
_cell_angle_alpha   89.99540851
_cell_angle_beta   90.39282903
_cell_angle_gamma   90.04751248
_symmetry_Int_Tables_number   1
_chemical_formula_structural   Sr4YbCe(IrO6)2
_chemical_formula_sum   'Sr4 Yb1 Ce1 Ir2 O12'
_cell_volume   284.91707897
_cell_formula_units_Z   1
loop_
 _symmetry_equiv_pos_site_id
 _symmetry_equiv_pos_as_xyz
  1  'x, y, z'
loop_
 _atom_site_type_symbol
 _atom_site_label
 _atom_site_symmetry_multiplicity
 _atom_site_fract_x
 _atom_site_fract_y
 _atom_site_fract_z
 _atom_site_occupancy
  Sr  Sr0  1  0.008973  0.037214  0.237885  1
  Sr  Sr1  1  0.488605  0.543439  0.239185  1
  Sr  Sr2  1  0.511395  0.456562  0.760814  1
  Sr  Sr3  1  0.991026  0.962786  0.762116  1
  Yb  Yb4  1  0.500001  0.000000  0.000000  1
  Ce  Ce5  1  0.000000  0.500000  0.500000  1
  Ir  Ir6  1  0.000000  0.500000  0.000000  1
  Ir  Ir7  1  0.500001  0.000000  0.500000  1
  O  O8  1  0.268290  0.301474  0.036741  1
  O  O9  1  0.195221  0.768858  0.039487  1
  O  O10  1  0.923502  0.480951  0.236167  1
  O  O11  1  0.575956  0.980598  0.270519  1
  O  O12  1  0.302932  0.274542  0.455895  1
  O  O13  1  0.226288  0.799538  0.457448  1
  O  O14  1  0.773712  0.200461  0.542551  1
  O  O15  1  0.697068  0.725457  0.544104  1
  O  O16  1  0.424043  0.019402  0.729482  1
  O  O17  1  0.076498  0.519050  0.763833  1
  O  O18  1  0.804779  0.231142  0.960513  1
  O  O19  1  0.731710  0.698525  0.963260  1
