# generated using pymatgen
data_Tb2ErSi2Ag3Ge
_symmetry_space_group_name_H-M   'P 1'
_cell_length_a   7.12150335
_cell_length_b   7.12150054
_cell_length_c   4.19287800
_cell_angle_alpha   90.00000000
_cell_angle_beta   90.00000000
_cell_angle_gamma   119.79454008
_symmetry_Int_Tables_number   1
_chemical_formula_structural   Tb2ErSi2Ag3Ge
_chemical_formula_sum   'Tb2 Er1 Si2 Ag3 Ge1'
_cell_volume   184.53615861
_cell_formula_units_Z   1
loop_
 _symmetry_equiv_pos_site_id
 _symmetry_equiv_pos_as_xyz
  1  'x, y, z'
loop_
 _atom_site_type_symbol
 _atom_site_label
 _atom_site_symmetry_multiplicity
 _atom_site_fract_x
 _atom_site_fract_y
 _atom_site_fract_z
 _atom_site_occupancy
  Tb  Tb0  1  0.416999  0.000165  0.500000  1
  Tb  Tb1  1  0.000165  0.416999  0.500000  1
  Er  Er2  1  0.583822  0.583822  0.500000  1
  Si  Si3  1  0.335005  0.665996  0.000000  1
  Si  Si4  1  0.665996  0.335005  0.000000  1
  Ag  Ag5  1  0.741617  0.999645  0.000000  1
  Ag  Ag6  1  0.999645  0.741617  0.000000  1
  Ag  Ag7  1  0.259039  0.259039  0.000000  1
  Ge  Ge8  1  0.997712  0.997712  0.500000  1
