# generated using pymatgen
data_Tb5OsRh
_symmetry_space_group_name_H-M   'P 1'
_cell_length_a   6.41683664
_cell_length_b   7.39777688
_cell_length_c   8.47479400
_cell_angle_alpha   96.62349665
_cell_angle_beta   112.61477612
_cell_angle_gamma   90.19764955
_symmetry_Int_Tables_number   1
_chemical_formula_structural   Tb5OsRh
_chemical_formula_sum   'Tb10 Os2 Rh2'
_cell_volume   368.38840408
_cell_formula_units_Z   2
loop_
 _symmetry_equiv_pos_site_id
 _symmetry_equiv_pos_as_xyz
  1  'x, y, z'
loop_
 _atom_site_type_symbol
 _atom_site_label
 _atom_site_symmetry_multiplicity
 _atom_site_fract_x
 _atom_site_fract_y
 _atom_site_fract_z
 _atom_site_occupancy
  Tb  Tb0  1  0.529154  0.082368  0.820244  1
  Tb  Tb1  1  0.470846  0.917632  0.179756  1
  Tb  Tb2  1  0.711321  0.416344  0.187998  1
  Tb  Tb3  1  0.288679  0.583656  0.812002  1
  Tb  Tb4  1  0.286922  0.313126  0.436100  1
  Tb  Tb5  1  0.713078  0.686874  0.563900  1
  Tb  Tb6  1  0.853379  0.178791  0.559267  1
  Tb  Tb7  1  0.146621  0.821209  0.440733  1
  Tb  Tb8  1  0.078892  0.247190  0.999400  1
  Tb  Tb9  1  0.921108  0.752810  0.000600  1
  Os  Os10  1  0.108318  0.922504  0.784810  1
  Os  Os11  1  0.891682  0.077496  0.215190  1
  Rh  Rh12  1  0.324892  0.574792  0.224413  1
  Rh  Rh13  1  0.675108  0.425208  0.775587  1
