# generated using pymatgen
data_BaIn4B4Ir9
_symmetry_space_group_name_H-M   'P 1'
_cell_length_a   5.65429100
_cell_length_b   5.65429069
_cell_length_c   10.31360500
_cell_angle_alpha   90.00000000
_cell_angle_beta   90.00000000
_cell_angle_gamma   120.00000766
_symmetry_Int_Tables_number   1
_chemical_formula_structural   BaIn4B4Ir9
_chemical_formula_sum   'Ba1 In4 B4 Ir9'
_cell_volume   285.56000469
_cell_formula_units_Z   1
loop_
 _symmetry_equiv_pos_site_id
 _symmetry_equiv_pos_as_xyz
  1  'x, y, z'
loop_
 _atom_site_type_symbol
 _atom_site_label
 _atom_site_symmetry_multiplicity
 _atom_site_fract_x
 _atom_site_fract_y
 _atom_site_fract_z
 _atom_site_occupancy
  Ba  Ba0  1  0.000000  0.000000  0.533044  1
  In  In1  1  0.000000  0.000000  0.873933  1
  In  In2  1  0.666667  0.333333  0.526233  1
  In  In3  1  0.000000  0.000000  0.192186  1
  In  In4  1  0.333333  0.666667  0.526233  1
  B  B5  1  0.666667  0.333333  0.171123  1
  B  B6  1  0.333333  0.666667  0.882300  1
  B  B7  1  0.666667  0.333333  0.882300  1
  B  B8  1  0.333333  0.666667  0.171123  1
  Ir  Ir9  1  0.000000  0.467598  0.300496  1
  Ir  Ir10  1  0.465402  0.000000  0.753090  1
  Ir  Ir11  1  0.467598  0.000000  0.300496  1
  Ir  Ir12  1  0.000000  0.436532  0.026923  1
  Ir  Ir13  1  0.534598  0.534598  0.753090  1
  Ir  Ir14  1  0.000000  0.465402  0.753090  1
  Ir  Ir15  1  0.563468  0.563468  0.026923  1
  Ir  Ir16  1  0.436532  0.000000  0.026923  1
  Ir  Ir17  1  0.532402  0.532402  0.300496  1
