# generated using pymatgen
data_Nd5TmZn4Pt13
_symmetry_space_group_name_H-M   'P 1'
_cell_length_a   8.37456076
_cell_length_b   8.37456094
_cell_length_c   8.37456120
_cell_angle_alpha   109.52861890
_cell_angle_beta   109.52861790
_cell_angle_gamma   109.35649157
_symmetry_Int_Tables_number   1
_chemical_formula_structural   Nd5TmZn4Pt13
_chemical_formula_sum   'Nd5 Tm1 Zn4 Pt13'
_cell_volume   452.12957802
_cell_formula_units_Z   1
loop_
 _symmetry_equiv_pos_site_id
 _symmetry_equiv_pos_as_xyz
  1  'x, y, z'
loop_
 _atom_site_type_symbol
 _atom_site_label
 _atom_site_symmetry_multiplicity
 _atom_site_fract_x
 _atom_site_fract_y
 _atom_site_fract_z
 _atom_site_occupancy
  Nd  Nd0  1  0.301294  0.000310  0.300984  1
  Nd  Nd1  1  0.000310  0.301294  0.300984  1
  Nd  Nd2  1  0.296829  0.296829  0.000000  1
  Nd  Nd3  1  0.699326  0.000310  0.699016  1
  Nd  Nd4  1  0.000310  0.699326  0.699016  1
  Tm  Tm5  1  0.692511  0.692511  0.000000  1
  Zn  Zn6  1  0.001490  0.001490  0.498782  1
  Zn  Zn7  1  0.001490  0.502708  0.000000  1
  Zn  Zn8  1  0.502708  0.001490  0.000000  1
  Zn  Zn9  1  0.502708  0.502708  0.501218  1
  Pt  Pt10  1  0.335254  0.335254  0.667876  1
  Pt  Pt11  1  0.672953  0.998099  0.325146  1
  Pt  Pt12  1  0.998099  0.672953  0.325146  1
  Pt  Pt13  1  0.667378  0.335254  0.000000  1
  Pt  Pt14  1  0.329250  0.659500  0.330251  1
  Pt  Pt15  1  0.998999  0.329250  0.669749  1
  Pt  Pt16  1  0.335254  0.667378  0.000000  1
  Pt  Pt17  1  0.329250  0.998999  0.669749  1
  Pt  Pt18  1  0.659500  0.329250  0.330251  1
  Pt  Pt19  1  0.667378  0.667378  0.332124  1
  Pt  Pt20  1  0.672953  0.347807  0.674854  1
  Pt  Pt21  1  0.347807  0.672953  0.674854  1
  Pt  Pt22  1  0.986950  0.986950  0.000000  1
