# generated using pymatgen
data_Hf13Zr3(Ir2O)4
_symmetry_space_group_name_H-M   'P 1'
_cell_length_a   8.75445054
_cell_length_b   8.76633680
_cell_length_c   8.77533625
_cell_angle_alpha   59.87641041
_cell_angle_beta   60.04265915
_cell_angle_gamma   60.11283324
_symmetry_Int_Tables_number   1
_chemical_formula_structural   Hf13Zr3(Ir2O)4
_chemical_formula_sum   'Hf13 Zr3 Ir8 O4'
_cell_volume   476.31757851
_cell_formula_units_Z   1
loop_
 _symmetry_equiv_pos_site_id
 _symmetry_equiv_pos_as_xyz
  1  'x, y, z'
loop_
 _atom_site_type_symbol
 _atom_site_label
 _atom_site_symmetry_multiplicity
 _atom_site_fract_x
 _atom_site_fract_y
 _atom_site_fract_z
 _atom_site_occupancy
  Hf  Hf0  1  0.141042  0.617141  0.618524  1
  Hf  Hf1  1  0.618360  0.134784  0.624385  1
  Hf  Hf2  1  0.618524  0.623293  0.141042  1
  Hf  Hf3  1  0.624385  0.622471  0.618360  1
  Hf  Hf4  1  0.184789  0.815211  0.184789  1
  Hf  Hf5  1  0.188121  0.812355  0.811237  1
  Hf  Hf6  1  0.811237  0.188287  0.188121  1
  Hf  Hf7  1  0.439065  0.440702  0.059869  1
  Hf  Hf8  1  0.059869  0.060364  0.439065  1
  Hf  Hf9  1  0.434864  0.065136  0.434864  1
  Hf  Hf10  1  0.061445  0.438555  0.061445  1
  Hf  Hf11  1  0.067162  0.433700  0.431063  1
  Hf  Hf12  1  0.431063  0.068075  0.067162  1
  Zr  Zr13  1  0.816962  0.818207  0.181437  1
  Zr  Zr14  1  0.181437  0.183394  0.816962  1
  Zr  Zr15  1  0.813868  0.186132  0.813868  1
  Ir  Ir16  1  0.794511  0.399264  0.403632  1
  Ir  Ir17  1  0.400620  0.795595  0.404282  1
  Ir  Ir18  1  0.403632  0.402592  0.794511  1
  Ir  Ir19  1  0.404282  0.399503  0.400620  1
  Ir  Ir20  1  0.481064  0.833449  0.844306  1
  Ir  Ir21  1  0.835673  0.488800  0.843745  1
  Ir  Ir22  1  0.844306  0.841181  0.481064  1
  Ir  Ir23  1  0.843745  0.831783  0.835673  1
  O  O24  1  0.619980  0.129593  0.127921  1
  O  O25  1  0.129252  0.623775  0.122822  1
  O  O26  1  0.127921  0.122506  0.619980  1
  O  O27  1  0.122822  0.124151  0.129252  1
