# generated using pymatgen
data_Hf3Sc5P12Ir15Ru
_symmetry_space_group_name_H-M   'P 1'
_cell_length_a   12.87764308
_cell_length_b   12.76677792
_cell_length_c   3.88174700
_cell_angle_alpha   90.00000000
_cell_angle_beta   90.00000000
_cell_angle_gamma   119.92081453
_symmetry_Int_Tables_number   1
_chemical_formula_structural   Hf3Sc5P12Ir15Ru
_chemical_formula_sum   'Hf3 Sc5 P12 Ir15 Ru1'
_cell_volume   553.12275765
_cell_formula_units_Z   1
loop_
 _symmetry_equiv_pos_site_id
 _symmetry_equiv_pos_as_xyz
  1  'x, y, z'
loop_
 _atom_site_type_symbol
 _atom_site_label
 _atom_site_symmetry_multiplicity
 _atom_site_fract_x
 _atom_site_fract_y
 _atom_site_fract_z
 _atom_site_occupancy
  Hf  Hf0  1  0.447119  0.999504  0.000000  1
  Hf  Hf1  1  0.000830  0.448882  0.000000  1
  Hf  Hf2  1  0.553704  0.549272  0.000000  1
  Sc  Sc3  1  0.329965  0.662427  0.000000  1
  Sc  Sc4  1  0.667782  0.332762  0.000000  1
  Sc  Sc5  1  0.813228  0.000668  0.500000  1
  Sc  Sc6  1  0.000962  0.817311  0.500000  1
  Sc  Sc7  1  0.187073  0.188405  0.500000  1
  P  P8  1  0.174495  0.002374  0.000000  1
  P  P9  1  0.004022  0.177132  0.000000  1
  P  P10  1  0.826186  0.827652  0.000000  1
  P  P11  1  0.172804  0.479872  0.500000  1
  P  P12  1  0.514930  0.686242  0.500000  1
  P  P13  1  0.309726  0.827044  0.500000  1
  P  P14  1  0.692601  0.518581  0.500000  1
  P  P15  1  0.827285  0.310058  0.500000  1
  P  P16  1  0.483167  0.172109  0.500000  1
  P  P17  1  0.651238  0.999779  0.000000  1
  P  P18  1  0.000797  0.654132  0.000000  1
  P  P19  1  0.341803  0.348774  0.000000  1
  Ir  Ir20  1  0.361657  0.488674  0.500000  1
  Ir  Ir21  1  0.500914  0.861631  0.500000  1
  Ir  Ir22  1  0.136330  0.638295  0.500000  1
  Ir  Ir23  1  0.866059  0.504363  0.500000  1
  Ir  Ir24  1  0.638346  0.133250  0.500000  1
  Ir  Ir25  1  0.503161  0.362904  0.500000  1
  Ir  Ir26  1  0.629524  0.808589  0.000000  1
  Ir  Ir27  1  0.190841  0.821977  0.000000  1
  Ir  Ir28  1  0.810582  0.632215  0.000000  1
  Ir  Ir29  1  0.819949  0.191023  0.000000  1
  Ir  Ir30  1  0.369163  0.181384  0.000000  1
  Ir  Ir31  1  0.276058  0.001575  0.500000  1
  Ir  Ir32  1  0.996498  0.272191  0.500000  1
  Ir  Ir33  1  0.724756  0.725373  0.500000  1
  Ir  Ir34  1  0.000106  0.000444  0.000000  1
  Ru  Ru35  1  0.176339  0.373130  0.000000  1
