# generated using pymatgen
data_SrBr35
_symmetry_space_group_name_H-M   'P 1'
_cell_length_a   16.38152633
_cell_length_b   11.68528830
_cell_length_c   11.06168000
_cell_angle_alpha   88.81408621
_cell_angle_beta   66.02770458
_cell_angle_gamma   92.31545319
_symmetry_Int_Tables_number   1
_chemical_formula_structural   SrBr35
_chemical_formula_sum   'Sr1 Br35'
_cell_volume   1931.63325510
_cell_formula_units_Z   1
loop_
 _symmetry_equiv_pos_site_id
 _symmetry_equiv_pos_as_xyz
  1  'x, y, z'
loop_
 _atom_site_type_symbol
 _atom_site_label
 _atom_site_symmetry_multiplicity
 _atom_site_fract_x
 _atom_site_fract_y
 _atom_site_fract_z
 _atom_site_occupancy
  Sr  Sr0  1  0.188765  0.396393  0.475109  1
  Br  Br1  1  0.462962  0.311603  0.548986  1
  Br  Br2  1  0.755347  0.568948  0.570569  1
  Br  Br3  1  0.497384  0.711474  0.742538  1
  Br  Br4  1  0.060315  0.856908  0.841047  1
  Br  Br5  1  0.892725  0.149258  0.025363  1
  Br  Br6  1  0.556146  0.376337  0.307243  1
  Br  Br7  1  0.617910  0.331046  0.867038  1
  Br  Br8  1  0.361563  0.800385  0.718559  1
  Br  Br9  1  0.380174  0.617155  0.218582  1
  Br  Br10  1  0.681473  0.147993  0.818490  1
  Br  Br11  1  0.899243  0.517512  0.383833  1
  Br  Br12  1  0.073989  0.891350  0.608908  1
  Br  Br13  1  0.857899  0.102442  0.274002  1
  Br  Br14  1  0.923915  0.199566  0.792611  1
  Br  Br15  1  0.646213  0.076274  0.269565  1
  Br  Br16  1  0.031083  0.816664  0.089785  1
  Br  Br17  1  0.369990  0.011033  0.751786  1
  Br  Br18  1  0.875193  0.307676  0.335790  1
  Br  Br19  1  0.894867  0.907144  0.682351  1
  Br  Br20  1  0.894125  0.644268  0.770873  1
  Br  Br21  1  0.339055  0.060249  0.213899  1
  Br  Br22  1  0.245513  0.234290  0.227618  1
  Br  Br23  1  0.620431  0.617210  0.781619  1
  Br  Br24  1  0.150679  0.414604  0.235714  1
  Br  Br25  1  0.732694  0.922227  0.760472  1
  Br  Br26  1  0.909487  0.443806  0.787255  1
  Br  Br27  1  0.507487  0.076122  0.248592  1
  Br  Br28  1  0.133617  0.212378  0.674072  1
  Br  Br29  1  0.688722  0.784703  0.274088  1
  Br  Br30  1  0.861678  0.793753  0.183158  1
  Br  Br31  1  0.373030  0.229025  0.790534  1
  Br  Br32  1  0.335873  0.471832  0.583448  1
  Br  Br33  1  0.628732  0.582558  0.297523  1
  Br  Br34  1  0.219038  0.608340  0.615454  1
  Br  Br35  1  0.332685  0.807472  0.233530  1
