# generated using pymatgen
data_Ce2NdNi9
_symmetry_space_group_name_H-M   'P 1'
_cell_length_a   8.72425440
_cell_length_b   8.72425441
_cell_length_c   8.72425325
_cell_angle_alpha   33.15682369
_cell_angle_beta   33.15682354
_cell_angle_gamma   33.15681666
_symmetry_Int_Tables_number   1
_chemical_formula_structural   Ce2NdNi9
_chemical_formula_sum   'Ce2 Nd1 Ni9'
_cell_volume   176.81161624
_cell_formula_units_Z   1
loop_
 _symmetry_equiv_pos_site_id
 _symmetry_equiv_pos_as_xyz
  1  'x, y, z'
loop_
 _atom_site_type_symbol
 _atom_site_label
 _atom_site_symmetry_multiplicity
 _atom_site_fract_x
 _atom_site_fract_y
 _atom_site_fract_z
 _atom_site_occupancy
  Ce  Ce0  1  0.861428  0.861428  0.861428  1
  Ce  Ce1  1  0.138572  0.138572  0.138572  1
  Nd  Nd2  1  0.000000  0.000000  0.000000  1
  Ni  Ni3  1  0.416828  0.918755  0.416828  1
  Ni  Ni4  1  0.583172  0.583172  0.081245  1
  Ni  Ni5  1  0.667335  0.667335  0.667335  1
  Ni  Ni6  1  0.918755  0.416828  0.416828  1
  Ni  Ni7  1  0.081245  0.583172  0.583172  1
  Ni  Ni8  1  0.332665  0.332665  0.332665  1
  Ni  Ni9  1  0.500000  0.500000  0.500000  1
  Ni  Ni10  1  0.416828  0.416828  0.918755  1
  Ni  Ni11  1  0.583172  0.081245  0.583172  1
