# generated using pymatgen
data_Th(TaSe2)5
_symmetry_space_group_name_H-M   'P 1'
_cell_length_a   6.10161484
_cell_length_b   8.24853379
_cell_length_c   9.01717200
_cell_angle_alpha   114.91057518
_cell_angle_beta   96.78690810
_cell_angle_gamma   103.95394660
_symmetry_Int_Tables_number   1
_chemical_formula_structural   Th(TaSe2)5
_chemical_formula_sum   'Th1 Ta5 Se10'
_cell_volume   386.81169801
_cell_formula_units_Z   1
loop_
 _symmetry_equiv_pos_site_id
 _symmetry_equiv_pos_as_xyz
  1  'x, y, z'
loop_
 _atom_site_type_symbol
 _atom_site_label
 _atom_site_symmetry_multiplicity
 _atom_site_fract_x
 _atom_site_fract_y
 _atom_site_fract_z
 _atom_site_occupancy
  Th  Th0  1  0.667666  0.510374  0.993328  1
  Ta  Ta1  1  0.003512  0.994302  0.000304  1
  Ta  Ta2  1  0.598869  0.208635  0.203457  1
  Ta  Ta3  1  0.196151  0.399177  0.398102  1
  Ta  Ta4  1  0.796740  0.599442  0.604409  1
  Ta  Ta5  1  0.404157  0.793122  0.797156  1
  Se  Se6  1  0.237548  0.062668  0.293030  1
  Se  Se7  1  0.055668  0.656957  0.892933  1
  Se  Se8  1  0.834652  0.260753  0.490399  1
  Se  Se9  1  0.636623  0.876805  0.105446  1
  Se  Se10  1  0.420457  0.442062  0.677255  1
  Se  Se11  1  0.901182  0.550662  0.317112  1
  Se  Se12  1  0.698874  0.131658  0.904348  1
  Se  Se13  1  0.497218  0.738169  0.508817  1
  Se  Se14  1  0.284792  0.338192  0.105104  1
  Se  Se15  1  0.098689  0.934619  0.710402  1
