# generated using pymatgen
data_Hf4Zr6Sn6As
_symmetry_space_group_name_H-M   'P 1'
_cell_length_a   5.88192000
_cell_length_b   8.58200384
_cell_length_c   8.58204500
_cell_angle_alpha   119.99982433
_cell_angle_beta   90.00039150
_cell_angle_gamma   89.99977087
_symmetry_Int_Tables_number   1
_chemical_formula_structural   Hf4Zr6Sn6As
_chemical_formula_sum   'Hf4 Zr6 Sn6 As1'
_cell_volume   375.17164365
_cell_formula_units_Z   1
loop_
 _symmetry_equiv_pos_site_id
 _symmetry_equiv_pos_as_xyz
  1  'x, y, z'
loop_
 _atom_site_type_symbol
 _atom_site_label
 _atom_site_symmetry_multiplicity
 _atom_site_fract_x
 _atom_site_fract_y
 _atom_site_fract_z
 _atom_site_occupancy
  Hf  Hf0  1  0.500001  0.333334  0.666673  1
  Hf  Hf1  1  0.500001  0.666662  0.333327  1
  Hf  Hf2  1  0.000002  0.666664  0.333328  1
  Hf  Hf3  1  0.999999  0.333334  0.666673  1
  Zr  Zr4  1  0.760518  0.256311  0.000000  1
  Zr  Zr5  1  0.760515  0.743687  0.743682  1
  Zr  Zr6  1  0.760515  0.000004  0.256315  1
  Zr  Zr7  1  0.239480  0.743690  0.000000  1
  Zr  Zr8  1  0.239484  0.256313  0.256316  1
  Zr  Zr9  1  0.239482  0.999998  0.743686  1
  Sn  Sn10  1  0.748062  0.607666  0.999999  1
  Sn  Sn11  1  0.748060  0.392339  0.392341  1
  Sn  Sn12  1  0.748060  0.999999  0.607659  1
  Sn  Sn13  1  0.251941  0.392335  0.000000  1
  Sn  Sn14  1  0.251941  0.607661  0.607660  1
  Sn  Sn15  1  0.251940  0.000003  0.392341  1
  As  As16  1  0.499999  0.000002  0.000000  1
