# generated using pymatgen
data_TmLu3Ga18PtRh5
_symmetry_space_group_name_H-M   'P 1'
_cell_length_a   7.56287131
_cell_length_b   7.56282548
_cell_length_c   9.46529200
_cell_angle_alpha   89.98414960
_cell_angle_beta   89.98414916
_cell_angle_gamma   119.82339549
_symmetry_Int_Tables_number   1
_chemical_formula_structural   TmLu3Ga18PtRh5
_chemical_formula_sum   'Tm1 Lu3 Ga18 Pt1 Rh5'
_cell_volume   469.68369794
_cell_formula_units_Z   1
loop_
 _symmetry_equiv_pos_site_id
 _symmetry_equiv_pos_as_xyz
  1  'x, y, z'
loop_
 _atom_site_type_symbol
 _atom_site_label
 _atom_site_symmetry_multiplicity
 _atom_site_fract_x
 _atom_site_fract_y
 _atom_site_fract_z
 _atom_site_occupancy
  Tm  Tm0  1  0.331634  0.003874  0.749499  1
  Lu  Lu1  1  0.996162  0.668421  0.250528  1
  Lu  Lu2  1  0.003565  0.331353  0.749682  1
  Lu  Lu3  1  0.668646  0.996418  0.250320  1
  Ga  Ga4  1  0.125479  0.124746  0.250274  1
  Ga  Ga5  1  0.875157  0.874483  0.749727  1
  Ga  Ga6  1  0.003040  0.334333  0.081497  1
  Ga  Ga7  1  0.004934  0.669462  0.918665  1
  Ga  Ga8  1  0.001556  0.665518  0.579488  1
  Ga  Ga9  1  0.334355  0.998319  0.420378  1
  Ga  Ga10  1  0.998791  0.334145  0.420095  1
  Ga  Ga11  1  0.665990  0.001209  0.579856  1
  Ga  Ga12  1  0.665798  0.996958  0.918551  1
  Ga  Ga13  1  0.330389  0.994920  0.081465  1
  Ga  Ga14  1  0.331647  0.331830  0.565748  1
  Ga  Ga15  1  0.668279  0.668348  0.434183  1
  Ga  Ga16  1  0.667809  0.671518  0.067994  1
  Ga  Ga17  1  0.328487  0.332305  0.932075  1
  Ga  Ga18  1  0.338965  0.548377  0.250411  1
  Ga  Ga19  1  0.661361  0.454991  0.746730  1
  Ga  Ga20  1  0.545117  0.338683  0.253269  1
  Ga  Ga21  1  0.451656  0.660991  0.749596  1
  Pt  Pt22  1  0.671983  0.328066  0.000018  1
  Rh  Rh23  1  0.328543  0.671434  0.000036  1
  Rh  Rh24  1  0.328371  0.671605  0.499964  1
  Rh  Rh25  1  0.672221  0.327835  0.499952  1
  Rh  Rh26  1  0.999993  0.999977  0.000049  1
  Rh  Rh27  1  0.000073  0.999881  0.499950  1
