# generated using pymatgen
data_SmHo2ThS6
_symmetry_space_group_name_H-M   'P 1'
_cell_length_a   10.71822200
_cell_length_b   3.90015000
_cell_length_c   10.45360500
_cell_angle_alpha   90.00000000
_cell_angle_beta   90.00000000
_cell_angle_gamma   90.00000000
_symmetry_Int_Tables_number   1
_chemical_formula_structural   SmHo2ThS6
_chemical_formula_sum   'Sm2 Ho4 Th2 S12'
_cell_volume   436.98863706
_cell_formula_units_Z   2
loop_
 _symmetry_equiv_pos_site_id
 _symmetry_equiv_pos_as_xyz
  1  'x, y, z'
loop_
 _atom_site_type_symbol
 _atom_site_label
 _atom_site_symmetry_multiplicity
 _atom_site_fract_x
 _atom_site_fract_y
 _atom_site_fract_z
 _atom_site_occupancy
  Sm  Sm0  1  0.696903  0.750000  0.496091  1
  Sm  Sm1  1  0.196903  0.750000  0.003909  1
  Ho  Ho2  1  0.486116  0.250000  0.186476  1
  Ho  Ho3  1  0.986116  0.250000  0.313524  1
  Ho  Ho4  1  0.511777  0.750000  0.812864  1
  Ho  Ho5  1  0.011777  0.750000  0.687136  1
  Th  Th6  1  0.306034  0.250000  0.497499  1
  Th  Th7  1  0.806034  0.250000  0.002501  1
  S  S8  1  0.545606  0.250000  0.629399  1
  S  S9  1  0.045606  0.250000  0.870601  1
  S  S10  1  0.454504  0.750000  0.368851  1
  S  S11  1  0.954504  0.750000  0.131149  1
  S  S12  1  0.615282  0.750000  0.054344  1
  S  S13  1  0.115282  0.750000  0.445656  1
  S  S14  1  0.382960  0.250000  0.944844  1
  S  S15  1  0.882960  0.250000  0.555156  1
  S  S16  1  0.728203  0.250000  0.294579  1
  S  S17  1  0.228203  0.250000  0.205421  1
  S  S18  1  0.272613  0.750000  0.699958  1
  S  S19  1  0.772613  0.750000  0.800042  1
