# generated using pymatgen
data_Tm4MnNi13
_symmetry_space_group_name_H-M   'P 1'
_cell_length_a   4.92677621
_cell_length_b   4.89067255
_cell_length_c   12.36170314
_cell_angle_alpha   78.61180831
_cell_angle_beta   78.50539153
_cell_angle_gamma   59.75549996
_symmetry_Int_Tables_number   1
_chemical_formula_structural   Tm4MnNi13
_chemical_formula_sum   'Tm4 Mn1 Ni13'
_cell_volume   250.49059805
_cell_formula_units_Z   1
loop_
 _symmetry_equiv_pos_site_id
 _symmetry_equiv_pos_as_xyz
  1  'x, y, z'
loop_
 _atom_site_type_symbol
 _atom_site_label
 _atom_site_symmetry_multiplicity
 _atom_site_fract_x
 _atom_site_fract_y
 _atom_site_fract_z
 _atom_site_occupancy
  Tm  Tm0  1  0.947527  0.947948  0.156998  1
  Tm  Tm1  1  0.052473  0.052052  0.843002  1
  Tm  Tm2  1  0.852095  0.852917  0.442894  1
  Tm  Tm3  1  0.147905  0.147083  0.557106  1
  Mn  Mn4  1  0.500000  0.000000  0.000000  1
  Ni  Ni5  1  0.500000  0.500000  0.500000  1
  Ni  Ni6  1  0.722092  0.722599  0.833218  1
  Ni  Ni7  1  0.277908  0.277401  0.166782  1
  Ni  Ni8  1  0.610752  0.612118  0.166378  1
  Ni  Ni9  1  0.389248  0.387882  0.833622  1
  Ni  Ni10  1  0.000000  0.500000  0.000000  1
  Ni  Ni11  1  0.500000  0.500000  0.000000  1
  Ni  Ni12  1  0.388987  0.389141  0.331287  1
  Ni  Ni13  1  0.890584  0.389141  0.331287  1
  Ni  Ni14  1  0.388389  0.891618  0.331603  1
  Ni  Ni15  1  0.611013  0.610859  0.668713  1
  Ni  Ni16  1  0.109416  0.610859  0.668713  1
  Ni  Ni17  1  0.611611  0.108382  0.668397  1
