# generated using pymatgen
data_Gd3Zn2GaNi3
_symmetry_space_group_name_H-M   'P 1'
_cell_length_a   7.03593200
_cell_length_b   6.97526999
_cell_length_c   3.88284900
_cell_angle_alpha   90.00000000
_cell_angle_beta   90.00000000
_cell_angle_gamma   119.71518829
_symmetry_Int_Tables_number   1
_chemical_formula_structural   Gd3Zn2GaNi3
_chemical_formula_sum   'Gd3 Zn2 Ga1 Ni3'
_cell_volume   165.50192630
_cell_formula_units_Z   1
loop_
 _symmetry_equiv_pos_site_id
 _symmetry_equiv_pos_as_xyz
  1  'x, y, z'
loop_
 _atom_site_type_symbol
 _atom_site_label
 _atom_site_symmetry_multiplicity
 _atom_site_fract_x
 _atom_site_fract_y
 _atom_site_fract_z
 _atom_site_occupancy
  Gd  Gd0  1  0.000000  0.586876  0.000000  1
  Gd  Gd1  1  0.586685  0.998815  0.000000  1
  Gd  Gd2  1  0.413315  0.412130  0.000000  1
  Zn  Zn3  1  0.238617  0.000117  0.500000  1
  Zn  Zn4  1  0.761383  0.761500  0.500000  1
  Ga  Ga5  1  0.000000  0.237962  0.500000  1
  Ni  Ni6  1  0.672223  0.331740  0.500000  1
  Ni  Ni7  1  0.000000  0.011342  0.000000  1
  Ni  Ni8  1  0.327777  0.659518  0.500000  1
