# generated using pymatgen
data_Er3Sc2(In2Ir)2
_symmetry_space_group_name_H-M   'P 1'
_cell_length_a   3.52661700
_cell_length_b   7.87702200
_cell_length_c   17.90940300
_cell_angle_alpha   90.00000000
_cell_angle_beta   90.00000000
_cell_angle_gamma   90.00000000
_symmetry_Int_Tables_number   1
_chemical_formula_structural   Er3Sc2(In2Ir)2
_chemical_formula_sum   'Er6 Sc4 In8 Ir4'
_cell_volume   497.50959872
_cell_formula_units_Z   2
loop_
 _symmetry_equiv_pos_site_id
 _symmetry_equiv_pos_as_xyz
  1  'x, y, z'
loop_
 _atom_site_type_symbol
 _atom_site_label
 _atom_site_symmetry_multiplicity
 _atom_site_fract_x
 _atom_site_fract_y
 _atom_site_fract_z
 _atom_site_occupancy
  Er  Er0  1  0.000000  0.000000  0.000000  1
  Er  Er1  1  0.000000  0.500000  0.500000  1
  Er  Er2  1  0.000000  0.748440  0.781867  1
  Er  Er3  1  0.000000  0.251560  0.218133  1
  Er  Er4  1  0.000000  0.248440  0.718133  1
  Er  Er5  1  0.000000  0.751560  0.281867  1
  Sc  Sc6  1  0.000000  0.877485  0.588637  1
  Sc  Sc7  1  0.000000  0.122515  0.411363  1
  Sc  Sc8  1  0.000000  0.377485  0.911363  1
  Sc  Sc9  1  0.000000  0.622515  0.088637  1
  In  In10  1  0.500000  0.808490  0.438289  1
  In  In11  1  0.500000  0.191510  0.561711  1
  In  In12  1  0.500000  0.308490  0.061711  1
  In  In13  1  0.500000  0.691510  0.938289  1
  In  In14  1  0.500000  0.925810  0.149326  1
  In  In15  1  0.500000  0.074190  0.850674  1
  In  In16  1  0.500000  0.425810  0.350674  1
  In  In17  1  0.500000  0.574190  0.649326  1
  Ir  Ir18  1  0.500000  0.963148  0.692923  1
  Ir  Ir19  1  0.500000  0.036852  0.307077  1
  Ir  Ir20  1  0.500000  0.463148  0.807077  1
  Ir  Ir21  1  0.500000  0.536852  0.192923  1
