# generated using pymatgen
data_Pr2FeB10
_symmetry_space_group_name_H-M   'P 1'
_cell_length_a   4.21237700
_cell_length_b   5.67220900
_cell_length_c   11.28983700
_cell_angle_alpha   90.00000000
_cell_angle_beta   90.00000000
_cell_angle_gamma   90.00000000
_symmetry_Int_Tables_number   1
_chemical_formula_structural   Pr2FeB10
_chemical_formula_sum   'Pr4 Fe2 B20'
_cell_volume   269.75352539
_cell_formula_units_Z   2
loop_
 _symmetry_equiv_pos_site_id
 _symmetry_equiv_pos_as_xyz
  1  'x, y, z'
loop_
 _atom_site_type_symbol
 _atom_site_label
 _atom_site_symmetry_multiplicity
 _atom_site_fract_x
 _atom_site_fract_y
 _atom_site_fract_z
 _atom_site_occupancy
  Pr  Pr0  1  0.500000  0.207629  0.367928  1
  Pr  Pr1  1  0.500000  0.792371  0.632072  1
  Pr  Pr2  1  0.500000  0.292371  0.867928  1
  Pr  Pr3  1  0.500000  0.707629  0.132072  1
  Fe  Fe4  1  0.000000  0.000000  0.000000  1
  Fe  Fe5  1  0.000000  0.500000  0.500000  1
  B  B6  1  0.000000  0.371250  0.040108  1
  B  B7  1  0.000000  0.628750  0.959892  1
  B  B8  1  0.000000  0.128750  0.540108  1
  B  B9  1  0.000000  0.871250  0.459892  1
  B  B10  1  0.000000  0.345035  0.197421  1
  B  B11  1  0.000000  0.654965  0.802579  1
  B  B12  1  0.000000  0.154965  0.697421  1
  B  B13  1  0.000000  0.845035  0.302579  1
  B  B14  1  0.000000  0.035509  0.186253  1
  B  B15  1  0.000000  0.964491  0.813747  1
  B  B16  1  0.000000  0.464491  0.686253  1
  B  B17  1  0.000000  0.535509  0.313747  1
  B  B18  1  0.297876  0.202675  0.112790  1
  B  B19  1  0.702124  0.797325  0.887210  1
  B  B20  1  0.297876  0.797325  0.887210  1
  B  B21  1  0.702124  0.297325  0.612790  1
  B  B22  1  0.702124  0.202675  0.112790  1
  B  B23  1  0.297876  0.702675  0.387210  1
  B  B24  1  0.702124  0.702675  0.387210  1
  B  B25  1  0.297876  0.297325  0.612790  1
