# generated using pymatgen
data_HfZr6(Mn3Co8)2
_symmetry_space_group_name_H-M   'P 1'
_cell_length_a   8.24206427
_cell_length_b   8.24271179
_cell_length_c   8.24057414
_cell_angle_alpha   59.98846182
_cell_angle_beta   59.99265739
_cell_angle_gamma   59.99233774
_symmetry_Int_Tables_number   1
_chemical_formula_structural   HfZr6(Mn3Co8)2
_chemical_formula_sum   'Hf1 Zr6 Mn6 Co16'
_cell_volume   395.78693200
_cell_formula_units_Z   1
loop_
 _symmetry_equiv_pos_site_id
 _symmetry_equiv_pos_as_xyz
  1  'x, y, z'
loop_
 _atom_site_type_symbol
 _atom_site_label
 _atom_site_symmetry_multiplicity
 _atom_site_fract_x
 _atom_site_fract_y
 _atom_site_fract_z
 _atom_site_occupancy
  Hf  Hf0  1  0.000000  0.000000  0.000000  1
  Zr  Zr1  1  0.708979  0.290952  0.290985  1
  Zr  Zr2  1  0.291002  0.290932  0.708999  1
  Zr  Zr3  1  0.291021  0.709048  0.709015  1
  Zr  Zr4  1  0.708998  0.709068  0.291001  1
  Zr  Zr5  1  0.290986  0.709015  0.290948  1
  Zr  Zr6  1  0.709014  0.290985  0.709052  1
  Mn  Mn7  1  0.000000  0.500000  0.000000  1
  Mn  Mn8  1  0.000000  0.000000  0.500000  1
  Mn  Mn9  1  0.500000  0.500000  0.000000  1
  Mn  Mn10  1  0.500000  0.000000  0.500000  1
  Mn  Mn11  1  0.500000  0.000000  0.000000  1
  Mn  Mn12  1  0.000000  0.500000  0.500000  1
  Co  Co13  1  0.125311  0.125275  0.624173  1
  Co  Co14  1  0.674036  0.977755  0.674058  1
  Co  Co15  1  0.375911  0.874691  0.874688  1
  Co  Co16  1  0.022282  0.325932  0.325919  1
  Co  Co17  1  0.977718  0.674068  0.674081  1
  Co  Co18  1  0.325941  0.325931  0.022247  1
  Co  Co19  1  0.674059  0.674069  0.977753  1
  Co  Co20  1  0.624089  0.125309  0.125312  1
  Co  Co21  1  0.674073  0.674121  0.674079  1
  Co  Co22  1  0.874689  0.874725  0.375827  1
  Co  Co23  1  0.125347  0.125307  0.125297  1
  Co  Co24  1  0.874685  0.375853  0.874720  1
  Co  Co25  1  0.874653  0.874693  0.874703  1
  Co  Co26  1  0.325927  0.325879  0.325921  1
  Co  Co27  1  0.125315  0.624147  0.125280  1
  Co  Co28  1  0.325964  0.022245  0.325942  1
