# generated using pymatgen
data_Ac2CoSi8Ni17
_symmetry_space_group_name_H-M   'P 1'
_cell_length_a   8.00485453
_cell_length_b   8.00485507
_cell_length_c   8.02534577
_cell_angle_alpha   120.83013020
_cell_angle_beta   120.83013787
_cell_angle_gamma   88.41769801
_symmetry_Int_Tables_number   1
_chemical_formula_structural   Ac2CoSi8Ni17
_chemical_formula_sum   'Ac2 Co1 Si8 Ni17'
_cell_volume   359.39898555
_cell_formula_units_Z   1
loop_
 _symmetry_equiv_pos_site_id
 _symmetry_equiv_pos_as_xyz
  1  'x, y, z'
loop_
 _atom_site_type_symbol
 _atom_site_label
 _atom_site_symmetry_multiplicity
 _atom_site_fract_x
 _atom_site_fract_y
 _atom_site_fract_z
 _atom_site_occupancy
  Ac  Ac0  1  0.750000  0.750000  0.000000  1
  Ac  Ac1  1  0.250000  0.250000  0.000000  1
  Co  Co2  1  0.500000  0.000000  0.500000  1
  Si  Si3  1  0.285401  0.785401  0.838845  1
  Si  Si4  1  0.053444  0.553444  0.838845  1
  Si  Si5  1  0.553933  0.715120  0.500000  1
  Si  Si6  1  0.784880  0.946067  0.500000  1
  Si  Si7  1  0.446067  0.284880  0.500000  1
  Si  Si8  1  0.946556  0.446556  0.161155  1
  Si  Si9  1  0.714599  0.214599  0.161155  1
  Si  Si10  1  0.215120  0.053933  0.500000  1
  Ni  Ni11  1  0.682776  0.446080  0.500000  1
  Ni  Ni12  1  0.445559  0.945559  0.760629  1
  Ni  Ni13  1  0.184930  0.684930  0.239371  1
  Ni  Ni14  1  0.554441  0.054441  0.239371  1
  Ni  Ni15  1  0.946080  0.182776  0.500000  1
  Ni  Ni16  1  0.204818  0.929823  0.134641  1
  Ni  Ni17  1  0.795182  0.070177  0.865359  1
  Ni  Ni18  1  0.429823  0.704818  0.134641  1
  Ni  Ni19  1  0.570177  0.295182  0.865359  1
  Ni  Ni20  1  0.704672  0.569345  0.274017  1
  Ni  Ni21  1  0.295328  0.430655  0.725983  1
  Ni  Ni22  1  0.930655  0.795328  0.725983  1
  Ni  Ni23  1  0.317224  0.553920  0.500000  1
  Ni  Ni24  1  0.815070  0.315070  0.760629  1
  Ni  Ni25  1  0.000000  0.500000  0.500000  1
  Ni  Ni26  1  0.069345  0.204672  0.274017  1
  Ni  Ni27  1  0.053920  0.817224  0.500000  1
