# generated using pymatgen
data_Tm2LuHf(Co5P3)4
_symmetry_space_group_name_H-M   'P 1'
_cell_length_a   3.61758400
_cell_length_b   10.19873953
_cell_length_c   11.65778327
_cell_angle_alpha   89.95640356
_cell_angle_beta   90.00000000
_cell_angle_gamma   90.00000000
_symmetry_Int_Tables_number   1
_chemical_formula_structural   Tm2LuHf(Co5P3)4
_chemical_formula_sum   'Tm2 Lu1 Hf1 Co20 P12'
_cell_volume   430.11142178
_cell_formula_units_Z   1
loop_
 _symmetry_equiv_pos_site_id
 _symmetry_equiv_pos_as_xyz
  1  'x, y, z'
loop_
 _atom_site_type_symbol
 _atom_site_label
 _atom_site_symmetry_multiplicity
 _atom_site_fract_x
 _atom_site_fract_y
 _atom_site_fract_z
 _atom_site_occupancy
  Tm  Tm0  1  0.750000  0.417676  0.297053  1
  Tm  Tm1  1  0.750000  0.082524  0.796947  1
  Lu  Lu2  1  0.250000  0.917466  0.202725  1
  Hf  Hf3  1  0.250000  0.581437  0.701207  1
  Co  Co4  1  0.250000  0.718344  0.993356  1
  Co  Co5  1  0.250000  0.780967  0.493401  1
  Co  Co6  1  0.750000  0.282439  0.006353  1
  Co  Co7  1  0.750000  0.218402  0.509034  1
  Co  Co8  1  0.250000  0.409821  0.489452  1
  Co  Co9  1  0.250000  0.092508  0.987644  1
  Co  Co10  1  0.750000  0.593021  0.517246  1
  Co  Co11  1  0.750000  0.907281  0.013078  1
  Co  Co12  1  0.250000  0.222119  0.177053  1
  Co  Co13  1  0.250000  0.278758  0.677543  1
  Co  Co14  1  0.750000  0.775493  0.822133  1
  Co  Co15  1  0.750000  0.721045  0.323708  1
  Co  Co16  1  0.250000  0.880560  0.699799  1
  Co  Co17  1  0.250000  0.617017  0.198806  1
  Co  Co18  1  0.750000  0.116842  0.301017  1
  Co  Co19  1  0.750000  0.386740  0.798324  1
  Co  Co20  1  0.250000  0.469713  0.927860  1
  Co  Co21  1  0.250000  0.031747  0.431428  1
  Co  Co22  1  0.750000  0.533071  0.066476  1
  Co  Co23  1  0.750000  0.965519  0.568985  1
  P  P24  1  0.250000  0.418822  0.111100  1
  P  P25  1  0.250000  0.080777  0.612996  1
  P  P26  1  0.750000  0.581479  0.883842  1
  P  P27  1  0.750000  0.918250  0.386820  1
  P  P28  1  0.250000  0.269293  0.870407  1
  P  P29  1  0.250000  0.231287  0.371122  1
  P  P30  1  0.750000  0.731154  0.130213  1
  P  P31  1  0.750000  0.766476  0.631844  1
  P  P32  1  0.250000  0.600702  0.390243  1
  P  P33  1  0.250000  0.899221  0.890881  1
  P  P34  1  0.750000  0.401149  0.610221  1
  P  P35  1  0.750000  0.100878  0.109684  1
