# generated using pymatgen
data_Nd12Ga(GeBr4)3
_symmetry_space_group_name_H-M   'P 1'
_cell_length_a   10.48003734
_cell_length_b   10.46788636
_cell_length_c   10.48003788
_cell_angle_alpha   109.44773330
_cell_angle_beta   109.49469933
_cell_angle_gamma   109.44774150
_symmetry_Int_Tables_number   1
_chemical_formula_structural   Nd12Ga(GeBr4)3
_chemical_formula_sum   'Nd12 Ga1 Ge3 Br12'
_cell_volume   885.29608404
_cell_formula_units_Z   1
loop_
 _symmetry_equiv_pos_site_id
 _symmetry_equiv_pos_as_xyz
  1  'x, y, z'
loop_
 _atom_site_type_symbol
 _atom_site_label
 _atom_site_symmetry_multiplicity
 _atom_site_fract_x
 _atom_site_fract_y
 _atom_site_fract_z
 _atom_site_occupancy
  Nd  Nd0  1  0.260607  0.010607  0.021214  1
  Nd  Nd1  1  0.021660  0.260830  0.010830  1
  Nd  Nd2  1  0.489170  0.750000  0.010830  1
  Nd  Nd3  1  0.749378  0.239425  0.259827  1
  Nd  Nd4  1  0.010448  0.020403  0.259827  1
  Nd  Nd5  1  0.010448  0.490047  0.750622  1
  Nd  Nd6  1  0.240173  0.260575  0.750622  1
  Nd  Nd7  1  0.260607  0.750000  0.239393  1
  Nd  Nd8  1  0.240173  0.479597  0.489552  1
  Nd  Nd9  1  0.478786  0.489393  0.239393  1
  Nd  Nd10  1  0.749378  0.009953  0.489552  1
  Nd  Nd11  1  0.489170  0.239170  0.478340  1
  Ga  Ga12  1  0.000000  0.250000  0.500000  1
  Ge  Ge13  1  0.249979  0.499979  0.999958  1
  Ge  Ge14  1  0.500042  0.000021  0.250021  1
  Ge  Ge15  1  0.249979  0.250000  0.250021  1
  Br  Br16  1  0.753540  0.746268  0.249845  1
  Br  Br17  1  0.503605  0.250000  0.996395  1
  Br  Br18  1  0.250155  0.996423  0.503695  1
  Br  Br19  1  0.507572  0.503787  0.753787  1
  Br  Br20  1  0.996305  0.992729  0.746460  1
  Br  Br21  1  0.746213  0.996213  0.992428  1
  Br  Br22  1  0.503605  0.753605  0.507210  1
  Br  Br23  1  0.753540  0.507271  0.503695  1
  Br  Br24  1  0.996305  0.503577  0.249845  1
  Br  Br25  1  0.992790  0.746395  0.996395  1
  Br  Br26  1  0.250155  0.753732  0.746460  1
  Br  Br27  1  0.746213  0.250000  0.753787  1
