# generated using pymatgen
data_DyYFe3Os
_symmetry_space_group_name_H-M   'P 1'
_cell_length_a   5.19099428
_cell_length_b   5.19099415
_cell_length_c   5.21721586
_cell_angle_alpha   60.16611459
_cell_angle_beta   60.16612012
_cell_angle_gamma   60.00000037
_symmetry_Int_Tables_number   1
_chemical_formula_structural   DyYFe3Os
_chemical_formula_sum   'Dy1 Y1 Fe3 Os1'
_cell_volume   99.65768680
_cell_formula_units_Z   1
loop_
 _symmetry_equiv_pos_site_id
 _symmetry_equiv_pos_as_xyz
  1  'x, y, z'
loop_
 _atom_site_type_symbol
 _atom_site_label
 _atom_site_symmetry_multiplicity
 _atom_site_fract_x
 _atom_site_fract_y
 _atom_site_fract_z
 _atom_site_occupancy
  Dy  Dy0  1  0.250353  0.250353  0.248940  1
  Y  Y1  1  0.999706  0.999706  0.000883  1
  Fe  Fe2  1  0.624912  0.125217  0.624958  1
  Fe  Fe3  1  0.125217  0.624912  0.624958  1
  Fe  Fe4  1  0.624912  0.624912  0.624958  1
  Os  Os5  1  0.624899  0.624899  0.125302  1
