# generated using pymatgen
data_Ba4OsW3O16
_symmetry_space_group_name_H-M   'P 1'
_cell_length_a   5.17600517
_cell_length_b   5.98590986
_cell_length_c   13.58755000
_cell_angle_alpha   90.00000000
_cell_angle_beta   90.00000000
_cell_angle_gamma   89.95742052
_symmetry_Int_Tables_number   1
_chemical_formula_structural   Ba4OsW3O16
_chemical_formula_sum   'Ba4 Os1 W3 O16'
_cell_volume   420.98430988
_cell_formula_units_Z   1
loop_
 _symmetry_equiv_pos_site_id
 _symmetry_equiv_pos_as_xyz
  1  'x, y, z'
loop_
 _atom_site_type_symbol
 _atom_site_label
 _atom_site_symmetry_multiplicity
 _atom_site_fract_x
 _atom_site_fract_y
 _atom_site_fract_z
 _atom_site_occupancy
  Ba  Ba0  1  0.250000  0.000000  0.154246  1
  Ba  Ba1  1  0.750000  0.000000  0.845173  1
  Ba  Ba2  1  0.250000  0.500000  0.654971  1
  Ba  Ba3  1  0.750000  0.500000  0.345459  1
  Os  Os4  1  0.250000  0.500000  0.928169  1
  W  W5  1  0.250000  0.000000  0.426713  1
  W  W6  1  0.750000  0.000000  0.572901  1
  W  W7  1  0.750000  0.500000  0.074070  1
  O  O8  1  0.361548  0.203272  0.334594  1
  O  O9  1  0.862747  0.202116  0.665437  1
  O  O10  1  0.943194  0.177314  0.459015  1
  O  O11  1  0.443602  0.177392  0.540575  1
  O  O12  1  0.451040  0.318534  0.038302  1
  O  O13  1  0.956385  0.320499  0.962395  1
  O  O14  1  0.860979  0.296275  0.166179  1
  O  O15  1  0.365561  0.303800  0.832651  1
  O  O16  1  0.639021  0.703725  0.166179  1
  O  O17  1  0.134439  0.696200  0.832651  1
  O  O18  1  0.048960  0.681466  0.038302  1
  O  O19  1  0.543615  0.679501  0.962395  1
  O  O20  1  0.556806  0.822686  0.459015  1
  O  O21  1  0.056398  0.822608  0.540575  1
  O  O22  1  0.138452  0.796728  0.334594  1
  O  O23  1  0.637253  0.797884  0.665437  1
