# generated using pymatgen
data_Li2Co3B2
_symmetry_space_group_name_H-M   'P 1'
_cell_length_a   2.64691200
_cell_length_b   5.45028000
_cell_length_c   8.85710200
_cell_angle_alpha   90.00000000
_cell_angle_beta   90.00000000
_cell_angle_gamma   90.00000000
_symmetry_Int_Tables_number   1
_chemical_formula_structural   Li2Co3B2
_chemical_formula_sum   'Li4 Co6 B4'
_cell_volume   127.77619846
_cell_formula_units_Z   2
loop_
 _symmetry_equiv_pos_site_id
 _symmetry_equiv_pos_as_xyz
  1  'x, y, z'
loop_
 _atom_site_type_symbol
 _atom_site_label
 _atom_site_symmetry_multiplicity
 _atom_site_fract_x
 _atom_site_fract_y
 _atom_site_fract_z
 _atom_site_occupancy
  Li  Li0  1  0.500000  0.340736  0.071940  1
  Li  Li1  1  0.500000  0.659264  0.928060  1
  Li  Li2  1  0.500000  0.159264  0.571940  1
  Li  Li3  1  0.500000  0.840736  0.428060  1
  Co  Co4  1  0.000000  0.331954  0.776929  1
  Co  Co5  1  0.000000  0.168046  0.276929  1
  Co  Co6  1  0.000000  0.500000  0.500000  1
  Co  Co7  1  0.000000  0.668046  0.223071  1
  Co  Co8  1  0.000000  0.831954  0.723071  1
  Co  Co9  1  0.000000  0.000000  0.000000  1
  B  B10  1  0.500000  0.063283  0.831204  1
  B  B11  1  0.500000  0.563283  0.668796  1
  B  B12  1  0.500000  0.436717  0.331204  1
  B  B13  1  0.500000  0.936717  0.168796  1
