# generated using pymatgen
data_Ho12AlFe4Bi
_symmetry_space_group_name_H-M   'P 1'
_cell_length_a   8.34705077
_cell_length_b   8.34705097
_cell_length_c   8.34705077
_cell_angle_alpha   111.83907045
_cell_angle_beta   109.51228849
_cell_angle_gamma   107.09698459
_symmetry_Int_Tables_number   1
_chemical_formula_structural   Ho12AlFe4Bi
_chemical_formula_sum   'Ho12 Al1 Fe4 Bi1'
_cell_volume   446.92359026
_cell_formula_units_Z   1
loop_
 _symmetry_equiv_pos_site_id
 _symmetry_equiv_pos_as_xyz
  1  'x, y, z'
loop_
 _atom_site_type_symbol
 _atom_site_label
 _atom_site_symmetry_multiplicity
 _atom_site_fract_x
 _atom_site_fract_y
 _atom_site_fract_z
 _atom_site_occupancy
  Ho  Ho0  1  0.970637  0.266139  0.704498  1
  Ho  Ho1  1  0.029363  0.733861  0.295502  1
  Ho  Ho2  1  0.673250  0.856382  0.183131  1
  Ho  Ho3  1  0.326750  0.509882  0.183131  1
  Ho  Ho4  1  0.326750  0.143618  0.816869  1
  Ho  Ho5  1  0.673250  0.490118  0.816869  1
  Ho  Ho6  1  0.561641  0.266139  0.295502  1
  Ho  Ho7  1  0.438359  0.733861  0.704498  1
  Ho  Ho8  1  0.179825  0.775924  0.955749  1
  Ho  Ho9  1  0.820175  0.775924  0.596099  1
  Ho  Ho10  1  0.179825  0.224076  0.403901  1
  Ho  Ho11  1  0.820175  0.224076  0.044251  1
  Al  Al12  1  0.000000  0.500000  0.500000  1
  Fe  Fe13  1  0.108197  0.108197  0.000000  1
  Fe  Fe14  1  0.891803  0.891803  0.000000  1
  Fe  Fe15  1  0.672618  0.500000  0.172618  1
  Fe  Fe16  1  0.327382  0.500000  0.827382  1
  Bi  Bi17  1  0.500000  0.000000  0.500000  1
