# generated using pymatgen
data_Th3ScAl2Ru3
_symmetry_space_group_name_H-M   'P 1'
_cell_length_a   7.28538700
_cell_length_b   7.37312719
_cell_length_c   4.11016300
_cell_angle_alpha   90.00000000
_cell_angle_beta   90.00000000
_cell_angle_gamma   119.60712139
_symmetry_Int_Tables_number   1
_chemical_formula_structural   Th3ScAl2Ru3
_chemical_formula_sum   'Th3 Sc1 Al2 Ru3'
_cell_volume   191.95515624
_cell_formula_units_Z   1
loop_
 _symmetry_equiv_pos_site_id
 _symmetry_equiv_pos_as_xyz
  1  'x, y, z'
loop_
 _atom_site_type_symbol
 _atom_site_label
 _atom_site_symmetry_multiplicity
 _atom_site_fract_x
 _atom_site_fract_y
 _atom_site_fract_z
 _atom_site_occupancy
  Th  Th0  1  0.401655  0.000000  0.500000  1
  Th  Th1  1  0.012337  0.437442  0.500000  1
  Th  Th2  1  0.574895  0.562558  0.500000  1
  Sc  Sc3  1  0.771686  0.000000  0.000000  1
  Al  Al4  1  0.998067  0.763062  0.000000  1
  Al  Al5  1  0.235005  0.236938  0.000000  1
  Ru  Ru6  1  0.326569  0.662714  0.000000  1
  Ru  Ru7  1  0.663856  0.337286  0.000000  1
  Ru  Ru8  1  0.015931  0.000000  0.500000  1
