# generated using pymatgen
data_Pr4Nd6IrOs3
_symmetry_space_group_name_H-M   'P 1'
_cell_length_a   8.90388112
_cell_length_b   8.88596665
_cell_length_c   7.46011612
_cell_angle_alpha   83.52439463
_cell_angle_beta   83.51866971
_cell_angle_gamma   44.12519899
_symmetry_Int_Tables_number   1
_chemical_formula_structural   Pr4Nd6IrOs3
_chemical_formula_sum   'Pr4 Nd6 Ir1 Os3'
_cell_volume   407.88605398
_cell_formula_units_Z   1
loop_
 _symmetry_equiv_pos_site_id
 _symmetry_equiv_pos_as_xyz
  1  'x, y, z'
loop_
 _atom_site_type_symbol
 _atom_site_label
 _atom_site_symmetry_multiplicity
 _atom_site_fract_x
 _atom_site_fract_y
 _atom_site_fract_z
 _atom_site_occupancy
  Pr  Pr0  1  0.022571  0.795029  0.914085  1
  Pr  Pr1  1  0.203679  0.980318  0.584855  1
  Pr  Pr2  1  0.981767  0.204463  0.084286  1
  Pr  Pr3  1  0.797985  0.019304  0.416419  1
  Nd  Nd4  1  0.354418  0.209508  0.817087  1
  Nd  Nd5  1  0.789368  0.645721  0.683234  1
  Nd  Nd6  1  0.644928  0.787134  0.183017  1
  Nd  Nd7  1  0.207084  0.357429  0.318945  1
  Nd  Nd8  1  0.571526  0.430242  0.747520  1
  Nd  Nd9  1  0.429597  0.570823  0.250130  1
  Ir  Ir10  1  0.597052  0.178562  0.074362  1
  Os  Os11  1  0.178821  0.599774  0.573758  1
  Os  Os12  1  0.399353  0.822038  0.927006  1
  Os  Os13  1  0.821850  0.399656  0.425295  1
