# generated using pymatgen
data_VInRh3Se8
_symmetry_space_group_name_H-M   'P 1'
_cell_length_a   7.21854723
_cell_length_b   7.21852188
_cell_length_c   7.22061234
_cell_angle_alpha   63.84303857
_cell_angle_beta   63.85612621
_cell_angle_gamma   63.85967941
_symmetry_Int_Tables_number   1
_chemical_formula_structural   VInRh3Se8
_chemical_formula_sum   'V1 In1 Rh3 Se8'
_cell_volume   288.64916608
_cell_formula_units_Z   1
loop_
 _symmetry_equiv_pos_site_id
 _symmetry_equiv_pos_as_xyz
  1  'x, y, z'
loop_
 _atom_site_type_symbol
 _atom_site_label
 _atom_site_symmetry_multiplicity
 _atom_site_fract_x
 _atom_site_fract_y
 _atom_site_fract_z
 _atom_site_occupancy
  V  V0  1  0.534852  0.534952  0.535064  1
  In  In1  1  0.105133  0.104952  0.105080  1
  Rh  Rh2  1  0.500333  0.500339  0.982684  1
  Rh  Rh3  1  0.982708  0.500301  0.500319  1
  Rh  Rh4  1  0.500342  0.982780  0.500271  1
  Se  Se5  1  0.738667  0.738545  0.738409  1
  Se  Se6  1  0.276673  0.276568  0.688049  1
  Se  Se7  1  0.276713  0.688015  0.276577  1
  Se  Se8  1  0.688132  0.276668  0.276574  1
  Se  Se9  1  0.753075  0.256886  0.753259  1
  Se  Se10  1  0.256808  0.753199  0.753152  1
  Se  Se11  1  0.258513  0.258595  0.258586  1
  Se  Se12  1  0.753066  0.753193  0.256958  1
