# generated using pymatgen
data_Mo2Ir5Ru
_symmetry_space_group_name_H-M   'P 1'
_cell_length_a   5.51938800
_cell_length_b   5.53758690
_cell_length_c   4.41716400
_cell_angle_alpha   90.00000000
_cell_angle_beta   90.00000000
_cell_angle_gamma   119.89134515
_symmetry_Int_Tables_number   1
_chemical_formula_structural   Mo2Ir5Ru
_chemical_formula_sum   'Mo2 Ir5 Ru1'
_cell_volume   117.04694806
_cell_formula_units_Z   1
loop_
 _symmetry_equiv_pos_site_id
 _symmetry_equiv_pos_as_xyz
  1  'x, y, z'
loop_
 _atom_site_type_symbol
 _atom_site_label
 _atom_site_symmetry_multiplicity
 _atom_site_fract_x
 _atom_site_fract_y
 _atom_site_fract_z
 _atom_site_occupancy
  Mo  Mo0  1  0.666673  0.333345  0.250000  1
  Mo  Mo1  1  0.332568  0.665137  0.750000  1
  Ir  Ir2  1  0.834808  0.167004  0.750000  1
  Ir  Ir3  1  0.332197  0.167004  0.750000  1
  Ir  Ir4  1  0.833513  0.667025  0.750000  1
  Ir  Ir5  1  0.166386  0.833874  0.250000  1
  Ir  Ir6  1  0.667487  0.833874  0.250000  1
  Ru  Ru7  1  0.166368  0.332737  0.250000  1
