# generated using pymatgen
data_Ca3Pr17Ga11Sn
_symmetry_space_group_name_H-M   'P 1'
_cell_length_a   7.98474900
_cell_length_b   7.98474900
_cell_length_c   14.63167300
_cell_angle_alpha   90.00000000
_cell_angle_beta   90.00000000
_cell_angle_gamma   90.00000000
_symmetry_Int_Tables_number   1
_chemical_formula_structural   Ca3Pr17Ga11Sn
_chemical_formula_sum   'Ca3 Pr17 Ga11 Sn1'
_cell_volume   932.86011291
_cell_formula_units_Z   1
loop_
 _symmetry_equiv_pos_site_id
 _symmetry_equiv_pos_as_xyz
  1  'x, y, z'
loop_
 _atom_site_type_symbol
 _atom_site_label
 _atom_site_symmetry_multiplicity
 _atom_site_fract_x
 _atom_site_fract_y
 _atom_site_fract_z
 _atom_site_occupancy
  Ca  Ca0  1  0.000000  0.500000  0.738872  1
  Ca  Ca1  1  0.000000  0.500000  0.243818  1
  Ca  Ca2  1  0.500000  0.000000  0.249122  1
  Pr  Pr3  1  0.816021  0.836997  0.605117  1
  Pr  Pr4  1  0.174975  0.830843  0.100431  1
  Pr  Pr5  1  0.171520  0.829326  0.394663  1
  Pr  Pr6  1  0.828480  0.170674  0.394663  1
  Pr  Pr7  1  0.670674  0.671520  0.394663  1
  Pr  Pr8  1  0.663003  0.316021  0.605117  1
  Pr  Pr9  1  0.336997  0.683979  0.605117  1
  Pr  Pr10  1  0.669157  0.674975  0.100431  1
  Pr  Pr11  1  0.678206  0.339318  0.898133  1
  Pr  Pr12  1  0.839318  0.821794  0.898133  1
  Pr  Pr13  1  0.329326  0.328480  0.394663  1
  Pr  Pr14  1  0.183979  0.163003  0.605117  1
  Pr  Pr15  1  0.825025  0.169157  0.100431  1
  Pr  Pr16  1  0.321794  0.660682  0.898133  1
  Pr  Pr17  1  0.330843  0.325025  0.100431  1
  Pr  Pr18  1  0.160682  0.178206  0.898133  1
  Pr  Pr19  1  0.500000  0.000000  0.787717  1
  Ga  Ga20  1  0.618568  0.382754  0.248294  1
  Ga  Ga21  1  0.119343  0.881904  0.748951  1
  Ga  Ga22  1  0.381904  0.380657  0.748951  1
  Ga  Ga23  1  0.381432  0.617246  0.248294  1
  Ga  Ga24  1  0.882754  0.881432  0.248294  1
  Ga  Ga25  1  0.618096  0.619343  0.748951  1
  Ga  Ga26  1  0.880657  0.118096  0.748951  1
  Ga  Ga27  1  0.500000  0.000000  0.490217  1
  Ga  Ga28  1  0.500000  0.000000  0.002117  1
  Ga  Ga29  1  0.117246  0.118568  0.248294  1
  Ga  Ga30  1  0.000000  0.500000  0.003335  1
  Sn  Sn31  1  0.000000  0.500000  0.502454  1
