# generated using pymatgen
data_Pr3Mg2CdAgSn2
_symmetry_space_group_name_H-M   'P 1'
_cell_length_a   7.70166987
_cell_length_b   7.70167077
_cell_length_c   4.66413500
_cell_angle_alpha   90.00000000
_cell_angle_beta   90.00000000
_cell_angle_gamma   119.69730951
_symmetry_Int_Tables_number   1
_chemical_formula_structural   Pr3Mg2CdAgSn2
_chemical_formula_sum   'Pr3 Mg2 Cd1 Ag1 Sn2'
_cell_volume   240.31903642
_cell_formula_units_Z   1
loop_
 _symmetry_equiv_pos_site_id
 _symmetry_equiv_pos_as_xyz
  1  'x, y, z'
loop_
 _atom_site_type_symbol
 _atom_site_label
 _atom_site_symmetry_multiplicity
 _atom_site_fract_x
 _atom_site_fract_y
 _atom_site_fract_z
 _atom_site_occupancy
  Pr  Pr0  1  0.416948  0.416948  0.500000  1
  Pr  Pr1  1  0.587587  0.997533  0.500000  1
  Pr  Pr2  1  0.997533  0.587587  0.500000  1
  Mg  Mg3  1  0.232259  0.998163  0.000000  1
  Mg  Mg4  1  0.998163  0.232259  0.000000  1
  Cd  Cd5  1  0.762536  0.762536  0.000000  1
  Ag  Ag6  1  0.008953  0.008953  0.500000  1
  Sn  Sn7  1  0.666127  0.329894  0.000000  1
  Sn  Sn8  1  0.329894  0.666127  0.000000  1
