# generated using pymatgen
data_Tb19Dy(IrPt2)4
_symmetry_space_group_name_H-M   'P 1'
_cell_length_a   11.11887500
_cell_length_b   11.11887500
_cell_length_c   6.36585000
_cell_angle_alpha   90.00000000
_cell_angle_beta   90.00000000
_cell_angle_gamma   90.00000000
_symmetry_Int_Tables_number   1
_chemical_formula_structural   Tb19Dy(IrPt2)4
_chemical_formula_sum   'Tb19 Dy1 Ir4 Pt8'
_cell_volume   787.00609673
_cell_formula_units_Z   1
loop_
 _symmetry_equiv_pos_site_id
 _symmetry_equiv_pos_as_xyz
  1  'x, y, z'
loop_
 _atom_site_type_symbol
 _atom_site_label
 _atom_site_symmetry_multiplicity
 _atom_site_fract_x
 _atom_site_fract_y
 _atom_site_fract_z
 _atom_site_occupancy
  Tb  Tb0  1  0.294759  0.087919  0.375146  1
  Tb  Tb1  1  0.294761  0.912093  0.875157  1
  Tb  Tb2  1  0.705239  0.087907  0.875157  1
  Tb  Tb3  1  0.705241  0.912081  0.375146  1
  Tb  Tb4  1  0.587880  0.794700  0.875161  1
  Tb  Tb5  1  0.587866  0.205354  0.375276  1
  Tb  Tb6  1  0.412134  0.794646  0.375276  1
  Tb  Tb7  1  0.412120  0.205300  0.875161  1
  Tb  Tb8  1  0.205354  0.412134  0.624724  1
  Tb  Tb9  1  0.205300  0.587880  0.124839  1
  Tb  Tb10  1  0.794700  0.412120  0.124839  1
  Tb  Tb11  1  0.794646  0.587866  0.624724  1
  Tb  Tb12  1  0.912093  0.705239  0.124843  1
  Tb  Tb13  1  0.912081  0.294759  0.624854  1
  Tb  Tb14  1  0.087919  0.705241  0.624854  1
  Tb  Tb15  1  0.087907  0.294761  0.124843  1
  Tb  Tb16  1  0.000000  0.000000  0.500000  1
  Tb  Tb17  1  0.000000  0.000000  0.000000  1
  Tb  Tb18  1  0.500000  0.500000  0.000000  1
  Dy  Dy19  1  0.500000  0.500000  0.500000  1
  Ir  Ir20  1  0.500000  0.000000  0.120774  1
  Ir  Ir21  1  0.500000  0.000000  0.620746  1
  Ir  Ir22  1  0.000000  0.500000  0.879226  1
  Ir  Ir23  1  0.000000  0.500000  0.379254  1
  Pt  Pt24  1  0.846368  0.153634  0.250025  1
  Pt  Pt25  1  0.846366  0.846368  0.749975  1
  Pt  Pt26  1  0.153634  0.153632  0.749975  1
  Pt  Pt27  1  0.153632  0.846366  0.250025  1
  Pt  Pt28  1  0.653394  0.346604  0.749607  1
  Pt  Pt29  1  0.653396  0.653394  0.250393  1
  Pt  Pt30  1  0.346604  0.346606  0.250393  1
  Pt  Pt31  1  0.346606  0.653396  0.749607  1
