# generated using pymatgen
data_Y6Lu14Cd3Hg3Ru2
_symmetry_space_group_name_H-M   'P 1'
_cell_length_a   9.48672000
_cell_length_b   9.48672005
_cell_length_c   9.60494100
_cell_angle_alpha   90.00000000
_cell_angle_beta   90.00000000
_cell_angle_gamma   120.00000680
_symmetry_Int_Tables_number   1
_chemical_formula_structural   Y6Lu14Cd3Hg3Ru2
_chemical_formula_sum   'Y6 Lu14 Cd3 Hg3 Ru2'
_cell_volume   748.61318338
_cell_formula_units_Z   1
loop_
 _symmetry_equiv_pos_site_id
 _symmetry_equiv_pos_as_xyz
  1  'x, y, z'
loop_
 _atom_site_type_symbol
 _atom_site_label
 _atom_site_symmetry_multiplicity
 _atom_site_fract_x
 _atom_site_fract_y
 _atom_site_fract_z
 _atom_site_occupancy
  Y  Y0  1  0.540349  0.459651  0.250000  1
  Y  Y1  1  0.540349  0.080698  0.250000  1
  Y  Y2  1  0.919302  0.459651  0.250000  1
  Y  Y3  1  0.459581  0.540419  0.750000  1
  Y  Y4  1  0.459581  0.919162  0.750000  1
  Y  Y5  1  0.080838  0.540419  0.750000  1
  Lu  Lu6  1  0.000000  0.000000  0.491416  1
  Lu  Lu7  1  0.000000  0.000000  0.008584  1
  Lu  Lu8  1  0.209882  0.790118  0.438915  1
  Lu  Lu9  1  0.209882  0.419766  0.438915  1
  Lu  Lu10  1  0.580234  0.790118  0.438915  1
  Lu  Lu11  1  0.790050  0.209950  0.559879  1
  Lu  Lu12  1  0.790050  0.580101  0.559879  1
  Lu  Lu13  1  0.419899  0.209950  0.559879  1
  Lu  Lu14  1  0.790050  0.209950  0.940121  1
  Lu  Lu15  1  0.790050  0.580101  0.940121  1
  Lu  Lu16  1  0.419899  0.209950  0.940121  1
  Lu  Lu17  1  0.209882  0.790118  0.061085  1
  Lu  Lu18  1  0.209882  0.419766  0.061085  1
  Lu  Lu19  1  0.580234  0.790118  0.061085  1
  Cd  Cd20  1  0.112374  0.887626  0.750000  1
  Cd  Cd21  1  0.112374  0.224748  0.750000  1
  Cd  Cd22  1  0.775252  0.887626  0.750000  1
  Hg  Hg23  1  0.880565  0.119435  0.250000  1
  Hg  Hg24  1  0.880565  0.761130  0.250000  1
  Hg  Hg25  1  0.238870  0.119435  0.250000  1
  Ru  Ru26  1  0.333333  0.666667  0.250000  1
  Ru  Ru27  1  0.666667  0.333333  0.750000  1
