# generated using pymatgen
data_NaNb8VTe16
_symmetry_space_group_name_H-M   'P 1'
_cell_length_a   7.45045400
_cell_length_b   7.45045499
_cell_length_c   15.28292200
_cell_angle_alpha   90.00000000
_cell_angle_beta   90.00000000
_cell_angle_gamma   120.00000448
_symmetry_Int_Tables_number   1
_chemical_formula_structural   NaNb8VTe16
_chemical_formula_sum   'Na1 Nb8 V1 Te16'
_cell_volume   734.68731551
_cell_formula_units_Z   1
loop_
 _symmetry_equiv_pos_site_id
 _symmetry_equiv_pos_as_xyz
  1  'x, y, z'
loop_
 _atom_site_type_symbol
 _atom_site_label
 _atom_site_symmetry_multiplicity
 _atom_site_fract_x
 _atom_site_fract_y
 _atom_site_fract_z
 _atom_site_occupancy
  Na  Na0  1  0.000000  0.000000  0.000000  1
  Nb  Nb1  1  0.000000  0.000000  0.275600  1
  Nb  Nb2  1  0.000000  0.000000  0.724400  1
  Nb  Nb3  1  0.511378  0.022757  0.275255  1
  Nb  Nb4  1  0.488622  0.977243  0.724745  1
  Nb  Nb5  1  0.977243  0.488622  0.275255  1
  Nb  Nb6  1  0.022757  0.511378  0.724745  1
  Nb  Nb7  1  0.511378  0.488622  0.275255  1
  Nb  Nb8  1  0.488622  0.511378  0.724745  1
  V  V9  1  0.000000  0.000000  0.500000  1
  Te  Te10  1  0.333333  0.666667  0.598574  1
  Te  Te11  1  0.666667  0.333333  0.401426  1
  Te  Te12  1  0.666667  0.333333  0.147832  1
  Te  Te13  1  0.333333  0.666667  0.852168  1
  Te  Te14  1  0.167904  0.335809  0.157879  1
  Te  Te15  1  0.832096  0.664191  0.842121  1
  Te  Te16  1  0.664191  0.832096  0.157879  1
  Te  Te17  1  0.831619  0.663237  0.609391  1
  Te  Te18  1  0.335809  0.167904  0.842121  1
  Te  Te19  1  0.168381  0.336763  0.390609  1
  Te  Te20  1  0.167904  0.832096  0.157879  1
  Te  Te21  1  0.336763  0.168381  0.609391  1
  Te  Te22  1  0.832096  0.167904  0.842121  1
  Te  Te23  1  0.663237  0.831619  0.390609  1
  Te  Te24  1  0.831619  0.168381  0.609391  1
  Te  Te25  1  0.168381  0.831619  0.390609  1
