# generated using pymatgen
data_Tb3Pr(In2Cl5)4
_symmetry_space_group_name_H-M   'P 1'
_cell_length_a   8.27276258
_cell_length_b   8.63728500
_cell_length_c   13.03276891
_cell_angle_alpha   90.00000000
_cell_angle_beta   90.35525586
_cell_angle_gamma   90.00000000
_symmetry_Int_Tables_number   1
_chemical_formula_structural   Tb3Pr(In2Cl5)4
_chemical_formula_sum   'Tb3 Pr1 In8 Cl20'
_cell_volume   931.22828144
_cell_formula_units_Z   1
loop_
 _symmetry_equiv_pos_site_id
 _symmetry_equiv_pos_as_xyz
  1  'x, y, z'
loop_
 _atom_site_type_symbol
 _atom_site_label
 _atom_site_symmetry_multiplicity
 _atom_site_fract_x
 _atom_site_fract_y
 _atom_site_fract_z
 _atom_site_occupancy
  Tb  Tb0  1  0.929096  0.750000  0.503874  1
  Tb  Tb1  1  0.574209  0.750000  0.004463  1
  Tb  Tb2  1  0.071550  0.250000  0.496076  1
  Pr  Pr3  1  0.425348  0.250000  0.994275  1
  In  In4  1  0.941340  0.005102  0.827351  1
  In  In5  1  0.056724  0.991912  0.172530  1
  In  In6  1  0.557864  0.493809  0.330260  1
  In  In7  1  0.056724  0.508088  0.172530  1
  In  In8  1  0.941340  0.494898  0.827351  1
  In  In9  1  0.441964  0.507385  0.669640  1
  In  In10  1  0.557864  0.006191  0.330260  1
  In  In11  1  0.441964  0.992615  0.669640  1
  Cl  Cl12  1  0.596031  0.750000  0.508500  1
  Cl  Cl13  1  0.162693  0.955564  0.433128  1
  Cl  Cl14  1  0.838009  0.044490  0.566537  1
  Cl  Cl15  1  0.335094  0.550892  0.930051  1
  Cl  Cl16  1  0.162693  0.544436  0.433128  1
  Cl  Cl17  1  0.345547  0.250000  0.202552  1
  Cl  Cl18  1  0.335094  0.949108  0.930051  1
  Cl  Cl19  1  0.838009  0.455510  0.566537  1
  Cl  Cl20  1  0.401568  0.750000  0.179553  1
  Cl  Cl21  1  0.666482  0.039422  0.070588  1
  Cl  Cl22  1  0.152285  0.250000  0.697305  1
  Cl  Cl23  1  0.608187  0.250000  0.812892  1
  Cl  Cl24  1  0.404707  0.250000  0.492723  1
  Cl  Cl25  1  0.099256  0.750000  0.680113  1
  Cl  Cl26  1  0.666482  0.460578  0.070588  1
  Cl  Cl27  1  0.082003  0.250000  0.993584  1
  Cl  Cl28  1  0.908682  0.750000  0.007338  1
  Cl  Cl29  1  0.848762  0.750000  0.303208  1
  Cl  Cl30  1  0.651962  0.750000  0.803830  1
  Cl  Cl31  1  0.900465  0.250000  0.319544  1
