# generated using pymatgen
data_Er8Lu8Sc4Si15Ir
_symmetry_space_group_name_H-M   'P 1'
_cell_length_a   7.14598337
_cell_length_b   7.57004268
_cell_length_c   14.19793000
_cell_angle_alpha   90.00000000
_cell_angle_beta   90.00000000
_cell_angle_gamma   90.05609959
_symmetry_Int_Tables_number   1
_chemical_formula_structural   Er8Lu8Sc4Si15Ir
_chemical_formula_sum   'Er8 Lu8 Sc4 Si15 Ir1'
_cell_volume   768.04232224
_cell_formula_units_Z   1
loop_
 _symmetry_equiv_pos_site_id
 _symmetry_equiv_pos_as_xyz
  1  'x, y, z'
loop_
 _atom_site_type_symbol
 _atom_site_label
 _atom_site_symmetry_multiplicity
 _atom_site_fract_x
 _atom_site_fract_y
 _atom_site_fract_z
 _atom_site_occupancy
  Er  Er0  1  0.013350  0.182157  0.097085  1
  Er  Er1  1  0.989032  0.823994  0.903659  1
  Er  Er2  1  0.487580  0.679037  0.904706  1
  Er  Er3  1  0.989032  0.823994  0.596341  1
  Er  Er4  1  0.513076  0.321008  0.096914  1
  Er  Er5  1  0.013350  0.182157  0.402915  1
  Er  Er6  1  0.513076  0.321008  0.403086  1
  Er  Er7  1  0.487580  0.679037  0.595294  1
  Lu  Lu8  1  0.316408  0.172028  0.627632  1
  Lu  Lu9  1  0.673895  0.825715  0.373504  1
  Lu  Lu10  1  0.172718  0.678753  0.374143  1
  Lu  Lu11  1  0.673895  0.825715  0.126496  1
  Lu  Lu12  1  0.835067  0.318021  0.627616  1
  Lu  Lu13  1  0.316408  0.172028  0.872368  1
  Lu  Lu14  1  0.835067  0.318021  0.872384  1
  Lu  Lu15  1  0.172718  0.678753  0.125857  1
  Sc  Sc16  1  0.159733  0.511372  0.750000  1
  Sc  Sc17  1  0.838231  0.489893  0.250000  1
  Sc  Sc18  1  0.339775  0.012892  0.250000  1
  Sc  Sc19  1  0.668271  0.988813  0.750000  1
  Si  Si20  1  0.975204  0.898956  0.250000  1
  Si  Si21  1  0.474669  0.603174  0.250000  1
  Si  Si22  1  0.525320  0.399211  0.750000  1
  Si  Si23  1  0.287574  0.859641  0.750000  1
  Si  Si24  1  0.713114  0.138282  0.250000  1
  Si  Si25  1  0.213253  0.365100  0.250000  1
  Si  Si26  1  0.778044  0.629850  0.750000  1
  Si  Si27  1  0.159968  0.471080  0.538162  1
  Si  Si28  1  0.841924  0.532593  0.461207  1
  Si  Si29  1  0.344174  0.969853  0.459857  1
  Si  Si30  1  0.841924  0.532593  0.038793  1
  Si  Si31  1  0.655220  0.031395  0.538904  1
  Si  Si32  1  0.159968  0.471080  0.961838  1
  Si  Si33  1  0.655220  0.031395  0.961096  1
  Si  Si34  1  0.344174  0.969853  0.040143  1
  Ir  Ir35  1  0.021988  0.091546  0.750000  1
