# generated using pymatgen
data_TbDy(ThH5)6
_symmetry_space_group_name_H-M   'P 1'
_cell_length_a   7.83682838
_cell_length_b   7.83542206
_cell_length_c   7.80739903
_cell_angle_alpha   109.45642637
_cell_angle_beta   109.46476321
_cell_angle_gamma   109.64973211
_symmetry_Int_Tables_number   1
_chemical_formula_structural   TbDy(ThH5)6
_chemical_formula_sum   'Tb1 Dy1 Th6 H30'
_cell_volume   368.33270576
_cell_formula_units_Z   1
loop_
 _symmetry_equiv_pos_site_id
 _symmetry_equiv_pos_as_xyz
  1  'x, y, z'
loop_
 _atom_site_type_symbol
 _atom_site_label
 _atom_site_symmetry_multiplicity
 _atom_site_fract_x
 _atom_site_fract_y
 _atom_site_fract_z
 _atom_site_occupancy
  Tb  Tb0  1  0.498536  0.999429  0.083461  1
  Dy  Dy1  1  0.914729  0.915613  0.916220  1
  Th  Th2  1  0.994541  0.079713  0.495417  1
  Th  Th3  1  0.084572  0.504031  0.000660  1
  Th  Th4  1  0.999069  0.584356  0.504682  1
  Th  Th5  1  0.583989  0.503509  0.999296  1
  Th  Th6  1  0.503880  0.998824  0.587124  1
  Th  Th7  1  0.416614  0.411730  0.412865  1
  H  H8  1  0.651336  0.965762  0.371047  1
  H  H9  1  0.218305  0.315786  0.846341  1
  H  H10  1  0.186241  0.404067  0.533973  1
  H  H11  1  0.095480  0.280477  0.126560  1
  H  H12  1  0.281305  0.123961  0.093495  1
  H  H13  1  0.125783  0.093780  0.277777  1
  H  H14  1  0.468878  0.154076  0.873200  1
  H  H15  1  0.719545  0.349750  0.814400  1
  H  H16  1  0.627584  0.379842  0.251373  1
  H  H17  1  0.249959  0.624691  0.375399  1
  H  H18  1  0.750754  0.872963  0.127129  1
  H  H19  1  0.123281  0.745752  0.872810  1
  H  H20  1  0.374564  0.249298  0.624596  1
  H  H21  1  0.876274  0.128359  0.748717  1
  H  H22  1  0.780421  0.595023  0.629236  1
  H  H23  1  0.317068  0.848113  0.221175  1
  H  H24  1  0.373633  0.656938  0.967742  1
  H  H25  1  0.965489  0.369763  0.651418  1
  H  H26  1  0.535235  0.185333  0.405996  1
  H  H27  1  0.405141  0.535340  0.185595  1
  H  H28  1  0.842316  0.218165  0.312994  1
  H  H29  1  0.905940  0.689578  0.032080  1
  H  H30  1  0.814071  0.718348  0.348587  1
  H  H31  1  0.152283  0.870095  0.466035  1
  H  H32  1  0.688438  0.030334  0.906372  1
  H  H33  1  0.347857  0.815784  0.721799  1
  H  H34  1  0.871957  0.469444  0.153674  1
  H  H35  1  0.629547  0.779486  0.594335  1
  H  H36  1  0.596228  0.627260  0.778989  1
  H  H37  1  0.029157  0.905227  0.687430  1
