# generated using pymatgen
data_Pr2V3P7Rh9
_symmetry_space_group_name_H-M   'P 1'
_cell_length_a   9.59314306
_cell_length_b   9.59464911
_cell_length_c   3.91481500
_cell_angle_alpha   90.00001860
_cell_angle_beta   89.99994753
_cell_angle_gamma   119.99221359
_symmetry_Int_Tables_number   1
_chemical_formula_structural   Pr2V3P7Rh9
_chemical_formula_sum   'Pr2 V3 P7 Rh9'
_cell_volume   312.08001824
_cell_formula_units_Z   1
loop_
 _symmetry_equiv_pos_site_id
 _symmetry_equiv_pos_as_xyz
  1  'x, y, z'
loop_
 _atom_site_type_symbol
 _atom_site_label
 _atom_site_symmetry_multiplicity
 _atom_site_fract_x
 _atom_site_fract_y
 _atom_site_fract_z
 _atom_site_occupancy
  Pr  Pr0  1  0.999980  0.999979  0.764154  1
  Pr  Pr1  1  0.333335  0.666634  0.264086  1
  V  V2  1  0.789279  0.547516  0.763676  1
  V  V3  1  0.452539  0.241921  0.763674  1
  V  V4  1  0.758248  0.210797  0.763677  1
  P  P5  1  0.666656  0.333391  0.263034  1
  P  P6  1  0.064079  0.622854  0.763835  1
  P  P7  1  0.377157  0.441277  0.763842  1
  P  P8  1  0.558601  0.935666  0.763837  1
  P  P9  1  0.257819  0.038423  0.263899  1
  P  P10  1  0.961597  0.219346  0.263909  1
  P  P11  1  0.780532  0.742120  0.263907  1
  Rh  Rh12  1  0.509201  0.062114  0.263787  1
  Rh  Rh13  1  0.937938  0.447430  0.263781  1
  Rh  Rh14  1  0.552940  0.490801  0.263770  1
  Rh  Rh15  1  0.100783  0.380330  0.763831  1
  Rh  Rh16  1  0.619746  0.720340  0.763817  1
  Rh  Rh17  1  0.279602  0.899270  0.763825  1
  Rh  Rh18  1  0.232452  0.267966  0.263867  1
  Rh  Rh19  1  0.732057  0.964341  0.263863  1
  Rh  Rh20  1  0.035459  0.767483  0.263863  1
