# generated using pymatgen
data_LiTm3(P3Rh4)2
_symmetry_space_group_name_H-M   'P 1'
_cell_length_a   3.89671700
_cell_length_b   11.21471800
_cell_length_c   12.69064600
_cell_angle_alpha   90.00000000
_cell_angle_beta   90.00000000
_cell_angle_gamma   90.00000000
_symmetry_Int_Tables_number   1
_chemical_formula_structural   LiTm3(P3Rh4)2
_chemical_formula_sum   'Li2 Tm6 P12 Rh16'
_cell_volume   554.58861972
_cell_formula_units_Z   2
loop_
 _symmetry_equiv_pos_site_id
 _symmetry_equiv_pos_as_xyz
  1  'x, y, z'
loop_
 _atom_site_type_symbol
 _atom_site_label
 _atom_site_symmetry_multiplicity
 _atom_site_fract_x
 _atom_site_fract_y
 _atom_site_fract_z
 _atom_site_occupancy
  Li  Li0  1  0.500000  0.500000  0.158080  1
  Li  Li1  1  0.000000  0.000000  0.841920  1
  Tm  Tm2  1  0.000000  0.500000  0.516956  1
  Tm  Tm3  1  0.500000  0.000000  0.483044  1
  Tm  Tm4  1  0.500000  0.818677  0.204822  1
  Tm  Tm5  1  0.500000  0.181323  0.204822  1
  Tm  Tm6  1  0.000000  0.681323  0.795178  1
  Tm  Tm7  1  0.000000  0.318677  0.795178  1
  P  P8  1  0.500000  0.500000  0.880950  1
  P  P9  1  0.000000  0.000000  0.119050  1
  P  P10  1  0.500000  0.500000  0.348176  1
  P  P11  1  0.000000  0.000000  0.651824  1
  P  P12  1  0.500000  0.314549  0.618636  1
  P  P13  1  0.500000  0.685451  0.618636  1
  P  P14  1  0.000000  0.185451  0.381364  1
  P  P15  1  0.000000  0.814549  0.381364  1
  P  P16  1  0.500000  0.840659  0.890934  1
  P  P17  1  0.500000  0.159341  0.890934  1
  P  P18  1  0.000000  0.659341  0.109066  1
  P  P19  1  0.000000  0.340659  0.109066  1
  Rh  Rh20  1  0.500000  0.500000  0.701521  1
  Rh  Rh21  1  0.000000  0.000000  0.298479  1
  Rh  Rh22  1  0.000000  0.500000  0.983215  1
  Rh  Rh23  1  0.500000  0.000000  0.016785  1
  Rh  Rh24  1  0.500000  0.333235  0.998386  1
  Rh  Rh25  1  0.500000  0.666765  0.998386  1
  Rh  Rh26  1  0.000000  0.166765  0.001614  1
  Rh  Rh27  1  0.000000  0.833235  0.001614  1
  Rh  Rh28  1  0.500000  0.291256  0.430451  1
  Rh  Rh29  1  0.500000  0.708744  0.430451  1
  Rh  Rh30  1  0.000000  0.208744  0.569549  1
  Rh  Rh31  1  0.000000  0.791256  0.569549  1
  Rh  Rh32  1  0.500000  0.873936  0.710084  1
  Rh  Rh33  1  0.500000  0.126064  0.710084  1
  Rh  Rh34  1  0.000000  0.626064  0.289916  1
  Rh  Rh35  1  0.000000  0.373936  0.289916  1
