# generated using pymatgen
data_Ac3EuAu4
_symmetry_space_group_name_H-M   'P 1'
_cell_length_a   4.97877300
_cell_length_b   6.15626752
_cell_length_c   7.86369470
_cell_angle_alpha   90.42246808
_cell_angle_beta   90.00000000
_cell_angle_gamma   90.00000000
_symmetry_Int_Tables_number   1
_chemical_formula_structural   Ac3EuAu4
_chemical_formula_sum   'Ac3 Eu1 Au4'
_cell_volume   241.02086894
_cell_formula_units_Z   1
loop_
 _symmetry_equiv_pos_site_id
 _symmetry_equiv_pos_as_xyz
  1  'x, y, z'
loop_
 _atom_site_type_symbol
 _atom_site_label
 _atom_site_symmetry_multiplicity
 _atom_site_fract_x
 _atom_site_fract_y
 _atom_site_fract_z
 _atom_site_occupancy
  Ac  Ac0  1  0.250000  0.645795  0.185744  1
  Ac  Ac1  1  0.750000  0.354029  0.812291  1
  Ac  Ac2  1  0.750000  0.144530  0.317335  1
  Eu  Eu3  1  0.250000  0.854253  0.684700  1
  Au  Au4  1  0.250000  0.148862  0.039282  1
  Au  Au5  1  0.750000  0.850549  0.955228  1
  Au  Au6  1  0.750000  0.653343  0.463077  1
  Au  Au7  1  0.250000  0.348638  0.542344  1
