# generated using pymatgen
data_Y6V3Ni16P13Ir
_symmetry_space_group_name_H-M   'P 1'
_cell_length_a   12.85500500
_cell_length_b   12.85500397
_cell_length_c   3.77209600
_cell_angle_alpha   90.00000000
_cell_angle_beta   90.00000000
_cell_angle_gamma   120.00000007
_symmetry_Int_Tables_number   1
_chemical_formula_structural   Y6V3Ni16P13Ir
_chemical_formula_sum   'Y6 V3 Ni16 P13 Ir1'
_cell_volume   539.83101629
_cell_formula_units_Z   1
loop_
 _symmetry_equiv_pos_site_id
 _symmetry_equiv_pos_as_xyz
  1  'x, y, z'
loop_
 _atom_site_type_symbol
 _atom_site_label
 _atom_site_symmetry_multiplicity
 _atom_site_fract_x
 _atom_site_fract_y
 _atom_site_fract_z
 _atom_site_occupancy
  Y  Y0  1  0.467323  0.185607  0.000000  1
  Y  Y1  1  0.718284  0.532677  0.000000  1
  Y  Y2  1  0.814393  0.281716  0.000000  1
  Y  Y3  1  0.529403  0.812757  0.500000  1
  Y  Y4  1  0.283355  0.470597  0.500000  1
  Y  Y5  1  0.187243  0.716645  0.500000  1
  V  V6  1  0.846950  0.930736  0.500000  1
  V  V7  1  0.083786  0.153050  0.500000  1
  V  V8  1  0.069264  0.916214  0.500000  1
  Ni  Ni9  1  0.333333  0.666667  0.000000  1
  Ni  Ni10  1  0.198197  0.090995  0.000000  1
  Ni  Ni11  1  0.892798  0.801803  0.000000  1
  Ni  Ni12  1  0.909005  0.107202  0.000000  1
  Ni  Ni13  1  0.437338  0.419351  0.000000  1
  Ni  Ni14  1  0.982014  0.562662  0.000000  1
  Ni  Ni15  1  0.580649  0.017986  0.000000  1
  Ni  Ni16  1  0.564131  0.589366  0.500000  1
  Ni  Ni17  1  0.025236  0.435869  0.500000  1
  Ni  Ni18  1  0.410634  0.974764  0.500000  1
  Ni  Ni19  1  0.079414  0.319178  0.000000  1
  Ni  Ni20  1  0.239763  0.920586  0.000000  1
  Ni  Ni21  1  0.680822  0.760237  0.000000  1
  Ni  Ni22  1  0.927849  0.682461  0.500000  1
  Ni  Ni23  1  0.754612  0.072151  0.500000  1
  Ni  Ni24  1  0.317539  0.245388  0.500000  1
  P  P25  1  0.233851  0.281976  0.000000  1
  P  P26  1  0.048125  0.766149  0.000000  1
  P  P27  1  0.718024  0.951875  0.000000  1
  P  P28  1  0.767662  0.720840  0.500000  1
  P  P29  1  0.953178  0.232338  0.500000  1
  P  P30  1  0.279160  0.046822  0.500000  1
  P  P31  1  0.477520  0.616624  0.000000  1
  P  P32  1  0.139104  0.522480  0.000000  1
  P  P33  1  0.383376  0.860896  0.000000  1
  P  P34  1  0.518449  0.388630  0.500000  1
  P  P35  1  0.870182  0.481551  0.500000  1
  P  P36  1  0.611370  0.129818  0.500000  1
  P  P37  1  0.000000  0.000000  0.000000  1
  Ir  Ir38  1  0.666667  0.333333  0.500000  1
