# generated using pymatgen
data_Lu2HfGa5Co
_symmetry_space_group_name_H-M   'P 1'
_cell_length_a   6.76941000
_cell_length_b   6.69744789
_cell_length_c   4.10043400
_cell_angle_alpha   90.00000000
_cell_angle_beta   90.00000000
_cell_angle_gamma   120.35607311
_symmetry_Int_Tables_number   1
_chemical_formula_structural   Lu2HfGa5Co
_chemical_formula_sum   'Lu2 Hf1 Ga5 Co1'
_cell_volume   160.41728039
_cell_formula_units_Z   1
loop_
 _symmetry_equiv_pos_site_id
 _symmetry_equiv_pos_as_xyz
  1  'x, y, z'
loop_
 _atom_site_type_symbol
 _atom_site_label
 _atom_site_symmetry_multiplicity
 _atom_site_fract_x
 _atom_site_fract_y
 _atom_site_fract_z
 _atom_site_occupancy
  Lu  Lu0  1  0.004421  0.598241  0.000000  1
  Lu  Lu1  1  0.406180  0.401759  0.000000  1
  Hf  Hf2  1  0.605758  0.000000  0.000000  1
  Ga  Ga3  1  0.235099  0.000000  0.500000  1
  Ga  Ga4  1  0.999610  0.236357  0.500000  1
  Ga  Ga5  1  0.763253  0.763643  0.500000  1
  Ga  Ga6  1  0.340838  0.677556  0.500000  1
  Ga  Ga7  1  0.663283  0.322444  0.500000  1
  Co  Co8  1  0.981557  0.000000  0.000000  1
