# generated using pymatgen
data_Be7Al2BOs2
_symmetry_space_group_name_H-M   'P 1'
_cell_length_a   4.31499300
_cell_length_b   4.28578378
_cell_length_c   6.93964900
_cell_angle_alpha   90.61801143
_cell_angle_beta   90.00000000
_cell_angle_gamma   120.22570030
_symmetry_Int_Tables_number   1
_chemical_formula_structural   Be7Al2BOs2
_chemical_formula_sum   'Be7 Al2 B1 Os2'
_cell_volume   110.87979891
_cell_formula_units_Z   1
loop_
 _symmetry_equiv_pos_site_id
 _symmetry_equiv_pos_as_xyz
  1  'x, y, z'
loop_
 _atom_site_type_symbol
 _atom_site_label
 _atom_site_symmetry_multiplicity
 _atom_site_fract_x
 _atom_site_fract_y
 _atom_site_fract_z
 _atom_site_occupancy
  Be  Be0  1  0.997163  0.994325  0.997087  1
  Be  Be1  1  0.993212  0.986423  0.487094  1
  Be  Be2  1  0.168647  0.831413  0.749849  1
  Be  Be3  1  0.662766  0.831413  0.749849  1
  Be  Be4  1  0.340198  0.173216  0.250157  1
  Be  Be5  1  0.833017  0.173216  0.250157  1
  Be  Be6  1  0.168020  0.336039  0.751648  1
  Al  Al7  1  0.334703  0.669407  0.063058  1
  Al  Al8  1  0.666660  0.333319  0.567488  1
  B  B9  1  0.834824  0.669647  0.245940  1
  Os  Os10  1  0.667993  0.335985  0.949862  1
  Os  Os11  1  0.332798  0.665596  0.437809  1
