# generated using pymatgen
data_Ho2B6Ir4Rh5
_symmetry_space_group_name_H-M   'P 1'
_cell_length_a   5.62324813
_cell_length_b   5.61476874
_cell_length_c   8.62278300
_cell_angle_alpha   90.00000000
_cell_angle_beta   90.00000000
_cell_angle_gamma   119.95014202
_symmetry_Int_Tables_number   1
_chemical_formula_structural   Ho2B6Ir4Rh5
_chemical_formula_sum   'Ho2 B6 Ir4 Rh5'
_cell_volume   235.89306892
_cell_formula_units_Z   1
loop_
 _symmetry_equiv_pos_site_id
 _symmetry_equiv_pos_as_xyz
  1  'x, y, z'
loop_
 _atom_site_type_symbol
 _atom_site_label
 _atom_site_symmetry_multiplicity
 _atom_site_fract_x
 _atom_site_fract_y
 _atom_site_fract_z
 _atom_site_occupancy
  Ho  Ho0  1  0.000000  0.000000  0.702683  1
  Ho  Ho1  1  0.000000  0.000000  0.298713  1
  B  B2  1  0.668014  0.334006  0.000002  1
  B  B3  1  0.331986  0.665994  0.000002  1
  B  B4  1  0.667385  0.333692  0.667908  1
  B  B5  1  0.332615  0.666308  0.667908  1
  B  B6  1  0.333362  0.666681  0.331666  1
  B  B7  1  0.666638  0.333319  0.331666  1
  Ir  Ir8  1  0.000000  0.500000  0.836196  1
  Ir  Ir9  1  0.500000  0.500000  0.499958  1
  Ir  Ir10  1  0.500000  0.000000  0.499958  1
  Ir  Ir11  1  0.000000  0.500000  0.498920  1
  Rh  Rh12  1  0.500000  0.500000  0.836465  1
  Rh  Rh13  1  0.500000  0.000000  0.836465  1
  Rh  Rh14  1  0.500000  0.500000  0.163712  1
  Rh  Rh15  1  0.500000  0.000000  0.163712  1
  Rh  Rh16  1  0.000000  0.500000  0.164068  1
