# generated using pymatgen
data_Y4Er8AlCo5
_symmetry_space_group_name_H-M   'P 1'
_cell_length_a   8.20121411
_cell_length_b   8.20121397
_cell_length_c   8.20121430
_cell_angle_alpha   110.84927121
_cell_angle_beta   110.64576307
_cell_angle_gamma   106.94778623
_symmetry_Int_Tables_number   1
_chemical_formula_structural   Y4Er8AlCo5
_chemical_formula_sum   'Y4 Er8 Al1 Co5'
_cell_volume   424.01610849
_cell_formula_units_Z   1
loop_
 _symmetry_equiv_pos_site_id
 _symmetry_equiv_pos_as_xyz
  1  'x, y, z'
loop_
 _atom_site_type_symbol
 _atom_site_label
 _atom_site_symmetry_multiplicity
 _atom_site_fract_x
 _atom_site_fract_y
 _atom_site_fract_z
 _atom_site_occupancy
  Y  Y0  1  0.290508  0.189022  0.479529  1
  Y  Y1  1  0.709492  0.810978  0.520471  1
  Y  Y2  1  0.290508  0.810978  0.101486  1
  Y  Y3  1  0.709492  0.189022  0.898514  1
  Er  Er4  1  0.619940  0.314805  0.305135  1
  Er  Er5  1  0.380060  0.685195  0.694865  1
  Er  Er6  1  0.009669  0.314805  0.694865  1
  Er  Er7  1  0.990331  0.685195  0.305135  1
  Er  Er8  1  0.212564  0.402769  0.190204  1
  Er  Er9  1  0.787436  0.597231  0.809796  1
  Er  Er10  1  0.212564  0.022360  0.809796  1
  Er  Er11  1  0.787436  0.977640  0.190204  1
  Al  Al12  1  0.500000  0.500000  0.000000  1
  Co  Co13  1  0.000000  0.377698  0.377698  1
  Co  Co14  1  0.000000  0.622302  0.622302  1
  Co  Co15  1  0.386776  0.886776  0.500000  1
  Co  Co16  1  0.613224  0.113224  0.500000  1
  Co  Co17  1  0.000000  0.000000  0.000000  1
