# generated using pymatgen
data_Na4LiSb2Au
_symmetry_space_group_name_H-M   'P 1'
_cell_length_a   6.13903624
_cell_length_b   6.13903549
_cell_length_c   5.69929494
_cell_angle_alpha   88.32810311
_cell_angle_beta   88.32809688
_cell_angle_gamma   98.82947488
_symmetry_Int_Tables_number   1
_chemical_formula_structural   Na4LiSb2Au
_chemical_formula_sum   'Na4 Li1 Sb2 Au1'
_cell_volume   212.03472335
_cell_formula_units_Z   1
loop_
 _symmetry_equiv_pos_site_id
 _symmetry_equiv_pos_as_xyz
  1  'x, y, z'
loop_
 _atom_site_type_symbol
 _atom_site_label
 _atom_site_symmetry_multiplicity
 _atom_site_fract_x
 _atom_site_fract_y
 _atom_site_fract_z
 _atom_site_occupancy
  Na  Na0  1  0.022339  0.670000  0.236720  1
  Na  Na1  1  0.977661  0.330000  0.763280  1
  Na  Na2  1  0.670000  0.022339  0.236720  1
  Na  Na3  1  0.330000  0.977661  0.763280  1
  Li  Li4  1  0.500000  0.500000  0.500000  1
  Sb  Sb5  1  0.788554  0.788554  0.737214  1
  Sb  Sb6  1  0.211446  0.211446  0.262786  1
  Au  Au7  1  0.500000  0.500000  0.000000  1
