# generated using pymatgen
data_Hf6Zn19SbPd4
_symmetry_space_group_name_H-M   'P 1'
_cell_length_a   8.76021878
_cell_length_b   8.76021891
_cell_length_c   8.75556800
_cell_angle_alpha   59.96462232
_cell_angle_beta   59.96462186
_cell_angle_gamma   59.42727736
_symmetry_Int_Tables_number   1
_chemical_formula_structural   Hf6Zn19SbPd4
_chemical_formula_sum   'Hf6 Zn19 Sb1 Pd4'
_cell_volume   472.77411337
_cell_formula_units_Z   1
loop_
 _symmetry_equiv_pos_site_id
 _symmetry_equiv_pos_as_xyz
  1  'x, y, z'
loop_
 _atom_site_type_symbol
 _atom_site_label
 _atom_site_symmetry_multiplicity
 _atom_site_fract_x
 _atom_site_fract_y
 _atom_site_fract_z
 _atom_site_occupancy
  Hf  Hf0  1  0.727303  0.279347  0.276630  1
  Hf  Hf1  1  0.266495  0.734720  0.721450  1
  Hf  Hf2  1  0.279347  0.727303  0.276630  1
  Hf  Hf3  1  0.734720  0.266495  0.721450  1
  Hf  Hf4  1  0.273962  0.273962  0.725959  1
  Hf  Hf5  1  0.721238  0.721238  0.273200  1
  Zn  Zn6  1  0.124522  0.628831  0.121672  1
  Zn  Zn7  1  0.878321  0.878321  0.368363  1
  Zn  Zn8  1  0.876828  0.368995  0.876504  1
  Zn  Zn9  1  0.628831  0.124522  0.121672  1
  Zn  Zn10  1  0.368995  0.876828  0.876504  1
  Zn  Zn11  1  0.497706  0.000283  0.000454  1
  Zn  Zn12  1  0.998811  0.506643  0.495731  1
  Zn  Zn13  1  0.000283  0.497706  0.000454  1
  Zn  Zn14  1  0.506643  0.998811  0.495731  1
  Zn  Zn15  1  0.999424  0.999424  0.500097  1
  Zn  Zn16  1  0.336185  0.336185  0.342112  1
  Zn  Zn17  1  0.659667  0.659667  0.660101  1
  Zn  Zn18  1  0.337416  0.337416  0.983280  1
  Zn  Zn19  1  0.330739  0.998649  0.335291  1
  Zn  Zn20  1  0.666564  0.666564  0.004420  1
  Zn  Zn21  1  0.666290  0.006746  0.665535  1
  Zn  Zn22  1  0.998649  0.330739  0.335291  1
  Zn  Zn23  1  0.006746  0.666290  0.665535  1
  Zn  Zn24  1  0.997373  0.997373  0.003554  1
  Sb  Sb25  1  0.497495  0.497495  0.508917  1
  Pd  Pd26  1  0.118815  0.118815  0.117727  1
  Pd  Pd27  1  0.877541  0.877541  0.885570  1
  Pd  Pd28  1  0.123878  0.123878  0.639377  1
  Pd  Pd29  1  0.499215  0.499215  0.000785  1
