# generated using pymatgen
data_Tb4Al18Pd5Ru
_symmetry_space_group_name_H-M   'P 1'
_cell_length_a   7.63316487
_cell_length_b   7.63316463
_cell_length_c   9.50318457
_cell_angle_alpha   90.05660582
_cell_angle_beta   90.05660921
_cell_angle_gamma   119.65100829
_symmetry_Int_Tables_number   1
_chemical_formula_structural   Tb4Al18Pd5Ru
_chemical_formula_sum   'Tb4 Al18 Pd5 Ru1'
_cell_volume   481.19907484
_cell_formula_units_Z   1
loop_
 _symmetry_equiv_pos_site_id
 _symmetry_equiv_pos_as_xyz
  1  'x, y, z'
loop_
 _atom_site_type_symbol
 _atom_site_label
 _atom_site_symmetry_multiplicity
 _atom_site_fract_x
 _atom_site_fract_y
 _atom_site_fract_z
 _atom_site_occupancy
  Tb  Tb0  1  0.996260  0.670797  0.249518  1
  Tb  Tb1  1  0.007376  0.331208  0.750431  1
  Tb  Tb2  1  0.668792  0.992624  0.249569  1
  Tb  Tb3  1  0.329203  0.003740  0.750482  1
  Al  Al4  1  0.129394  0.131381  0.248825  1
  Al  Al5  1  0.868619  0.870606  0.751175  1
  Al  Al6  1  0.994407  0.333706  0.074029  1
  Al  Al7  1  0.994782  0.659620  0.926587  1
  Al  Al8  1  0.998238  0.665686  0.577160  1
  Al  Al9  1  0.334314  0.001762  0.422840  1
  Al  Al10  1  0.000830  0.334475  0.423611  1
  Al  Al11  1  0.665525  0.999170  0.576389  1
  Al  Al12  1  0.666294  0.005593  0.925971  1
  Al  Al13  1  0.340380  0.005218  0.073413  1
  Al  Al14  1  0.334542  0.334611  0.559551  1
  Al  Al15  1  0.665389  0.665458  0.440449  1
  Al  Al16  1  0.667262  0.661811  0.053423  1
  Al  Al17  1  0.338189  0.332738  0.946577  1
  Al  Al18  1  0.336796  0.545347  0.248845  1
  Al  Al19  1  0.661080  0.451572  0.754700  1
  Al  Al20  1  0.548428  0.338920  0.245300  1
  Al  Al21  1  0.454653  0.663204  0.751155  1
  Pd  Pd22  1  0.328008  0.671992  0.000000  1
  Pd  Pd23  1  0.327797  0.672203  0.500000  1
  Pd  Pd24  1  0.671513  0.328487  0.500000  1
  Pd  Pd25  1  0.000460  0.999540  0.000000  1
  Pd  Pd26  1  0.999850  0.000150  0.500000  1
  Ru  Ru27  1  0.671619  0.328381  0.000000  1
