# generated using pymatgen
data_DyTm2Lu2Pb3
_symmetry_space_group_name_H-M   'P 1'
_cell_length_a   6.49875300
_cell_length_b   8.95392035
_cell_length_c   8.96227900
_cell_angle_alpha   120.02696664
_cell_angle_beta   89.99856104
_cell_angle_gamma   90.00062950
_symmetry_Int_Tables_number   1
_chemical_formula_structural   DyTm2Lu2Pb3
_chemical_formula_sum   'Dy2 Tm4 Lu4 Pb6'
_cell_volume   451.51717264
_cell_formula_units_Z   2
loop_
 _symmetry_equiv_pos_site_id
 _symmetry_equiv_pos_as_xyz
  1  'x, y, z'
loop_
 _atom_site_type_symbol
 _atom_site_label
 _atom_site_symmetry_multiplicity
 _atom_site_fract_x
 _atom_site_fract_y
 _atom_site_fract_z
 _atom_site_occupancy
  Dy  Dy0  1  0.750016  0.238106  0.000170  1
  Dy  Dy1  1  0.749988  0.761830  0.762028  1
  Tm  Tm2  1  0.750001  0.999956  0.238245  1
  Tm  Tm3  1  0.249995  0.762293  0.000182  1
  Tm  Tm4  1  0.249992  0.237783  0.237919  1
  Tm  Tm5  1  0.249990  0.000031  0.761831  1
  Lu  Lu6  1  0.499886  0.333283  0.666622  1
  Lu  Lu7  1  0.499872  0.666694  0.333269  1
  Lu  Lu8  1  0.000124  0.666711  0.333264  1
  Lu  Lu9  1  0.000131  0.333309  0.666610  1
  Pb  Pb10  1  0.749992  0.605544  0.000503  1
  Pb  Pb11  1  0.749994  0.394413  0.394904  1
  Pb  Pb12  1  0.750011  0.000005  0.604413  1
  Pb  Pb13  1  0.249990  0.394560  0.000001  1
  Pb  Pb14  1  0.250015  0.605486  0.605502  1
  Pb  Pb15  1  0.250007  0.999996  0.394537  1
