# generated using pymatgen
data_Tm3Sc3B4Ir9Ru
_symmetry_space_group_name_H-M   'P 1'
_cell_length_a   3.11567600
_cell_length_b   9.73930797
_cell_length_c   9.73930677
_cell_angle_alpha   89.94741198
_cell_angle_beta   90.00000000
_cell_angle_gamma   90.00000000
_symmetry_Int_Tables_number   1
_chemical_formula_structural   Tm3Sc3B4Ir9Ru
_chemical_formula_sum   'Tm3 Sc3 B4 Ir9 Ru1'
_cell_volume   295.53454366
_cell_formula_units_Z   1
loop_
 _symmetry_equiv_pos_site_id
 _symmetry_equiv_pos_as_xyz
  1  'x, y, z'
loop_
 _atom_site_type_symbol
 _atom_site_label
 _atom_site_symmetry_multiplicity
 _atom_site_fract_x
 _atom_site_fract_y
 _atom_site_fract_z
 _atom_site_occupancy
  Tm  Tm0  1  0.000000  0.174065  0.675338  1
  Tm  Tm1  1  0.000000  0.824662  0.325935  1
  Tm  Tm2  1  0.000000  0.323186  0.176814  1
  Sc  Sc3  1  0.000000  0.677876  0.822124  1
  Sc  Sc4  1  0.000000  0.000887  0.000011  1
  Sc  Sc5  1  0.000000  0.499989  0.499113  1
  B  B6  1  0.000000  0.623383  0.118601  1
  B  B7  1  0.000000  0.381399  0.876617  1
  B  B8  1  0.000000  0.878593  0.621407  1
  B  B9  1  0.000000  0.117389  0.382611  1
  Ir  Ir10  1  0.500000  0.069406  0.224551  1
  Ir  Ir11  1  0.500000  0.924128  0.779618  1
  Ir  Ir12  1  0.500000  0.776334  0.065770  1
  Ir  Ir13  1  0.500000  0.434230  0.723666  1
  Ir  Ir14  1  0.500000  0.226683  0.930006  1
  Ir  Ir15  1  0.500000  0.569994  0.273317  1
  Ir  Ir16  1  0.500000  0.720382  0.575872  1
  Ir  Ir17  1  0.500000  0.275449  0.430594  1
  Ir  Ir18  1  0.500000  0.504283  0.995717  1
  Ru  Ru19  1  0.500000  0.997683  0.502317  1
