# generated using pymatgen
data_Ti8Al14SiPd2Rh5
_symmetry_space_group_name_H-M   'P 1'
_cell_length_a   8.65896262
_cell_length_b   8.64449874
_cell_length_c   8.65899322
_cell_angle_alpha   119.98788749
_cell_angle_beta   119.91416516
_cell_angle_gamma   90.13292413
_symmetry_Int_Tables_number   1
_chemical_formula_structural   Ti8Al14SiPd2Rh5
_chemical_formula_sum   'Ti8 Al14 Si1 Pd2 Rh5'
_cell_volume   458.45412284
_cell_formula_units_Z   1
loop_
 _symmetry_equiv_pos_site_id
 _symmetry_equiv_pos_as_xyz
  1  'x, y, z'
loop_
 _atom_site_type_symbol
 _atom_site_label
 _atom_site_symmetry_multiplicity
 _atom_site_fract_x
 _atom_site_fract_y
 _atom_site_fract_z
 _atom_site_occupancy
  Ti  Ti0  1  0.795613  0.296553  0.086860  1
  Ti  Ti1  1  0.209706  0.296555  0.500943  1
  Ti  Ti2  1  0.204087  0.703195  0.499111  1
  Ti  Ti3  1  0.206341  0.707490  0.910300  1
  Ti  Ti4  1  0.797178  0.707496  0.501143  1
  Ti  Ti5  1  0.790599  0.292312  0.501711  1
  Ti  Ti6  1  0.383743  0.128507  0.744787  1
  Ti  Ti7  1  0.379426  0.636436  0.257013  1
  Al  Al8  1  0.157849  0.340737  0.182875  1
  Al  Al9  1  0.159666  0.979885  0.820212  1
  Al  Al10  1  0.155643  0.342544  0.815282  1
  Al  Al11  1  0.527274  0.342548  0.186905  1
  Al  Al12  1  0.841261  0.657206  0.815940  1
  Al  Al13  1  0.844396  0.028197  0.183784  1
  Al  Al14  1  0.839064  0.655416  0.178390  1
  Al  Al15  1  0.477037  0.655424  0.816360  1
  Al  Al16  1  0.377466  0.122869  0.263780  1
  Al  Al17  1  0.859091  0.122879  0.745419  1
  Al  Al18  1  0.617993  0.875443  0.257451  1
  Al  Al19  1  0.621143  0.362447  0.741316  1
  Al  Al20  1  0.622484  0.876939  0.739043  1
  Al  Al21  1  0.137893  0.876934  0.254454  1
  Si  Si22  1  0.997663  0.496331  0.498665  1
  Pd  Pd23  1  0.998440  0.998692  0.498031  1
  Pd  Pd24  1  0.500657  0.998691  0.000254  1
  Rh  Rh25  1  0.498594  0.499224  0.000625  1
  Rh  Rh26  1  0.498888  0.500433  0.498632  1
  Rh  Rh27  1  0.001786  0.500427  0.001530  1
  Rh  Rh28  1  0.000938  0.999939  0.999007  1
  Rh  Rh29  1  0.498076  0.998250  0.500178  1
