# generated using pymatgen
data_Nb3SiNi2N
_symmetry_space_group_name_H-M   'P 1'
_cell_length_a   8.02050239
_cell_length_b   8.01959143
_cell_length_c   8.02037100
_cell_angle_alpha   59.99848226
_cell_angle_beta   60.00191718
_cell_angle_gamma   59.99852022
_symmetry_Int_Tables_number   1
_chemical_formula_structural   Nb3SiNi2N
_chemical_formula_sum   'Nb12 Si4 Ni8 N4'
_cell_volume   364.77891621
_cell_formula_units_Z   4
loop_
 _symmetry_equiv_pos_site_id
 _symmetry_equiv_pos_as_xyz
  1  'x, y, z'
loop_
 _atom_site_type_symbol
 _atom_site_label
 _atom_site_symmetry_multiplicity
 _atom_site_fract_x
 _atom_site_fract_y
 _atom_site_fract_z
 _atom_site_occupancy
  Nb  Nb0  1  0.800554  0.800567  0.199435  1
  Nb  Nb1  1  0.199432  0.199449  0.800566  1
  Nb  Nb2  1  0.800572  0.199440  0.800558  1
  Nb  Nb3  1  0.199436  0.800559  0.199463  1
  Nb  Nb4  1  0.199417  0.800580  0.800558  1
  Nb  Nb5  1  0.800578  0.199430  0.199435  1
  Nb  Nb6  1  0.449446  0.449433  0.050565  1
  Nb  Nb7  1  0.050568  0.050551  0.449434  1
  Nb  Nb8  1  0.449428  0.050560  0.449442  1
  Nb  Nb9  1  0.050564  0.449441  0.050537  1
  Nb  Nb10  1  0.050583  0.449420  0.449442  1
  Nb  Nb11  1  0.449422  0.050570  0.050565  1
  Si  Si12  1  0.125000  0.625000  0.625000  1
  Si  Si13  1  0.625000  0.125000  0.625000  1
  Si  Si14  1  0.625000  0.625000  0.125000  1
  Si  Si15  1  0.625000  0.625000  0.625000  1
  Ni  Ni16  1  0.743395  0.418853  0.418901  1
  Ni  Ni17  1  0.418815  0.743430  0.418873  1
  Ni  Ni18  1  0.418832  0.418910  0.743433  1
  Ni  Ni19  1  0.418870  0.418848  0.418864  1
  Ni  Ni20  1  0.506605  0.831147  0.831099  1
  Ni  Ni21  1  0.831185  0.506570  0.831127  1
  Ni  Ni22  1  0.831168  0.831090  0.506567  1
  Ni  Ni23  1  0.831130  0.831152  0.831136  1
  N  N24  1  0.625000  0.125000  0.125000  1
  N  N25  1  0.125000  0.625000  0.125000  1
  N  N26  1  0.125000  0.125000  0.625000  1
  N  N27  1  0.125000  0.125000  0.125000  1
