# generated using pymatgen
data_TbY7(Ga5Ir9)2
_symmetry_space_group_name_H-M   'P 1'
_cell_length_a   5.56600500
_cell_length_b   5.56600499
_cell_length_c   23.77195100
_cell_angle_alpha   90.00000000
_cell_angle_beta   90.00000000
_cell_angle_gamma   119.99999414
_symmetry_Int_Tables_number   1
_chemical_formula_structural   TbY7(Ga5Ir9)2
_chemical_formula_sum   'Tb1 Y7 Ga10 Ir18'
_cell_volume   637.79728604
_cell_formula_units_Z   1
loop_
 _symmetry_equiv_pos_site_id
 _symmetry_equiv_pos_as_xyz
  1  'x, y, z'
loop_
 _atom_site_type_symbol
 _atom_site_label
 _atom_site_symmetry_multiplicity
 _atom_site_fract_x
 _atom_site_fract_y
 _atom_site_fract_z
 _atom_site_occupancy
  Tb  Tb0  1  0.333333  0.666667  0.530519  1
  Y  Y1  1  0.666667  0.333333  0.469405  1
  Y  Y2  1  0.666667  0.333333  0.030509  1
  Y  Y3  1  0.333333  0.666667  0.969508  1
  Y  Y4  1  0.333333  0.666667  0.678797  1
  Y  Y5  1  0.666667  0.333333  0.321276  1
  Y  Y6  1  0.666667  0.333333  0.178611  1
  Y  Y7  1  0.333333  0.666667  0.821416  1
  Ga  Ga8  1  0.000000  0.000000  0.000017  1
  Ga  Ga9  1  0.000000  0.000000  0.499951  1
  Ga  Ga10  1  0.333333  0.666667  0.168189  1
  Ga  Ga11  1  0.666667  0.333333  0.831818  1
  Ga  Ga12  1  0.666667  0.333333  0.668127  1
  Ga  Ga13  1  0.333333  0.666667  0.331805  1
  Ga  Ga14  1  0.000000  0.000000  0.165148  1
  Ga  Ga15  1  0.000000  0.000000  0.834775  1
  Ga  Ga16  1  0.000000  0.000000  0.665252  1
  Ga  Ga17  1  0.000000  0.000000  0.334865  1
  Ir  Ir18  1  0.170715  0.341430  0.083605  1
  Ir  Ir19  1  0.829262  0.658526  0.916409  1
  Ir  Ir20  1  0.658570  0.829285  0.083605  1
  Ir  Ir21  1  0.829461  0.658924  0.583595  1
  Ir  Ir22  1  0.341474  0.170738  0.916409  1
  Ir  Ir23  1  0.170706  0.341411  0.416405  1
  Ir  Ir24  1  0.170715  0.829285  0.083605  1
  Ir  Ir25  1  0.341076  0.170539  0.583595  1
  Ir  Ir26  1  0.829262  0.170738  0.916409  1
  Ir  Ir27  1  0.658589  0.829294  0.416405  1
  Ir  Ir28  1  0.829461  0.170539  0.583595  1
  Ir  Ir29  1  0.170706  0.829294  0.416405  1
  Ir  Ir30  1  0.165087  0.330171  0.249989  1
  Ir  Ir31  1  0.834856  0.669715  0.750000  1
  Ir  Ir32  1  0.669829  0.834913  0.249989  1
  Ir  Ir33  1  0.330285  0.165144  0.750000  1
  Ir  Ir34  1  0.165087  0.834913  0.249989  1
  Ir  Ir35  1  0.834856  0.165144  0.750000  1
