# generated using pymatgen
data_AcNd(ReH9)2
_symmetry_space_group_name_H-M   'P 1'
_cell_length_a   5.02285681
_cell_length_b   5.02285818
_cell_length_c   8.77945900
_cell_angle_alpha   90.47997140
_cell_angle_beta   89.52002900
_cell_angle_gamma   120.33074433
_symmetry_Int_Tables_number   1
_chemical_formula_structural   AcNd(ReH9)2
_chemical_formula_sum   'Ac1 Nd1 Re2 H18'
_cell_volume   191.17133093
_cell_formula_units_Z   1
loop_
 _symmetry_equiv_pos_site_id
 _symmetry_equiv_pos_as_xyz
  1  'x, y, z'
loop_
 _atom_site_type_symbol
 _atom_site_label
 _atom_site_symmetry_multiplicity
 _atom_site_fract_x
 _atom_site_fract_y
 _atom_site_fract_z
 _atom_site_occupancy
  Ac  Ac0  1  0.000000  0.000000  0.500000  1
  Nd  Nd1  1  0.000000  0.000000  0.000000  1
  Re  Re2  1  0.330240  0.669760  0.754945  1
  Re  Re3  1  0.669760  0.330240  0.245055  1
  H  H4  1  0.476298  0.523702  0.619351  1
  H  H5  1  0.523702  0.476298  0.380649  1
  H  H6  1  0.457848  0.542152  0.904011  1
  H  H7  1  0.542152  0.457848  0.095989  1
  H  H8  1  0.465154  0.947438  0.895239  1
  H  H9  1  0.947438  0.465154  0.104761  1
  H  H10  1  0.480001  0.958428  0.618877  1
  H  H11  1  0.958428  0.480001  0.381123  1
  H  H12  1  0.534846  0.052562  0.104761  1
  H  H13  1  0.052562  0.534846  0.895239  1
  H  H14  1  0.519999  0.041572  0.381123  1
  H  H15  1  0.041572  0.519999  0.618877  1
  H  H16  1  0.728644  0.865678  0.762474  1
  H  H17  1  0.865678  0.728644  0.237526  1
  H  H18  1  0.271356  0.134322  0.237526  1
  H  H19  1  0.134322  0.271356  0.762474  1
  H  H20  1  0.132456  0.867544  0.759122  1
  H  H21  1  0.867544  0.132456  0.240878  1
