# generated using pymatgen
data_Y4BI5
_symmetry_space_group_name_H-M   'P 1'
_cell_length_a   9.77121119
_cell_length_b   9.77121174
_cell_length_c   8.67512565
_cell_angle_alpha   77.86466779
_cell_angle_beta   77.86466564
_cell_angle_gamma   24.29954220
_symmetry_Int_Tables_number   1
_chemical_formula_structural   Y4BI5
_chemical_formula_sum   'Y4 B1 I5'
_cell_volume   332.86576760
_cell_formula_units_Z   1
loop_
 _symmetry_equiv_pos_site_id
 _symmetry_equiv_pos_as_xyz
  1  'x, y, z'
loop_
 _atom_site_type_symbol
 _atom_site_label
 _atom_site_symmetry_multiplicity
 _atom_site_fract_x
 _atom_site_fract_y
 _atom_site_fract_z
 _atom_site_occupancy
  Y  Y0  1  0.365543  0.365543  0.067722  1
  Y  Y1  1  0.000797  0.000797  0.192478  1
  Y  Y2  1  0.634457  0.634457  0.932278  1
  Y  Y3  1  0.999203  0.999203  0.807522  1
  B  B4  1  0.500000  0.500000  0.000000  1
  I  I5  1  0.835379  0.835379  0.339056  1
  I  I6  1  0.828698  0.828698  0.826847  1
  I  I7  1  0.171302  0.171302  0.173153  1
  I  I8  1  0.500000  0.500000  0.500000  1
  I  I9  1  0.164621  0.164621  0.660944  1
