# generated using pymatgen
data_Tb14Y2Cd4Ir3Pd
_symmetry_space_group_name_H-M   'P 1'
_cell_length_a   9.66767952
_cell_length_b   9.66767882
_cell_length_c   9.67059464
_cell_angle_alpha   60.34414431
_cell_angle_beta   60.34414504
_cell_angle_gamma   60.33553039
_symmetry_Int_Tables_number   1
_chemical_formula_structural   Tb14Y2Cd4Ir3Pd
_chemical_formula_sum   'Tb14 Y2 Cd4 Ir3 Pd1'
_cell_volume   644.05478451
_cell_formula_units_Z   1
loop_
 _symmetry_equiv_pos_site_id
 _symmetry_equiv_pos_as_xyz
  1  'x, y, z'
loop_
 _atom_site_type_symbol
 _atom_site_label
 _atom_site_symmetry_multiplicity
 _atom_site_fract_x
 _atom_site_fract_y
 _atom_site_fract_z
 _atom_site_occupancy
  Tb  Tb0  1  0.347259  0.347259  0.347281  1
  Tb  Tb1  1  0.353509  0.353509  0.947767  1
  Tb  Tb2  1  0.353816  0.947929  0.353515  1
  Tb  Tb3  1  0.947929  0.353816  0.353515  1
  Tb  Tb4  1  0.804432  0.190618  0.190546  1
  Tb  Tb5  1  0.188368  0.810271  0.810361  1
  Tb  Tb6  1  0.190618  0.804432  0.190546  1
  Tb  Tb7  1  0.810271  0.188368  0.810361  1
  Tb  Tb8  1  0.190532  0.190532  0.804292  1
  Tb  Tb9  1  0.810376  0.810376  0.188458  1
  Tb  Tb10  1  0.938644  0.563105  0.563139  1
  Tb  Tb11  1  0.564669  0.937241  0.937438  1
  Tb  Tb12  1  0.563105  0.938644  0.563139  1
  Tb  Tb13  1  0.937241  0.564669  0.937438  1
  Y  Y14  1  0.563278  0.563278  0.938401  1
  Y  Y15  1  0.937153  0.937153  0.564940  1
  Cd  Cd16  1  0.580775  0.580775  0.581311  1
  Cd  Cd17  1  0.580587  0.580587  0.256022  1
  Cd  Cd18  1  0.580930  0.256064  0.580573  1
  Cd  Cd19  1  0.256064  0.580930  0.580573  1
  Ir  Ir20  1  0.141733  0.141733  0.573849  1
  Ir  Ir21  1  0.141910  0.573821  0.141611  1
  Ir  Ir22  1  0.573821  0.141910  0.141611  1
  Pd  Pd23  1  0.142982  0.142982  0.143314  1
