# generated using pymatgen
data_GdY4Cr2O12
_symmetry_space_group_name_H-M   'P 1'
_cell_length_a   6.81102577
_cell_length_b   6.81102463
_cell_length_c   7.31067200
_cell_angle_alpha   74.43048377
_cell_angle_beta   74.43049518
_cell_angle_gamma   50.74561513
_symmetry_Int_Tables_number   1
_chemical_formula_structural   GdY4Cr2O12
_chemical_formula_sum   'Gd1 Y4 Cr2 O12'
_cell_volume   250.75822133
_cell_formula_units_Z   1
loop_
 _symmetry_equiv_pos_site_id
 _symmetry_equiv_pos_as_xyz
  1  'x, y, z'
loop_
 _atom_site_type_symbol
 _atom_site_label
 _atom_site_symmetry_multiplicity
 _atom_site_fract_x
 _atom_site_fract_y
 _atom_site_fract_z
 _atom_site_occupancy
  Gd  Gd0  1  0.000000  0.000000  0.500000  1
  Y  Y1  1  0.306086  0.306086  0.357217  1
  Y  Y2  1  0.693914  0.693914  0.642783  1
  Y  Y3  1  0.309224  0.309224  0.832262  1
  Y  Y4  1  0.690776  0.690776  0.167738  1
  Cr  Cr5  1  0.757449  0.242551  0.000000  1
  Cr  Cr6  1  0.242551  0.757449  0.000000  1
  O  O7  1  0.897930  0.420819  0.920794  1
  O  O8  1  0.420819  0.897930  0.920794  1
  O  O9  1  0.102070  0.579181  0.079206  1
  O  O10  1  0.579181  0.102070  0.079206  1
  O  O11  1  0.096239  0.595279  0.576973  1
  O  O12  1  0.595279  0.096239  0.576973  1
  O  O13  1  0.903761  0.404721  0.423027  1
  O  O14  1  0.404721  0.903761  0.423027  1
  O  O15  1  0.000681  0.000681  0.825423  1
  O  O16  1  0.999319  0.999319  0.174577  1
  O  O17  1  0.499729  0.499729  0.819793  1
  O  O18  1  0.500271  0.500271  0.180207  1
