# generated using pymatgen
data_Y6PuFe22
_symmetry_space_group_name_H-M   'P 1'
_cell_length_a   8.54795600
_cell_length_b   8.54795625
_cell_length_c   8.54795600
_cell_angle_alpha   119.99999905
_cell_angle_beta   90.00000000
_cell_angle_gamma   119.99999905
_symmetry_Int_Tables_number   1
_chemical_formula_structural   Y6PuFe22
_chemical_formula_sum   'Y6 Pu1 Fe22'
_cell_volume   441.64351843
_cell_formula_units_Z   1
loop_
 _symmetry_equiv_pos_site_id
 _symmetry_equiv_pos_as_xyz
  1  'x, y, z'
loop_
 _atom_site_type_symbol
 _atom_site_label
 _atom_site_symmetry_multiplicity
 _atom_site_fract_x
 _atom_site_fract_y
 _atom_site_fract_z
 _atom_site_occupancy
  Y  Y0  1  0.707033  0.000000  0.292966  1
  Y  Y1  1  0.292967  0.000000  0.292967  1
  Y  Y2  1  0.292967  0.585935  0.292967  1
  Y  Y3  1  0.292966  0.000000  0.707033  1
  Y  Y4  1  0.707033  0.000000  0.707033  1
  Y  Y5  1  0.707033  0.414066  0.707033  1
  Pu  Pu6  1  0.000000  0.000000  0.000000  1
  Fe  Fe7  1  0.500001  0.000000  0.000000  1
  Fe  Fe8  1  0.000000  0.500001  0.000000  1
  Fe  Fe9  1  0.500001  0.500001  0.000000  1
  Fe  Fe10  1  0.675661  0.351325  0.026987  1
  Fe  Fe11  1  0.875623  0.751246  0.124377  1
  Fe  Fe12  1  0.373129  0.248753  0.124377  1
  Fe  Fe13  1  0.875623  0.248753  0.124377  1
  Fe  Fe14  1  0.675661  0.351325  0.324338  1
  Fe  Fe15  1  0.675661  0.648675  0.324338  1
  Fe  Fe16  1  0.973013  0.648675  0.324338  1
  Fe  Fe17  1  0.124377  0.248753  0.373129  1
  Fe  Fe18  1  0.000000  0.000000  0.500001  1
  Fe  Fe19  1  0.000000  0.500001  0.500001  1
  Fe  Fe20  1  0.500001  0.500001  0.500001  1
  Fe  Fe21  1  0.875623  0.751246  0.626870  1
  Fe  Fe22  1  0.026987  0.351325  0.675661  1
  Fe  Fe23  1  0.324338  0.351325  0.675661  1
  Fe  Fe24  1  0.324338  0.648675  0.675661  1
  Fe  Fe25  1  0.124377  0.248753  0.875623  1
  Fe  Fe26  1  0.124377  0.751246  0.875623  1
  Fe  Fe27  1  0.626870  0.751246  0.875623  1
  Fe  Fe28  1  0.324338  0.648675  0.973013  1
