# generated using pymatgen
data_LiCe6TiP10
_symmetry_space_group_name_H-M   'P 1'
_cell_length_a   8.40773400
_cell_length_b   8.40773640
_cell_length_c   5.63104200
_cell_angle_alpha   90.00000000
_cell_angle_beta   90.00000000
_cell_angle_gamma   119.99999057
_symmetry_Int_Tables_number   1
_chemical_formula_structural   LiCe6TiP10
_chemical_formula_sum   'Li1 Ce6 Ti1 P10'
_cell_volume   344.72873828
_cell_formula_units_Z   1
loop_
 _symmetry_equiv_pos_site_id
 _symmetry_equiv_pos_as_xyz
  1  'x, y, z'
loop_
 _atom_site_type_symbol
 _atom_site_label
 _atom_site_symmetry_multiplicity
 _atom_site_fract_x
 _atom_site_fract_y
 _atom_site_fract_z
 _atom_site_occupancy
  Li  Li0  1  0.000000  0.000000  0.500000  1
  Ce  Ce1  1  0.620804  0.000000  0.252693  1
  Ce  Ce2  1  0.379196  0.000000  0.747307  1
  Ce  Ce3  1  0.000000  0.620804  0.252693  1
  Ce  Ce4  1  0.000000  0.379196  0.747307  1
  Ce  Ce5  1  0.379196  0.379196  0.252693  1
  Ce  Ce6  1  0.620804  0.620804  0.747307  1
  Ti  Ti7  1  0.000000  0.000000  0.000000  1
  P  P8  1  0.253577  0.000000  0.244757  1
  P  P9  1  0.746423  0.000000  0.755243  1
  P  P10  1  0.000000  0.253577  0.244757  1
  P  P11  1  0.000000  0.746423  0.755243  1
  P  P12  1  0.746423  0.746423  0.244757  1
  P  P13  1  0.253577  0.253577  0.755243  1
  P  P14  1  0.333333  0.666667  0.000000  1
  P  P15  1  0.666667  0.333333  0.000000  1
  P  P16  1  0.666667  0.333333  0.500000  1
  P  P17  1  0.333333  0.666667  0.500000  1
