# generated using pymatgen
data_NaSmHg(P3Pd10)2
_symmetry_space_group_name_H-M   'P 1'
_cell_length_a   8.65645424
_cell_length_b   8.65638948
_cell_length_c   8.65639700
_cell_angle_alpha   60.00108505
_cell_angle_beta   60.00110166
_cell_angle_gamma   60.00079086
_symmetry_Int_Tables_number   1
_chemical_formula_structural   NaSmHg(P3Pd10)2
_chemical_formula_sum   'Na1 Sm1 Hg1 P6 Pd20'
_cell_volume   458.67890485
_cell_formula_units_Z   1
loop_
 _symmetry_equiv_pos_site_id
 _symmetry_equiv_pos_as_xyz
  1  'x, y, z'
loop_
 _atom_site_type_symbol
 _atom_site_label
 _atom_site_symmetry_multiplicity
 _atom_site_fract_x
 _atom_site_fract_y
 _atom_site_fract_z
 _atom_site_occupancy
  Na  Na0  1  0.000000  0.000000  0.000000  1
  Sm  Sm1  1  0.749998  0.750000  0.750000  1
  Hg  Hg2  1  0.249999  0.250000  0.250000  1
  P  P3  1  0.737480  0.262524  0.262524  1
  P  P4  1  0.262522  0.737476  0.737477  1
  P  P5  1  0.262525  0.737477  0.262526  1
  P  P6  1  0.737476  0.262525  0.737474  1
  P  P7  1  0.262525  0.262525  0.737478  1
  P  P8  1  0.737477  0.737474  0.262524  1
  Pd  Pd9  1  0.382450  0.382450  0.382449  1
  Pd  Pd10  1  0.612397  0.612395  0.612396  1
  Pd  Pd11  1  0.382452  0.382451  0.852648  1
  Pd  Pd12  1  0.382451  0.852649  0.382451  1
  Pd  Pd13  1  0.612397  0.612396  0.162814  1
  Pd  Pd14  1  0.612396  0.162813  0.612396  1
  Pd  Pd15  1  0.852647  0.382451  0.382452  1
  Pd  Pd16  1  0.162812  0.612396  0.612397  1
  Pd  Pd17  1  0.347309  0.998007  0.998008  1
  Pd  Pd18  1  0.656673  0.998010  0.998010  1
  Pd  Pd19  1  0.998009  0.347308  0.656676  1
  Pd  Pd20  1  0.998008  0.656676  0.347308  1
  Pd  Pd21  1  0.998008  0.347309  0.998009  1
  Pd  Pd22  1  0.656675  0.998010  0.347306  1
  Pd  Pd23  1  0.998010  0.656673  0.998010  1
  Pd  Pd24  1  0.347307  0.998009  0.656675  1
  Pd  Pd25  1  0.998008  0.998008  0.347309  1
  Pd  Pd26  1  0.998010  0.998010  0.656673  1
  Pd  Pd27  1  0.656677  0.347307  0.998009  1
  Pd  Pd28  1  0.347308  0.656676  0.998008  1
