# generated using pymatgen
data_LiSc2(Co3P2)3
_symmetry_space_group_name_H-M   'P 1'
_cell_length_a   3.59556600
_cell_length_b   10.10636700
_cell_length_c   11.68947700
_cell_angle_alpha   90.00000000
_cell_angle_beta   90.00000000
_cell_angle_gamma   90.00000000
_symmetry_Int_Tables_number   1
_chemical_formula_structural   LiSc2(Co3P2)3
_chemical_formula_sum   'Li2 Sc4 Co18 P12'
_cell_volume   424.77349603
_cell_formula_units_Z   2
loop_
 _symmetry_equiv_pos_site_id
 _symmetry_equiv_pos_as_xyz
  1  'x, y, z'
loop_
 _atom_site_type_symbol
 _atom_site_label
 _atom_site_symmetry_multiplicity
 _atom_site_fract_x
 _atom_site_fract_y
 _atom_site_fract_z
 _atom_site_occupancy
  Li  Li0  1  0.250000  0.704200  0.990777  1
  Li  Li1  1  0.250000  0.795800  0.490777  1
  Sc  Sc2  1  0.250000  0.578042  0.703415  1
  Sc  Sc3  1  0.250000  0.921958  0.203415  1
  Sc  Sc4  1  0.750000  0.422166  0.297940  1
  Sc  Sc5  1  0.750000  0.077834  0.797940  1
  Co  Co6  1  0.750000  0.286975  0.007923  1
  Co  Co7  1  0.750000  0.213025  0.507923  1
  Co  Co8  1  0.250000  0.405842  0.485228  1
  Co  Co9  1  0.250000  0.094158  0.985228  1
  Co  Co10  1  0.750000  0.591414  0.517373  1
  Co  Co11  1  0.750000  0.908586  0.017373  1
  Co  Co12  1  0.250000  0.224835  0.174935  1
  Co  Co13  1  0.250000  0.275166  0.674935  1
  Co  Co14  1  0.750000  0.779617  0.826106  1
  Co  Co15  1  0.750000  0.720383  0.326106  1
  Co  Co16  1  0.250000  0.880607  0.700144  1
  Co  Co17  1  0.250000  0.619393  0.200144  1
  Co  Co18  1  0.750000  0.121392  0.298249  1
  Co  Co19  1  0.750000  0.378608  0.798249  1
  Co  Co20  1  0.250000  0.462006  0.930531  1
  Co  Co21  1  0.250000  0.037994  0.430531  1
  Co  Co22  1  0.750000  0.535090  0.067131  1
  Co  Co23  1  0.750000  0.964910  0.567131  1
  P  P24  1  0.250000  0.423141  0.114516  1
  P  P25  1  0.250000  0.076859  0.614516  1
  P  P26  1  0.750000  0.576710  0.881274  1
  P  P27  1  0.750000  0.923290  0.381274  1
  P  P28  1  0.250000  0.262472  0.865619  1
  P  P29  1  0.250000  0.237528  0.365619  1
  P  P30  1  0.750000  0.736166  0.138672  1
  P  P31  1  0.750000  0.763834  0.638672  1
  P  P32  1  0.250000  0.598909  0.391426  1
  P  P33  1  0.250000  0.901091  0.891426  1
  P  P34  1  0.750000  0.398933  0.608743  1
  P  P35  1  0.750000  0.101067  0.108743  1
