# generated using pymatgen
data_NbAg3(SeS)2
_symmetry_space_group_name_H-M   'P 1'
_cell_length_a   6.19159817
_cell_length_b   6.19159771
_cell_length_c   6.18984800
_cell_angle_alpha   90.00000000
_cell_angle_beta   90.00000000
_cell_angle_gamma   91.29499454
_symmetry_Int_Tables_number   1
_chemical_formula_structural   NbAg3(SeS)2
_chemical_formula_sum   'Nb1 Ag3 Se2 S2'
_cell_volume   237.23269399
_cell_formula_units_Z   1
loop_
 _symmetry_equiv_pos_site_id
 _symmetry_equiv_pos_as_xyz
  1  'x, y, z'
loop_
 _atom_site_type_symbol
 _atom_site_label
 _atom_site_symmetry_multiplicity
 _atom_site_fract_x
 _atom_site_fract_y
 _atom_site_fract_z
 _atom_site_occupancy
  Nb  Nb0  1  0.000000  0.000000  0.000927  1
  Ag  Ag1  1  0.500000  0.000000  0.008769  1
  Ag  Ag2  1  0.000000  0.500000  0.008769  1
  Ag  Ag3  1  0.000000  0.000000  0.500227  1
  Se  Se4  1  0.762814  0.762814  0.769143  1
  Se  Se5  1  0.237186  0.237186  0.769143  1
  S  S6  1  0.216063  0.783937  0.221511  1
  S  S7  1  0.783937  0.216063  0.221511  1
