# generated using pymatgen
data_NiPd(PtO3)2
_symmetry_space_group_name_H-M   'P 1'
_cell_length_a   3.19303500
_cell_length_b   7.20823800
_cell_length_c   10.00052300
_cell_angle_alpha   90.00000000
_cell_angle_beta   90.00000000
_cell_angle_gamma   90.00000000
_symmetry_Int_Tables_number   1
_chemical_formula_structural   NiPd(PtO3)2
_chemical_formula_sum   'Ni2 Pd2 Pt4 O12'
_cell_volume   230.17359967
_cell_formula_units_Z   2
loop_
 _symmetry_equiv_pos_site_id
 _symmetry_equiv_pos_as_xyz
  1  'x, y, z'
loop_
 _atom_site_type_symbol
 _atom_site_label
 _atom_site_symmetry_multiplicity
 _atom_site_fract_x
 _atom_site_fract_y
 _atom_site_fract_z
 _atom_site_occupancy
  Ni  Ni0  1  0.000000  0.000000  0.000000  1
  Ni  Ni1  1  0.000000  0.500000  0.500000  1
  Pd  Pd2  1  0.000000  0.000000  0.500000  1
  Pd  Pd3  1  0.000000  0.500000  0.000000  1
  Pt  Pt4  1  0.500000  0.245283  0.247571  1
  Pt  Pt5  1  0.500000  0.754717  0.752429  1
  Pt  Pt6  1  0.500000  0.254717  0.747571  1
  Pt  Pt7  1  0.500000  0.745283  0.252429  1
  O  O8  1  0.500000  0.994675  0.146686  1
  O  O9  1  0.500000  0.005325  0.853314  1
  O  O10  1  0.500000  0.505325  0.646686  1
  O  O11  1  0.500000  0.494675  0.353314  1
  O  O12  1  0.000000  0.206583  0.369420  1
  O  O13  1  0.000000  0.793417  0.630580  1
  O  O14  1  0.000000  0.293417  0.869420  1
  O  O15  1  0.000000  0.706583  0.130580  1
  O  O16  1  0.000000  0.283384  0.123738  1
  O  O17  1  0.000000  0.716616  0.876262  1
  O  O18  1  0.000000  0.216616  0.623738  1
  O  O19  1  0.000000  0.783384  0.376262  1
