# generated using pymatgen
data_Dy5Zr3Pt4
_symmetry_space_group_name_H-M   'P 1'
_cell_length_a   4.73576400
_cell_length_b   7.13224303
_cell_length_c   8.34870855
_cell_angle_alpha   90.44761922
_cell_angle_beta   90.00000000
_cell_angle_gamma   90.00000000
_symmetry_Int_Tables_number   1
_chemical_formula_structural   Dy5Zr3Pt4
_chemical_formula_sum   'Dy5 Zr3 Pt4'
_cell_volume   281.98254877
_cell_formula_units_Z   1
loop_
 _symmetry_equiv_pos_site_id
 _symmetry_equiv_pos_as_xyz
  1  'x, y, z'
loop_
 _atom_site_type_symbol
 _atom_site_label
 _atom_site_symmetry_multiplicity
 _atom_site_fract_x
 _atom_site_fract_y
 _atom_site_fract_z
 _atom_site_occupancy
  Dy  Dy0  1  0.750000  0.352986  0.416660  1
  Dy  Dy1  1  0.250000  0.009540  0.325360  1
  Dy  Dy2  1  0.250000  0.519358  0.170400  1
  Dy  Dy3  1  0.750000  0.982078  0.681542  1
  Dy  Dy4  1  0.750000  0.485406  0.822685  1
  Zr  Zr5  1  0.250000  0.144128  0.922076  1
  Zr  Zr6  1  0.250000  0.646339  0.580451  1
  Zr  Zr7  1  0.750000  0.852307  0.080051  1
  Pt  Pt8  1  0.250000  0.264471  0.604573  1
  Pt  Pt9  1  0.250000  0.769714  0.906606  1
  Pt  Pt10  1  0.750000  0.745575  0.408594  1
  Pt  Pt11  1  0.750000  0.228097  0.081001  1
