# generated using pymatgen
data_GaHgBr4
_symmetry_space_group_name_H-M   'P 1'
_cell_length_a   7.01817025
_cell_length_b   7.33589033
_cell_length_c   10.26968432
_cell_angle_alpha   82.54915740
_cell_angle_beta   75.96048958
_cell_angle_gamma   61.06504787
_symmetry_Int_Tables_number   1
_chemical_formula_structural   GaHgBr4
_chemical_formula_sum   'Ga2 Hg2 Br8'
_cell_volume   448.85879164
_cell_formula_units_Z   2
loop_
 _symmetry_equiv_pos_site_id
 _symmetry_equiv_pos_as_xyz
  1  'x, y, z'
loop_
 _atom_site_type_symbol
 _atom_site_label
 _atom_site_symmetry_multiplicity
 _atom_site_fract_x
 _atom_site_fract_y
 _atom_site_fract_z
 _atom_site_occupancy
  Ga  Ga0  1  0.378677  0.854779  0.762642  1
  Ga  Ga1  1  0.621323  0.145221  0.237358  1
  Hg  Hg2  1  0.934632  0.516421  0.887054  1
  Hg  Hg3  1  0.065368  0.483579  0.112946  1
  Br  Br4  1  0.751256  0.558100  0.680355  1
  Br  Br5  1  0.248744  0.441900  0.319645  1
  Br  Br6  1  0.333309  0.822549  0.996654  1
  Br  Br7  1  0.666691  0.177451  0.003346  1
  Br  Br8  1  0.132924  0.804044  0.672623  1
  Br  Br9  1  0.867076  0.195956  0.327377  1
  Br  Br10  1  0.391938  0.164852  0.687251  1
  Br  Br11  1  0.608062  0.835148  0.312749  1
