# generated using pymatgen
data_Li3Pr4ErPt4
_symmetry_space_group_name_H-M   'P 1'
_cell_length_a   4.19180700
_cell_length_b   7.42835223
_cell_length_c   8.88160213
_cell_angle_alpha   89.17684508
_cell_angle_beta   90.00000000
_cell_angle_gamma   90.00000000
_symmetry_Int_Tables_number   1
_chemical_formula_structural   Li3Pr4ErPt4
_chemical_formula_sum   'Li3 Pr4 Er1 Pt4'
_cell_volume   276.52873026
_cell_formula_units_Z   1
loop_
 _symmetry_equiv_pos_site_id
 _symmetry_equiv_pos_as_xyz
  1  'x, y, z'
loop_
 _atom_site_type_symbol
 _atom_site_label
 _atom_site_symmetry_multiplicity
 _atom_site_fract_x
 _atom_site_fract_y
 _atom_site_fract_z
 _atom_site_occupancy
  Li  Li0  1  0.250000  0.147782  0.068670  1
  Li  Li1  1  0.750000  0.376044  0.550864  1
  Li  Li2  1  0.250000  0.629041  0.447239  1
  Pr  Pr3  1  0.250000  0.517594  0.805822  1
  Pr  Pr4  1  0.250000  0.053261  0.664729  1
  Pr  Pr5  1  0.750000  0.960962  0.325012  1
  Pr  Pr6  1  0.750000  0.451797  0.187977  1
  Er  Er7  1  0.750000  0.871404  0.942021  1
  Pt  Pt8  1  0.250000  0.740619  0.117854  1
  Pt  Pt9  1  0.250000  0.255140  0.379954  1
  Pt  Pt10  1  0.750000  0.754928  0.628788  1
  Pt  Pt11  1  0.750000  0.241427  0.881070  1
