# generated using pymatgen
data_Hf4VGe3C
_symmetry_space_group_name_H-M   'P 1'
_cell_length_a   7.84587900
_cell_length_b   7.84587829
_cell_length_c   5.49062800
_cell_angle_alpha   90.00000000
_cell_angle_beta   90.00000000
_cell_angle_gamma   119.99999877
_symmetry_Int_Tables_number   1
_chemical_formula_structural   Hf4VGe3C
_chemical_formula_sum   'Hf8 V2 Ge6 C2'
_cell_volume   292.70883458
_cell_formula_units_Z   2
loop_
 _symmetry_equiv_pos_site_id
 _symmetry_equiv_pos_as_xyz
  1  'x, y, z'
loop_
 _atom_site_type_symbol
 _atom_site_label
 _atom_site_symmetry_multiplicity
 _atom_site_fract_x
 _atom_site_fract_y
 _atom_site_fract_z
 _atom_site_occupancy
  Hf  Hf0  1  0.333333  0.666667  0.000000  1
  Hf  Hf1  1  0.666667  0.333333  0.000000  1
  Hf  Hf2  1  0.233080  0.000000  0.249198  1
  Hf  Hf3  1  0.766920  0.000000  0.750802  1
  Hf  Hf4  1  0.000000  0.233080  0.249198  1
  Hf  Hf5  1  0.000000  0.766920  0.750802  1
  Hf  Hf6  1  0.766920  0.766920  0.249198  1
  Hf  Hf7  1  0.233080  0.233080  0.750802  1
  V  V8  1  0.666667  0.333333  0.500000  1
  V  V9  1  0.333333  0.666667  0.500000  1
  Ge  Ge10  1  0.592702  0.000000  0.267895  1
  Ge  Ge11  1  0.407298  0.000000  0.732105  1
  Ge  Ge12  1  0.000000  0.592702  0.267895  1
  Ge  Ge13  1  0.000000  0.407298  0.732105  1
  Ge  Ge14  1  0.407298  0.407298  0.267895  1
  Ge  Ge15  1  0.592702  0.592702  0.732105  1
  C  C16  1  0.000000  0.000000  0.000000  1
  C  C17  1  0.000000  0.000000  0.500000  1
