# generated using pymatgen
data_Np2AlSi3
_symmetry_space_group_name_H-M   'P 1'
_cell_length_a   5.41448500
_cell_length_b   5.41448563
_cell_length_c   8.01127200
_cell_angle_alpha   90.00000000
_cell_angle_beta   90.00000000
_cell_angle_gamma   120.00000225
_symmetry_Int_Tables_number   1
_chemical_formula_structural   Np2AlSi3
_chemical_formula_sum   'Np4 Al2 Si6'
_cell_volume   203.39789763
_cell_formula_units_Z   2
loop_
 _symmetry_equiv_pos_site_id
 _symmetry_equiv_pos_as_xyz
  1  'x, y, z'
loop_
 _atom_site_type_symbol
 _atom_site_label
 _atom_site_symmetry_multiplicity
 _atom_site_fract_x
 _atom_site_fract_y
 _atom_site_fract_z
 _atom_site_occupancy
  Np  Np0  1  0.333333  0.666667  0.400925  1
  Np  Np1  1  0.666667  0.333333  0.900925  1
  Np  Np2  1  0.666667  0.333333  0.599075  1
  Np  Np3  1  0.333333  0.666667  0.099075  1
  Al  Al4  1  0.000000  0.000000  0.500000  1
  Al  Al5  1  0.000000  0.000000  0.000000  1
  Si  Si6  1  0.182117  0.817883  0.750000  1
  Si  Si7  1  0.364236  0.182117  0.250000  1
  Si  Si8  1  0.817883  0.182117  0.250000  1
  Si  Si9  1  0.635764  0.817883  0.750000  1
  Si  Si10  1  0.182117  0.364236  0.750000  1
  Si  Si11  1  0.817883  0.635764  0.250000  1
