# generated using pymatgen
data_Y2Tm3Co19(Si3P)3
_symmetry_space_group_name_H-M   'P 1'
_cell_length_a   12.07388000
_cell_length_b   12.07388017
_cell_length_c   3.67768800
_cell_angle_alpha   90.00000000
_cell_angle_beta   90.00000000
_cell_angle_gamma   119.99999953
_symmetry_Int_Tables_number   1
_chemical_formula_structural   Y2Tm3Co19(Si3P)3
_chemical_formula_sum   'Y2 Tm3 Co19 Si9 P3'
_cell_volume   464.30058723
_cell_formula_units_Z   1
loop_
 _symmetry_equiv_pos_site_id
 _symmetry_equiv_pos_as_xyz
  1  'x, y, z'
loop_
 _atom_site_type_symbol
 _atom_site_label
 _atom_site_symmetry_multiplicity
 _atom_site_fract_x
 _atom_site_fract_y
 _atom_site_fract_z
 _atom_site_occupancy
  Y  Y0  1  0.666667  0.333333  0.000000  1
  Y  Y1  1  0.333333  0.666667  0.000000  1
  Tm  Tm2  1  0.184236  0.184236  0.500000  1
  Tm  Tm3  1  0.815764  0.000000  0.500000  1
  Tm  Tm4  1  0.000000  0.815764  0.500000  1
  Co  Co5  1  0.824454  0.196342  0.000000  1
  Co  Co6  1  0.803658  0.628110  0.000000  1
  Co  Co7  1  0.371890  0.175546  0.000000  1
  Co  Co8  1  0.196342  0.824454  0.000000  1
  Co  Co9  1  0.628110  0.803658  0.000000  1
  Co  Co10  1  0.175546  0.371890  0.000000  1
  Co  Co11  1  0.557676  0.557676  0.000000  1
  Co  Co12  1  0.442324  0.000000  0.000000  1
  Co  Co13  1  0.000000  0.442324  0.000000  1
  Co  Co14  1  0.645317  0.123154  0.500000  1
  Co  Co15  1  0.876846  0.522165  0.500000  1
  Co  Co16  1  0.477835  0.354683  0.500000  1
  Co  Co17  1  0.123154  0.645317  0.500000  1
  Co  Co18  1  0.522165  0.876846  0.500000  1
  Co  Co19  1  0.354683  0.477835  0.500000  1
  Co  Co20  1  0.723405  0.723405  0.500000  1
  Co  Co21  1  0.276595  0.000000  0.500000  1
  Co  Co22  1  0.000000  0.276595  0.500000  1
  Co  Co23  1  0.000000  0.000000  0.000000  1
  Si  Si24  1  0.368817  0.368817  0.000000  1
  Si  Si25  1  0.631183  0.000000  0.000000  1
  Si  Si26  1  0.000000  0.631183  0.000000  1
  Si  Si27  1  0.840913  0.318685  0.500000  1
  Si  Si28  1  0.681315  0.522228  0.500000  1
  Si  Si29  1  0.477772  0.159087  0.500000  1
  Si  Si30  1  0.318685  0.840913  0.500000  1
  Si  Si31  1  0.522228  0.681315  0.500000  1
  Si  Si32  1  0.159087  0.477772  0.500000  1
  P  P33  1  0.820023  0.820023  0.000000  1
  P  P34  1  0.179977  0.000000  0.000000  1
  P  P35  1  0.000000  0.179977  0.000000  1
