# generated using pymatgen
data_Ho9Zn3Ga
_symmetry_space_group_name_H-M   'P 1'
_cell_length_a   8.54409264
_cell_length_b   8.54409195
_cell_length_c   8.56751255
_cell_angle_alpha   94.67810869
_cell_angle_beta   95.28502500
_cell_angle_gamma   145.67536978
_symmetry_Int_Tables_number   1
_chemical_formula_structural   Ho9Zn3Ga
_chemical_formula_sum   'Ho9 Zn3 Ga1'
_cell_volume   337.05300674
_cell_formula_units_Z   1
loop_
 _symmetry_equiv_pos_site_id
 _symmetry_equiv_pos_as_xyz
  1  'x, y, z'
loop_
 _atom_site_type_symbol
 _atom_site_label
 _atom_site_symmetry_multiplicity
 _atom_site_fract_x
 _atom_site_fract_y
 _atom_site_fract_z
 _atom_site_occupancy
  Ho  Ho0  1  0.500344  0.499108  0.999454  1
  Ho  Ho1  1  0.181564  0.887052  0.068617  1
  Ho  Ho2  1  0.112493  0.182618  0.295111  1
  Ho  Ho3  1  0.884638  0.403383  0.288023  1
  Ho  Ho4  1  0.598723  0.886096  0.484820  1
  Ho  Ho5  1  0.403548  0.117150  0.520697  1
  Ho  Ho6  1  0.116586  0.596713  0.713300  1
  Ho  Ho7  1  0.886498  0.817079  0.703579  1
  Ho  Ho8  1  0.816920  0.112774  0.929694  1
  Zn  Zn9  1  0.735819  0.606524  0.342346  1
  Zn  Zn10  1  0.264246  0.392107  0.656351  1
  Zn  Zn11  1  0.606798  0.264918  0.871716  1
  Ga  Ga12  1  0.391817  0.734472  0.126291  1
