# generated using pymatgen
data_Pr8Al(Si4Rh)3
_symmetry_space_group_name_H-M   'P 1'
_cell_length_a   8.28728300
_cell_length_b   8.28728359
_cell_length_c   8.58083500
_cell_angle_alpha   90.00000000
_cell_angle_beta   90.00000000
_cell_angle_gamma   120.00000163
_symmetry_Int_Tables_number   1
_chemical_formula_structural   Pr8Al(Si4Rh)3
_chemical_formula_sum   'Pr8 Al1 Si12 Rh3'
_cell_volume   510.36930395
_cell_formula_units_Z   1
loop_
 _symmetry_equiv_pos_site_id
 _symmetry_equiv_pos_as_xyz
  1  'x, y, z'
loop_
 _atom_site_type_symbol
 _atom_site_label
 _atom_site_symmetry_multiplicity
 _atom_site_fract_x
 _atom_site_fract_y
 _atom_site_fract_z
 _atom_site_occupancy
  Pr  Pr0  1  0.497455  0.502545  0.754313  1
  Pr  Pr1  1  0.499018  0.500982  0.246057  1
  Pr  Pr2  1  0.005092  0.502545  0.754313  1
  Pr  Pr3  1  0.001965  0.500982  0.246057  1
  Pr  Pr4  1  0.497455  0.994908  0.754313  1
  Pr  Pr5  1  0.499018  0.998035  0.246057  1
  Pr  Pr6  1  0.000000  0.000000  0.752017  1
  Pr  Pr7  1  0.000000  0.000000  0.247287  1
  Al  Al8  1  0.666667  0.333333  0.504568  1
  Si  Si9  1  0.832547  0.167453  0.999567  1
  Si  Si10  1  0.166777  0.833223  0.000284  1
  Si  Si11  1  0.334905  0.167453  0.999567  1
  Si  Si12  1  0.169518  0.830482  0.500692  1
  Si  Si13  1  0.666447  0.833223  0.000284  1
  Si  Si14  1  0.838614  0.161386  0.498713  1
  Si  Si15  1  0.832547  0.665095  0.999567  1
  Si  Si16  1  0.660965  0.830482  0.500692  1
  Si  Si17  1  0.166777  0.333553  0.000284  1
  Si  Si18  1  0.322774  0.161386  0.498713  1
  Si  Si19  1  0.169518  0.339035  0.500692  1
  Si  Si20  1  0.838614  0.677226  0.498713  1
  Rh  Rh21  1  0.666667  0.333333  0.997485  1
  Rh  Rh22  1  0.333333  0.666667  0.002151  1
  Rh  Rh23  1  0.333333  0.666667  0.497616  1
