# generated using pymatgen
data_La6Zn4BiSb11
_symmetry_space_group_name_H-M   'P 1'
_cell_length_a   4.35513400
_cell_length_b   10.55025609
_cell_length_c   13.61961212
_cell_angle_alpha   90.01493445
_cell_angle_beta   90.00000000
_cell_angle_gamma   90.00000000
_symmetry_Int_Tables_number   1
_chemical_formula_structural   La6Zn4BiSb11
_chemical_formula_sum   'La6 Zn4 Bi1 Sb11'
_cell_volume   625.79090636
_cell_formula_units_Z   1
loop_
 _symmetry_equiv_pos_site_id
 _symmetry_equiv_pos_as_xyz
  1  'x, y, z'
loop_
 _atom_site_type_symbol
 _atom_site_label
 _atom_site_symmetry_multiplicity
 _atom_site_fract_x
 _atom_site_fract_y
 _atom_site_fract_z
 _atom_site_occupancy
  La  La0  1  0.750000  0.246247  0.747903  1
  La  La1  1  0.750000  0.260618  0.411283  1
  La  La2  1  0.250000  0.743555  0.911012  1
  La  La3  1  0.250000  0.739340  0.588452  1
  La  La4  1  0.250000  0.751497  0.250527  1
  La  La5  1  0.750000  0.258608  0.091064  1
  Zn  Zn6  1  0.250000  0.002415  0.092117  1
  Zn  Zn7  1  0.250000  0.002317  0.408114  1
  Zn  Zn8  1  0.750000  0.997266  0.591503  1
  Zn  Zn9  1  0.750000  0.998112  0.908001  1
  Bi  Bi10  1  0.750000  0.492439  0.916670  1
  Sb  Sb11  1  0.750000  0.504697  0.251455  1
  Sb  Sb12  1  0.750000  0.843716  0.749558  1
  Sb  Sb13  1  0.750000  0.844112  0.421006  1
  Sb  Sb14  1  0.250000  0.156122  0.921024  1
  Sb  Sb15  1  0.250000  0.155899  0.578163  1
  Sb  Sb16  1  0.250000  0.156337  0.250645  1
  Sb  Sb17  1  0.250000  0.507496  0.086927  1
  Sb  Sb18  1  0.250000  0.494787  0.746430  1
  Sb  Sb19  1  0.250000  0.507222  0.416679  1
  Sb  Sb20  1  0.750000  0.492700  0.581954  1
  Sb  Sb21  1  0.750000  0.844499  0.079513  1
