# generated using pymatgen
data_Dy5Ho2ErGa3Co
_symmetry_space_group_name_H-M   'P 1'
_cell_length_a   9.99522802
_cell_length_b   9.99522861
_cell_length_c   6.92724502
_cell_angle_alpha   89.99280899
_cell_angle_beta   90.00719206
_cell_angle_gamma   119.99915609
_symmetry_Int_Tables_number   1
_chemical_formula_structural   Dy5Ho2ErGa3Co
_chemical_formula_sum   'Dy10 Ho4 Er2 Ga6 Co2'
_cell_volume   599.34972055
_cell_formula_units_Z   2
loop_
 _symmetry_equiv_pos_site_id
 _symmetry_equiv_pos_as_xyz
  1  'x, y, z'
loop_
 _atom_site_type_symbol
 _atom_site_label
 _atom_site_symmetry_multiplicity
 _atom_site_fract_x
 _atom_site_fract_y
 _atom_site_fract_z
 _atom_site_occupancy
  Dy  Dy0  1  0.333337  0.666663  0.827440  1
  Dy  Dy1  1  0.666627  0.333373  0.327207  1
  Dy  Dy2  1  0.463355  0.536645  0.207513  1
  Dy  Dy3  1  0.073361  0.536732  0.207546  1
  Dy  Dy4  1  0.463268  0.926639  0.207546  1
  Dy  Dy5  1  0.536722  0.463278  0.707774  1
  Dy  Dy6  1  0.926593  0.463354  0.707700  1
  Dy  Dy7  1  0.536646  0.073407  0.707700  1
  Dy  Dy8  1  0.000009  0.999991  0.231390  1
  Dy  Dy9  1  0.000035  0.999965  0.731715  1
  Ho  Ho10  1  0.172710  0.827290  0.510760  1
  Ho  Ho11  1  0.654568  0.827286  0.510742  1
  Ho  Ho12  1  0.172714  0.345432  0.510742  1
  Ho  Ho13  1  0.827296  0.172704  0.010754  1
  Er  Er14  1  0.345475  0.172735  0.010786  1
  Er  Er15  1  0.827265  0.654525  0.010786  1
  Ga  Ga16  1  0.163189  0.836811  0.959570  1
  Ga  Ga17  1  0.673545  0.836644  0.959545  1
  Ga  Ga18  1  0.163356  0.326455  0.959545  1
  Ga  Ga19  1  0.836720  0.163280  0.459509  1
  Ga  Ga20  1  0.326553  0.163278  0.459374  1
  Ga  Ga21  1  0.836722  0.673447  0.459374  1
  Co  Co22  1  0.333334  0.666666  0.444881  1
  Co  Co23  1  0.666598  0.333402  0.944939  1
