# generated using pymatgen
data_Zr8Fe4Co3Si14Pt
_symmetry_space_group_name_H-M   'P 1'
_cell_length_a   9.54628837
_cell_length_b   9.54164617
_cell_length_c   9.53943300
_cell_angle_alpha   94.16090511
_cell_angle_beta   94.12335803
_cell_angle_gamma   148.60276836
_symmetry_Int_Tables_number   1
_chemical_formula_structural   Zr8Fe4Co3Si14Pt
_chemical_formula_sum   'Zr8 Fe4 Co3 Si14 Pt1'
_cell_volume   436.25273974
_cell_formula_units_Z   1
loop_
 _symmetry_equiv_pos_site_id
 _symmetry_equiv_pos_as_xyz
  1  'x, y, z'
loop_
 _atom_site_type_symbol
 _atom_site_label
 _atom_site_symmetry_multiplicity
 _atom_site_fract_x
 _atom_site_fract_y
 _atom_site_fract_z
 _atom_site_occupancy
  Zr  Zr0  1  0.696262  0.500764  0.194388  1
  Zr  Zr1  1  0.498438  0.696149  0.196310  1
  Zr  Zr2  1  0.499144  0.302142  0.804494  1
  Zr  Zr3  1  0.303761  0.502431  0.803041  1
  Zr  Zr4  1  0.864018  0.865050  0.724424  1
  Zr  Zr5  1  0.137342  0.862025  0.000098  1
  Zr  Zr6  1  0.862414  0.138356  0.000339  1
  Zr  Zr7  1  0.134758  0.136006  0.275380  1
  Fe  Fe8  1  0.601971  0.396998  0.501379  1
  Fe  Fe9  1  0.395526  0.897320  0.790512  1
  Fe  Fe10  1  0.901796  0.101956  0.501583  1
  Fe  Fe11  1  0.394316  0.606333  0.499306  1
  Co  Co12  1  0.903951  0.399568  0.800761  1
  Co  Co13  1  0.601194  0.097066  0.201033  1
  Co  Co14  1  0.101816  0.603471  0.207800  1
  Si  Si15  1  0.749545  0.750170  0.999772  1
  Si  Si16  1  0.249749  0.250209  0.999752  1
  Si  Si17  1  0.092375  0.501689  0.590298  1
  Si  Si18  1  0.535251  0.119779  0.595853  1
  Si  Si19  1  0.505365  0.912197  0.409618  1
  Si  Si20  1  0.873267  0.459885  0.404628  1
  Si  Si21  1  0.700191  0.001520  0.698654  1
  Si  Si22  1  0.990540  0.685818  0.705313  1
  Si  Si23  1  0.686511  0.693755  0.419648  1
  Si  Si24  1  0.291833  0.713466  0.999601  1
  Si  Si25  1  0.315234  0.011373  0.294667  1
  Si  Si26  1  0.708564  0.286421  0.999734  1
  Si  Si27  1  0.306132  0.313118  0.580611  1
  Si  Si28  1  0.998122  0.299352  0.302429  1
  Pt  Pt29  1  0.100613  0.895617  0.498575  1
