# generated using pymatgen
data_Rb8Zr6MnI20
_symmetry_space_group_name_H-M   'P 1'
_cell_length_a   12.93446948
_cell_length_b   12.93446960
_cell_length_c   12.93446800
_cell_angle_alpha   59.99999899
_cell_angle_beta   59.99999866
_cell_angle_gamma   59.99999796
_symmetry_Int_Tables_number   1
_chemical_formula_structural   Rb8Zr6MnI20
_chemical_formula_sum   'Rb8 Zr6 Mn1 I20'
_cell_volume   1530.13871386
_cell_formula_units_Z   1
loop_
 _symmetry_equiv_pos_site_id
 _symmetry_equiv_pos_as_xyz
  1  'x, y, z'
loop_
 _atom_site_type_symbol
 _atom_site_label
 _atom_site_symmetry_multiplicity
 _atom_site_fract_x
 _atom_site_fract_y
 _atom_site_fract_z
 _atom_site_occupancy
  Rb  Rb0  1  0.361535  0.361535  0.361535  1
  Rb  Rb1  1  0.638465  0.638465  0.638465  1
  Rb  Rb2  1  0.361535  0.361535  0.915395  1
  Rb  Rb3  1  0.361535  0.915395  0.361535  1
  Rb  Rb4  1  0.638465  0.638465  0.084605  1
  Rb  Rb5  1  0.638465  0.084605  0.638465  1
  Rb  Rb6  1  0.915395  0.361535  0.361535  1
  Rb  Rb7  1  0.084605  0.638465  0.638465  1
  Zr  Zr8  1  0.864530  0.135470  0.135470  1
  Zr  Zr9  1  0.135470  0.864530  0.864530  1
  Zr  Zr10  1  0.135470  0.864530  0.135470  1
  Zr  Zr11  1  0.864530  0.135470  0.864530  1
  Zr  Zr12  1  0.135470  0.135470  0.864530  1
  Zr  Zr13  1  0.864530  0.864530  0.135470  1
  Mn  Mn14  1  0.000000  0.000000  0.000000  1
  I  I15  1  0.321743  0.000000  0.000000  1
  I  I16  1  0.678257  0.000000  0.000000  1
  I  I17  1  0.000000  0.321743  0.678257  1
  I  I18  1  0.000000  0.678257  0.321743  1
  I  I19  1  0.000000  0.321743  0.000000  1
  I  I20  1  0.678257  0.000000  0.321743  1
  I  I21  1  0.000000  0.678257  0.000000  1
  I  I22  1  0.321743  0.000000  0.678257  1
  I  I23  1  0.000000  0.000000  0.321743  1
  I  I24  1  0.000000  0.000000  0.678257  1
  I  I25  1  0.678257  0.321743  0.000000  1
  I  I26  1  0.321743  0.678257  0.000000  1
  I  I27  1  0.688106  0.311894  0.311894  1
  I  I28  1  0.311894  0.688106  0.688106  1
  I  I29  1  0.311894  0.688106  0.311894  1
  I  I30  1  0.688106  0.311894  0.688106  1
  I  I31  1  0.311894  0.311894  0.688106  1
  I  I32  1  0.688106  0.688106  0.311894  1
  I  I33  1  0.250000  0.250000  0.250000  1
  I  I34  1  0.750000  0.750000  0.750000  1
