# generated using pymatgen
data_ErPaS6
_symmetry_space_group_name_H-M   'P 1'
_cell_length_a   9.53491348
_cell_length_b   9.53491347
_cell_length_c   3.98473000
_cell_angle_alpha   90.00000000
_cell_angle_beta   90.00000000
_cell_angle_gamma   147.15519743
_symmetry_Int_Tables_number   1
_chemical_formula_structural   ErPaS6
_chemical_formula_sum   'Er1 Pa1 S6'
_cell_volume   196.48270586
_cell_formula_units_Z   1
loop_
 _symmetry_equiv_pos_site_id
 _symmetry_equiv_pos_as_xyz
  1  'x, y, z'
loop_
 _atom_site_type_symbol
 _atom_site_label
 _atom_site_symmetry_multiplicity
 _atom_site_fract_x
 _atom_site_fract_y
 _atom_site_fract_z
 _atom_site_occupancy
  Er  Er0  1  0.826865  0.173136  0.749999  1
  Pa  Pa1  1  0.179836  0.820165  0.250001  1
  S  S2  1  0.105492  0.284748  0.250001  1
  S  S3  1  0.714469  0.285532  0.250001  1
  S  S4  1  0.715251  0.894507  0.250001  1
  S  S5  1  0.282578  0.101304  0.749999  1
  S  S6  1  0.276815  0.723186  0.749999  1
  S  S7  1  0.898695  0.717421  0.749999  1
