# generated using pymatgen
data_Ca12Ti12Cr5In3O48
_symmetry_space_group_name_H-M   'P 1'
_cell_length_a   11.02723674
_cell_length_b   11.02377996
_cell_length_c   10.99986943
_cell_angle_alpha   109.41182024
_cell_angle_beta   109.45275877
_cell_angle_gamma   109.55129444
_symmetry_Int_Tables_number   1
_chemical_formula_structural   Ca12Ti12Cr5In3O48
_chemical_formula_sum   'Ca12 Ti12 Cr5 In3 O48'
_cell_volume   1029.32023279
_cell_formula_units_Z   1
loop_
 _symmetry_equiv_pos_site_id
 _symmetry_equiv_pos_as_xyz
  1  'x, y, z'
loop_
 _atom_site_type_symbol
 _atom_site_label
 _atom_site_symmetry_multiplicity
 _atom_site_fract_x
 _atom_site_fract_y
 _atom_site_fract_z
 _atom_site_occupancy
  Ca  Ca0  1  0.248135  0.376483  0.124896  1
  Ca  Ca1  1  0.751865  0.623517  0.875104  1
  Ca  Ca2  1  0.747627  0.127234  0.372866  1
  Ca  Ca3  1  0.129025  0.260251  0.380448  1
  Ca  Ca4  1  0.375350  0.755025  0.128758  1
  Ca  Ca5  1  0.252373  0.872766  0.627134  1
  Ca  Ca6  1  0.870975  0.739749  0.619552  1
  Ca  Ca7  1  0.624650  0.244975  0.871242  1
  Ca  Ca8  1  0.378132  0.128010  0.255159  1
  Ca  Ca9  1  0.621868  0.871990  0.744841  1
  Ca  Ca10  1  0.121677  0.380259  0.751224  1
  Ca  Ca11  1  0.878323  0.619741  0.248776  1
  Ti  Ti12  1  0.250336  0.624621  0.375170  1
  Ti  Ti13  1  0.749664  0.375379  0.624830  1
  Ti  Ti14  1  0.745485  0.876617  0.120912  1
  Ti  Ti15  1  0.379936  0.251098  0.620464  1
  Ti  Ti16  1  0.620064  0.748902  0.379536  1
  Ti  Ti17  1  0.254515  0.123383  0.879088  1
  Ti  Ti18  1  0.125430  0.744856  0.871734  1
  Ti  Ti19  1  0.874570  0.255144  0.128266  1
  Ti  Ti20  1  0.629216  0.373449  0.254567  1
  Ti  Ti21  1  0.370784  0.626551  0.745433  1
  Ti  Ti22  1  0.869758  0.129822  0.748584  1
  Ti  Ti23  1  0.130242  0.870178  0.251416  1
  Cr  Cr24  1  0.500000  0.000000  0.500000  1
  Cr  Cr25  1  0.000000  0.500000  0.500000  1
  Cr  Cr26  1  0.500000  0.000000  0.000000  1
  Cr  Cr27  1  0.500000  0.500000  0.500000  1
  Cr  Cr28  1  0.000000  0.500000  0.000000  1
  In  In29  1  0.000000  0.000000  0.000000  1
  In  In30  1  0.500000  0.500000  0.000000  1
  In  In31  1  0.000000  0.000000  0.500000  1
  O  O32  1  0.489547  0.386559  0.304352  1
  O  O33  1  0.510453  0.613441  0.695648  1
  O  O34  1  0.580393  0.179114  0.201280  1
  O  O35  1  0.913535  0.129418  0.601467  1
  O  O36  1  0.303160  0.484259  0.382122  1
  O  O37  1  0.322748  0.916636  0.298332  1
  O  O38  1  0.419607  0.820886  0.798720  1
  O  O39  1  0.086465  0.870582  0.398533  1
  O  O40  1  0.696840  0.515741  0.617878  1
  O  O41  1  0.677252  0.083364  0.701668  1
  O  O42  1  0.015786  0.318519  0.901774  1
  O  O43  1  0.195497  0.581095  0.182809  1
  O  O44  1  0.124057  0.017495  0.212524  1
  O  O45  1  0.984214  0.681481  0.098226  1
  O  O46  1  0.804503  0.418905  0.817191  1
  O  O47  1  0.875943  0.982505  0.787476  1
  O  O48  1  0.594755  0.915578  0.117151  1
  O  O49  1  0.179147  0.481598  0.597151  1
  O  O50  1  0.405245  0.084422  0.882849  1
  O  O51  1  0.820853  0.518402  0.402849  1
  O  O52  1  0.896813  0.025501  0.308654  1
  O  O53  1  0.375176  0.587239  0.895439  1
  O  O54  1  0.103187  0.974499  0.691346  1
  O  O55  1  0.624824  0.412761  0.104561  1
  O  O56  1  0.383038  0.299912  0.476973  1
  O  O57  1  0.585480  0.902539  0.387613  1
  O  O58  1  0.616962  0.700088  0.523027  1
  O  O59  1  0.414520  0.097461  0.612387  1
  O  O60  1  0.119883  0.599096  0.919855  1
  O  O61  1  0.022188  0.212873  0.127409  1
  O  O62  1  0.880117  0.400904  0.080145  1
  O  O63  1  0.977812  0.787127  0.872591  1
  O  O64  1  0.315610  0.897658  0.012675  1
  O  O65  1  0.915423  0.303597  0.318930  1
  O  O66  1  0.684390  0.102342  0.987325  1
  O  O67  1  0.084577  0.696403  0.681070  1
  O  O68  1  0.192866  0.212481  0.586397  1
  O  O69  1  0.472286  0.602189  0.188869  1
  O  O70  1  0.807134  0.787519  0.413603  1
  O  O71  1  0.527714  0.397811  0.811131  1
  O  O72  1  0.286832  0.308378  0.910375  1
  O  O73  1  0.713168  0.691622  0.089625  1
  O  O74  1  0.216385  0.126899  0.029970  1
  O  O75  1  0.783615  0.873101  0.970030  1
  O  O76  1  0.898179  0.384908  0.581107  1
  O  O77  1  0.101821  0.615092  0.418893  1
  O  O78  1  0.601090  0.182464  0.484613  1
  O  O79  1  0.398910  0.817536  0.515387  1
