# generated using pymatgen
data_YTh2(GeIr)3
_symmetry_space_group_name_H-M   'P 1'
_cell_length_a   7.33745100
_cell_length_b   7.28211274
_cell_length_c   3.96615800
_cell_angle_alpha   90.00000000
_cell_angle_beta   90.00000000
_cell_angle_gamma   120.25169510
_symmetry_Int_Tables_number   1
_chemical_formula_structural   YTh2(GeIr)3
_chemical_formula_sum   'Y1 Th2 Ge3 Ir3'
_cell_volume   183.06114755
_cell_formula_units_Z   1
loop_
 _symmetry_equiv_pos_site_id
 _symmetry_equiv_pos_as_xyz
  1  'x, y, z'
loop_
 _atom_site_type_symbol
 _atom_site_label
 _atom_site_symmetry_multiplicity
 _atom_site_fract_x
 _atom_site_fract_y
 _atom_site_fract_z
 _atom_site_occupancy
  Y  Y0  1  0.406065  0.000000  0.500000  1
  Th  Th1  1  0.999710  0.413794  0.500000  1
  Th  Th2  1  0.585917  0.586206  0.500000  1
  Ge  Ge3  1  0.744838  0.000000  0.000000  1
  Ge  Ge4  1  0.009042  0.761360  0.000000  1
  Ge  Ge5  1  0.247682  0.238640  0.000000  1
  Ir  Ir6  1  0.333986  0.659236  0.000000  1
  Ir  Ir7  1  0.674752  0.340764  0.000000  1
  Ir  Ir8  1  0.998007  0.000000  0.500000  1
