# generated using pymatgen
data_CsPaCuS3
_symmetry_space_group_name_H-M   'P 1'
_cell_length_a   4.01651300
_cell_length_b   8.03653609
_cell_length_c   10.42015900
_cell_angle_alpha   90.00000000
_cell_angle_beta   90.00000000
_cell_angle_gamma   75.52894543
_symmetry_Int_Tables_number   1
_chemical_formula_structural   CsPaCuS3
_chemical_formula_sum   'Cs2 Pa2 Cu2 S6'
_cell_volume   325.67970468
_cell_formula_units_Z   2
loop_
 _symmetry_equiv_pos_site_id
 _symmetry_equiv_pos_as_xyz
  1  'x, y, z'
loop_
 _atom_site_type_symbol
 _atom_site_label
 _atom_site_symmetry_multiplicity
 _atom_site_fract_x
 _atom_site_fract_y
 _atom_site_fract_z
 _atom_site_occupancy
  Cs  Cs0  1  0.740574  0.518853  0.250000  1
  Cs  Cs1  1  0.259427  0.481147  0.750000  1
  Pa  Pa2  1  0.000000  0.000000  0.000000  1
  Pa  Pa3  1  0.000000  0.000000  0.500000  1
  Cu  Cu4  1  0.464955  0.070092  0.250000  1
  Cu  Cu5  1  0.535046  0.929909  0.750000  1
  S  S6  1  0.387215  0.225572  0.060846  1
  S  S7  1  0.051876  0.896248  0.250000  1
  S  S8  1  0.387215  0.225572  0.439153  1
  S  S9  1  0.612786  0.774428  0.560847  1
  S  S10  1  0.948125  0.103752  0.750000  1
  S  S11  1  0.612786  0.774428  0.939154  1
