# generated using pymatgen
data_Er5Tm5Si5Bi
_symmetry_space_group_name_H-M   'P 1'
_cell_length_a   8.46853110
_cell_length_b   8.47072333
_cell_length_c   6.26830900
_cell_angle_alpha   90.00000000
_cell_angle_beta   90.00000000
_cell_angle_gamma   120.27034864
_symmetry_Int_Tables_number   1
_chemical_formula_structural   Er5Tm5Si5Bi
_chemical_formula_sum   'Er5 Tm5 Si5 Bi1'
_cell_volume   388.34708066
_cell_formula_units_Z   1
loop_
 _symmetry_equiv_pos_site_id
 _symmetry_equiv_pos_as_xyz
  1  'x, y, z'
loop_
 _atom_site_type_symbol
 _atom_site_label
 _atom_site_symmetry_multiplicity
 _atom_site_fract_x
 _atom_site_fract_y
 _atom_site_fract_z
 _atom_site_occupancy
  Er  Er0  1  0.768637  0.768667  0.250000  1
  Er  Er1  1  0.239122  0.984286  0.250000  1
  Er  Er2  1  0.239311  0.239361  0.750000  1
  Er  Er3  1  0.755647  0.998667  0.750000  1
  Er  Er4  1  0.998648  0.755581  0.750000  1
  Tm  Tm5  1  0.677056  0.330754  0.505025  1
  Tm  Tm6  1  0.330753  0.677006  0.505041  1
  Tm  Tm7  1  0.330753  0.677006  0.994959  1
  Tm  Tm8  1  0.677056  0.330754  0.994975  1
  Tm  Tm9  1  0.984170  0.239100  0.250000  1
  Si  Si10  1  0.603905  0.998724  0.250000  1
  Si  Si11  1  0.998629  0.603666  0.250000  1
  Si  Si12  1  0.606985  0.606988  0.750000  1
  Si  Si13  1  0.393539  0.002651  0.750000  1
  Si  Si14  1  0.002648  0.393553  0.750000  1
  Bi  Bi15  1  0.393143  0.393237  0.250000  1
