# generated using pymatgen
data_La2Al20Re2IrRu
_symmetry_space_group_name_H-M   'P 1'
_cell_length_a   6.93711133
_cell_length_b   6.93136517
_cell_length_c   9.26402890
_cell_angle_alpha   90.15567971
_cell_angle_beta   89.89510611
_cell_angle_gamma   96.62104898
_symmetry_Int_Tables_number   1
_chemical_formula_structural   La2Al20Re2IrRu
_chemical_formula_sum   'La2 Al20 Re2 Ir1 Ru1'
_cell_volume   442.47526178
_cell_formula_units_Z   1
loop_
 _symmetry_equiv_pos_site_id
 _symmetry_equiv_pos_as_xyz
  1  'x, y, z'
loop_
 _atom_site_type_symbol
 _atom_site_label
 _atom_site_symmetry_multiplicity
 _atom_site_fract_x
 _atom_site_fract_y
 _atom_site_fract_z
 _atom_site_occupancy
  La  La0  1  0.875570  0.122756  0.750929  1
  La  La1  1  0.124430  0.877244  0.249071  1
  Al  Al2  1  0.619604  0.377522  0.550804  1
  Al  Al3  1  0.380396  0.622478  0.449196  1
  Al  Al4  1  0.378182  0.622057  0.049311  1
  Al  Al5  1  0.621818  0.377943  0.950689  1
  Al  Al6  1  0.228778  0.226319  0.498821  1
  Al  Al7  1  0.771222  0.773681  0.501179  1
  Al  Al8  1  0.770888  0.771177  0.000476  1
  Al  Al9  1  0.229112  0.228823  0.999524  1
  Al  Al10  1  0.837263  0.163180  0.101591  1
  Al  Al11  1  0.162737  0.836820  0.898409  1
  Al  Al12  1  0.162889  0.839541  0.602399  1
  Al  Al13  1  0.837111  0.160459  0.397601  1
  Al  Al14  1  0.859497  0.590404  0.750255  1
  Al  Al15  1  0.140503  0.409596  0.249745  1
  Al  Al16  1  0.410422  0.139958  0.749214  1
  Al  Al17  1  0.589578  0.860042  0.250786  1
  Al  Al18  1  0.221252  0.481525  0.752174  1
  Al  Al19  1  0.778748  0.518475  0.247826  1
  Al  Al20  1  0.518271  0.778879  0.749603  1
  Al  Al21  1  0.481729  0.221121  0.250397  1
  Re  Re22  1  0.000000  0.500000  0.000000  1
  Re  Re23  1  0.500000  0.000000  0.000000  1
  Ir  Ir24  1  0.000000  0.500000  0.500000  1
  Ru  Ru25  1  0.500000  0.000000  0.500000  1
