# generated using pymatgen
data_Y16Ho(TmIr4)3
_symmetry_space_group_name_H-M   'P 1'
_cell_length_a   10.91254600
_cell_length_b   10.91254600
_cell_length_c   6.36848700
_cell_angle_alpha   90.00000000
_cell_angle_beta   90.00000000
_cell_angle_gamma   90.00000000
_symmetry_Int_Tables_number   1
_chemical_formula_structural   Y16Ho(TmIr4)3
_chemical_formula_sum   'Y16 Ho1 Tm3 Ir12'
_cell_volume   758.38274191
_cell_formula_units_Z   1
loop_
 _symmetry_equiv_pos_site_id
 _symmetry_equiv_pos_as_xyz
  1  'x, y, z'
loop_
 _atom_site_type_symbol
 _atom_site_label
 _atom_site_symmetry_multiplicity
 _atom_site_fract_x
 _atom_site_fract_y
 _atom_site_fract_z
 _atom_site_occupancy
  Y  Y0  1  0.290793  0.087743  0.377380  1
  Y  Y1  1  0.290598  0.912322  0.877477  1
  Y  Y2  1  0.709402  0.087678  0.877477  1
  Y  Y3  1  0.709207  0.912257  0.377380  1
  Y  Y4  1  0.587669  0.790493  0.877433  1
  Y  Y5  1  0.587624  0.209511  0.377470  1
  Y  Y6  1  0.412376  0.790489  0.377470  1
  Y  Y7  1  0.412331  0.209507  0.877433  1
  Y  Y8  1  0.209511  0.412376  0.622530  1
  Y  Y9  1  0.209507  0.587669  0.122567  1
  Y  Y10  1  0.790493  0.412331  0.122567  1
  Y  Y11  1  0.790489  0.587624  0.622530  1
  Y  Y12  1  0.912322  0.709402  0.122523  1
  Y  Y13  1  0.912257  0.290793  0.622620  1
  Y  Y14  1  0.087743  0.709207  0.622620  1
  Y  Y15  1  0.087678  0.290598  0.122523  1
  Ho  Ho16  1  0.000000  0.000000  0.500000  1
  Tm  Tm17  1  0.000000  0.000000  0.000000  1
  Tm  Tm18  1  0.500000  0.500000  0.000000  1
  Tm  Tm19  1  0.500000  0.500000  0.500000  1
  Ir  Ir20  1  0.848215  0.151776  0.249371  1
  Ir  Ir21  1  0.848224  0.848215  0.750629  1
  Ir  Ir22  1  0.151776  0.151785  0.750629  1
  Ir  Ir23  1  0.151785  0.848224  0.249371  1
  Ir  Ir24  1  0.651364  0.348647  0.749986  1
  Ir  Ir25  1  0.651353  0.651364  0.250014  1
  Ir  Ir26  1  0.348647  0.348636  0.250014  1
  Ir  Ir27  1  0.348636  0.651353  0.749986  1
  Ir  Ir28  1  0.500000  0.000000  0.122919  1
  Ir  Ir29  1  0.500000  0.000000  0.622945  1
  Ir  Ir30  1  0.000000  0.500000  0.877081  1
  Ir  Ir31  1  0.000000  0.500000  0.377055  1
