# generated using pymatgen
data_ZrSc2(CuSi)4
_symmetry_space_group_name_H-M   'P 1'
_cell_length_a   7.55262670
_cell_length_b   7.55262710
_cell_length_c   7.55262701
_cell_angle_alpha   149.59882561
_cell_angle_beta   129.89778129
_cell_angle_gamma   59.74009595
_symmetry_Int_Tables_number   1
_chemical_formula_structural   ZrSc2(CuSi)4
_chemical_formula_sum   'Zr1 Sc2 Cu4 Si4'
_cell_volume   165.90564384
_cell_formula_units_Z   1
loop_
 _symmetry_equiv_pos_site_id
 _symmetry_equiv_pos_as_xyz
  1  'x, y, z'
loop_
 _atom_site_type_symbol
 _atom_site_label
 _atom_site_symmetry_multiplicity
 _atom_site_fract_x
 _atom_site_fract_y
 _atom_site_fract_z
 _atom_site_occupancy
  Zr  Zr0  1  0.500000  0.000000  0.500000  1
  Sc  Sc1  1  0.874205  0.874205  0.000000  1
  Sc  Sc2  1  0.125795  0.125795  0.000000  1
  Cu  Cu3  1  0.523183  0.329593  0.193590  1
  Cu  Cu4  1  0.863997  0.670407  0.193590  1
  Cu  Cu5  1  0.136003  0.329592  0.806410  1
  Cu  Cu6  1  0.476817  0.670407  0.806410  1
  Si  Si7  1  0.810517  0.500000  0.310517  1
  Si  Si8  1  0.189483  0.500000  0.689483  1
  Si  Si9  1  0.282873  0.782873  0.500000  1
  Si  Si10  1  0.717127  0.217127  0.500000  1
