# generated using pymatgen
data_DyY5MgCo17P12
_symmetry_space_group_name_H-M   'P 1'
_cell_length_a   3.71475900
_cell_length_b   10.56743103
_cell_length_c   12.23191303
_cell_angle_alpha   90.00864003
_cell_angle_beta   90.00000000
_cell_angle_gamma   90.00000000
_symmetry_Int_Tables_number   1
_chemical_formula_structural   DyY5MgCo17P12
_chemical_formula_sum   'Dy1 Y5 Mg1 Co17 P12'
_cell_volume   480.16936160
_cell_formula_units_Z   1
loop_
 _symmetry_equiv_pos_site_id
 _symmetry_equiv_pos_as_xyz
  1  'x, y, z'
loop_
 _atom_site_type_symbol
 _atom_site_label
 _atom_site_symmetry_multiplicity
 _atom_site_fract_x
 _atom_site_fract_y
 _atom_site_fract_z
 _atom_site_occupancy
  Dy  Dy0  1  0.000000  0.682833  0.794539  1
  Y  Y1  1  0.000000  0.500052  0.525101  1
  Y  Y2  1  0.500000  0.999935  0.478748  1
  Y  Y3  1  0.500000  0.821314  0.207128  1
  Y  Y4  1  0.500000  0.178729  0.207089  1
  Y  Y5  1  0.000000  0.317125  0.794616  1
  Mg  Mg6  1  0.500000  0.499996  0.153045  1
  Co  Co7  1  0.000000  0.999966  0.839258  1
  Co  Co8  1  0.500000  0.500252  0.704093  1
  Co  Co9  1  0.000000  0.000009  0.296437  1
  Co  Co10  1  0.000000  0.500048  0.985789  1
  Co  Co11  1  0.500000  0.000030  0.012341  1
  Co  Co12  1  0.500000  0.329174  0.992809  1
  Co  Co13  1  0.500000  0.670798  0.992718  1
  Co  Co14  1  0.000000  0.163001  0.001927  1
  Co  Co15  1  0.000000  0.836943  0.001852  1
  Co  Co16  1  0.500000  0.295637  0.432849  1
  Co  Co17  1  0.500000  0.704384  0.432919  1
  Co  Co18  1  0.000000  0.202151  0.570468  1
  Co  Co19  1  0.000000  0.797801  0.570544  1
  Co  Co20  1  0.500000  0.880101  0.709020  1
  Co  Co21  1  0.500000  0.119736  0.708980  1
  Co  Co22  1  0.000000  0.622691  0.293255  1
  Co  Co23  1  0.000000  0.377299  0.293226  1
  P  P24  1  0.500000  0.500193  0.883179  1
  P  P25  1  0.000000  0.000014  0.116300  1
  P  P26  1  0.500000  0.499973  0.353299  1
  P  P27  1  0.000000  0.999975  0.656134  1
  P  P28  1  0.500000  0.309208  0.617052  1
  P  P29  1  0.500000  0.690876  0.617168  1
  P  P30  1  0.000000  0.189599  0.385817  1
  P  P31  1  0.000000  0.810414  0.385835  1
  P  P32  1  0.500000  0.849681  0.890462  1
  P  P33  1  0.500000  0.150097  0.890547  1
  P  P34  1  0.000000  0.662671  0.102724  1
  P  P35  1  0.000000  0.337297  0.102733  1
