# generated using pymatgen
data_La8Nd4Al3Ga5Rh8
_symmetry_space_group_name_H-M   'P 1'
_cell_length_a   5.74248100
_cell_length_b   8.34524800
_cell_length_c   13.79042000
_cell_angle_alpha   89.99901105
_cell_angle_beta   90.00000000
_cell_angle_gamma   90.00000000
_symmetry_Int_Tables_number   1
_chemical_formula_structural   La8Nd4Al3Ga5Rh8
_chemical_formula_sum   'La8 Nd4 Al3 Ga5 Rh8'
_cell_volume   660.87041060
_cell_formula_units_Z   1
loop_
 _symmetry_equiv_pos_site_id
 _symmetry_equiv_pos_as_xyz
  1  'x, y, z'
loop_
 _atom_site_type_symbol
 _atom_site_label
 _atom_site_symmetry_multiplicity
 _atom_site_fract_x
 _atom_site_fract_y
 _atom_site_fract_z
 _atom_site_occupancy
  La  La0  1  0.150797  0.401686  0.097089  1
  La  La1  1  0.849104  0.598189  0.903139  1
  La  La2  1  0.847189  0.596919  0.596694  1
  La  La3  1  0.847189  0.903081  0.403306  1
  La  La4  1  0.153125  0.399985  0.404139  1
  La  La5  1  0.153125  0.100015  0.595861  1
  La  La6  1  0.150797  0.098314  0.902911  1
  La  La7  1  0.849104  0.901811  0.096861  1
  Nd  Nd8  1  0.640721  0.258004  0.250742  1
  Nd  Nd9  1  0.359590  0.742625  0.749258  1
  Nd  Nd10  1  0.359590  0.757375  0.250742  1
  Nd  Nd11  1  0.640721  0.241996  0.749258  1
  Al  Al12  1  0.625374  0.250000  0.000000  1
  Al  Al13  1  0.374502  0.750000  0.000000  1
  Al  Al14  1  0.373465  0.750000  0.500000  1
  Ga  Ga15  1  0.145627  0.109390  0.249875  1
  Ga  Ga16  1  0.854734  0.890211  0.749594  1
  Ga  Ga17  1  0.854734  0.609789  0.250406  1
  Ga  Ga18  1  0.145627  0.390610  0.750125  1
  Ga  Ga19  1  0.635250  0.250000  0.500000  1
  Rh  Rh20  1  0.366910  0.029268  0.091148  1
  Rh  Rh21  1  0.633066  0.971141  0.908619  1
  Rh  Rh22  1  0.631023  0.968244  0.591904  1
  Rh  Rh23  1  0.631023  0.531756  0.408096  1
  Rh  Rh24  1  0.363819  0.026660  0.408594  1
  Rh  Rh25  1  0.363819  0.473340  0.591406  1
  Rh  Rh26  1  0.366910  0.470732  0.908852  1
  Rh  Rh27  1  0.633066  0.528859  0.091381  1
