# generated using pymatgen
data_Dy3ErLu4(WO6)4
_symmetry_space_group_name_H-M   'P 1'
_cell_length_a   5.35159200
_cell_length_b   7.63317060
_cell_length_c   11.33050813
_cell_angle_alpha   75.46108462
_cell_angle_beta   90.00000000
_cell_angle_gamma   90.00000000
_symmetry_Int_Tables_number   1
_chemical_formula_structural   Dy3ErLu4(WO6)4
_chemical_formula_sum   'Dy3 Er1 Lu4 W4 O24'
_cell_volume   448.02531148
_cell_formula_units_Z   1
loop_
 _symmetry_equiv_pos_site_id
 _symmetry_equiv_pos_as_xyz
  1  'x, y, z'
loop_
 _atom_site_type_symbol
 _atom_site_label
 _atom_site_symmetry_multiplicity
 _atom_site_fract_x
 _atom_site_fract_y
 _atom_site_fract_z
 _atom_site_occupancy
  Dy  Dy0  1  0.257577  0.000000  0.750000  1
  Dy  Dy1  1  0.315285  0.500000  0.750000  1
  Dy  Dy2  1  0.684870  0.500000  0.250000  1
  Er  Er3  1  0.742049  0.000000  0.250000  1
  Lu  Lu4  1  0.182577  0.793810  0.079264  1
  Lu  Lu5  1  0.182577  0.206190  0.420736  1
  Lu  Lu6  1  0.817275  0.206295  0.920967  1
  Lu  Lu7  1  0.817275  0.793705  0.579033  1
  W  W8  1  0.743491  0.723738  0.885986  1
  W  W9  1  0.256570  0.724109  0.385824  1
  W  W10  1  0.743491  0.276262  0.614014  1
  W  W11  1  0.256570  0.275891  0.114176  1
  O  O12  1  0.540835  0.155972  0.067709  1
  O  O13  1  0.046002  0.057849  0.103332  1
  O  O14  1  0.019135  0.712247  0.770203  1
  O  O15  1  0.459643  0.156607  0.567091  1
  O  O16  1  0.358230  0.487478  0.386212  1
  O  O17  1  0.952560  0.058104  0.602603  1
  O  O18  1  0.544587  0.792240  0.724995  1
  O  O19  1  0.456708  0.793267  0.225016  1
  O  O20  1  0.146624  0.634903  0.549885  1
  O  O21  1  0.046002  0.942151  0.396668  1
  O  O22  1  0.459643  0.843393  0.932909  1
  O  O23  1  0.456708  0.206733  0.274984  1
  O  O24  1  0.853603  0.365364  0.450024  1
  O  O25  1  0.641616  0.487281  0.886347  1
  O  O26  1  0.358230  0.512522  0.113788  1
  O  O27  1  0.952560  0.941896  0.897397  1
  O  O28  1  0.540835  0.844028  0.432291  1
  O  O29  1  0.980655  0.287194  0.229876  1
  O  O30  1  0.544587  0.207760  0.775005  1
  O  O31  1  0.853603  0.634636  0.049976  1
  O  O32  1  0.019135  0.287753  0.729797  1
  O  O33  1  0.146624  0.365097  0.950115  1
  O  O34  1  0.980655  0.712806  0.270124  1
  O  O35  1  0.641616  0.512719  0.613653  1
