# generated using pymatgen
data_AlV13Sn2
_symmetry_space_group_name_H-M   'P 1'
_cell_length_a   4.88940200
_cell_length_b   4.86448700
_cell_length_c   9.75930100
_cell_angle_alpha   90.00000000
_cell_angle_beta   90.00000000
_cell_angle_gamma   90.00000000
_symmetry_Int_Tables_number   1
_chemical_formula_structural   AlV13Sn2
_chemical_formula_sum   'Al1 V13 Sn2'
_cell_volume   232.11943556
_cell_formula_units_Z   1
loop_
 _symmetry_equiv_pos_site_id
 _symmetry_equiv_pos_as_xyz
  1  'x, y, z'
loop_
 _atom_site_type_symbol
 _atom_site_label
 _atom_site_symmetry_multiplicity
 _atom_site_fract_x
 _atom_site_fract_y
 _atom_site_fract_z
 _atom_site_occupancy
  Al  Al0  1  0.000000  0.000000  0.251791  1
  V  V1  1  0.500000  0.500000  0.499615  1
  V  V2  1  0.500000  0.000000  0.614209  1
  V  V3  1  0.500000  0.000000  0.135455  1
  V  V4  1  0.750164  0.500000  0.261943  1
  V  V5  1  0.737818  0.500000  0.736096  1
  V  V6  1  0.000000  0.740311  0.493920  1
  V  V7  1  0.000000  0.762487  0.007618  1
  V  V8  1  0.500000  0.000000  0.377466  1
  V  V9  1  0.500000  0.000000  0.872801  1
  V  V10  1  0.249836  0.500000  0.261943  1
  V  V11  1  0.262182  0.500000  0.736096  1
  V  V12  1  0.000000  0.259689  0.493920  1
  V  V13  1  0.000000  0.237513  0.007618  1
  Sn  Sn14  1  0.500000  0.500000  0.000918  1
  Sn  Sn15  1  0.000000  0.000000  0.748590  1
