# generated using pymatgen
data_Hf9Ta3MnFe
_symmetry_space_group_name_H-M   'P 1'
_cell_length_a   8.11800600
_cell_length_b   8.89726617
_cell_length_c   8.89726601
_cell_angle_alpha   120.00148790
_cell_angle_beta   90.00000000
_cell_angle_gamma   90.00000000
_symmetry_Int_Tables_number   1
_chemical_formula_structural   Hf9Ta3MnFe
_chemical_formula_sum   'Hf18 Ta6 Mn2 Fe2'
_cell_volume   556.52752171
_cell_formula_units_Z   2
loop_
 _symmetry_equiv_pos_site_id
 _symmetry_equiv_pos_as_xyz
  1  'x, y, z'
loop_
 _atom_site_type_symbol
 _atom_site_label
 _atom_site_symmetry_multiplicity
 _atom_site_fract_x
 _atom_site_fract_y
 _atom_site_fract_z
 _atom_site_occupancy
  Hf  Hf0  1  0.560954  0.797481  0.594974  1
  Hf  Hf1  1  0.560958  0.797477  0.202523  1
  Hf  Hf2  1  0.560954  0.405026  0.202519  1
  Hf  Hf3  1  0.439046  0.202519  0.405026  1
  Hf  Hf4  1  0.439042  0.202523  0.797477  1
  Hf  Hf5  1  0.439046  0.594974  0.797481  1
  Hf  Hf6  1  0.060954  0.202519  0.405026  1
  Hf  Hf7  1  0.060958  0.202523  0.797477  1
  Hf  Hf8  1  0.060954  0.594974  0.797481  1
  Hf  Hf9  1  0.939046  0.797481  0.594974  1
  Hf  Hf10  1  0.939042  0.797477  0.202523  1
  Hf  Hf11  1  0.939046  0.405026  0.202519  1
  Hf  Hf12  1  0.750000  0.460196  0.920402  1
  Hf  Hf13  1  0.750000  0.460186  0.539814  1
  Hf  Hf14  1  0.750000  0.079598  0.539803  1
  Hf  Hf15  1  0.250000  0.539803  0.079598  1
  Hf  Hf16  1  0.250000  0.539814  0.460186  1
  Hf  Hf17  1  0.250000  0.920402  0.460196  1
  Ta  Ta18  1  0.750000  0.108227  0.216480  1
  Ta  Ta19  1  0.750000  0.108228  0.891772  1
  Ta  Ta20  1  0.750000  0.783520  0.891773  1
  Ta  Ta21  1  0.250000  0.891773  0.783520  1
  Ta  Ta22  1  0.250000  0.891772  0.108228  1
  Ta  Ta23  1  0.250000  0.216480  0.108227  1
  Mn  Mn24  1  0.500000  0.000000  0.000000  1
  Mn  Mn25  1  0.000000  0.000000  0.000000  1
  Fe  Fe26  1  0.750000  0.666653  0.333347  1
  Fe  Fe27  1  0.250000  0.333347  0.666653  1
