# generated using pymatgen
data_RbBa(LaI4)2
_symmetry_space_group_name_H-M   'P 1'
_cell_length_a   9.38033977
_cell_length_b   9.38033978
_cell_length_c   7.63813279
_cell_angle_alpha   72.46776521
_cell_angle_beta   72.46776674
_cell_angle_gamma   111.04163013
_symmetry_Int_Tables_number   1
_chemical_formula_structural   RbBa(LaI4)2
_chemical_formula_sum   'Rb1 Ba1 La2 I8'
_cell_volume   531.08653589
_cell_formula_units_Z   1
loop_
 _symmetry_equiv_pos_site_id
 _symmetry_equiv_pos_as_xyz
  1  'x, y, z'
loop_
 _atom_site_type_symbol
 _atom_site_label
 _atom_site_symmetry_multiplicity
 _atom_site_fract_x
 _atom_site_fract_y
 _atom_site_fract_z
 _atom_site_occupancy
  Rb  Rb0  1  0.637452  0.362548  0.250000  1
  Ba  Ba1  1  0.366850  0.633150  0.750000  1
  La  La2  1  0.000318  0.999682  0.750000  1
  La  La3  1  0.000198  0.999802  0.250000  1
  I  I4  1  0.648009  0.779714  0.216258  1
  I  I5  1  0.220286  0.351991  0.283742  1
  I  I6  1  0.350818  0.228990  0.790597  1
  I  I7  1  0.771010  0.649182  0.709403  1
  I  I8  1  0.715751  0.050329  0.588370  1
  I  I9  1  0.949671  0.284249  0.911630  1
  I  I10  1  0.273769  0.934131  0.427793  1
  I  I11  1  0.065869  0.726231  0.072207  1
