# generated using pymatgen
data_YEr14Tm5Pt16
_symmetry_space_group_name_H-M   'P 1'
_cell_length_a   7.41953307
_cell_length_b   7.50702921
_cell_length_c   14.63592101
_cell_angle_alpha   90.00608179
_cell_angle_beta   90.00905146
_cell_angle_gamma   90.02911760
_symmetry_Int_Tables_number   1
_chemical_formula_structural   YEr14Tm5Pt16
_chemical_formula_sum   'Y1 Er14 Tm5 Pt16'
_cell_volume   815.20094383
_cell_formula_units_Z   1
loop_
 _symmetry_equiv_pos_site_id
 _symmetry_equiv_pos_as_xyz
  1  'x, y, z'
loop_
 _atom_site_type_symbol
 _atom_site_label
 _atom_site_symmetry_multiplicity
 _atom_site_fract_x
 _atom_site_fract_y
 _atom_site_fract_z
 _atom_site_occupancy
  Y  Y0  1  0.998473  0.820424  0.092780  1
  Er  Er1  1  0.156545  0.667301  0.877669  1
  Er  Er2  1  0.843792  0.332478  0.377876  1
  Er  Er3  1  0.344103  0.167753  0.122281  1
  Er  Er4  1  0.343854  0.167520  0.377833  1
  Er  Er5  1  0.843747  0.332450  0.122172  1
  Er  Er6  1  0.156204  0.667624  0.622189  1
  Er  Er7  1  0.656177  0.832354  0.877793  1
  Er  Er8  1  0.997655  0.819949  0.406847  1
  Er  Er9  1  0.497752  0.680045  0.092996  1
  Er  Er10  1  0.502294  0.319785  0.593060  1
  Er  Er11  1  0.002507  0.180539  0.906871  1
  Er  Er12  1  0.002234  0.180058  0.593083  1
  Er  Er13  1  0.502172  0.319887  0.906952  1
  Er  Er14  1  0.497726  0.680242  0.407050  1
  Tm  Tm15  1  0.681057  0.988648  0.250127  1
  Tm  Tm16  1  0.181189  0.511203  0.250130  1
  Tm  Tm17  1  0.818742  0.488748  0.749973  1
  Tm  Tm18  1  0.318938  0.011339  0.750042  1
  Tm  Tm19  1  0.656177  0.832504  0.622275  1
  Pt  Pt20  1  0.816069  0.642694  0.250559  1
  Pt  Pt21  1  0.317231  0.856726  0.250151  1
  Pt  Pt22  1  0.683126  0.143133  0.749979  1
  Pt  Pt23  1  0.183098  0.356683  0.750041  1
  Pt  Pt24  1  0.546140  0.387105  0.249960  1
  Pt  Pt25  1  0.046437  0.113342  0.250254  1
  Pt  Pt26  1  0.953565  0.887144  0.749991  1
  Pt  Pt27  1  0.453865  0.612943  0.749964  1
  Pt  Pt28  1  0.816096  0.532388  0.542054  1
  Pt  Pt29  1  0.316570  0.968145  0.957793  1
  Pt  Pt30  1  0.683759  0.031913  0.458080  1
  Pt  Pt31  1  0.184223  0.466691  0.041661  1
  Pt  Pt32  1  0.183818  0.467785  0.457991  1
  Pt  Pt33  1  0.682318  0.033117  0.041723  1
  Pt  Pt34  1  0.316368  0.967795  0.542029  1
  Pt  Pt35  1  0.815984  0.531547  0.957769  1
