# generated using pymatgen
data_CaSc2Tc2Ni9As7
_symmetry_space_group_name_H-M   'P 1'
_cell_length_a   3.83598000
_cell_length_b   9.60767782
_cell_length_c   9.56945831
_cell_angle_alpha   120.89609076
_cell_angle_beta   90.00000000
_cell_angle_gamma   90.00000000
_symmetry_Int_Tables_number   1
_chemical_formula_structural   CaSc2Tc2Ni9As7
_chemical_formula_sum   'Ca1 Sc2 Tc2 Ni9 As7'
_cell_volume   302.63558510
_cell_formula_units_Z   1
loop_
 _symmetry_equiv_pos_site_id
 _symmetry_equiv_pos_as_xyz
  1  'x, y, z'
loop_
 _atom_site_type_symbol
 _atom_site_label
 _atom_site_symmetry_multiplicity
 _atom_site_fract_x
 _atom_site_fract_y
 _atom_site_fract_z
 _atom_site_occupancy
  Ca  Ca0  1  0.500000  0.338897  0.669901  1
  Sc  Sc1  1  0.500000  0.103737  0.882383  1
  Sc  Sc2  1  0.000000  0.653548  0.322194  1
  Tc  Tc3  1  0.500000  0.791355  0.906985  1
  Tc  Tc4  1  0.500000  0.116761  0.222581  1
  Ni  Ni5  1  0.000000  0.577025  0.943557  1
  Ni  Ni6  1  0.000000  0.373369  0.432538  1
  Ni  Ni7  1  0.000000  0.054526  0.624883  1
  Ni  Ni8  1  0.000000  0.873993  0.161261  1
  Ni  Ni9  1  0.000000  0.280372  0.127187  1
  Ni  Ni10  1  0.000000  0.841015  0.711434  1
  Ni  Ni11  1  0.500000  0.941553  0.378039  1
  Ni  Ni12  1  0.500000  0.442893  0.064464  1
  Ni  Ni13  1  0.500000  0.615704  0.559376  1
  As  As14  1  0.500000  0.707205  0.118976  1
  As  As15  1  0.500000  0.406903  0.291240  1
  As  As16  1  0.500000  0.865258  0.568434  1
  As  As17  1  0.000000  0.994863  0.004410  1
  As  As18  1  0.000000  0.593933  0.707327  1
  As  As19  1  0.000000  0.117280  0.413387  1
  As  As20  1  0.000000  0.309808  0.889442  1
