# generated using pymatgen
data_LiY(AuO2)4
_symmetry_space_group_name_H-M   'P 1'
_cell_length_a   6.51095902
_cell_length_b   6.51095789
_cell_length_c   6.51095900
_cell_angle_alpha   125.40319215
_cell_angle_beta   125.40318507
_cell_angle_gamma   80.87128203
_symmetry_Int_Tables_number   1
_chemical_formula_structural   LiY(AuO2)4
_chemical_formula_sum   'Li1 Y1 Au4 O8'
_cell_volume   176.75496179
_cell_formula_units_Z   1
loop_
 _symmetry_equiv_pos_site_id
 _symmetry_equiv_pos_as_xyz
  1  'x, y, z'
loop_
 _atom_site_type_symbol
 _atom_site_label
 _atom_site_symmetry_multiplicity
 _atom_site_fract_x
 _atom_site_fract_y
 _atom_site_fract_z
 _atom_site_occupancy
  Li  Li0  1  0.750000  0.250000  0.500000  1
  Y  Y1  1  0.000000  0.000000  0.000000  1
  Au  Au2  1  0.378091  0.632356  0.757792  1
  Au  Au3  1  0.367644  0.125436  0.745735  1
  Au  Au4  1  0.874564  0.620299  0.242208  1
  Au  Au5  1  0.379701  0.621909  0.254265  1
  O  O6  1  0.040487  0.385785  0.033566  1
  O  O7  1  0.748646  0.283073  0.135454  1
  O  O8  1  0.147618  0.613191  0.864546  1
  O  O9  1  0.352218  0.006921  0.966434  1
  O  O10  1  0.716927  0.852382  0.465573  1
  O  O11  1  0.993079  0.959513  0.345297  1
  O  O12  1  0.386809  0.251354  0.534427  1
  O  O13  1  0.614215  0.647782  0.654703  1
