# generated using pymatgen
data_Cs2AlH7
_symmetry_space_group_name_H-M   'P 1'
_cell_length_a   6.21851804
_cell_length_b   6.27731014
_cell_length_c   6.27409869
_cell_angle_alpha   96.45636095
_cell_angle_beta   116.67929600
_cell_angle_gamma   116.73478560
_symmetry_Int_Tables_number   1
_chemical_formula_structural   Cs2AlH7
_chemical_formula_sum   'Cs2 Al1 H7'
_cell_volume   179.63293221
_cell_formula_units_Z   1
loop_
 _symmetry_equiv_pos_site_id
 _symmetry_equiv_pos_as_xyz
  1  'x, y, z'
loop_
 _atom_site_type_symbol
 _atom_site_label
 _atom_site_symmetry_multiplicity
 _atom_site_fract_x
 _atom_site_fract_y
 _atom_site_fract_z
 _atom_site_occupancy
  Cs  Cs0  1  0.111526  0.055293  0.949590  1
  Cs  Cs1  1  0.111417  0.553928  0.452733  1
  Al  Al2  1  0.612080  0.274260  0.670707  1
  H  H3  1  0.608724  0.074372  0.470328  1
  H  H4  1  0.974699  0.508026  0.904494  1
  H  H5  1  0.606775  0.606842  0.004857  1
  H  H6  1  0.251838  0.150119  0.546538  1
  H  H7  1  0.612126  0.122886  0.890934  1
  H  H8  1  0.612162  0.494432  0.519423  1
  H  H9  1  0.617411  0.701646  0.100734  1
