# generated using pymatgen
data_Lu5Fe18P12Ir
_symmetry_space_group_name_H-M   'P 1'
_cell_length_a   11.87139900
_cell_length_b   11.87139865
_cell_length_c   3.65935900
_cell_angle_alpha   90.00000000
_cell_angle_beta   90.00000000
_cell_angle_gamma   119.99999818
_symmetry_Int_Tables_number   1
_chemical_formula_structural   Lu5Fe18P12Ir
_chemical_formula_sum   'Lu5 Fe18 P12 Ir1'
_cell_volume   446.62131787
_cell_formula_units_Z   1
loop_
 _symmetry_equiv_pos_site_id
 _symmetry_equiv_pos_as_xyz
  1  'x, y, z'
loop_
 _atom_site_type_symbol
 _atom_site_label
 _atom_site_symmetry_multiplicity
 _atom_site_fract_x
 _atom_site_fract_y
 _atom_site_fract_z
 _atom_site_occupancy
  Lu  Lu0  1  0.333333  0.666667  0.500000  1
  Lu  Lu1  1  0.666667  0.333333  0.500000  1
  Lu  Lu2  1  0.189297  0.000000  0.000000  1
  Lu  Lu3  1  0.000000  0.189297  0.000000  1
  Lu  Lu4  1  0.810703  0.810703  0.000000  1
  Fe  Fe5  1  0.198165  0.381497  0.500000  1
  Fe  Fe6  1  0.618503  0.816668  0.500000  1
  Fe  Fe7  1  0.183332  0.801835  0.500000  1
  Fe  Fe8  1  0.816668  0.618503  0.500000  1
  Fe  Fe9  1  0.801835  0.183332  0.500000  1
  Fe  Fe10  1  0.381497  0.198165  0.500000  1
  Fe  Fe11  1  0.556609  0.000000  0.500000  1
  Fe  Fe12  1  0.000000  0.556609  0.500000  1
  Fe  Fe13  1  0.443391  0.443391  0.500000  1
  Fe  Fe14  1  0.122215  0.483074  0.000000  1
  Fe  Fe15  1  0.516926  0.639142  0.000000  1
  Fe  Fe16  1  0.360858  0.877785  0.000000  1
  Fe  Fe17  1  0.639142  0.516926  0.000000  1
  Fe  Fe18  1  0.877785  0.360858  0.000000  1
  Fe  Fe19  1  0.483074  0.122215  0.000000  1
  Fe  Fe20  1  0.712325  0.000000  0.000000  1
  Fe  Fe21  1  0.000000  0.712325  0.000000  1
  Fe  Fe22  1  0.287675  0.287675  0.000000  1
  P  P23  1  0.370492  0.000000  0.500000  1
  P  P24  1  0.000000  0.370492  0.500000  1
  P  P25  1  0.629508  0.629508  0.500000  1
  P  P26  1  0.313021  0.480959  0.000000  1
  P  P27  1  0.519041  0.832061  0.000000  1
  P  P28  1  0.167939  0.686979  0.000000  1
  P  P29  1  0.832061  0.519041  0.000000  1
  P  P30  1  0.686979  0.167939  0.000000  1
  P  P31  1  0.480959  0.313021  0.000000  1
  P  P32  1  0.807056  0.000000  0.500000  1
  P  P33  1  0.000000  0.807056  0.500000  1
  P  P34  1  0.192944  0.192944  0.500000  1
  Ir  Ir35  1  0.000000  0.000000  0.500000  1
