# generated using pymatgen
data_TbEr15CdHg3Ir4
_symmetry_space_group_name_H-M   'P 1'
_cell_length_a   9.54418465
_cell_length_b   9.54351967
_cell_length_c   9.54262800
_cell_angle_alpha   60.00308373
_cell_angle_beta   60.00538819
_cell_angle_gamma   59.96793866
_symmetry_Int_Tables_number   1
_chemical_formula_structural   TbEr15CdHg3Ir4
_chemical_formula_sum   'Tb1 Er15 Cd1 Hg3 Ir4'
_cell_volume   614.50136232
_cell_formula_units_Z   1
loop_
 _symmetry_equiv_pos_site_id
 _symmetry_equiv_pos_as_xyz
  1  'x, y, z'
loop_
 _atom_site_type_symbol
 _atom_site_label
 _atom_site_symmetry_multiplicity
 _atom_site_fract_x
 _atom_site_fract_y
 _atom_site_fract_z
 _atom_site_occupancy
  Tb  Tb0  1  0.187360  0.189075  0.811783  1
  Er  Er1  1  0.600405  0.599873  0.599093  1
  Er  Er2  1  0.600405  0.599873  0.200629  1
  Er  Er3  1  0.601117  0.199888  0.599498  1
  Er  Er4  1  0.197291  0.601503  0.600604  1
  Er  Er5  1  0.058742  0.440370  0.440763  1
  Er  Er6  1  0.439309  0.059630  0.060783  1
  Er  Er7  1  0.439309  0.059630  0.440278  1
  Er  Er8  1  0.058742  0.440370  0.060124  1
  Er  Er9  1  0.439545  0.440185  0.060135  1
  Er  Er10  1  0.059259  0.059504  0.440618  1
  Er  Er11  1  0.187616  0.811225  0.811714  1
  Er  Er12  1  0.810720  0.188804  0.188707  1
  Er  Er13  1  0.810720  0.188804  0.811770  1
  Er  Er14  1  0.187616  0.811225  0.189446  1
  Er  Er15  1  0.811140  0.811769  0.188546  1
  Cd  Cd16  1  0.508629  0.830127  0.830622  1
  Hg  Hg17  1  0.833952  0.835756  0.835692  1
  Hg  Hg18  1  0.833952  0.835756  0.494600  1
  Hg  Hg19  1  0.833540  0.494643  0.835909  1
  Ir  Ir20  1  0.391883  0.392505  0.391073  1
  Ir  Ir21  1  0.391883  0.392505  0.824539  1
  Ir  Ir22  1  0.392155  0.824527  0.391659  1
  Ir  Ir23  1  0.824712  0.392454  0.391417  1
