# generated using pymatgen
data_Sr8Ti3CrO16
_symmetry_space_group_name_H-M   'P 1'
_cell_length_a   5.53987973
_cell_length_b   8.85976656
_cell_length_c   8.85981357
_cell_angle_alpha   88.98714228
_cell_angle_beta   71.53718604
_cell_angle_gamma   108.46305039
_symmetry_Int_Tables_number   1
_chemical_formula_structural   Sr8Ti3CrO16
_chemical_formula_sum   'Sr8 Ti3 Cr1 O16'
_cell_volume   387.86661330
_cell_formula_units_Z   1
loop_
 _symmetry_equiv_pos_site_id
 _symmetry_equiv_pos_as_xyz
  1  'x, y, z'
loop_
 _atom_site_type_symbol
 _atom_site_label
 _atom_site_symmetry_multiplicity
 _atom_site_fract_x
 _atom_site_fract_y
 _atom_site_fract_z
 _atom_site_occupancy
  Sr  Sr0  1  0.249556  0.394305  0.894130  1
  Sr  Sr1  1  0.000231  0.643947  0.645270  1
  Sr  Sr2  1  0.750285  0.895183  0.395460  1
  Sr  Sr3  1  0.499964  0.145398  0.143727  1
  Sr  Sr4  1  0.000326  0.354847  0.355964  1
  Sr  Sr5  1  0.750398  0.604630  0.104732  1
  Sr  Sr6  1  0.499763  0.856095  0.854818  1
  Sr  Sr7  1  0.249572  0.105882  0.605689  1
  Ti  Ti8  1  0.500503  0.498337  0.501655  1
  Ti  Ti9  1  0.250463  0.750010  0.250081  1
  Ti  Ti10  1  0.999619  0.001676  0.998385  1
  Cr  Cr11  1  0.749454  0.249869  0.749863  1
  O  O12  1  0.249894  0.591266  0.091557  1
  O  O13  1  0.004644  0.841816  0.841322  1
  O  O14  1  0.749824  0.094612  0.594318  1
  O  O15  1  0.495136  0.341091  0.341754  1
  O  O16  1  0.004926  0.159040  0.157910  1
  O  O17  1  0.749688  0.405473  0.905408  1
  O  O18  1  0.495201  0.658319  0.658832  1
  O  O19  1  0.249726  0.908271  0.409061  1
  O  O20  1  0.876079  0.124315  0.875496  1
  O  O21  1  0.622054  0.375166  0.624797  1
  O  O22  1  0.375163  0.625018  0.374913  1
  O  O23  1  0.127300  0.875562  0.124699  1
  O  O24  1  0.382930  0.127291  0.872544  1
  O  O25  1  0.116072  0.373019  0.626971  1
  O  O26  1  0.872995  0.624860  0.375110  1
  O  O27  1  0.628235  0.874702  0.125526  1
