# generated using pymatgen
data_Tb5Er(LuIn4)2
_symmetry_space_group_name_H-M   'P 1'
_cell_length_a   6.52861473
_cell_length_b   6.52861477
_cell_length_c   9.99878500
_cell_angle_alpha   90.00000000
_cell_angle_beta   90.00000000
_cell_angle_gamma   98.60862996
_symmetry_Int_Tables_number   1
_chemical_formula_structural   Tb5Er(LuIn4)2
_chemical_formula_sum   'Tb5 Er1 Lu2 In8'
_cell_volume   421.37495135
_cell_formula_units_Z   1
loop_
 _symmetry_equiv_pos_site_id
 _symmetry_equiv_pos_as_xyz
  1  'x, y, z'
loop_
 _atom_site_type_symbol
 _atom_site_label
 _atom_site_symmetry_multiplicity
 _atom_site_fract_x
 _atom_site_fract_y
 _atom_site_fract_z
 _atom_site_occupancy
  Tb  Tb0  1  0.465218  0.465218  0.750000  1
  Tb  Tb1  1  0.245727  0.754629  0.499722  1
  Tb  Tb2  1  0.245727  0.754629  0.000278  1
  Tb  Tb3  1  0.754629  0.245727  0.499722  1
  Tb  Tb4  1  0.754629  0.245727  0.000278  1
  Er  Er5  1  0.534463  0.534463  0.250000  1
  Lu  Lu6  1  0.977449  0.977449  0.250000  1
  Lu  Lu7  1  0.021696  0.021696  0.750000  1
  In  In8  1  0.251769  0.251769  0.022189  1
  In  In9  1  0.748366  0.748366  0.978905  1
  In  In10  1  0.251769  0.251769  0.477811  1
  In  In11  1  0.748366  0.748366  0.521095  1
  In  In12  1  0.483745  0.023777  0.250000  1
  In  In13  1  0.976195  0.516474  0.750000  1
  In  In14  1  0.516474  0.976195  0.750000  1
  In  In15  1  0.023777  0.483745  0.250000  1
