# generated using pymatgen
data_LaPr5Th2(As2Au)8
_symmetry_space_group_name_H-M   'P 1'
_cell_length_a   5.90491500
_cell_length_b   5.89586161
_cell_length_c   20.55927282
_cell_angle_alpha   89.98955084
_cell_angle_beta   90.00000000
_cell_angle_gamma   90.00000000
_symmetry_Int_Tables_number   1
_chemical_formula_structural   LaPr5Th2(As2Au)8
_chemical_formula_sum   'La1 Pr5 Th2 As16 Au8'
_cell_volume   715.76205941
_cell_formula_units_Z   1
loop_
 _symmetry_equiv_pos_site_id
 _symmetry_equiv_pos_as_xyz
  1  'x, y, z'
loop_
 _atom_site_type_symbol
 _atom_site_label
 _atom_site_symmetry_multiplicity
 _atom_site_fract_x
 _atom_site_fract_y
 _atom_site_fract_z
 _atom_site_occupancy
  La  La0  1  0.750000  0.992571  0.883705  1
  Pr  Pr1  1  0.250000  0.008183  0.121454  1
  Pr  Pr2  1  0.750000  0.495340  0.612615  1
  Pr  Pr3  1  0.250000  0.504955  0.383954  1
  Pr  Pr4  1  0.250000  0.492132  0.884176  1
  Pr  Pr5  1  0.750000  0.506281  0.111971  1
  Th  Th6  1  0.250000  0.995061  0.619237  1
  Th  Th7  1  0.750000  0.004955  0.383791  1
  As  As8  1  0.750000  0.995252  0.654345  1
  As  As9  1  0.250000  0.005141  0.343825  1
  As  As10  1  0.250000  0.991827  0.837066  1
  As  As11  1  0.750000  0.007407  0.161197  1
  As  As12  1  0.250000  0.495475  0.654237  1
  As  As13  1  0.750000  0.504626  0.345772  1
  As  As14  1  0.750000  0.492175  0.838591  1
  As  As15  1  0.250000  0.508157  0.162115  1
  As  As16  1  0.020072  0.228019  0.499792  1
  As  As17  1  0.483104  0.772473  0.499597  1
  As  As18  1  0.022708  0.224301  0.000679  1
  As  As19  1  0.470686  0.774886  0.001285  1
  As  As20  1  0.016896  0.772473  0.499597  1
  As  As21  1  0.479928  0.228019  0.499792  1
  As  As22  1  0.029314  0.774886  0.001285  1
  As  As23  1  0.477292  0.224301  0.000679  1
  Au  Au24  1  0.500688  0.737068  0.748531  1
  Au  Au25  1  0.998778  0.263322  0.251126  1
  Au  Au26  1  0.501222  0.263322  0.251126  1
  Au  Au27  1  0.999312  0.737068  0.748531  1
  Au  Au28  1  0.500939  0.238891  0.748758  1
  Au  Au29  1  0.998463  0.761271  0.251205  1
  Au  Au30  1  0.501537  0.761271  0.251205  1
  Au  Au31  1  0.999061  0.238891  0.748758  1
