# generated using pymatgen
data_PrNd11Co(PtBr4)3
_symmetry_space_group_name_H-M   'P 1'
_cell_length_a   10.48268035
_cell_length_b   10.48268047
_cell_length_c   10.48400950
_cell_angle_alpha   109.29422222
_cell_angle_beta   109.29422729
_cell_angle_gamma   109.26891961
_symmetry_Int_Tables_number   1
_chemical_formula_structural   PrNd11Co(PtBr4)3
_chemical_formula_sum   'Pr1 Nd11 Co1 Pt3 Br12'
_cell_volume   892.88670481
_cell_formula_units_Z   1
loop_
 _symmetry_equiv_pos_site_id
 _symmetry_equiv_pos_as_xyz
  1  'x, y, z'
loop_
 _atom_site_type_symbol
 _atom_site_label
 _atom_site_symmetry_multiplicity
 _atom_site_fract_x
 _atom_site_fract_y
 _atom_site_fract_z
 _atom_site_occupancy
  Pr  Pr0  1  0.236743  0.263257  0.750000  1
  Nd  Nd1  1  0.466443  0.476738  0.238951  1
  Nd  Nd2  1  0.750048  0.236402  0.263647  1
  Nd  Nd3  1  0.749826  0.014031  0.485801  1
  Nd  Nd4  1  0.238889  0.466474  0.476623  1
  Nd  Nd5  1  0.263598  0.749952  0.236353  1
  Nd  Nd6  1  0.033526  0.261111  0.023377  1
  Nd  Nd7  1  0.023262  0.033557  0.261049  1
  Nd  Nd8  1  0.485969  0.750174  0.014199  1
  Nd  Nd9  1  0.476724  0.238824  0.466360  1
  Nd  Nd10  1  0.014022  0.485978  0.750000  1
  Nd  Nd11  1  0.261176  0.023276  0.033640  1
  Co  Co12  1  0.250003  0.249997  0.250000  1
  Pt  Pt13  1  0.499431  0.000569  0.250000  1
  Pt  Pt14  1  0.000054  0.250007  0.498930  1
  Pt  Pt15  1  0.249993  0.499946  0.001070  1
  Br  Br16  1  0.250003  0.753487  0.746526  1
  Br  Br17  1  0.509915  0.505093  0.754430  1
  Br  Br18  1  0.990440  0.745575  0.995300  1
  Br  Br19  1  0.746513  0.249997  0.753474  1
  Br  Br20  1  0.994907  0.990085  0.745570  1
  Br  Br21  1  0.249997  0.994532  0.504782  1
  Br  Br22  1  0.754425  0.509560  0.504700  1
  Br  Br23  1  0.505468  0.250003  0.995218  1
  Br  Br24  1  0.753481  0.746519  0.250000  1
  Br  Br25  1  0.745569  0.995296  0.990438  1
  Br  Br26  1  0.994870  0.505130  0.250000  1
  Br  Br27  1  0.504704  0.754431  0.509562  1
