# generated using pymatgen
data_Rb4Hf2Zr4BI18
_symmetry_space_group_name_H-M   'P 1'
_cell_length_a   11.60537101
_cell_length_b   11.60537001
_cell_length_c   11.27157252
_cell_angle_alpha   77.49673126
_cell_angle_beta   77.49672922
_cell_angle_gamma   117.78388830
_symmetry_Int_Tables_number   1
_chemical_formula_structural   Rb4Hf2Zr4BI18
_chemical_formula_sum   'Rb4 Hf2 Zr4 B1 I18'
_cell_volume   1219.48457770
_cell_formula_units_Z   1
loop_
 _symmetry_equiv_pos_site_id
 _symmetry_equiv_pos_as_xyz
  1  'x, y, z'
loop_
 _atom_site_type_symbol
 _atom_site_label
 _atom_site_symmetry_multiplicity
 _atom_site_fract_x
 _atom_site_fract_y
 _atom_site_fract_z
 _atom_site_occupancy
  Rb  Rb0  1  0.771006  0.445620  0.677369  1
  Rb  Rb1  1  0.554380  0.228994  0.322631  1
  Rb  Rb2  1  0.228994  0.554380  0.322631  1
  Rb  Rb3  1  0.445620  0.771006  0.677369  1
  Hf  Hf4  1  0.115593  0.115593  0.130727  1
  Hf  Hf5  1  0.884407  0.884407  0.869273  1
  Zr  Zr6  1  0.954361  0.779945  0.137423  1
  Zr  Zr7  1  0.220055  0.045639  0.862577  1
  Zr  Zr8  1  0.045639  0.220055  0.862577  1
  Zr  Zr9  1  0.779945  0.954361  0.137423  1
  B  B10  1  0.000000  0.000000  0.000000  1
  I  I11  1  0.807416  0.602734  0.006113  1
  I  I12  1  0.397267  0.192584  0.993887  1
  I  I13  1  0.192584  0.397267  0.993887  1
  I  I14  1  0.602733  0.807416  0.006113  1
  I  I15  1  0.206749  0.793251  0.000000  1
  I  I16  1  0.793251  0.206749  0.000000  1
  I  I17  1  0.317450  0.317450  0.673826  1
  I  I18  1  0.682550  0.682550  0.326174  1
  I  I19  1  0.889361  0.491845  0.324570  1
  I  I20  1  0.508155  0.110639  0.675430  1
  I  I21  1  0.110639  0.508155  0.675430  1
  I  I22  1  0.491845  0.889361  0.324570  1
  I  I23  1  0.263187  0.263187  0.299451  1
  I  I24  1  0.736813  0.736813  0.700549  1
  I  I25  1  0.080728  0.878972  0.318384  1
  I  I26  1  0.121028  0.919272  0.681616  1
  I  I27  1  0.919272  0.121028  0.681616  1
  I  I28  1  0.878972  0.080728  0.318384  1
