# generated using pymatgen
data_Nb7Fe4Co4Si14Tc
_symmetry_space_group_name_H-M   'P 1'
_cell_length_a   9.20182719
_cell_length_b   9.20496878
_cell_length_c   9.20182726
_cell_angle_alpha   94.44137624
_cell_angle_beta   94.08510407
_cell_angle_gamma   148.32123211
_symmetry_Int_Tables_number   1
_chemical_formula_structural   Nb7Fe4Co4Si14Tc
_chemical_formula_sum   'Nb7 Fe4 Co4 Si14 Tc1'
_cell_volume   393.84000448
_cell_formula_units_Z   1
loop_
 _symmetry_equiv_pos_site_id
 _symmetry_equiv_pos_as_xyz
  1  'x, y, z'
loop_
 _atom_site_type_symbol
 _atom_site_label
 _atom_site_symmetry_multiplicity
 _atom_site_fract_x
 _atom_site_fract_y
 _atom_site_fract_z
 _atom_site_occupancy
  Nb  Nb0  1  0.689784  0.500000  0.189784  1
  Nb  Nb1  1  0.500817  0.692374  0.192350  1
  Nb  Nb2  1  0.499978  0.307626  0.808444  1
  Nb  Nb3  1  0.135784  0.134387  0.268898  1
  Nb  Nb4  1  0.866672  0.865830  0.729443  1
  Nb  Nb5  1  0.134511  0.865613  0.001398  1
  Nb  Nb6  1  0.863613  0.134170  0.000842  1
  Fe  Fe7  1  0.399703  0.897263  0.798426  1
  Fe  Fe8  1  0.100743  0.599710  0.199606  1
  Fe  Fe9  1  0.901165  0.102737  0.502440  1
  Fe  Fe10  1  0.599894  0.400290  0.501032  1
  Co  Co11  1  0.599469  0.098504  0.198687  1
  Co  Co12  1  0.902724  0.401460  0.799654  1
  Co  Co13  1  0.100183  0.901496  0.500966  1
  Co  Co14  1  0.398194  0.598540  0.501262  1
  Si  Si15  1  0.292196  0.295006  0.588423  1
  Si  Si16  1  0.708456  0.708772  0.415516  1
  Si  Si17  1  0.293417  0.704994  0.997190  1
  Si  Si18  1  0.706745  0.291228  0.999684  1
  Si  Si19  1  0.095552  0.500000  0.595552  1
  Si  Si20  1  0.905157  0.500000  0.405157  1
  Si  Si21  1  0.499958  0.905747  0.405275  1
  Si  Si22  1  0.499527  0.094253  0.594211  1
  Si  Si23  1  0.246544  0.248942  0.997962  1
  Si  Si24  1  0.749019  0.751058  0.997601  1
  Si  Si25  1  0.298026  0.000000  0.298026  1
  Si  Si26  1  0.703036  0.000000  0.703036  1
  Si  Si27  1  0.000761  0.702914  0.702361  1
  Si  Si28  1  0.999448  0.297086  0.297848  1
  Tc  Tc29  1  0.308923  0.500000  0.808923  1
