# generated using pymatgen
data_DySb(TeO4)2
_symmetry_space_group_name_H-M   'P 1'
_cell_length_a   6.90595707
_cell_length_b   6.90595708
_cell_length_c   10.29507824
_cell_angle_alpha   66.26341764
_cell_angle_beta   66.26341819
_cell_angle_gamma   48.13993307
_symmetry_Int_Tables_number   1
_chemical_formula_structural   DySb(TeO4)2
_chemical_formula_sum   'Dy2 Sb2 Te4 O16'
_cell_volume   328.22615015
_cell_formula_units_Z   2
loop_
 _symmetry_equiv_pos_site_id
 _symmetry_equiv_pos_as_xyz
  1  'x, y, z'
loop_
 _atom_site_type_symbol
 _atom_site_label
 _atom_site_symmetry_multiplicity
 _atom_site_fract_x
 _atom_site_fract_y
 _atom_site_fract_z
 _atom_site_occupancy
  Dy  Dy0  1  0.432862  0.567138  0.750000  1
  Dy  Dy1  1  0.567138  0.432862  0.250000  1
  Sb  Sb2  1  0.000000  0.000000  0.500000  1
  Sb  Sb3  1  0.000000  0.000000  0.000000  1
  Te  Te4  1  0.699101  0.873035  0.852966  1
  Te  Te5  1  0.873035  0.699101  0.352966  1
  Te  Te6  1  0.126965  0.300899  0.647034  1
  Te  Te7  1  0.300899  0.126965  0.147034  1
  O  O8  1  0.000156  0.787539  0.907138  1
  O  O9  1  0.787539  0.000156  0.407138  1
  O  O10  1  0.350535  0.859143  0.867425  1
  O  O11  1  0.783209  0.573327  0.586707  1
  O  O12  1  0.845495  0.312560  0.835081  1
  O  O13  1  0.859143  0.350535  0.367425  1
  O  O14  1  0.573327  0.783209  0.086707  1
  O  O15  1  0.312560  0.845495  0.335081  1
  O  O16  1  0.687440  0.154505  0.664919  1
  O  O17  1  0.426673  0.216791  0.913293  1
  O  O18  1  0.140857  0.649465  0.632575  1
  O  O19  1  0.154505  0.687440  0.164919  1
  O  O20  1  0.216791  0.426673  0.413293  1
  O  O21  1  0.649465  0.140857  0.132575  1
  O  O22  1  0.212461  0.999844  0.592862  1
  O  O23  1  0.999844  0.212461  0.092862  1
