# generated using pymatgen
data_Tb12Ga2Si3Tc
_symmetry_space_group_name_H-M   'P 1'
_cell_length_a   8.48244100
_cell_length_b   8.48244314
_cell_length_c   8.48244201
_cell_angle_alpha   110.85636664
_cell_angle_beta   111.71755086
_cell_angle_gamma   105.89898443
_symmetry_Int_Tables_number   1
_chemical_formula_structural   Tb12Ga2Si3Tc
_chemical_formula_sum   'Tb12 Ga2 Si3 Tc1'
_cell_volume   468.44303827
_cell_formula_units_Z   1
loop_
 _symmetry_equiv_pos_site_id
 _symmetry_equiv_pos_as_xyz
  1  'x, y, z'
loop_
 _atom_site_type_symbol
 _atom_site_label
 _atom_site_symmetry_multiplicity
 _atom_site_fract_x
 _atom_site_fract_y
 _atom_site_fract_z
 _atom_site_occupancy
  Tb  Tb0  1  0.045590  0.746316  0.299275  1
  Tb  Tb1  1  0.950477  0.257422  0.693055  1
  Tb  Tb2  1  0.552957  0.253684  0.299275  1
  Tb  Tb3  1  0.435634  0.742578  0.693055  1
  Tb  Tb4  1  0.674462  0.872440  0.203433  1
  Tb  Tb5  1  0.330994  0.528972  0.203433  1
  Tb  Tb6  1  0.330994  0.127560  0.802022  1
  Tb  Tb7  1  0.674462  0.471028  0.802022  1
  Tb  Tb8  1  0.175522  0.234144  0.409666  1
  Tb  Tb9  1  0.819186  0.230273  0.049459  1
  Tb  Tb10  1  0.175522  0.765856  0.941378  1
  Tb  Tb11  1  0.819186  0.769727  0.588914  1
  Ga  Ga12  1  0.980316  0.500000  0.480316  1
  Ga  Ga13  1  0.505413  0.000000  0.505413  1
  Si  Si14  1  0.367554  0.500000  0.867554  1
  Si  Si15  1  0.884393  0.884732  0.999661  1
  Si  Si16  1  0.114928  0.115268  0.999661  1
  Tc  Tc17  1  0.662409  0.500000  0.162409  1
