# generated using pymatgen
data_Er10Ir5Pt
_symmetry_space_group_name_H-M   'P 1'
_cell_length_a   10.84474201
_cell_length_b   10.84910100
_cell_length_c   6.30385760
_cell_angle_alpha   90.00000000
_cell_angle_beta   89.95020679
_cell_angle_gamma   90.00000000
_symmetry_Int_Tables_number   1
_chemical_formula_structural   Er10Ir5Pt
_chemical_formula_sum   'Er20 Ir10 Pt2'
_cell_volume   741.68450766
_cell_formula_units_Z   2
loop_
 _symmetry_equiv_pos_site_id
 _symmetry_equiv_pos_as_xyz
  1  'x, y, z'
loop_
 _atom_site_type_symbol
 _atom_site_label
 _atom_site_symmetry_multiplicity
 _atom_site_fract_x
 _atom_site_fract_y
 _atom_site_fract_z
 _atom_site_occupancy
  Er  Er0  1  0.291349  0.087990  0.376143  1
  Er  Er1  1  0.291349  0.912010  0.876143  1
  Er  Er2  1  0.705628  0.089487  0.874529  1
  Er  Er3  1  0.705628  0.910513  0.374529  1
  Er  Er4  1  0.584877  0.791109  0.878161  1
  Er  Er5  1  0.584877  0.208891  0.378161  1
  Er  Er6  1  0.411470  0.791470  0.377186  1
  Er  Er7  1  0.411470  0.208530  0.877186  1
  Er  Er8  1  0.208685  0.411937  0.622431  1
  Er  Er9  1  0.208685  0.588063  0.122431  1
  Er  Er10  1  0.791039  0.414588  0.122591  1
  Er  Er11  1  0.791039  0.585412  0.622591  1
  Er  Er12  1  0.913420  0.707012  0.126240  1
  Er  Er13  1  0.913420  0.292988  0.626240  1
  Er  Er14  1  0.090740  0.707064  0.622727  1
  Er  Er15  1  0.090740  0.292936  0.122727  1
  Er  Er16  1  0.002743  0.999829  0.500039  1
  Er  Er17  1  0.002743  0.000171  0.000039  1
  Er  Er18  1  0.499871  0.499735  0.999805  1
  Er  Er19  1  0.499871  0.500265  0.499805  1
  Ir  Ir20  1  0.152909  0.153689  0.750209  1
  Ir  Ir21  1  0.152909  0.846311  0.250209  1
  Ir  Ir22  1  0.654697  0.345712  0.749828  1
  Ir  Ir23  1  0.654697  0.654288  0.249828  1
  Ir  Ir24  1  0.346409  0.346191  0.250161  1
  Ir  Ir25  1  0.346409  0.653809  0.750161  1
  Ir  Ir26  1  0.500884  0.999822  0.122293  1
  Ir  Ir27  1  0.500884  0.000178  0.622293  1
  Ir  Ir28  1  0.999487  0.499980  0.877915  1
  Ir  Ir29  1  0.999487  0.500020  0.377915  1
  Pt  Pt30  1  0.845792  0.153587  0.249741  1
  Pt  Pt31  1  0.845792  0.846413  0.749741  1
