# generated using pymatgen
data_Ce5ThCo3Sb8Au3
_symmetry_space_group_name_H-M   'P 1'
_cell_length_a   8.48861384
_cell_length_b   8.48786898
_cell_length_c   8.51274534
_cell_angle_alpha   109.48815172
_cell_angle_beta   109.90829035
_cell_angle_gamma   108.89291485
_symmetry_Int_Tables_number   1
_chemical_formula_structural   Ce5ThCo3Sb8Au3
_chemical_formula_sum   'Ce5 Th1 Co3 Sb8 Au3'
_cell_volume   472.84830273
_cell_formula_units_Z   1
loop_
 _symmetry_equiv_pos_site_id
 _symmetry_equiv_pos_as_xyz
  1  'x, y, z'
loop_
 _atom_site_type_symbol
 _atom_site_label
 _atom_site_symmetry_multiplicity
 _atom_site_fract_x
 _atom_site_fract_y
 _atom_site_fract_z
 _atom_site_occupancy
  Ce  Ce0  1  0.380166  0.259542  0.635068  1
  Ce  Ce1  1  0.726589  0.857763  0.102514  1
  Ce  Ce2  1  0.255233  0.624523  0.397406  1
  Ce  Ce3  1  0.615278  0.365370  0.250771  1
  Ce  Ce4  1  0.886935  0.136531  0.750127  1
  Th  Th5  1  0.125768  0.746104  0.866733  1
  Co  Co6  1  0.254502  0.131134  0.877987  1
  Co  Co7  1  0.753549  0.375846  0.622159  1
  Co  Co8  1  0.379034  0.629384  0.749174  1
  Sb  Sb9  1  0.005412  0.340728  0.515926  1
  Sb  Sb10  1  0.823833  0.492706  0.978661  1
  Sb  Sb11  1  0.482596  0.992320  0.827402  1
  Sb  Sb12  1  0.661696  0.652303  0.671415  1
  Sb  Sb13  1  0.174790  0.168738  0.153489  1
  Sb  Sb14  1  0.326831  0.487575  0.982453  1
  Sb  Sb15  1  0.514767  0.021870  0.348350  1
  Sb  Sb16  1  0.014527  0.848019  0.520010  1
  Au  Au17  1  0.122878  0.873603  0.250348  1
  Au  Au18  1  0.622769  0.747157  0.374076  1
  Au  Au19  1  0.872845  0.248784  0.125931  1
