# generated using pymatgen
data_MgPaBRh6
_symmetry_space_group_name_H-M   'P 1'
_cell_length_a   5.75201242
_cell_length_b   5.75201276
_cell_length_c   5.75201200
_cell_angle_alpha   60.00000435
_cell_angle_beta   60.00000242
_cell_angle_gamma   60.00000354
_symmetry_Int_Tables_number   1
_chemical_formula_structural   MgPaBRh6
_chemical_formula_sum   'Mg1 Pa1 B1 Rh6'
_cell_volume   134.56882955
_cell_formula_units_Z   1
loop_
 _symmetry_equiv_pos_site_id
 _symmetry_equiv_pos_as_xyz
  1  'x, y, z'
loop_
 _atom_site_type_symbol
 _atom_site_label
 _atom_site_symmetry_multiplicity
 _atom_site_fract_x
 _atom_site_fract_y
 _atom_site_fract_z
 _atom_site_occupancy
  Mg  Mg0  1  0.750000  0.750000  0.750000  1
  Pa  Pa1  1  0.250000  0.250000  0.250000  1
  B  B2  1  0.500000  0.500000  0.500000  1
  Rh  Rh3  1  0.757265  0.757265  0.242735  1
  Rh  Rh4  1  0.757265  0.242735  0.242735  1
  Rh  Rh5  1  0.242735  0.757265  0.242735  1
  Rh  Rh6  1  0.242735  0.242735  0.757265  1
  Rh  Rh7  1  0.757265  0.242735  0.757265  1
  Rh  Rh8  1  0.242735  0.757265  0.757265  1
