# generated using pymatgen
data_Ti3Fe3(CoB)2
_symmetry_space_group_name_H-M   'P 1'
_cell_length_a   8.64338800
_cell_length_b   8.64338800
_cell_length_c   2.89461700
_cell_angle_alpha   90.00000000
_cell_angle_beta   90.00000000
_cell_angle_gamma   90.00000000
_symmetry_Int_Tables_number   1
_chemical_formula_structural   Ti3Fe3(CoB)2
_chemical_formula_sum   'Ti6 Fe6 Co4 B4'
_cell_volume   216.25149874
_cell_formula_units_Z   2
loop_
 _symmetry_equiv_pos_site_id
 _symmetry_equiv_pos_as_xyz
  1  'x, y, z'
loop_
 _atom_site_type_symbol
 _atom_site_label
 _atom_site_symmetry_multiplicity
 _atom_site_fract_x
 _atom_site_fract_y
 _atom_site_fract_z
 _atom_site_occupancy
  Ti  Ti0  1  0.000000  0.000000  0.000000  1
  Ti  Ti1  1  0.500000  0.500000  0.000000  1
  Ti  Ti2  1  0.831253  0.321861  0.000000  1
  Ti  Ti3  1  0.321861  0.168747  0.000000  1
  Ti  Ti4  1  0.678139  0.831253  0.000000  1
  Ti  Ti5  1  0.168747  0.678139  0.000000  1
  Fe  Fe6  1  0.500000  0.000000  0.500000  1
  Fe  Fe7  1  0.000000  0.500000  0.500000  1
  Fe  Fe8  1  0.074161  0.218996  0.500000  1
  Fe  Fe9  1  0.218996  0.925839  0.500000  1
  Fe  Fe10  1  0.781004  0.074161  0.500000  1
  Fe  Fe11  1  0.925839  0.781004  0.500000  1
  Co  Co12  1  0.431076  0.718924  0.500000  1
  Co  Co13  1  0.568924  0.281076  0.500000  1
  Co  Co14  1  0.718924  0.568924  0.500000  1
  Co  Co15  1  0.281076  0.431076  0.500000  1
  B  B16  1  0.623345  0.120367  0.000000  1
  B  B17  1  0.120367  0.376655  0.000000  1
  B  B18  1  0.879633  0.623345  0.000000  1
  B  B19  1  0.376655  0.879633  0.000000  1
