# generated using pymatgen
data_Ba2Yb(DySn2)2
_symmetry_space_group_name_H-M   'P 1'
_cell_length_a   8.25889200
_cell_length_b   8.73156300
_cell_length_c   16.65363400
_cell_angle_alpha   90.00000000
_cell_angle_beta   90.00000000
_cell_angle_gamma   90.00000000
_symmetry_Int_Tables_number   1
_chemical_formula_structural   Ba2Yb(DySn2)2
_chemical_formula_sum   'Ba8 Yb4 Dy8 Sn16'
_cell_volume   1200.94410498
_cell_formula_units_Z   4
loop_
 _symmetry_equiv_pos_site_id
 _symmetry_equiv_pos_as_xyz
  1  'x, y, z'
loop_
 _atom_site_type_symbol
 _atom_site_label
 _atom_site_symmetry_multiplicity
 _atom_site_fract_x
 _atom_site_fract_y
 _atom_site_fract_z
 _atom_site_occupancy
  Ba  Ba0  1  0.506682  0.675575  0.595650  1
  Ba  Ba1  1  0.006682  0.824425  0.904350  1
  Ba  Ba2  1  0.493318  0.324425  0.095650  1
  Ba  Ba3  1  0.993318  0.175575  0.404350  1
  Ba  Ba4  1  0.493318  0.324425  0.404350  1
  Ba  Ba5  1  0.993318  0.175575  0.095650  1
  Ba  Ba6  1  0.506682  0.675575  0.904350  1
  Ba  Ba7  1  0.006682  0.824425  0.595650  1
  Yb  Yb8  1  0.837224  0.503092  0.750000  1
  Yb  Yb9  1  0.337224  0.996908  0.750000  1
  Yb  Yb10  1  0.162776  0.496908  0.250000  1
  Yb  Yb11  1  0.662776  0.003092  0.250000  1
  Dy  Dy12  1  0.671699  0.170211  0.622768  1
  Dy  Dy13  1  0.171699  0.329789  0.877232  1
  Dy  Dy14  1  0.328301  0.829789  0.122768  1
  Dy  Dy15  1  0.828301  0.670211  0.377232  1
  Dy  Dy16  1  0.328301  0.829789  0.377232  1
  Dy  Dy17  1  0.828301  0.670211  0.122768  1
  Dy  Dy18  1  0.671699  0.170211  0.877232  1
  Dy  Dy19  1  0.171699  0.329789  0.622768  1
  Sn  Sn20  1  0.655687  0.956734  0.458696  1
  Sn  Sn21  1  0.155687  0.543266  0.041304  1
  Sn  Sn22  1  0.344313  0.043266  0.958696  1
  Sn  Sn23  1  0.844313  0.456734  0.541304  1
  Sn  Sn24  1  0.344313  0.043266  0.541304  1
  Sn  Sn25  1  0.844313  0.456734  0.958696  1
  Sn  Sn26  1  0.655687  0.956734  0.041304  1
  Sn  Sn27  1  0.155687  0.543266  0.458696  1
  Sn  Sn28  1  0.469081  0.363878  0.750000  1
  Sn  Sn29  1  0.969081  0.136122  0.750000  1
  Sn  Sn30  1  0.530919  0.636122  0.250000  1
  Sn  Sn31  1  0.030919  0.863878  0.250000  1
  Sn  Sn32  1  0.714887  0.894970  0.750000  1
  Sn  Sn33  1  0.214887  0.605030  0.750000  1
  Sn  Sn34  1  0.285113  0.105030  0.250000  1
  Sn  Sn35  1  0.785113  0.394970  0.250000  1
