# generated using pymatgen
data_CaHoCo5B4
_symmetry_space_group_name_H-M   'P 1'
_cell_length_a   7.02879353
_cell_length_b   5.88422100
_cell_length_c   5.25387945
_cell_angle_alpha   78.03014205
_cell_angle_beta   54.98050968
_cell_angle_gamma   46.98935146
_symmetry_Int_Tables_number   1
_chemical_formula_structural   CaHoCo5B4
_chemical_formula_sum   'Ca1 Ho1 Co5 B4'
_cell_volume   123.82754550
_cell_formula_units_Z   1
loop_
 _symmetry_equiv_pos_site_id
 _symmetry_equiv_pos_as_xyz
  1  'x, y, z'
loop_
 _atom_site_type_symbol
 _atom_site_label
 _atom_site_symmetry_multiplicity
 _atom_site_fract_x
 _atom_site_fract_y
 _atom_site_fract_z
 _atom_site_occupancy
  Ca  Ca0  1  0.145149  0.145151  0.854850  1
  Ho  Ho1  1  0.857086  0.857088  0.142913  1
  Co  Co2  1  0.500090  0.500091  0.999909  1
  Co  Co3  1  0.249442  0.249443  0.250558  1
  Co  Co4  1  0.000091  0.000091  0.499909  1
  Co  Co5  1  0.499204  0.499206  0.500796  1
  Co  Co6  1  0.749440  0.749443  0.750559  1
  B  B7  1  0.470877  0.788513  0.211488  1
  B  B8  1  0.210425  0.529677  0.470325  1
  B  B9  1  0.788511  0.470879  0.529123  1
  B  B10  1  0.529675  0.210427  0.789574  1
