# generated using pymatgen
data_Lu8TaRe(B12Ru)2
_symmetry_space_group_name_H-M   'P 1'
_cell_length_a   3.59851900
_cell_length_b   9.10333519
_cell_length_c   11.46631997
_cell_angle_alpha   89.94317615
_cell_angle_beta   90.00000000
_cell_angle_gamma   90.00000000
_symmetry_Int_Tables_number   1
_chemical_formula_structural   Lu8TaRe(B12Ru)2
_chemical_formula_sum   'Lu8 Ta1 Re1 B24 Ru2'
_cell_volume   375.61954063
_cell_formula_units_Z   1
loop_
 _symmetry_equiv_pos_site_id
 _symmetry_equiv_pos_as_xyz
  1  'x, y, z'
loop_
 _atom_site_type_symbol
 _atom_site_label
 _atom_site_symmetry_multiplicity
 _atom_site_fract_x
 _atom_site_fract_y
 _atom_site_fract_z
 _atom_site_occupancy
  Lu  Lu0  1  0.000000  0.319297  0.415312  1
  Lu  Lu1  1  0.000000  0.680877  0.589213  1
  Lu  Lu2  1  0.000000  0.822718  0.083722  1
  Lu  Lu3  1  0.000000  0.177076  0.913936  1
  Lu  Lu4  1  0.000000  0.948986  0.372342  1
  Lu  Lu5  1  0.000000  0.058561  0.629543  1
  Lu  Lu6  1  0.000000  0.439459  0.125510  1
  Lu  Lu7  1  0.000000  0.556113  0.869964  1
  Ta  Ta8  1  0.000000  0.638594  0.320865  1
  Re  Re9  1  0.000000  0.862094  0.820871  1
  B  B10  1  0.500000  0.548876  0.438316  1
  B  B11  1  0.500000  0.445520  0.568336  1
  B  B12  1  0.500000  0.053010  0.066688  1
  B  B13  1  0.500000  0.946809  0.934067  1
  B  B14  1  0.500000  0.754853  0.423906  1
  B  B15  1  0.500000  0.251300  0.580877  1
  B  B16  1  0.500000  0.248356  0.079831  1
  B  B17  1  0.500000  0.749227  0.919549  1
  B  B18  1  0.500000  0.798225  0.262738  1
  B  B19  1  0.500000  0.207924  0.734961  1
  B  B20  1  0.500000  0.290738  0.233794  1
  B  B21  1  0.500000  0.707348  0.764668  1
  B  B22  1  0.500000  0.629828  0.180412  1
  B  B23  1  0.500000  0.368032  0.815510  1
  B  B24  1  0.500000  0.131476  0.314444  1
  B  B25  1  0.500000  0.870165  0.684543  1
  B  B26  1  0.500000  0.983087  0.211893  1
  B  B27  1  0.500000  0.019396  0.787991  1
  B  B28  1  0.500000  0.473524  0.286688  1
  B  B29  1  0.500000  0.517321  0.712582  1
  B  B30  1  0.500000  0.600230  0.026445  1
  B  B31  1  0.500000  0.396166  0.970424  1
  B  B32  1  0.500000  0.105260  0.471669  1
  B  B33  1  0.500000  0.900754  0.529399  1
  Ru  Ru34  1  0.000000  0.360215  0.681162  1
  Ru  Ru35  1  0.000000  0.138588  0.177827  1
