# generated using pymatgen
data_SmAl5Pt3
_symmetry_space_group_name_H-M   'P 1'
_cell_length_a   4.12191900
_cell_length_b   7.39101600
_cell_length_c   20.70281700
_cell_angle_alpha   90.00000000
_cell_angle_beta   90.00000000
_cell_angle_gamma   90.00000000
_symmetry_Int_Tables_number   1
_chemical_formula_structural   SmAl5Pt3
_chemical_formula_sum   'Sm4 Al20 Pt12'
_cell_volume   630.71482447
_cell_formula_units_Z   4
loop_
 _symmetry_equiv_pos_site_id
 _symmetry_equiv_pos_as_xyz
  1  'x, y, z'
loop_
 _atom_site_type_symbol
 _atom_site_label
 _atom_site_symmetry_multiplicity
 _atom_site_fract_x
 _atom_site_fract_y
 _atom_site_fract_z
 _atom_site_occupancy
  Sm  Sm0  1  0.250000  0.117374  0.640037  1
  Sm  Sm1  1  0.750000  0.882626  0.359963  1
  Sm  Sm2  1  0.250000  0.382626  0.140037  1
  Sm  Sm3  1  0.750000  0.617374  0.859963  1
  Al  Al4  1  0.750000  0.354766  0.382892  1
  Al  Al5  1  0.750000  0.885242  0.983117  1
  Al  Al6  1  0.750000  0.686671  0.200420  1
  Al  Al7  1  0.250000  0.869375  0.491434  1
  Al  Al8  1  0.250000  0.630625  0.991434  1
  Al  Al9  1  0.250000  0.313329  0.799580  1
  Al  Al10  1  0.750000  0.076050  0.208647  1
  Al  Al11  1  0.250000  0.645234  0.617108  1
  Al  Al12  1  0.250000  0.576050  0.291353  1
  Al  Al13  1  0.250000  0.186671  0.299580  1
  Al  Al14  1  0.750000  0.145234  0.882892  1
  Al  Al15  1  0.250000  0.923950  0.791353  1
  Al  Al16  1  0.750000  0.369375  0.008566  1
  Al  Al17  1  0.750000  0.614758  0.483117  1
  Al  Al18  1  0.750000  0.130625  0.508566  1
  Al  Al19  1  0.250000  0.114758  0.016883  1
  Al  Al20  1  0.250000  0.854766  0.117108  1
  Al  Al21  1  0.250000  0.385242  0.516883  1
  Al  Al22  1  0.750000  0.423950  0.708647  1
  Al  Al23  1  0.750000  0.813329  0.700420  1
  Pt  Pt24  1  0.750000  0.383231  0.261364  1
  Pt  Pt25  1  0.250000  0.883231  0.238636  1
  Pt  Pt26  1  0.250000  0.616769  0.738636  1
  Pt  Pt27  1  0.750000  0.116769  0.761364  1
  Pt  Pt28  1  0.250000  0.162537  0.426856  1
  Pt  Pt29  1  0.750000  0.420402  0.585048  1
  Pt  Pt30  1  0.750000  0.079598  0.085048  1
  Pt  Pt31  1  0.250000  0.920402  0.914952  1
  Pt  Pt32  1  0.750000  0.837463  0.573144  1
  Pt  Pt33  1  0.250000  0.337463  0.926856  1
  Pt  Pt34  1  0.750000  0.662537  0.073144  1
  Pt  Pt35  1  0.250000  0.579598  0.414952  1
