# generated using pymatgen
data_Y2Tc3Os
_symmetry_space_group_name_H-M   'P 1'
_cell_length_a   5.31744100
_cell_length_b   5.31743989
_cell_length_c   9.06228900
_cell_angle_alpha   90.00000000
_cell_angle_beta   90.00000000
_cell_angle_gamma   120.00000066
_symmetry_Int_Tables_number   1
_chemical_formula_structural   Y2Tc3Os
_chemical_formula_sum   'Y4 Tc6 Os2'
_cell_volume   221.90843267
_cell_formula_units_Z   2
loop_
 _symmetry_equiv_pos_site_id
 _symmetry_equiv_pos_as_xyz
  1  'x, y, z'
loop_
 _atom_site_type_symbol
 _atom_site_label
 _atom_site_symmetry_multiplicity
 _atom_site_fract_x
 _atom_site_fract_y
 _atom_site_fract_z
 _atom_site_occupancy
  Y  Y0  1  0.666667  0.333332  0.062184  1
  Y  Y1  1  0.666667  0.333332  0.437815  1
  Y  Y2  1  0.333334  0.666667  0.562184  1
  Y  Y3  1  0.333334  0.666667  0.937815  1
  Tc  Tc4  1  0.170584  0.341170  0.250000  1
  Tc  Tc5  1  0.170584  0.829416  0.250000  1
  Tc  Tc6  1  0.658831  0.829416  0.250000  1
  Tc  Tc7  1  0.341170  0.170585  0.750000  1
  Tc  Tc8  1  0.829417  0.170585  0.750000  1
  Tc  Tc9  1  0.829416  0.658830  0.750000  1
  Os  Os10  1  0.000000  0.000000  0.000000  1
  Os  Os11  1  0.000000  0.000000  0.500000  1
