# generated using pymatgen
data_Dy5YMn3(Co5P4)3
_symmetry_space_group_name_H-M   'P 1'
_cell_length_a   3.70224300
_cell_length_b   10.57970400
_cell_length_c   12.16002800
_cell_angle_alpha   90.00000000
_cell_angle_beta   90.00000000
_cell_angle_gamma   90.00000000
_symmetry_Int_Tables_number   1
_chemical_formula_structural   Dy5YMn3(Co5P4)3
_chemical_formula_sum   'Dy5 Y1 Mn3 Co15 P12'
_cell_volume   476.29169925
_cell_formula_units_Z   1
loop_
 _symmetry_equiv_pos_site_id
 _symmetry_equiv_pos_as_xyz
  1  'x, y, z'
loop_
 _atom_site_type_symbol
 _atom_site_label
 _atom_site_symmetry_multiplicity
 _atom_site_fract_x
 _atom_site_fract_y
 _atom_site_fract_z
 _atom_site_occupancy
  Dy  Dy0  1  0.000000  0.500000  0.523538  1
  Dy  Dy1  1  0.500000  0.818540  0.204912  1
  Dy  Dy2  1  0.500000  0.181460  0.204912  1
  Dy  Dy3  1  0.000000  0.680575  0.795747  1
  Dy  Dy4  1  0.000000  0.319425  0.795747  1
  Y  Y5  1  0.500000  0.000000  0.477452  1
  Mn  Mn6  1  0.500000  0.500000  0.154838  1
  Mn  Mn7  1  0.000000  0.000000  0.841688  1
  Mn  Mn8  1  0.000000  0.500000  0.988998  1
  Co  Co9  1  0.500000  0.500000  0.699670  1
  Co  Co10  1  0.000000  0.000000  0.297596  1
  Co  Co11  1  0.500000  0.000000  0.013008  1
  Co  Co12  1  0.500000  0.330345  0.994429  1
  Co  Co13  1  0.500000  0.669655  0.994429  1
  Co  Co14  1  0.000000  0.164942  0.004836  1
  Co  Co15  1  0.000000  0.835058  0.004836  1
  Co  Co16  1  0.500000  0.296190  0.430555  1
  Co  Co17  1  0.500000  0.703810  0.430555  1
  Co  Co18  1  0.000000  0.203662  0.570030  1
  Co  Co19  1  0.000000  0.796338  0.570030  1
  Co  Co20  1  0.500000  0.879727  0.709406  1
  Co  Co21  1  0.500000  0.120273  0.709406  1
  Co  Co22  1  0.000000  0.621140  0.291712  1
  Co  Co23  1  0.000000  0.378860  0.291712  1
  P  P24  1  0.500000  0.500000  0.882808  1
  P  P25  1  0.000000  0.000000  0.117049  1
  P  P26  1  0.500000  0.500000  0.346428  1
  P  P27  1  0.000000  0.000000  0.655360  1
  P  P28  1  0.500000  0.310335  0.616444  1
  P  P29  1  0.500000  0.689665  0.616444  1
  P  P30  1  0.000000  0.189160  0.384116  1
  P  P31  1  0.000000  0.810840  0.384116  1
  P  P32  1  0.500000  0.847190  0.892668  1
  P  P33  1  0.500000  0.152810  0.892668  1
  P  P34  1  0.000000  0.655052  0.105929  1
  P  P35  1  0.000000  0.344948  0.105929  1
