# generated using pymatgen
data_LaCePaSb4Pt3
_symmetry_space_group_name_H-M   'P 1'
_cell_length_a   8.56159238
_cell_length_b   8.56159305
_cell_length_c   8.56159224
_cell_angle_alpha   109.58385498
_cell_angle_beta   109.32422942
_cell_angle_gamma   109.50568985
_symmetry_Int_Tables_number   1
_chemical_formula_structural   LaCePaSb4Pt3
_chemical_formula_sum   'La2 Ce2 Pa2 Sb8 Pt6'
_cell_volume   483.10264584
_cell_formula_units_Z   2
loop_
 _symmetry_equiv_pos_site_id
 _symmetry_equiv_pos_as_xyz
  1  'x, y, z'
loop_
 _atom_site_type_symbol
 _atom_site_label
 _atom_site_symmetry_multiplicity
 _atom_site_fract_x
 _atom_site_fract_y
 _atom_site_fract_z
 _atom_site_occupancy
  La  La0  1  0.250000  0.124441  0.874441  1
  La  La1  1  0.750000  0.375559  0.625559  1
  Ce  Ce2  1  0.125757  0.875757  0.250000  1
  Ce  Ce3  1  0.374243  0.624243  0.750000  1
  Pa  Pa4  1  0.874886  0.250000  0.124886  1
  Pa  Pa5  1  0.625114  0.750000  0.375114  1
  Sb  Sb6  1  0.672921  0.501524  0.001547  1
  Sb  Sb7  1  0.500023  0.998476  0.671397  1
  Sb  Sb8  1  0.999977  0.671374  0.498453  1
  Sb  Sb9  1  0.827079  0.828626  0.828603  1
  Sb  Sb10  1  0.500068  0.998309  0.171296  1
  Sb  Sb11  1  0.172988  0.501691  0.001760  1
  Sb  Sb12  1  0.999932  0.171228  0.498240  1
  Sb  Sb13  1  0.327012  0.328772  0.328704  1
  Pt  Pt14  1  0.373454  0.250000  0.623454  1
  Pt  Pt15  1  0.126546  0.750000  0.876546  1
  Pt  Pt16  1  0.250000  0.622408  0.372408  1
  Pt  Pt17  1  0.750000  0.877592  0.127592  1
  Pt  Pt18  1  0.629122  0.379122  0.250000  1
  Pt  Pt19  1  0.870878  0.120878  0.750000  1
