# generated using pymatgen
data_Tb5(FeO6)2
_symmetry_space_group_name_H-M   'P 1'
_cell_length_a   6.78965383
_cell_length_b   6.78965325
_cell_length_c   7.29848511
_cell_angle_alpha   74.38250273
_cell_angle_beta   74.38250420
_cell_angle_gamma   51.15369414
_symmetry_Int_Tables_number   1
_chemical_formula_structural   Tb5(FeO6)2
_chemical_formula_sum   'Tb5 Fe2 O12'
_cell_volume   250.09886031
_cell_formula_units_Z   1
loop_
 _symmetry_equiv_pos_site_id
 _symmetry_equiv_pos_as_xyz
  1  'x, y, z'
loop_
 _atom_site_type_symbol
 _atom_site_label
 _atom_site_symmetry_multiplicity
 _atom_site_fract_x
 _atom_site_fract_y
 _atom_site_fract_z
 _atom_site_occupancy
  Tb  Tb0  1  0.305018  0.305018  0.358309  1
  Tb  Tb1  1  0.694982  0.694982  0.641691  1
  Tb  Tb2  1  0.307024  0.307024  0.832756  1
  Tb  Tb3  1  0.692976  0.692976  0.167244  1
  Tb  Tb4  1  0.000000  0.000000  0.500000  1
  Fe  Fe5  1  0.757028  0.242972  0.000000  1
  Fe  Fe6  1  0.242972  0.757028  0.000000  1
  O  O7  1  0.898447  0.420558  0.921601  1
  O  O8  1  0.420558  0.898447  0.921601  1
  O  O9  1  0.101553  0.579442  0.078399  1
  O  O10  1  0.579442  0.101553  0.078399  1
  O  O11  1  0.096638  0.596031  0.577024  1
  O  O12  1  0.596031  0.096638  0.577024  1
  O  O13  1  0.903362  0.403969  0.422976  1
  O  O14  1  0.403969  0.903362  0.422976  1
  O  O15  1  0.001386  0.001386  0.818711  1
  O  O16  1  0.998614  0.998614  0.181289  1
  O  O17  1  0.499828  0.499828  0.818420  1
  O  O18  1  0.500172  0.500172  0.181580  1
