# generated using pymatgen
data_Nb2ZnFeNi12
_symmetry_space_group_name_H-M   'P 1'
_cell_length_a   3.63061300
_cell_length_b   3.63061300
_cell_length_c   14.38223600
_cell_angle_alpha   90.00000000
_cell_angle_beta   90.00000000
_cell_angle_gamma   90.00000000
_symmetry_Int_Tables_number   1
_chemical_formula_structural   Nb2ZnFeNi12
_chemical_formula_sum   'Nb2 Zn1 Fe1 Ni12'
_cell_volume   189.57729737
_cell_formula_units_Z   1
loop_
 _symmetry_equiv_pos_site_id
 _symmetry_equiv_pos_as_xyz
  1  'x, y, z'
loop_
 _atom_site_type_symbol
 _atom_site_label
 _atom_site_symmetry_multiplicity
 _atom_site_fract_x
 _atom_site_fract_y
 _atom_site_fract_z
 _atom_site_occupancy
  Nb  Nb0  1  0.000000  0.000000  0.248507  1
  Nb  Nb1  1  0.000000  0.000000  0.751493  1
  Zn  Zn2  1  0.000000  0.000000  0.000000  1
  Fe  Fe3  1  0.000000  0.000000  0.500000  1
  Ni  Ni4  1  0.500000  0.500000  0.000000  1
  Ni  Ni5  1  0.500000  0.500000  0.251207  1
  Ni  Ni6  1  0.500000  0.500000  0.500000  1
  Ni  Ni7  1  0.500000  0.500000  0.748793  1
  Ni  Ni8  1  0.500000  0.000000  0.123582  1
  Ni  Ni9  1  0.500000  0.000000  0.379388  1
  Ni  Ni10  1  0.500000  0.000000  0.620612  1
  Ni  Ni11  1  0.500000  0.000000  0.876418  1
  Ni  Ni12  1  0.000000  0.500000  0.123582  1
  Ni  Ni13  1  0.000000  0.500000  0.379388  1
  Ni  Ni14  1  0.000000  0.500000  0.620612  1
  Ni  Ni15  1  0.000000  0.500000  0.876418  1
