# generated using pymatgen
data_TmLu2Al3Zn2Au
_symmetry_space_group_name_H-M   'P 1'
_cell_length_a   6.94772140
_cell_length_b   6.94772084
_cell_length_c   4.25601200
_cell_angle_alpha   90.00000000
_cell_angle_beta   90.00000000
_cell_angle_gamma   120.21872775
_symmetry_Int_Tables_number   1
_chemical_formula_structural   TmLu2Al3Zn2Au
_chemical_formula_sum   'Tm1 Lu2 Al3 Zn2 Au1'
_cell_volume   177.52388770
_cell_formula_units_Z   1
loop_
 _symmetry_equiv_pos_site_id
 _symmetry_equiv_pos_as_xyz
  1  'x, y, z'
loop_
 _atom_site_type_symbol
 _atom_site_label
 _atom_site_symmetry_multiplicity
 _atom_site_fract_x
 _atom_site_fract_y
 _atom_site_fract_z
 _atom_site_occupancy
  Tm  Tm0  1  0.424304  0.424304  0.500000  1
  Lu  Lu1  1  0.577480  0.000601  0.500000  1
  Lu  Lu2  1  0.000601  0.577480  0.500000  1
  Al  Al3  1  0.756871  0.756871  0.000000  1
  Al  Al4  1  0.242432  0.000020  0.000000  1
  Al  Al5  1  0.000020  0.242432  0.000000  1
  Zn  Zn6  1  0.667540  0.332825  0.000000  1
  Zn  Zn7  1  0.332825  0.667540  0.000000  1
  Au  Au8  1  0.997926  0.997926  0.500000  1
