# generated using pymatgen
data_Y12Ir2RuI16
_symmetry_space_group_name_H-M   'P 1'
_cell_length_a   9.75267853
_cell_length_b   12.41561293
_cell_length_c   13.09043373
_cell_angle_alpha   117.21144649
_cell_angle_beta   101.48623086
_cell_angle_gamma   100.95900221
_symmetry_Int_Tables_number   1
_chemical_formula_structural   Y12Ir2RuI16
_chemical_formula_sum   'Y12 Ir2 Ru1 I16'
_cell_volume   1307.53948630
_cell_formula_units_Z   1
loop_
 _symmetry_equiv_pos_site_id
 _symmetry_equiv_pos_as_xyz
  1  'x, y, z'
loop_
 _atom_site_type_symbol
 _atom_site_label
 _atom_site_symmetry_multiplicity
 _atom_site_fract_x
 _atom_site_fract_y
 _atom_site_fract_z
 _atom_site_occupancy
  Y  Y0  1  0.084293  0.267573  0.356760  1
  Y  Y1  1  0.914348  0.731948  0.642768  1
  Y  Y2  1  0.782226  0.535325  0.328351  1
  Y  Y3  1  0.217158  0.464679  0.672208  1
  Y  Y4  1  0.274232  0.733156  0.642854  1
  Y  Y5  1  0.724898  0.267311  0.357575  1
  Y  Y6  1  0.141742  0.535839  0.327663  1
  Y  Y7  1  0.857316  0.464201  0.671821  1
  Y  Y8  1  0.406468  0.358418  0.273665  1
  Y  Y9  1  0.595403  0.641664  0.726372  1
  Y  Y10  1  0.459283  0.308022  0.520819  1
  Y  Y11  1  0.542232  0.691969  0.479131  1
  Ir  Ir12  1  0.001003  0.499992  0.499999  1
  Ir  Ir13  1  0.657210  0.499782  0.500386  1
  Ru  Ru14  1  0.339552  0.500294  0.499658  1
  I  I15  1  0.391366  0.744491  0.889872  1
  I  I16  1  0.608275  0.255414  0.109934  1
  I  I17  1  0.191621  0.974152  0.788214  1
  I  I18  1  0.808007  0.025839  0.211889  1
  I  I19  1  0.336224  0.089182  0.247321  1
  I  I20  1  0.666641  0.910827  0.752642  1
  I  I21  1  0.561232  0.437468  0.803766  1
  I  I22  1  0.440579  0.562472  0.196158  1
  I  I23  1  0.302594  0.832040  0.462929  1
  I  I24  1  0.696930  0.167629  0.537294  1
  I  I25  1  0.159742  0.168296  0.535212  1
  I  I26  1  0.839872  0.832082  0.464529  1
  I  I27  1  0.925159  0.578291  0.154478  1
  I  I28  1  0.074572  0.421553  0.845475  1
  I  I29  1  0.933747  0.743239  0.890441  1
  I  I30  1  0.066071  0.256851  0.109818  1
