# generated using pymatgen
data_Hf2AlRe2Mo
_symmetry_space_group_name_H-M   'P 1'
_cell_length_a   5.27753484
_cell_length_b   5.26989393
_cell_length_c   8.65529600
_cell_angle_alpha   90.00000000
_cell_angle_beta   90.00000000
_cell_angle_gamma   119.95212307
_symmetry_Int_Tables_number   1
_chemical_formula_structural   Hf2AlRe2Mo
_chemical_formula_sum   'Hf4 Al2 Re4 Mo2'
_cell_volume   208.57144915
_cell_formula_units_Z   2
loop_
 _symmetry_equiv_pos_site_id
 _symmetry_equiv_pos_as_xyz
  1  'x, y, z'
loop_
 _atom_site_type_symbol
 _atom_site_label
 _atom_site_symmetry_multiplicity
 _atom_site_fract_x
 _atom_site_fract_y
 _atom_site_fract_z
 _atom_site_occupancy
  Hf  Hf0  1  0.333998  0.667610  0.434526  1
  Hf  Hf1  1  0.666002  0.333610  0.934526  1
  Hf  Hf2  1  0.666002  0.333610  0.565474  1
  Hf  Hf3  1  0.333998  0.667610  0.065474  1
  Al  Al4  1  0.000000  0.998056  0.000000  1
  Al  Al5  1  0.000000  0.998056  0.500000  1
  Re  Re6  1  0.340372  0.169715  0.250000  1
  Re  Re7  1  0.659628  0.829345  0.750000  1
  Re  Re8  1  0.829801  0.660032  0.250000  1
  Re  Re9  1  0.170199  0.830233  0.750000  1
  Mo  Mo10  1  0.171079  0.341602  0.750000  1
  Mo  Mo11  1  0.828921  0.170521  0.250000  1
