# generated using pymatgen
data_Nd5Co19(SiP5)2
_symmetry_space_group_name_H-M   'P 1'
_cell_length_a   12.16043701
_cell_length_b   12.15537760
_cell_length_c   3.74482100
_cell_angle_alpha   90.00000000
_cell_angle_beta   90.00000000
_cell_angle_gamma   119.98622987
_symmetry_Int_Tables_number   1
_chemical_formula_structural   Nd5Co19(SiP5)2
_chemical_formula_sum   'Nd5 Co19 Si2 P10'
_cell_volume   479.44586435
_cell_formula_units_Z   1
loop_
 _symmetry_equiv_pos_site_id
 _symmetry_equiv_pos_as_xyz
  1  'x, y, z'
loop_
 _atom_site_type_symbol
 _atom_site_label
 _atom_site_symmetry_multiplicity
 _atom_site_fract_x
 _atom_site_fract_y
 _atom_site_fract_z
 _atom_site_occupancy
  Nd  Nd0  1  0.665312  0.332781  0.000000  1
  Nd  Nd1  1  0.334688  0.667470  0.000000  1
  Nd  Nd2  1  0.186250  0.186715  0.500000  1
  Nd  Nd3  1  0.813750  0.000465  0.500000  1
  Nd  Nd4  1  0.000000  0.810546  0.500000  1
  Co  Co5  1  0.561532  0.558060  0.000000  1
  Co  Co6  1  0.438468  0.996527  0.000000  1
  Co  Co7  1  0.000000  0.445994  0.000000  1
  Co  Co8  1  0.825104  0.205383  0.000000  1
  Co  Co9  1  0.800207  0.621066  0.000000  1
  Co  Co10  1  0.378176  0.173949  0.000000  1
  Co  Co11  1  0.199793  0.820859  0.000000  1
  Co  Co12  1  0.621824  0.795773  0.000000  1
  Co  Co13  1  0.174896  0.380279  0.000000  1
  Co  Co14  1  0.638135  0.124606  0.500000  1
  Co  Co15  1  0.876646  0.515884  0.500000  1
  Co  Co16  1  0.485867  0.360378  0.500000  1
  Co  Co17  1  0.123354  0.639239  0.500000  1
  Co  Co18  1  0.514133  0.874513  0.500000  1
  Co  Co19  1  0.361865  0.486471  0.500000  1
  Co  Co20  1  0.715964  0.714475  0.500000  1
  Co  Co21  1  0.284036  0.998510  0.500000  1
  Co  Co22  1  0.000000  0.287727  0.500000  1
  Co  Co23  1  0.000000  0.000836  0.000000  1
  Si  Si24  1  0.374126  0.374030  0.000000  1
  Si  Si25  1  0.625874  0.999904  0.000000  1
  P  P26  1  0.000000  0.626548  0.000000  1
  P  P27  1  0.832947  0.310897  0.500000  1
  P  P28  1  0.688229  0.523015  0.500000  1
  P  P29  1  0.475520  0.164553  0.500000  1
  P  P30  1  0.311771  0.834785  0.500000  1
  P  P31  1  0.524480  0.689034  0.500000  1
  P  P32  1  0.167053  0.477950  0.500000  1
  P  P33  1  0.816167  0.815333  0.000000  1
  P  P34  1  0.183833  0.999166  0.000000  1
  P  P35  1  0.000000  0.186278  0.000000  1
