# generated using pymatgen
data_Sm5Dy3Np4O24
_symmetry_space_group_name_H-M   'P 1'
_cell_length_a   5.61818281
_cell_length_b   7.92765140
_cell_length_c   11.94677800
_cell_angle_alpha   74.21154918
_cell_angle_beta   90.06338688
_cell_angle_gamma   90.10879080
_symmetry_Int_Tables_number   1
_chemical_formula_structural   Sm5Dy3Np4O24
_chemical_formula_sum   'Sm5 Dy3 Np4 O24'
_cell_volume   512.02194734
_cell_formula_units_Z   1
loop_
 _symmetry_equiv_pos_site_id
 _symmetry_equiv_pos_as_xyz
  1  'x, y, z'
loop_
 _atom_site_type_symbol
 _atom_site_label
 _atom_site_symmetry_multiplicity
 _atom_site_fract_x
 _atom_site_fract_y
 _atom_site_fract_z
 _atom_site_occupancy
  Sm  Sm0  1  0.744863  0.999472  0.751533  1
  Sm  Sm1  1  0.255131  0.998972  0.248136  1
  Sm  Sm2  1  0.694639  0.500590  0.750480  1
  Sm  Sm3  1  0.304584  0.500827  0.248375  1
  Sm  Sm4  1  0.812815  0.204398  0.421476  1
  Dy  Dy5  1  0.187806  0.792947  0.579834  1
  Dy  Dy6  1  0.813846  0.793223  0.079748  1
  Dy  Dy7  1  0.185382  0.206623  0.920472  1
  Np  Np8  1  0.254654  0.721884  0.886979  1
  Np  Np9  1  0.745758  0.721649  0.386951  1
  Np  Np10  1  0.254059  0.278463  0.614824  1
  Np  Np11  1  0.744324  0.278661  0.111561  1
  O  O12  1  0.050085  0.943447  0.898358  1
  O  O13  1  0.551704  0.844076  0.933955  1
  O  O14  1  0.956060  0.939253  0.397459  1
  O  O15  1  0.445616  0.797554  0.727882  1
  O  O16  1  0.452096  0.847420  0.433915  1
  O  O17  1  0.968906  0.715018  0.767419  1
  O  O18  1  0.554826  0.798296  0.227147  1
  O  O19  1  0.875616  0.629804  0.553177  1
  O  O20  1  0.380549  0.483334  0.885534  1
  O  O21  1  0.030291  0.713740  0.265977  1
  O  O22  1  0.380954  0.517741  0.616089  1
  O  O23  1  0.875423  0.370606  0.946389  1
  O  O24  1  0.124643  0.630483  0.052711  1
  O  O25  1  0.614719  0.485658  0.385198  1
  O  O26  1  0.967492  0.285285  0.733353  1
  O  O27  1  0.619667  0.517469  0.114411  1
  O  O28  1  0.130473  0.371671  0.447908  1
  O  O29  1  0.444918  0.202750  0.774001  1
  O  O30  1  0.031736  0.285634  0.230392  1
  O  O31  1  0.546857  0.153568  0.570292  1
  O  O32  1  0.551311  0.202928  0.269272  1
  O  O33  1  0.049325  0.055463  0.603237  1
  O  O34  1  0.448940  0.154426  0.064678  1
  O  O35  1  0.949933  0.056669  0.100880  1
