# generated using pymatgen
data_Tm2TaB2Ir4Ru
_symmetry_space_group_name_H-M   'P 1'
_cell_length_a   9.61363500
_cell_length_b   9.61363500
_cell_length_c   3.19624200
_cell_angle_alpha   90.00000000
_cell_angle_beta   90.00000000
_cell_angle_gamma   90.00000000
_symmetry_Int_Tables_number   1
_chemical_formula_structural   Tm2TaB2Ir4Ru
_chemical_formula_sum   'Tm4 Ta2 B4 Ir8 Ru2'
_cell_volume   295.40300753
_cell_formula_units_Z   2
loop_
 _symmetry_equiv_pos_site_id
 _symmetry_equiv_pos_as_xyz
  1  'x, y, z'
loop_
 _atom_site_type_symbol
 _atom_site_label
 _atom_site_symmetry_multiplicity
 _atom_site_fract_x
 _atom_site_fract_y
 _atom_site_fract_z
 _atom_site_occupancy
  Tm  Tm0  1  0.826604  0.673396  0.000000  1
  Tm  Tm1  1  0.173396  0.326604  0.000000  1
  Tm  Tm2  1  0.326604  0.826604  0.000000  1
  Tm  Tm3  1  0.673396  0.173396  0.000000  1
  Ta  Ta4  1  0.500000  0.500000  0.000000  1
  Ta  Ta5  1  0.000000  0.000000  0.000000  1
  B  B6  1  0.618702  0.881298  0.000000  1
  B  B7  1  0.381298  0.118702  0.000000  1
  B  B8  1  0.118702  0.618702  0.000000  1
  B  B9  1  0.881298  0.381298  0.000000  1
  Ir  Ir10  1  0.571622  0.720531  0.500000  1
  Ir  Ir11  1  0.428378  0.279469  0.500000  1
  Ir  Ir12  1  0.071622  0.779469  0.500000  1
  Ir  Ir13  1  0.928378  0.220531  0.500000  1
  Ir  Ir14  1  0.279469  0.571622  0.500000  1
  Ir  Ir15  1  0.720531  0.428378  0.500000  1
  Ir  Ir16  1  0.220531  0.071622  0.500000  1
  Ir  Ir17  1  0.779469  0.928378  0.500000  1
  Ru  Ru18  1  0.500000  0.000000  0.500000  1
  Ru  Ru19  1  0.000000  0.500000  0.500000  1
