# generated using pymatgen
data_Dy12In2CoOs3
_symmetry_space_group_name_H-M   'P 1'
_cell_length_a   8.46707416
_cell_length_b   8.46707365
_cell_length_c   8.46707341
_cell_angle_alpha   112.52197793
_cell_angle_beta   110.88573058
_cell_angle_gamma   105.09717524
_symmetry_Int_Tables_number   1
_chemical_formula_structural   Dy12In2CoOs3
_chemical_formula_sum   'Dy12 In2 Co1 Os3'
_cell_volume   465.15589094
_cell_formula_units_Z   1
loop_
 _symmetry_equiv_pos_site_id
 _symmetry_equiv_pos_as_xyz
  1  'x, y, z'
loop_
 _atom_site_type_symbol
 _atom_site_label
 _atom_site_symmetry_multiplicity
 _atom_site_fract_x
 _atom_site_fract_y
 _atom_site_fract_z
 _atom_site_occupancy
  Dy  Dy0  1  0.445852  0.242567  0.203286  1
  Dy  Dy1  1  0.552244  0.758022  0.794221  1
  Dy  Dy2  1  0.039281  0.242567  0.796714  1
  Dy  Dy3  1  0.963801  0.758022  0.205779  1
  Dy  Dy4  1  0.186242  0.283362  0.467317  1
  Dy  Dy5  1  0.816045  0.718924  0.532683  1
  Dy  Dy6  1  0.186242  0.718924  0.902879  1
  Dy  Dy7  1  0.816045  0.283362  0.097121  1
  Dy  Dy8  1  0.327505  0.641844  0.314339  1
  Dy  Dy9  1  0.674379  0.359536  0.685156  1
  Dy  Dy10  1  0.327505  0.013167  0.685661  1
  Dy  Dy11  1  0.674379  0.989223  0.314844  1
  In  In12  1  0.501388  0.501388  0.000000  1
  In  In13  1  0.998486  0.998486  0.000000  1
  Co  Co14  1  0.878042  0.378042  0.500000  1
  Os  Os15  1  0.332113  0.001867  0.330246  1
  Os  Os16  1  0.671621  0.001867  0.669754  1
  Os  Os17  1  0.108830  0.608830  0.500000  1
