# generated using pymatgen
data_NdCo3As3Rh2
_symmetry_space_group_name_H-M   'P 1'
_cell_length_a   3.88845700
_cell_length_b   11.00311300
_cell_length_c   12.55575900
_cell_angle_alpha   90.00000000
_cell_angle_beta   90.00000000
_cell_angle_gamma   90.00000000
_symmetry_Int_Tables_number   1
_chemical_formula_structural   NdCo3As3Rh2
_chemical_formula_sum   'Nd4 Co12 As12 Rh8'
_cell_volume   537.19980325
_cell_formula_units_Z   4
loop_
 _symmetry_equiv_pos_site_id
 _symmetry_equiv_pos_as_xyz
  1  'x, y, z'
loop_
 _atom_site_type_symbol
 _atom_site_label
 _atom_site_symmetry_multiplicity
 _atom_site_fract_x
 _atom_site_fract_y
 _atom_site_fract_z
 _atom_site_occupancy
  Nd  Nd0  1  0.250000  0.583252  0.706425  1
  Nd  Nd1  1  0.250000  0.916748  0.206425  1
  Nd  Nd2  1  0.750000  0.416748  0.293575  1
  Nd  Nd3  1  0.750000  0.083252  0.793575  1
  Co  Co4  1  0.250000  0.217886  0.177636  1
  Co  Co5  1  0.250000  0.282114  0.677636  1
  Co  Co6  1  0.750000  0.782114  0.822364  1
  Co  Co7  1  0.750000  0.717886  0.322364  1
  Co  Co8  1  0.250000  0.883885  0.694864  1
  Co  Co9  1  0.250000  0.616115  0.194864  1
  Co  Co10  1  0.750000  0.116115  0.305136  1
  Co  Co11  1  0.750000  0.383885  0.805136  1
  Co  Co12  1  0.250000  0.466727  0.931454  1
  Co  Co13  1  0.250000  0.033273  0.431454  1
  Co  Co14  1  0.750000  0.533273  0.068546  1
  Co  Co15  1  0.750000  0.966727  0.568546  1
  As  As16  1  0.250000  0.418591  0.110330  1
  As  As17  1  0.250000  0.081409  0.610330  1
  As  As18  1  0.750000  0.581409  0.889670  1
  As  As19  1  0.750000  0.918591  0.389670  1
  As  As20  1  0.250000  0.276926  0.864136  1
  As  As21  1  0.250000  0.223074  0.364136  1
  As  As22  1  0.750000  0.723074  0.135864  1
  As  As23  1  0.750000  0.776926  0.635864  1
  As  As24  1  0.250000  0.606350  0.381047  1
  As  As25  1  0.250000  0.893650  0.881047  1
  As  As26  1  0.750000  0.393650  0.618953  1
  As  As27  1  0.750000  0.106350  0.118953  1
  Rh  Rh28  1  0.250000  0.709218  0.990574  1
  Rh  Rh29  1  0.250000  0.790782  0.490574  1
  Rh  Rh30  1  0.750000  0.290782  0.009426  1
  Rh  Rh31  1  0.750000  0.209218  0.509426  1
  Rh  Rh32  1  0.250000  0.405837  0.483539  1
  Rh  Rh33  1  0.250000  0.094163  0.983539  1
  Rh  Rh34  1  0.750000  0.594163  0.516461  1
  Rh  Rh35  1  0.750000  0.905837  0.016461  1
