# generated using pymatgen
data_Pr5(CCl4)2
_symmetry_space_group_name_H-M   'P 1'
_cell_length_a   8.82879430
_cell_length_b   11.82806845
_cell_length_c   16.23737100
_cell_angle_alpha   100.13488368
_cell_angle_beta   90.10667043
_cell_angle_gamma   95.79887133
_symmetry_Int_Tables_number   1
_chemical_formula_structural   Pr5(CCl4)2
_chemical_formula_sum   'Pr20 C8 Cl32'
_cell_volume   1660.29556744
_cell_formula_units_Z   4
loop_
 _symmetry_equiv_pos_site_id
 _symmetry_equiv_pos_as_xyz
  1  'x, y, z'
loop_
 _atom_site_type_symbol
 _atom_site_label
 _atom_site_symmetry_multiplicity
 _atom_site_fract_x
 _atom_site_fract_y
 _atom_site_fract_z
 _atom_site_occupancy
  Pr  Pr0  1  0.260446  0.998302  0.306653  1
  Pr  Pr1  1  0.121380  0.370446  0.225991  1
  Pr  Pr2  1  0.833810  0.942098  0.912527  1
  Pr  Pr3  1  0.166190  0.057902  0.087473  1
  Pr  Pr4  1  0.411562  0.574078  0.389531  1
  Pr  Pr5  1  0.546695  0.742075  0.753122  1
  Pr  Pr6  1  0.739554  0.001698  0.693347  1
  Pr  Pr7  1  0.670005  0.517539  0.199747  1
  Pr  Pr8  1  0.329995  0.482461  0.800253  1
  Pr  Pr9  1  0.588438  0.425922  0.610469  1
  Pr  Pr10  1  0.313995  0.634508  0.174170  1
  Pr  Pr11  1  0.379818  0.347463  0.029053  1
  Pr  Pr12  1  0.686005  0.365492  0.825830  1
  Pr  Pr13  1  0.902834  0.108851  0.276410  1
  Pr  Pr14  1  0.453305  0.257925  0.246878  1
  Pr  Pr15  1  0.169202  0.269466  0.451193  1
  Pr  Pr16  1  0.620182  0.652537  0.970947  1
  Pr  Pr17  1  0.878620  0.629554  0.774009  1
  Pr  Pr18  1  0.097166  0.891149  0.723590  1
  Pr  Pr19  1  0.830798  0.730534  0.548807  1
  C  C20  1  0.600723  0.519545  0.747146  1
  C  C21  1  0.821056  0.797310  0.690877  1
  C  C22  1  0.399277  0.480455  0.252854  1
  C  C23  1  0.824498  0.849783  0.775988  1
  C  C24  1  0.178944  0.202690  0.309123  1
  C  C25  1  0.175502  0.150217  0.224012  1
  C  C26  1  0.393041  0.428303  0.168063  1
  C  C27  1  0.606959  0.571697  0.831937  1
  Cl  Cl28  1  0.929472  0.729281  0.955951  1
  Cl  Cl29  1  0.862526  0.206715  0.446040  1
  Cl  Cl30  1  0.300972  0.565702  0.986678  1
  Cl  Cl31  1  0.522029  0.855951  0.930850  1
  Cl  Cl32  1  0.786305  0.312591  0.231218  1
  Cl  Cl33  1  0.000864  0.573348  0.180176  1
  Cl  Cl34  1  0.104900  0.488908  0.405274  1
  Cl  Cl35  1  0.213695  0.687409  0.768782  1
  Cl  Cl36  1  0.709436  0.925652  0.520202  1
  Cl  Cl37  1  0.427868  0.949292  0.718100  1
  Cl  Cl38  1  0.137474  0.793285  0.553960  1
  Cl  Cl39  1  0.502491  0.642362  0.570245  1
  Cl  Cl40  1  0.999136  0.426652  0.819824  1
  Cl  Cl41  1  0.037563  0.098746  0.685596  1
  Cl  Cl42  1  0.747275  0.141741  0.864578  1
  Cl  Cl43  1  0.252725  0.858259  0.135422  1
  Cl  Cl44  1  0.895101  0.511092  0.594726  1
  Cl  Cl45  1  0.664814  0.228505  0.662392  1
  Cl  Cl46  1  0.618594  0.729584  0.156804  1
  Cl  Cl47  1  0.070528  0.270719  0.044049  1
  Cl  Cl48  1  0.572132  0.050708  0.281900  1
  Cl  Cl49  1  0.335186  0.771495  0.337608  1
  Cl  Cl50  1  0.150192  0.998731  0.898992  1
  Cl  Cl51  1  0.962437  0.901254  0.314404  1
  Cl  Cl52  1  0.849808  0.001269  0.101008  1
  Cl  Cl53  1  0.699028  0.434298  0.013322  1
  Cl  Cl54  1  0.381406  0.270416  0.843196  1
  Cl  Cl55  1  0.729375  0.623969  0.369677  1
  Cl  Cl56  1  0.270625  0.376031  0.630323  1
  Cl  Cl57  1  0.477971  0.144049  0.069150  1
  Cl  Cl58  1  0.497509  0.357638  0.429755  1
  Cl  Cl59  1  0.290564  0.074348  0.479798  1
