# generated using pymatgen
data_La3Sn3HgRuRh
_symmetry_space_group_name_H-M   'P 1'
_cell_length_a   7.74380200
_cell_length_b   7.74380041
_cell_length_c   4.28926800
_cell_angle_alpha   90.00000000
_cell_angle_beta   90.00000000
_cell_angle_gamma   119.99999823
_symmetry_Int_Tables_number   1
_chemical_formula_structural   La3Sn3HgRuRh
_chemical_formula_sum   'La3 Sn3 Hg1 Ru1 Rh1'
_cell_volume   222.75230824
_cell_formula_units_Z   1
loop_
 _symmetry_equiv_pos_site_id
 _symmetry_equiv_pos_as_xyz
  1  'x, y, z'
loop_
 _atom_site_type_symbol
 _atom_site_label
 _atom_site_symmetry_multiplicity
 _atom_site_fract_x
 _atom_site_fract_y
 _atom_site_fract_z
 _atom_site_occupancy
  La  La0  1  0.979527  0.580719  0.000000  1
  La  La1  1  0.419281  0.398808  0.000000  1
  La  La2  1  0.601192  0.020473  0.000000  1
  Sn  Sn3  1  0.764638  0.754879  0.500000  1
  Sn  Sn4  1  0.990241  0.235362  0.500000  1
  Sn  Sn5  1  0.245121  0.009759  0.500000  1
  Hg  Hg6  1  0.333333  0.666667  0.500000  1
  Ru  Ru7  1  0.000000  0.000000  0.000000  1
  Rh  Rh8  1  0.666667  0.333333  0.500000  1
