# generated using pymatgen
data_Ti13Al9IrRh7
_symmetry_space_group_name_H-M   'P 1'
_cell_length_a   8.74615561
_cell_length_b   8.74615542
_cell_length_c   8.74615678
_cell_angle_alpha   59.67143945
_cell_angle_beta   59.67144038
_cell_angle_gamma   59.67145166
_symmetry_Int_Tables_number   1
_chemical_formula_structural   Ti13Al9IrRh7
_chemical_formula_sum   'Ti13 Al9 Ir1 Rh7'
_cell_volume   469.55095756
_cell_formula_units_Z   1
loop_
 _symmetry_equiv_pos_site_id
 _symmetry_equiv_pos_as_xyz
  1  'x, y, z'
loop_
 _atom_site_type_symbol
 _atom_site_label
 _atom_site_symmetry_multiplicity
 _atom_site_fract_x
 _atom_site_fract_y
 _atom_site_fract_z
 _atom_site_occupancy
  Ti  Ti0  1  0.210945  0.210945  0.788709  1
  Ti  Ti1  1  0.788709  0.210945  0.210945  1
  Ti  Ti2  1  0.210945  0.788709  0.210945  1
  Ti  Ti3  1  0.797078  0.797078  0.191202  1
  Ti  Ti4  1  0.191202  0.797078  0.797078  1
  Ti  Ti5  1  0.797078  0.191202  0.797078  1
  Ti  Ti6  1  0.378334  0.378334  0.378334  1
  Ti  Ti7  1  0.378983  0.866222  0.378983  1
  Ti  Ti8  1  0.866222  0.378983  0.378983  1
  Ti  Ti9  1  0.378983  0.378983  0.866222  1
  Ti  Ti10  1  0.842309  0.476391  0.842309  1
  Ti  Ti11  1  0.476391  0.842309  0.842309  1
  Ti  Ti12  1  0.842309  0.842309  0.476391  1
  Al  Al13  1  0.155202  0.155202  0.155202  1
  Al  Al14  1  0.158971  0.525564  0.158971  1
  Al  Al15  1  0.525564  0.158971  0.158971  1
  Al  Al16  1  0.158971  0.158971  0.525564  1
  Al  Al17  1  0.619859  0.619859  0.619859  1
  Al  Al18  1  0.619694  0.143586  0.619694  1
  Al  Al19  1  0.143586  0.619694  0.619694  1
  Al  Al20  1  0.619694  0.619694  0.143586  1
  Al  Al21  1  0.829269  0.829269  0.829269  1
  Ir  Ir22  1  0.003786  0.003786  0.003786  1
  Rh  Rh23  1  0.003440  0.003440  0.497579  1
  Rh  Rh24  1  0.497579  0.003440  0.003440  1
  Rh  Rh25  1  0.003440  0.497579  0.003440  1
  Rh  Rh26  1  0.498553  0.498553  0.003102  1
  Rh  Rh27  1  0.003102  0.498553  0.498553  1
  Rh  Rh28  1  0.498553  0.003102  0.498553  1
  Rh  Rh29  1  0.501247  0.501247  0.501247  1
