# generated using pymatgen
data_TiO2F5
_symmetry_space_group_name_H-M   'P 1'
_cell_length_a   3.95511021
_cell_length_b   5.38944366
_cell_length_c   7.10714976
_cell_angle_alpha   120.44853819
_cell_angle_beta   91.93289272
_cell_angle_gamma   104.57670351
_symmetry_Int_Tables_number   1
_chemical_formula_structural   TiO2F5
_chemical_formula_sum   'Ti1 O2 F5'
_cell_volume   124.01390789
_cell_formula_units_Z   1
loop_
 _symmetry_equiv_pos_site_id
 _symmetry_equiv_pos_as_xyz
  1  'x, y, z'
loop_
 _atom_site_type_symbol
 _atom_site_label
 _atom_site_symmetry_multiplicity
 _atom_site_fract_x
 _atom_site_fract_y
 _atom_site_fract_z
 _atom_site_occupancy
  Ti  Ti0  1  0.198694  0.472826  0.782307  1
  O  O1  1  0.685345  0.742475  0.422026  1
  O  O2  1  0.686113  0.519411  0.255744  1
  F  F3  1  0.341827  0.826567  0.040596  1
  F  F4  1  0.093342  0.231936  0.894080  1
  F  F5  1  0.683218  0.453011  0.765355  1
  F  F6  1  0.057383  0.071272  0.473626  1
  F  F7  1  0.216727  0.613687  0.593556  1
