# generated using pymatgen
data_SbPd8
_symmetry_space_group_name_H-M   'P 1'
_cell_length_a   4.89120814
_cell_length_b   4.90123083
_cell_length_c   7.48372161
_cell_angle_alpha   96.36672814
_cell_angle_beta   123.20942089
_cell_angle_gamma   99.33746559
_symmetry_Int_Tables_number   1
_chemical_formula_structural   SbPd8
_chemical_formula_sum   'Sb1 Pd8'
_cell_volume   143.71521288
_cell_formula_units_Z   1
loop_
 _symmetry_equiv_pos_site_id
 _symmetry_equiv_pos_as_xyz
  1  'x, y, z'
loop_
 _atom_site_type_symbol
 _atom_site_label
 _atom_site_symmetry_multiplicity
 _atom_site_fract_x
 _atom_site_fract_y
 _atom_site_fract_z
 _atom_site_occupancy
  Sb  Sb0  1  0.075927  0.129834  0.746262  1
  Pd  Pd1  1  0.739887  0.461048  0.078807  1
  Pd  Pd2  1  0.412226  0.798511  0.413880  1
  Pd  Pd3  1  0.523577  0.353466  0.633829  1
  Pd  Pd4  1  0.628607  0.906195  0.858988  1
  Pd  Pd5  1  0.855794  0.018021  0.303585  1
  Pd  Pd6  1  0.296211  0.241642  0.189081  1
  Pd  Pd7  1  0.186504  0.688075  0.970915  1
  Pd  Pd8  1  0.965538  0.571639  0.521868  1
