# generated using pymatgen
data_PrAgPt2O7
_symmetry_space_group_name_H-M   'P 1'
_cell_length_a   7.33736874
_cell_length_b   7.26758256
_cell_length_c   7.33736810
_cell_angle_alpha   60.31411937
_cell_angle_beta   61.47719069
_cell_angle_gamma   60.31412550
_symmetry_Int_Tables_number   1
_chemical_formula_structural   PrAgPt2O7
_chemical_formula_sum   'Pr2 Ag2 Pt4 O14'
_cell_volume   280.97204944
_cell_formula_units_Z   2
loop_
 _symmetry_equiv_pos_site_id
 _symmetry_equiv_pos_as_xyz
  1  'x, y, z'
loop_
 _atom_site_type_symbol
 _atom_site_label
 _atom_site_symmetry_multiplicity
 _atom_site_fract_x
 _atom_site_fract_y
 _atom_site_fract_z
 _atom_site_occupancy
  Pr  Pr0  1  0.625000  0.125000  0.125000  1
  Pr  Pr1  1  0.125000  0.125000  0.625000  1
  Ag  Ag2  1  0.125000  0.625000  0.125000  1
  Ag  Ag3  1  0.125000  0.125000  0.125000  1
  Pt  Pt4  1  0.125000  0.625000  0.625000  1
  Pt  Pt5  1  0.625000  0.125000  0.625000  1
  Pt  Pt6  1  0.625000  0.625000  0.125000  1
  Pt  Pt7  1  0.625000  0.625000  0.625000  1
  O  O8  1  0.229261  0.270739  0.229261  1
  O  O9  1  0.020739  0.979261  0.020739  1
  O  O10  1  0.697641  0.711764  0.297409  1
  O  O11  1  0.297409  0.293186  0.697641  1
  O  O12  1  0.713714  0.286286  0.713714  1
  O  O13  1  0.298156  0.701844  0.298156  1
  O  O14  1  0.297409  0.711764  0.697641  1
  O  O15  1  0.697641  0.293186  0.297409  1
  O  O16  1  0.552359  0.538236  0.952591  1
  O  O17  1  0.952591  0.956814  0.552359  1
  O  O18  1  0.536286  0.963714  0.536286  1
  O  O19  1  0.951844  0.548156  0.951844  1
  O  O20  1  0.952591  0.538236  0.552359  1
  O  O21  1  0.552359  0.956814  0.952591  1
