# generated using pymatgen
data_Dy8Er12Si15Hg
_symmetry_space_group_name_H-M   'P 1'
_cell_length_a   7.39221076
_cell_length_b   7.64817021
_cell_length_c   14.58154000
_cell_angle_alpha   89.69547168
_cell_angle_beta   89.08638628
_cell_angle_gamma   90.03840190
_symmetry_Int_Tables_number   1
_chemical_formula_structural   Dy8Er12Si15Hg
_chemical_formula_sum   'Dy8 Er12 Si15 Hg1'
_cell_volume   824.27818443
_cell_formula_units_Z   1
loop_
 _symmetry_equiv_pos_site_id
 _symmetry_equiv_pos_as_xyz
  1  'x, y, z'
loop_
 _atom_site_type_symbol
 _atom_site_label
 _atom_site_symmetry_multiplicity
 _atom_site_fract_x
 _atom_site_fract_y
 _atom_site_fract_z
 _atom_site_occupancy
  Dy  Dy0  1  0.021182  0.179714  0.099204  1
  Dy  Dy1  1  0.979280  0.821793  0.903103  1
  Dy  Dy2  1  0.479036  0.681838  0.903049  1
  Dy  Dy3  1  0.985119  0.831072  0.598779  1
  Dy  Dy4  1  0.519809  0.317497  0.097647  1
  Dy  Dy5  1  0.011717  0.171812  0.398303  1
  Dy  Dy6  1  0.517190  0.315253  0.399429  1
  Dy  Dy7  1  0.489830  0.687251  0.600549  1
  Er  Er8  1  0.161048  0.511373  0.751943  1
  Er  Er9  1  0.839751  0.489583  0.251626  1
  Er  Er10  1  0.338759  0.006545  0.250415  1
  Er  Er11  1  0.663867  0.989811  0.749899  1
  Er  Er12  1  0.339646  0.172995  0.624288  1
  Er  Er13  1  0.663832  0.821914  0.377091  1
  Er  Er14  1  0.169074  0.676758  0.372351  1
  Er  Er15  1  0.673645  0.821317  0.122586  1
  Er  Er16  1  0.826628  0.325842  0.623797  1
  Er  Er17  1  0.326113  0.179544  0.877941  1
  Er  Er18  1  0.825310  0.320222  0.878252  1
  Er  Er19  1  0.173126  0.678483  0.123108  1
  Si  Si20  1  0.036234  0.113505  0.752086  1
  Si  Si21  1  0.964285  0.890817  0.248092  1
  Si  Si22  1  0.468398  0.604426  0.247801  1
  Si  Si23  1  0.532831  0.395446  0.751885  1
  Si  Si24  1  0.278074  0.876022  0.751845  1
  Si  Si25  1  0.720381  0.126009  0.247988  1
  Si  Si26  1  0.222292  0.368589  0.247656  1
  Si  Si27  1  0.780371  0.628583  0.753312  1
  Si  Si28  1  0.833363  0.531000  0.457977  1
  Si  Si29  1  0.329938  0.965314  0.459697  1
  Si  Si30  1  0.847659  0.530823  0.039092  1
  Si  Si31  1  0.666885  0.034166  0.538935  1
  Si  Si32  1  0.149988  0.469008  0.961673  1
  Si  Si33  1  0.651237  0.029213  0.959793  1
  Si  Si34  1  0.347136  0.969561  0.040111  1
  Hg  Hg35  1  0.166970  0.466902  0.538700  1
