# generated using pymatgen
data_Zr3Sc5P12Ir9Rh7
_symmetry_space_group_name_H-M   'P 1'
_cell_length_a   12.81043138
_cell_length_b   12.83398009
_cell_length_c   3.87808400
_cell_angle_alpha   90.00000000
_cell_angle_beta   90.00000000
_cell_angle_gamma   119.88624719
_symmetry_Int_Tables_number   1
_chemical_formula_structural   Zr3Sc5P12Ir9Rh7
_chemical_formula_sum   'Zr3 Sc5 P12 Ir9 Rh7'
_cell_volume   552.80202869
_cell_formula_units_Z   1
loop_
 _symmetry_equiv_pos_site_id
 _symmetry_equiv_pos_as_xyz
  1  'x, y, z'
loop_
 _atom_site_type_symbol
 _atom_site_label
 _atom_site_symmetry_multiplicity
 _atom_site_fract_x
 _atom_site_fract_y
 _atom_site_fract_z
 _atom_site_occupancy
  Zr  Zr0  1  0.447897  0.999122  0.000000  1
  Zr  Zr1  1  0.000412  0.448508  0.000000  1
  Zr  Zr2  1  0.551610  0.552515  0.000000  1
  Sc  Sc3  1  0.332182  0.666689  0.000000  1
  Sc  Sc4  1  0.666312  0.333470  0.000000  1
  Sc  Sc5  1  0.815670  0.999154  0.500000  1
  Sc  Sc6  1  0.999629  0.816004  0.500000  1
  Sc  Sc7  1  0.183851  0.183340  0.500000  1
  P  P8  1  0.173601  0.000189  0.000000  1
  P  P9  1  0.001025  0.174512  0.000000  1
  P  P10  1  0.825856  0.826514  0.000000  1
  P  P11  1  0.171713  0.483487  0.500000  1
  P  P12  1  0.515763  0.687723  0.500000  1
  P  P13  1  0.312887  0.828109  0.500000  1
  P  P14  1  0.687615  0.516845  0.500000  1
  P  P15  1  0.828597  0.312230  0.500000  1
  P  P16  1  0.483824  0.171149  0.500000  1
  P  P17  1  0.654247  0.000448  0.000000  1
  P  P18  1  0.000018  0.653762  0.000000  1
  P  P19  1  0.346744  0.346892  0.000000  1
  Ir  Ir20  1  0.134744  0.642179  0.500000  1
  Ir  Ir21  1  0.864379  0.506736  0.500000  1
  Ir  Ir22  1  0.642110  0.135189  0.500000  1
  Ir  Ir23  1  0.494628  0.357570  0.500000  1
  Ir  Ir24  1  0.369256  0.178025  0.000000  1
  Ir  Ir25  1  0.274685  0.999084  0.500000  1
  Ir  Ir26  1  0.000108  0.275268  0.500000  1
  Ir  Ir27  1  0.724950  0.725089  0.500000  1
  Ir  Ir28  1  0.999618  0.000100  0.000000  1
  Rh  Rh29  1  0.356748  0.491268  0.500000  1
  Rh  Rh30  1  0.509682  0.866271  0.500000  1
  Rh  Rh31  1  0.178689  0.370791  0.000000  1
  Rh  Rh32  1  0.629049  0.807722  0.000000  1
  Rh  Rh33  1  0.191344  0.821392  0.000000  1
  Rh  Rh34  1  0.808736  0.630479  0.000000  1
  Rh  Rh35  1  0.821819  0.192178  0.000000  1
