# generated using pymatgen
data_Ti2Nb4Co16Si6Ge
_symmetry_space_group_name_H-M   'P 1'
_cell_length_a   7.91343812
_cell_length_b   7.91431291
_cell_length_c   7.90591704
_cell_angle_alpha   59.99084979
_cell_angle_beta   60.05310167
_cell_angle_gamma   60.01897238
_symmetry_Int_Tables_number   1
_chemical_formula_structural   Ti2Nb4Co16Si6Ge
_chemical_formula_sum   'Ti2 Nb4 Co16 Si6 Ge1'
_cell_volume   350.28527081
_cell_formula_units_Z   1
loop_
 _symmetry_equiv_pos_site_id
 _symmetry_equiv_pos_as_xyz
  1  'x, y, z'
loop_
 _atom_site_type_symbol
 _atom_site_label
 _atom_site_symmetry_multiplicity
 _atom_site_fract_x
 _atom_site_fract_y
 _atom_site_fract_z
 _atom_site_occupancy
  Ti  Ti0  1  0.205603  0.793510  0.797737  1
  Ti  Ti1  1  0.795620  0.795098  0.204224  1
  Nb  Nb2  1  0.796141  0.202814  0.201126  1
  Nb  Nb3  1  0.202698  0.201756  0.797396  1
  Nb  Nb4  1  0.796060  0.202819  0.799469  1
  Nb  Nb5  1  0.203587  0.795467  0.200748  1
  Co  Co6  1  0.618857  0.618966  0.143254  1
  Co  Co7  1  0.166024  0.503103  0.164857  1
  Co  Co8  1  0.855850  0.386697  0.378694  1
  Co  Co9  1  0.499055  0.832792  0.833410  1
  Co  Co10  1  0.500984  0.166226  0.166432  1
  Co  Co11  1  0.830705  0.830885  0.499435  1
  Co  Co12  1  0.169500  0.168334  0.500311  1
  Co  Co13  1  0.143971  0.614426  0.621064  1
  Co  Co14  1  0.169475  0.169479  0.162500  1
  Co  Co15  1  0.381138  0.382002  0.856736  1
  Co  Co16  1  0.618496  0.619471  0.619479  1
  Co  Co17  1  0.386357  0.856690  0.378727  1
  Co  Co18  1  0.381804  0.381571  0.380659  1
  Co  Co19  1  0.831725  0.830881  0.839501  1
  Co  Co20  1  0.613976  0.144929  0.620532  1
  Co  Co21  1  0.832440  0.501080  0.833322  1
  Si  Si22  1  0.500191  0.997489  0.499989  1
  Si  Si23  1  0.498424  0.501390  0.998731  1
  Si  Si24  1  0.499902  0.501092  0.500199  1
  Si  Si25  1  0.999984  0.502785  0.000099  1
  Si  Si26  1  0.998680  0.501423  0.498315  1
  Si  Si27  1  0.501645  0.998583  0.001059  1
  Ge  Ge28  1  0.001107  0.998243  0.501995  1
