# generated using pymatgen
data_Pr5Nd(Sn6Ru)2
_symmetry_space_group_name_H-M   'P 1'
_cell_length_a   8.75346501
_cell_length_b   8.75346474
_cell_length_c   13.45975400
_cell_angle_alpha   90.00000000
_cell_angle_beta   90.00000000
_cell_angle_gamma   148.53608350
_symmetry_Int_Tables_number   1
_chemical_formula_structural   Pr5Nd(Sn6Ru)2
_chemical_formula_sum   'Pr5 Nd1 Sn12 Ru2'
_cell_volume   538.31387088
_cell_formula_units_Z   1
loop_
 _symmetry_equiv_pos_site_id
 _symmetry_equiv_pos_as_xyz
  1  'x, y, z'
loop_
 _atom_site_type_symbol
 _atom_site_label
 _atom_site_symmetry_multiplicity
 _atom_site_fract_x
 _atom_site_fract_y
 _atom_site_fract_z
 _atom_site_occupancy
  Pr  Pr0  1  0.602404  0.397596  0.250000  1
  Pr  Pr1  1  0.399540  0.600460  0.405480  1
  Pr  Pr2  1  0.600273  0.399727  0.594722  1
  Pr  Pr3  1  0.399540  0.600460  0.094520  1
  Pr  Pr4  1  0.600273  0.399727  0.905278  1
  Nd  Nd5  1  0.397568  0.602432  0.750000  1
  Sn  Sn6  1  0.927463  0.072537  0.922861  1
  Sn  Sn7  1  0.071953  0.928047  0.076266  1
  Sn  Sn8  1  0.927463  0.072537  0.577139  1
  Sn  Sn9  1  0.071953  0.928047  0.423734  1
  Sn  Sn10  1  0.958556  0.041444  0.250000  1
  Sn  Sn11  1  0.041294  0.958706  0.750000  1
  Sn  Sn12  1  0.746169  0.253832  0.433175  1
  Sn  Sn13  1  0.254223  0.745777  0.567179  1
  Sn  Sn14  1  0.746169  0.253832  0.066825  1
  Sn  Sn15  1  0.254223  0.745777  0.932821  1
  Sn  Sn16  1  0.234646  0.765354  0.250000  1
  Sn  Sn17  1  0.766041  0.233959  0.750000  1
  Ru  Ru18  1  0.801078  0.198922  0.250000  1
  Ru  Ru19  1  0.199172  0.800828  0.750000  1
