# generated using pymatgen
data_Na6Cd(SO4)4
_symmetry_space_group_name_H-M   'P 1'
_cell_length_a   8.42120553
_cell_length_b   9.40018900
_cell_length_c   10.01120000
_cell_angle_alpha   90.00000000
_cell_angle_beta   113.69649409
_cell_angle_gamma   90.00000000
_symmetry_Int_Tables_number   1
_chemical_formula_structural   Na6Cd(SO4)4
_chemical_formula_sum   'Na12 Cd2 S8 O32'
_cell_volume   725.67828456
_cell_formula_units_Z   2
loop_
 _symmetry_equiv_pos_site_id
 _symmetry_equiv_pos_as_xyz
  1  'x, y, z'
loop_
 _atom_site_type_symbol
 _atom_site_label
 _atom_site_symmetry_multiplicity
 _atom_site_fract_x
 _atom_site_fract_y
 _atom_site_fract_z
 _atom_site_occupancy
  Na  Na0  1  0.936354  0.851127  0.566271  1
  Na  Na1  1  0.063646  0.148873  0.433729  1
  Na  Na2  1  0.563646  0.351127  0.433729  1
  Na  Na3  1  0.436354  0.648873  0.566271  1
  Na  Na4  1  0.532845  0.988155  0.683997  1
  Na  Na5  1  0.467155  0.011845  0.316003  1
  Na  Na6  1  0.967155  0.488155  0.316003  1
  Na  Na7  1  0.032845  0.511845  0.683997  1
  Na  Na8  1  0.816737  0.363609  0.883894  1
  Na  Na9  1  0.183263  0.636391  0.116106  1
  Na  Na10  1  0.683263  0.863609  0.116106  1
  Na  Na11  1  0.316737  0.136391  0.883894  1
  Cd  Cd12  1  0.000000  0.000000  0.000000  1
  Cd  Cd13  1  0.500000  0.500000  0.000000  1
  S  S14  1  0.788911  0.690196  0.857535  1
  S  S15  1  0.211089  0.309804  0.142465  1
  S  S16  1  0.711089  0.190196  0.142465  1
  S  S17  1  0.288911  0.809804  0.857535  1
  S  S18  1  0.675545  0.659533  0.350745  1
  S  S19  1  0.324455  0.340467  0.649255  1
  S  S20  1  0.824455  0.159533  0.649255  1
  S  S21  1  0.175545  0.840467  0.350745  1
  O  O22  1  0.846284  0.795432  0.982002  1
  O  O23  1  0.153716  0.204568  0.017998  1
  O  O24  1  0.653716  0.295432  0.017998  1
  O  O25  1  0.346284  0.704568  0.982002  1
  O  O26  1  0.942202  0.606728  0.864392  1
  O  O27  1  0.057798  0.393272  0.135608  1
  O  O28  1  0.557798  0.106728  0.135608  1
  O  O29  1  0.442202  0.893272  0.864392  1
  O  O30  1  0.026838  0.908077  0.368547  1
  O  O31  1  0.973162  0.091923  0.631453  1
  O  O32  1  0.473162  0.408077  0.631453  1
  O  O33  1  0.526838  0.591923  0.368547  1
  O  O34  1  0.705945  0.765898  0.716378  1
  O  O35  1  0.294055  0.234102  0.283622  1
  O  O36  1  0.794055  0.265898  0.283622  1
  O  O37  1  0.205945  0.734102  0.716378  1
  O  O38  1  0.662814  0.589978  0.878002  1
  O  O39  1  0.337185  0.410022  0.121998  1
  O  O40  1  0.837186  0.089978  0.121998  1
  O  O41  1  0.162815  0.910022  0.878002  1
  O  O42  1  0.841941  0.618258  0.471877  1
  O  O43  1  0.158059  0.381742  0.528123  1
  O  O44  1  0.658059  0.118258  0.528123  1
  O  O45  1  0.341941  0.881742  0.471877  1
  O  O46  1  0.311627  0.389349  0.789377  1
  O  O47  1  0.688373  0.610651  0.210623  1
  O  O48  1  0.188373  0.889349  0.210623  1
  O  O49  1  0.811627  0.110651  0.789377  1
  O  O50  1  0.842079  0.317265  0.655518  1
  O  O51  1  0.157921  0.682735  0.344482  1
  O  O52  1  0.657921  0.817265  0.344482  1
  O  O53  1  0.342079  0.182735  0.655518  1
