# generated using pymatgen
data_Dy3Ho7(SiPb3)2
_symmetry_space_group_name_H-M   'P 1'
_cell_length_a   9.31220206
_cell_length_b   9.31069832
_cell_length_c   6.51124800
_cell_angle_alpha   90.00000000
_cell_angle_beta   90.00000000
_cell_angle_gamma   119.99279218
_symmetry_Int_Tables_number   1
_chemical_formula_structural   Dy3Ho7(SiPb3)2
_chemical_formula_sum   'Dy3 Ho7 Si2 Pb6'
_cell_volume   488.94617530
_cell_formula_units_Z   1
loop_
 _symmetry_equiv_pos_site_id
 _symmetry_equiv_pos_as_xyz
  1  'x, y, z'
loop_
 _atom_site_type_symbol
 _atom_site_label
 _atom_site_symmetry_multiplicity
 _atom_site_fract_x
 _atom_site_fract_y
 _atom_site_fract_z
 _atom_site_occupancy
  Dy  Dy0  1  0.751177  0.000072  0.750000  1
  Dy  Dy1  1  0.248773  0.248817  0.750000  1
  Dy  Dy2  1  0.751146  0.751091  0.250000  1
  Ho  Ho3  1  0.248499  0.999963  0.250000  1
  Ho  Ho4  1  0.000023  0.751578  0.750000  1
  Ho  Ho5  1  0.999950  0.248571  0.250000  1
  Ho  Ho6  1  0.333260  0.666659  0.499972  1
  Ho  Ho7  1  0.666711  0.333337  0.499994  1
  Ho  Ho8  1  0.333260  0.666659  0.000028  1
  Ho  Ho9  1  0.666711  0.333337  0.000006  1
  Si  Si10  1  0.000251  0.999963  0.000188  1
  Si  Si11  1  0.000251  0.999963  0.499812  1
  Pb  Pb12  1  0.607110  0.000068  0.250000  1
  Pb  Pb13  1  0.392816  0.999879  0.750000  1
  Pb  Pb14  1  0.000106  0.607141  0.250000  1
  Pb  Pb15  1  0.607200  0.607066  0.750000  1
  Pb  Pb16  1  0.392754  0.392742  0.250000  1
  Pb  Pb17  1  0.000000  0.393094  0.750000  1
