# generated using pymatgen
data_Tb6Mn2Co15TcP12
_symmetry_space_group_name_H-M   'P 1'
_cell_length_a   3.72054700
_cell_length_b   10.56802200
_cell_length_c   12.17558100
_cell_angle_alpha   90.00000000
_cell_angle_beta   90.00000000
_cell_angle_gamma   90.00000000
_symmetry_Int_Tables_number   1
_chemical_formula_structural   Tb6Mn2Co15TcP12
_chemical_formula_sum   'Tb6 Mn2 Co15 Tc1 P12'
_cell_volume   478.72950876
_cell_formula_units_Z   1
loop_
 _symmetry_equiv_pos_site_id
 _symmetry_equiv_pos_as_xyz
  1  'x, y, z'
loop_
 _atom_site_type_symbol
 _atom_site_label
 _atom_site_symmetry_multiplicity
 _atom_site_fract_x
 _atom_site_fract_y
 _atom_site_fract_z
 _atom_site_occupancy
  Tb  Tb0  1  0.000000  0.500000  0.524710  1
  Tb  Tb1  1  0.500000  0.000000  0.476434  1
  Tb  Tb2  1  0.500000  0.816987  0.204697  1
  Tb  Tb3  1  0.500000  0.183013  0.204697  1
  Tb  Tb4  1  0.000000  0.680706  0.796236  1
  Tb  Tb5  1  0.000000  0.319294  0.796236  1
  Mn  Mn6  1  0.000000  0.000000  0.840921  1
  Mn  Mn7  1  0.000000  0.500000  0.987448  1
  Co  Co8  1  0.500000  0.500000  0.699410  1
  Co  Co9  1  0.000000  0.000000  0.298295  1
  Co  Co10  1  0.500000  0.000000  0.014150  1
  Co  Co11  1  0.500000  0.328856  0.991388  1
  Co  Co12  1  0.500000  0.671144  0.991388  1
  Co  Co13  1  0.000000  0.164697  0.005697  1
  Co  Co14  1  0.000000  0.835303  0.005697  1
  Co  Co15  1  0.500000  0.295937  0.431497  1
  Co  Co16  1  0.500000  0.704063  0.431497  1
  Co  Co17  1  0.000000  0.203540  0.570198  1
  Co  Co18  1  0.000000  0.796460  0.570198  1
  Co  Co19  1  0.500000  0.880261  0.709256  1
  Co  Co20  1  0.500000  0.119739  0.709256  1
  Co  Co21  1  0.000000  0.621058  0.292727  1
  Co  Co22  1  0.000000  0.378942  0.292727  1
  Tc  Tc23  1  0.500000  0.500000  0.155823  1
  P  P24  1  0.500000  0.500000  0.883265  1
  P  P25  1  0.000000  0.000000  0.117525  1
  P  P26  1  0.500000  0.500000  0.346975  1
  P  P27  1  0.000000  0.000000  0.655008  1
  P  P28  1  0.500000  0.309923  0.616663  1
  P  P29  1  0.500000  0.690077  0.616663  1
  P  P30  1  0.000000  0.189558  0.384169  1
  P  P31  1  0.000000  0.810442  0.384169  1
  P  P32  1  0.500000  0.848389  0.893162  1
  P  P33  1  0.500000  0.151611  0.893162  1
  P  P34  1  0.000000  0.654344  0.104327  1
  P  P35  1  0.000000  0.345656  0.104327  1
