# generated using pymatgen
data_CsHfCdF7
_symmetry_space_group_name_H-M   'P 1'
_cell_length_a   6.69961431
_cell_length_b   6.69961457
_cell_length_c   8.70165100
_cell_angle_alpha   90.00000000
_cell_angle_beta   90.00000000
_cell_angle_gamma   118.12171292
_symmetry_Int_Tables_number   1
_chemical_formula_structural   CsHfCdF7
_chemical_formula_sum   'Cs2 Hf2 Cd2 F14'
_cell_volume   344.46445295
_cell_formula_units_Z   2
loop_
 _symmetry_equiv_pos_site_id
 _symmetry_equiv_pos_as_xyz
  1  'x, y, z'
loop_
 _atom_site_type_symbol
 _atom_site_label
 _atom_site_symmetry_multiplicity
 _atom_site_fract_x
 _atom_site_fract_y
 _atom_site_fract_z
 _atom_site_occupancy
  Cs  Cs0  1  0.000000  0.000000  0.000000  1
  Cs  Cs1  1  0.000000  0.000000  0.500000  1
  Hf  Hf2  1  0.691708  0.308292  0.750000  1
  Hf  Hf3  1  0.308292  0.691708  0.250000  1
  Cd  Cd4  1  0.310490  0.689510  0.750000  1
  Cd  Cd5  1  0.689510  0.310490  0.250000  1
  F  F6  1  0.351808  0.063492  0.750000  1
  F  F7  1  0.648192  0.936508  0.250000  1
  F  F8  1  0.936508  0.648192  0.750000  1
  F  F9  1  0.063492  0.351808  0.250000  1
  F  F10  1  0.513418  0.486582  0.750000  1
  F  F11  1  0.486582  0.513418  0.250000  1
  F  F12  1  0.700217  0.299783  0.982356  1
  F  F13  1  0.299783  0.700217  0.017644  1
  F  F14  1  0.299783  0.700217  0.482356  1
  F  F15  1  0.700217  0.299783  0.517644  1
  F  F16  1  0.666718  0.980699  0.750000  1
  F  F17  1  0.333282  0.019301  0.250000  1
  F  F18  1  0.019301  0.333282  0.750000  1
  F  F19  1  0.980699  0.666718  0.250000  1
