# generated using pymatgen
data_LiNdDySi3Ag
_symmetry_space_group_name_H-M   'P 1'
_cell_length_a   9.35363186
_cell_length_b   9.35363197
_cell_length_c   6.97625000
_cell_angle_alpha   90.00000000
_cell_angle_beta   90.00000000
_cell_angle_gamma   153.47362307
_symmetry_Int_Tables_number   1
_chemical_formula_structural   LiNdDySi3Ag
_chemical_formula_sum   'Li2 Nd2 Dy2 Si6 Ag2'
_cell_volume   272.59055144
_cell_formula_units_Z   2
loop_
 _symmetry_equiv_pos_site_id
 _symmetry_equiv_pos_as_xyz
  1  'x, y, z'
loop_
 _atom_site_type_symbol
 _atom_site_label
 _atom_site_symmetry_multiplicity
 _atom_site_fract_x
 _atom_site_fract_y
 _atom_site_fract_z
 _atom_site_occupancy
  Li  Li0  1  0.808023  0.191977  0.939425  1
  Li  Li1  1  0.808023  0.191977  0.560575  1
  Nd  Nd2  1  0.554892  0.445108  0.250000  1
  Nd  Nd3  1  0.446644  0.553356  0.750000  1
  Dy  Dy4  1  0.347443  0.652557  0.250000  1
  Dy  Dy5  1  0.651821  0.348179  0.750000  1
  Si  Si6  1  0.726210  0.273790  0.250000  1
  Si  Si7  1  0.277947  0.722053  0.750000  1
  Si  Si8  1  0.057564  0.942436  0.922671  1
  Si  Si9  1  0.940214  0.059786  0.076970  1
  Si  Si10  1  0.940214  0.059786  0.423030  1
  Si  Si11  1  0.057564  0.942436  0.577329  1
  Ag  Ag12  1  0.191721  0.808279  0.049275  1
  Ag  Ag13  1  0.191721  0.808279  0.450725  1
