# generated using pymatgen
data_Hf4TiReSb2
_symmetry_space_group_name_H-M   'P 1'
_cell_length_a   5.48085755
_cell_length_b   8.26599689
_cell_length_c   8.26599693
_cell_angle_alpha   83.68973982
_cell_angle_beta   70.63831362
_cell_angle_gamma   70.63831733
_symmetry_Int_Tables_number   1
_chemical_formula_structural   Hf4TiReSb2
_chemical_formula_sum   'Hf8 Ti2 Re2 Sb4'
_cell_volume   333.32798246
_cell_formula_units_Z   2
loop_
 _symmetry_equiv_pos_site_id
 _symmetry_equiv_pos_as_xyz
  1  'x, y, z'
loop_
 _atom_site_type_symbol
 _atom_site_label
 _atom_site_symmetry_multiplicity
 _atom_site_fract_x
 _atom_site_fract_y
 _atom_site_fract_z
 _atom_site_occupancy
  Hf  Hf0  1  0.077019  0.132406  0.713556  1
  Hf  Hf1  1  0.922981  0.867594  0.286444  1
  Hf  Hf2  1  0.790575  0.286444  0.132406  1
  Hf  Hf3  1  0.422981  0.286444  0.867594  1
  Hf  Hf4  1  0.209425  0.713556  0.867594  1
  Hf  Hf5  1  0.577019  0.713556  0.132406  1
  Hf  Hf6  1  0.709425  0.867594  0.713556  1
  Hf  Hf7  1  0.290575  0.132406  0.286444  1
  Ti  Ti8  1  0.250000  0.500000  0.500000  1
  Ti  Ti9  1  0.750000  0.500000  0.500000  1
  Re  Re10  1  0.250000  0.000000  0.000000  1
  Re  Re11  1  0.750000  0.000000  0.000000  1
  Sb  Sb12  1  0.156764  0.500000  0.186473  1
  Sb  Sb13  1  0.843236  0.500000  0.813527  1
  Sb  Sb14  1  0.343236  0.813527  0.500000  1
  Sb  Sb15  1  0.656764  0.186473  0.500000  1
