# generated using pymatgen
data_Eu2Al16Ir2Pt7
_symmetry_space_group_name_H-M   'P 1'
_cell_length_a   11.32509908
_cell_length_b   11.32509969
_cell_length_c   11.32510000
_cell_angle_alpha   158.53288149
_cell_angle_beta   115.72645276
_cell_angle_gamma   68.61070719
_symmetry_Int_Tables_number   1
_chemical_formula_structural   Eu2Al16Ir2Pt7
_chemical_formula_sum   'Eu2 Al16 Ir2 Pt7'
_cell_volume   475.48021118
_cell_formula_units_Z   1
loop_
 _symmetry_equiv_pos_site_id
 _symmetry_equiv_pos_as_xyz
  1  'x, y, z'
loop_
 _atom_site_type_symbol
 _atom_site_label
 _atom_site_symmetry_multiplicity
 _atom_site_fract_x
 _atom_site_fract_y
 _atom_site_fract_z
 _atom_site_occupancy
  Eu  Eu0  1  0.228767  0.228330  0.000437  1
  Eu  Eu1  1  0.772108  0.771670  0.000437  1
  Al  Al2  1  0.276134  0.392523  0.883610  1
  Al  Al3  1  0.087675  0.924381  0.163294  1
  Al  Al4  1  0.506033  0.202288  0.303746  1
  Al  Al5  1  0.238911  0.075619  0.163294  1
  Al  Al6  1  0.913714  0.417903  0.495810  1
  Al  Al7  1  0.725177  0.602249  0.122929  1
  Al  Al8  1  0.901587  0.207145  0.694441  1
  Al  Al9  1  0.487297  0.792855  0.694441  1
  Al  Al10  1  0.384841  0.000000  0.384841  1
  Al  Al11  1  0.624280  0.000000  0.624280  1
  Al  Al12  1  0.491087  0.607477  0.883610  1
  Al  Al13  1  0.101458  0.797712  0.303746  1
  Al  Al14  1  0.909275  0.083043  0.826230  1
  Al  Al15  1  0.743188  0.916957  0.826230  1
  Al  Al16  1  0.520678  0.397751  0.122929  1
  Al  Al17  1  0.077907  0.582097  0.495810  1
  Ir  Ir18  1  0.766882  0.500000  0.266882  1
  Ir  Ir19  1  0.987085  0.000000  0.987085  1
  Pt  Pt20  1  0.031573  0.343255  0.688317  1
  Pt  Pt21  1  0.623519  0.120857  0.502662  1
  Pt  Pt22  1  0.254794  0.500000  0.754794  1
  Pt  Pt23  1  0.381805  0.879143  0.502662  1
  Pt  Pt24  1  0.647391  0.337808  0.309583  1
  Pt  Pt25  1  0.345062  0.656745  0.688317  1
  Pt  Pt26  1  0.971774  0.662192  0.309583  1
