# generated using pymatgen
data_Ta16Cu4Ni4CN3
_symmetry_space_group_name_H-M   'P 1'
_cell_length_a   8.26141990
_cell_length_b   8.26419137
_cell_length_c   8.26419200
_cell_angle_alpha   59.99999747
_cell_angle_beta   59.98889955
_cell_angle_gamma   59.98890737
_symmetry_Int_Tables_number   1
_chemical_formula_structural   Ta16Cu4Ni4CN3
_chemical_formula_sum   'Ta16 Cu4 Ni4 C1 N3'
_cell_volume   398.90326602
_cell_formula_units_Z   1
loop_
 _symmetry_equiv_pos_site_id
 _symmetry_equiv_pos_as_xyz
  1  'x, y, z'
loop_
 _atom_site_type_symbol
 _atom_site_label
 _atom_site_symmetry_multiplicity
 _atom_site_fract_x
 _atom_site_fract_y
 _atom_site_fract_z
 _atom_site_occupancy
  Ta  Ta0  1  0.118433  0.627189  0.627189  1
  Ta  Ta1  1  0.627027  0.118571  0.627200  1
  Ta  Ta2  1  0.627027  0.627200  0.118571  1
  Ta  Ta3  1  0.627027  0.627200  0.627200  1
  Ta  Ta4  1  0.815999  0.815812  0.184094  1
  Ta  Ta5  1  0.183303  0.183890  0.816404  1
  Ta  Ta6  1  0.815999  0.184094  0.815812  1
  Ta  Ta7  1  0.183303  0.816404  0.183890  1
  Ta  Ta8  1  0.183303  0.816404  0.816404  1
  Ta  Ta9  1  0.815999  0.184094  0.184094  1
  Ta  Ta10  1  0.435181  0.435250  0.064784  1
  Ta  Ta11  1  0.065495  0.064751  0.434877  1
  Ta  Ta12  1  0.435181  0.064784  0.435250  1
  Ta  Ta13  1  0.065495  0.434877  0.064751  1
  Ta  Ta14  1  0.065495  0.434877  0.434877  1
  Ta  Ta15  1  0.435181  0.064784  0.064784  1
  Cu  Cu16  1  0.749545  0.416818  0.416818  1
  Cu  Cu17  1  0.416633  0.749571  0.416898  1
  Cu  Cu18  1  0.416633  0.416898  0.749571  1
  Cu  Cu19  1  0.416633  0.416898  0.416898  1
  Ni  Ni20  1  0.509697  0.830101  0.830101  1
  Ni  Ni21  1  0.830434  0.509511  0.830028  1
  Ni  Ni22  1  0.830434  0.830028  0.509511  1
  Ni  Ni23  1  0.830434  0.830028  0.830028  1
  C  C24  1  0.623078  0.125641  0.125641  1
  N  N25  1  0.125676  0.622976  0.125674  1
  N  N26  1  0.125676  0.125674  0.622976  1
  N  N27  1  0.125676  0.125674  0.125674  1
