# generated using pymatgen
data_CdBiIrOsO7
_symmetry_space_group_name_H-M   'P 1'
_cell_length_a   7.24074588
_cell_length_b   7.31455259
_cell_length_c   7.31455313
_cell_angle_alpha   60.66489578
_cell_angle_beta   60.33323811
_cell_angle_gamma   60.33323110
_symmetry_Int_Tables_number   1
_chemical_formula_structural   CdBiIrOsO7
_chemical_formula_sum   'Cd2 Bi2 Ir2 Os2 O14'
_cell_volume   276.67501862
_cell_formula_units_Z   2
loop_
 _symmetry_equiv_pos_site_id
 _symmetry_equiv_pos_as_xyz
  1  'x, y, z'
loop_
 _atom_site_type_symbol
 _atom_site_label
 _atom_site_symmetry_multiplicity
 _atom_site_fract_x
 _atom_site_fract_y
 _atom_site_fract_z
 _atom_site_occupancy
  Cd  Cd0  1  0.125000  0.125000  0.125000  1
  Cd  Cd1  1  0.625000  0.125000  0.125000  1
  Bi  Bi2  1  0.125000  0.625000  0.125000  1
  Bi  Bi3  1  0.125000  0.125000  0.625000  1
  Ir  Ir4  1  0.625000  0.625000  0.625000  1
  Ir  Ir5  1  0.125000  0.625000  0.625000  1
  Os  Os6  1  0.625000  0.125000  0.625000  1
  Os  Os7  1  0.625000  0.625000  0.125000  1
  O  O8  1  0.259893  0.240107  0.240107  1
  O  O9  1  0.990107  0.009893  0.009893  1
  O  O10  1  0.546763  0.956290  0.543686  1
  O  O11  1  0.296739  0.706314  0.293710  1
  O  O12  1  0.546763  0.543686  0.956290  1
  O  O13  1  0.959760  0.540240  0.540240  1
  O  O14  1  0.581845  0.918155  0.918155  1
  O  O15  1  0.953261  0.956290  0.543686  1
  O  O16  1  0.953261  0.543686  0.956290  1
  O  O17  1  0.668155  0.331845  0.331845  1
  O  O18  1  0.290240  0.709760  0.709760  1
  O  O19  1  0.703237  0.293710  0.706314  1
  O  O20  1  0.296739  0.293710  0.706314  1
  O  O21  1  0.703237  0.706314  0.293710  1
