# generated using pymatgen
data_Pr16Mg3CdIr4
_symmetry_space_group_name_H-M   'P 1'
_cell_length_a   10.08652504
_cell_length_b   10.09910888
_cell_length_c   10.09910900
_cell_angle_alpha   60.00000287
_cell_angle_beta   59.95872438
_cell_angle_gamma   59.95872135
_symmetry_Int_Tables_number   1
_chemical_formula_structural   Pr16Mg3CdIr4
_chemical_formula_sum   'Pr16 Mg3 Cd1 Ir4'
_cell_volume   726.97831524
_cell_formula_units_Z   1
loop_
 _symmetry_equiv_pos_site_id
 _symmetry_equiv_pos_as_xyz
  1  'x, y, z'
loop_
 _atom_site_type_symbol
 _atom_site_label
 _atom_site_symmetry_multiplicity
 _atom_site_fract_x
 _atom_site_fract_y
 _atom_site_fract_z
 _atom_site_occupancy
  Pr  Pr0  1  0.345551  0.346295  0.346295  1
  Pr  Pr1  1  0.345551  0.346295  0.961857  1
  Pr  Pr2  1  0.345551  0.961857  0.346295  1
  Pr  Pr3  1  0.962784  0.345738  0.345738  1
  Pr  Pr4  1  0.812180  0.187878  0.187878  1
  Pr  Pr5  1  0.188811  0.810978  0.810978  1
  Pr  Pr6  1  0.188811  0.810978  0.189234  1
  Pr  Pr7  1  0.812180  0.187878  0.812063  1
  Pr  Pr8  1  0.188811  0.189234  0.810978  1
  Pr  Pr9  1  0.812180  0.812063  0.187878  1
  Pr  Pr10  1  0.939064  0.562225  0.562225  1
  Pr  Pr11  1  0.562688  0.937294  0.937294  1
  Pr  Pr12  1  0.562688  0.937294  0.562724  1
  Pr  Pr13  1  0.939064  0.562225  0.936485  1
  Pr  Pr14  1  0.562688  0.562724  0.937294  1
  Pr  Pr15  1  0.939064  0.936485  0.562225  1
  Mg  Mg16  1  0.577193  0.578480  0.578480  1
  Mg  Mg17  1  0.577193  0.578480  0.265845  1
  Mg  Mg18  1  0.577193  0.265845  0.578480  1
  Cd  Cd19  1  0.261096  0.579634  0.579634  1
  Ir  Ir20  1  0.141205  0.141152  0.141152  1
  Ir  Ir21  1  0.141205  0.141152  0.576491  1
  Ir  Ir22  1  0.141205  0.576491  0.141152  1
  Ir  Ir23  1  0.576041  0.141320  0.141320  1
