# generated using pymatgen
data_Er2Tm10Co4SnOs
_symmetry_space_group_name_H-M   'P 1'
_cell_length_a   8.19651712
_cell_length_b   8.19651646
_cell_length_c   8.19323629
_cell_angle_alpha   110.59281164
_cell_angle_beta   111.69157397
_cell_angle_gamma   106.19779966
_symmetry_Int_Tables_number   1
_chemical_formula_structural   Er2Tm10Co4SnOs
_chemical_formula_sum   'Er2 Tm10 Co4 Sn1 Os1'
_cell_volume   422.56648762
_cell_formula_units_Z   1
loop_
 _symmetry_equiv_pos_site_id
 _symmetry_equiv_pos_as_xyz
  1  'x, y, z'
loop_
 _atom_site_type_symbol
 _atom_site_label
 _atom_site_symmetry_multiplicity
 _atom_site_fract_x
 _atom_site_fract_y
 _atom_site_fract_z
 _atom_site_occupancy
  Er  Er0  1  0.281093  0.182438  0.463530  1
  Er  Er1  1  0.718907  0.817562  0.536470  1
  Tm  Tm2  1  0.280638  0.817509  0.098146  1
  Tm  Tm3  1  0.719362  0.182491  0.901854  1
  Tm  Tm4  1  0.620294  0.313234  0.306486  1
  Tm  Tm5  1  0.379706  0.686766  0.693514  1
  Tm  Tm6  1  0.006748  0.313808  0.693514  1
  Tm  Tm7  1  0.993252  0.686192  0.306486  1
  Tm  Tm8  1  0.218741  0.413842  0.194473  1
  Tm  Tm9  1  0.781259  0.586158  0.805527  1
  Tm  Tm10  1  0.219371  0.024268  0.805527  1
  Tm  Tm11  1  0.780629  0.975732  0.194473  1
  Co  Co12  1  0.999676  0.376563  0.376239  1
  Co  Co13  1  0.000324  0.623437  0.623761  1
  Co  Co14  1  0.388133  0.888133  0.500000  1
  Co  Co15  1  0.611867  0.111867  0.500000  1
  Sn  Sn16  1  0.500000  0.500000  0.000000  1
  Os  Os17  1  0.000000  0.000000  0.000000  1
