# generated using pymatgen
data_Ce4V3MoN8
_symmetry_space_group_name_H-M   'P 1'
_cell_length_a   3.27159800
_cell_length_b   5.62306200
_cell_length_c   10.68636200
_cell_angle_alpha   90.00381259
_cell_angle_beta   90.00000000
_cell_angle_gamma   90.00000000
_symmetry_Int_Tables_number   1
_chemical_formula_structural   Ce4V3MoN8
_chemical_formula_sum   'Ce4 V3 Mo1 N8'
_cell_volume   196.59057251
_cell_formula_units_Z   1
loop_
 _symmetry_equiv_pos_site_id
 _symmetry_equiv_pos_as_xyz
  1  'x, y, z'
loop_
 _atom_site_type_symbol
 _atom_site_label
 _atom_site_symmetry_multiplicity
 _atom_site_fract_x
 _atom_site_fract_y
 _atom_site_fract_z
 _atom_site_occupancy
  Ce  Ce0  1  0.750000  0.077726  0.861380  1
  Ce  Ce1  1  0.750000  0.576441  0.642497  1
  Ce  Ce2  1  0.250000  0.922380  0.141963  1
  Ce  Ce3  1  0.250000  0.422438  0.354862  1
  V  V4  1  0.750000  0.425178  0.097606  1
  V  V5  1  0.250000  0.574853  0.902999  1
  V  V6  1  0.750000  0.927090  0.401572  1
  Mo  Mo7  1  0.250000  0.071901  0.601196  1
  N  N8  1  0.250000  0.339302  0.753157  1
  N  N9  1  0.750000  0.163965  0.245685  1
  N  N10  1  0.250000  0.279657  0.014896  1
  N  N11  1  0.750000  0.665050  0.250430  1
  N  N12  1  0.250000  0.831773  0.756007  1
  N  N13  1  0.750000  0.719492  0.986743  1
  N  N14  1  0.750000  0.234268  0.505084  1
  N  N15  1  0.250000  0.768488  0.483922  1
