# generated using pymatgen
data_SrCaLaUO6
_symmetry_space_group_name_H-M   'P 1'
_cell_length_a   7.04204613
_cell_length_b   7.02090432
_cell_length_c   6.98027354
_cell_angle_alpha   91.72326731
_cell_angle_beta   91.60084408
_cell_angle_gamma   91.05129369
_symmetry_Int_Tables_number   1
_chemical_formula_structural   SrCaLaUO6
_chemical_formula_sum   'Sr2 Ca2 La2 U2 O12'
_cell_volume   344.76110804
_cell_formula_units_Z   2
loop_
 _symmetry_equiv_pos_site_id
 _symmetry_equiv_pos_as_xyz
  1  'x, y, z'
loop_
 _atom_site_type_symbol
 _atom_site_label
 _atom_site_symmetry_multiplicity
 _atom_site_fract_x
 _atom_site_fract_y
 _atom_site_fract_z
 _atom_site_occupancy
  Sr  Sr0  1  0.549845  0.252445  0.055977  1
  Sr  Sr1  1  0.253073  0.058086  0.555764  1
  Ca  Ca2  1  0.064889  0.556276  0.248687  1
  Ca  Ca3  1  0.445517  0.750041  0.942492  1
  La  La4  1  0.939891  0.444522  0.748664  1
  La  La5  1  0.748113  0.938065  0.440401  1
  U  U6  1  0.000112  0.993513  0.000977  1
  U  U7  1  0.495541  0.504604  0.497670  1
  O  O8  1  0.286365  0.047146  0.930483  1
  O  O9  1  0.053844  0.912594  0.295128  1
  O  O10  1  0.938199  0.292429  0.061844  1
  O  O11  1  0.709263  0.931898  0.078502  1
  O  O12  1  0.929163  0.081483  0.702994  1
  O  O13  1  0.072188  0.696721  0.935281  1
  O  O14  1  0.199175  0.421282  0.538144  1
  O  O15  1  0.408334  0.554498  0.210090  1
  O  O16  1  0.473945  0.797474  0.594180  1
  O  O17  1  0.591462  0.468231  0.789600  1
  O  O18  1  0.795983  0.589768  0.458198  1
  O  O19  1  0.545098  0.208926  0.414920  1
