# generated using pymatgen
data_Tb2DyIn4CoAg
_symmetry_space_group_name_H-M   'P 1'
_cell_length_a   8.04136508
_cell_length_b   8.04011553
_cell_length_c   3.73112900
_cell_angle_alpha   90.00000000
_cell_angle_beta   90.00000000
_cell_angle_gamma   119.98893124
_symmetry_Int_Tables_number   1
_chemical_formula_structural   Tb2DyIn4CoAg
_chemical_formula_sum   'Tb2 Dy1 In4 Co1 Ag1'
_cell_volume   208.93509461
_cell_formula_units_Z   1
loop_
 _symmetry_equiv_pos_site_id
 _symmetry_equiv_pos_as_xyz
  1  'x, y, z'
loop_
 _atom_site_type_symbol
 _atom_site_label
 _atom_site_symmetry_multiplicity
 _atom_site_fract_x
 _atom_site_fract_y
 _atom_site_fract_z
 _atom_site_occupancy
  Tb  Tb0  1  0.047085  0.289123  0.500000  1
  Tb  Tb1  1  0.711008  0.757761  0.500000  1
  Dy  Dy2  1  0.241686  0.953375  0.500000  1
  In  In3  1  0.668472  0.062898  0.000000  1
  In  In4  1  0.937445  0.606251  0.000000  1
  In  In5  1  0.393996  0.330622  0.000000  1
  In  In6  1  0.333343  0.667043  0.000000  1
  Co  Co7  1  0.000564  0.999892  0.000000  1
  Ag  Ag8  1  0.666401  0.333035  0.500000  1
