# generated using pymatgen
data_Y4Zn2(ReRu)3
_symmetry_space_group_name_H-M   'P 1'
_cell_length_a   5.34024311
_cell_length_b   5.34024261
_cell_length_c   9.01877400
_cell_angle_alpha   90.00000000
_cell_angle_beta   90.00000000
_cell_angle_gamma   120.49451337
_symmetry_Int_Tables_number   1
_chemical_formula_structural   Y4Zn2(ReRu)3
_chemical_formula_sum   'Y4 Zn2 Re3 Ru3'
_cell_volume   221.62278270
_cell_formula_units_Z   1
loop_
 _symmetry_equiv_pos_site_id
 _symmetry_equiv_pos_as_xyz
  1  'x, y, z'
loop_
 _atom_site_type_symbol
 _atom_site_label
 _atom_site_symmetry_multiplicity
 _atom_site_fract_x
 _atom_site_fract_y
 _atom_site_fract_z
 _atom_site_occupancy
  Y  Y0  1  0.330084  0.669916  0.440501  1
  Y  Y1  1  0.664327  0.335673  0.563149  1
  Y  Y2  1  0.664327  0.335673  0.936851  1
  Y  Y3  1  0.330084  0.669916  0.059499  1
  Zn  Zn4  1  0.342698  0.160961  0.250000  1
  Zn  Zn5  1  0.839039  0.657302  0.250000  1
  Re  Re6  1  0.167975  0.339147  0.750000  1
  Re  Re7  1  0.170158  0.829842  0.750000  1
  Re  Re8  1  0.660853  0.832025  0.750000  1
  Ru  Ru9  1  0.994736  0.005264  0.004522  1
  Ru  Ru10  1  0.840984  0.159016  0.250000  1
  Ru  Ru11  1  0.994736  0.005264  0.495478  1
