# generated using pymatgen
data_Hf2Zr4FeBiTe
_symmetry_space_group_name_H-M   'P 1'
_cell_length_a   7.88165501
_cell_length_b   7.87728032
_cell_length_c   3.62365200
_cell_angle_alpha   90.00000000
_cell_angle_beta   90.00000000
_cell_angle_gamma   120.01334268
_symmetry_Int_Tables_number   1
_chemical_formula_structural   Hf2Zr4FeBiTe
_chemical_formula_sum   'Hf2 Zr4 Fe1 Bi1 Te1'
_cell_volume   194.81053105
_cell_formula_units_Z   1
loop_
 _symmetry_equiv_pos_site_id
 _symmetry_equiv_pos_as_xyz
  1  'x, y, z'
loop_
 _atom_site_type_symbol
 _atom_site_label
 _atom_site_symmetry_multiplicity
 _atom_site_fract_x
 _atom_site_fract_y
 _atom_site_fract_z
 _atom_site_occupancy
  Hf  Hf0  1  0.765403  0.765312  0.500000  1
  Hf  Hf1  1  0.233928  0.998272  0.500000  1
  Zr  Zr2  1  0.007757  0.608226  0.000000  1
  Zr  Zr3  1  0.000915  0.237621  0.500000  1
  Zr  Zr4  1  0.598906  0.991395  0.000000  1
  Zr  Zr5  1  0.393179  0.400636  0.000000  1
  Fe  Fe6  1  0.000097  0.998548  0.000000  1
  Bi  Bi7  1  0.665992  0.333011  0.500000  1
  Te  Te8  1  0.333823  0.666978  0.500000  1
