# generated using pymatgen
data_Tb16In3Ir4Au
_symmetry_space_group_name_H-M   'P 1'
_cell_length_a   9.66730658
_cell_length_b   9.66730652
_cell_length_c   9.66730731
_cell_angle_alpha   59.95137170
_cell_angle_beta   59.95137442
_cell_angle_gamma   59.95136955
_symmetry_Int_Tables_number   1
_chemical_formula_structural   Tb16In3Ir4Au
_chemical_formula_sum   'Tb16 In3 Ir4 Au1'
_cell_volume   638.14927160
_cell_formula_units_Z   1
loop_
 _symmetry_equiv_pos_site_id
 _symmetry_equiv_pos_as_xyz
  1  'x, y, z'
loop_
 _atom_site_type_symbol
 _atom_site_label
 _atom_site_symmetry_multiplicity
 _atom_site_fract_x
 _atom_site_fract_y
 _atom_site_fract_z
 _atom_site_occupancy
  Tb  Tb0  1  0.100806  0.699798  0.100806  1
  Tb  Tb1  1  0.941708  0.941708  0.557629  1
  Tb  Tb2  1  0.941708  0.557629  0.941708  1
  Tb  Tb3  1  0.311013  0.683181  0.311013  1
  Tb  Tb4  1  0.938750  0.558494  0.558494  1
  Tb  Tb5  1  0.311013  0.311013  0.683181  1
  Tb  Tb6  1  0.098913  0.098913  0.098913  1
  Tb  Tb7  1  0.558494  0.558494  0.938750  1
  Tb  Tb8  1  0.100806  0.100806  0.699798  1
  Tb  Tb9  1  0.689296  0.310076  0.689296  1
  Tb  Tb10  1  0.689296  0.689296  0.310076  1
  Tb  Tb11  1  0.683181  0.311013  0.311013  1
  Tb  Tb12  1  0.310076  0.689296  0.689296  1
  Tb  Tb13  1  0.558494  0.938750  0.558494  1
  Tb  Tb14  1  0.699798  0.100806  0.100806  1
  Tb  Tb15  1  0.557629  0.941708  0.941708  1
  In  In16  1  0.005354  0.332159  0.332159  1
  In  In17  1  0.332159  0.005354  0.332159  1
  In  In18  1  0.332159  0.332159  0.005354  1
  Ir  Ir19  1  0.892220  0.892220  0.892220  1
  Ir  Ir20  1  0.891574  0.891574  0.325725  1
  Ir  Ir21  1  0.325725  0.891574  0.891574  1
  Ir  Ir22  1  0.891574  0.325725  0.891574  1
  Au  Au23  1  0.338252  0.338252  0.338252  1
