# generated using pymatgen
data_Nd16Cd4Ni3Pt
_symmetry_space_group_name_H-M   'P 1'
_cell_length_a   9.93224654
_cell_length_b   9.93224681
_cell_length_c   9.93224687
_cell_angle_alpha   60.03927127
_cell_angle_beta   60.03927034
_cell_angle_gamma   60.03927345
_symmetry_Int_Tables_number   1
_chemical_formula_structural   Nd16Cd4Ni3Pt
_chemical_formula_sum   'Nd16 Cd4 Ni3 Pt1'
_cell_volume   693.44803948
_cell_formula_units_Z   1
loop_
 _symmetry_equiv_pos_site_id
 _symmetry_equiv_pos_as_xyz
  1  'x, y, z'
loop_
 _atom_site_type_symbol
 _atom_site_label
 _atom_site_symmetry_multiplicity
 _atom_site_fract_x
 _atom_site_fract_y
 _atom_site_fract_z
 _atom_site_occupancy
  Nd  Nd0  1  0.596321  0.596321  0.596321  1
  Nd  Nd1  1  0.601966  0.601966  0.202532  1
  Nd  Nd2  1  0.601966  0.202532  0.601966  1
  Nd  Nd3  1  0.202532  0.601966  0.601966  1
  Nd  Nd4  1  0.054270  0.441495  0.441495  1
  Nd  Nd5  1  0.439295  0.059070  0.059070  1
  Nd  Nd6  1  0.441495  0.054270  0.441495  1
  Nd  Nd7  1  0.059070  0.439295  0.059070  1
  Nd  Nd8  1  0.441495  0.441495  0.054270  1
  Nd  Nd9  1  0.059070  0.059070  0.439295  1
  Nd  Nd10  1  0.189092  0.814061  0.814061  1
  Nd  Nd11  1  0.809996  0.187186  0.187186  1
  Nd  Nd12  1  0.814061  0.189092  0.814061  1
  Nd  Nd13  1  0.187186  0.809996  0.187186  1
  Nd  Nd14  1  0.814061  0.814061  0.189092  1
  Nd  Nd15  1  0.187186  0.187186  0.809996  1
  Cd  Cd16  1  0.830073  0.830073  0.830073  1
  Cd  Cd17  1  0.829935  0.829935  0.510085  1
  Cd  Cd18  1  0.829935  0.510085  0.829935  1
  Cd  Cd19  1  0.510085  0.829935  0.829935  1
  Ni  Ni20  1  0.392087  0.392087  0.823699  1
  Ni  Ni21  1  0.392087  0.823699  0.392087  1
  Ni  Ni22  1  0.823699  0.392087  0.392087  1
  Pt  Pt23  1  0.393035  0.393035  0.393035  1
