# generated using pymatgen
data_Pr3In2HgPt3
_symmetry_space_group_name_H-M   'P 1'
_cell_length_a   7.93433100
_cell_length_b   7.87589570
_cell_length_c   3.97247900
_cell_angle_alpha   90.00000000
_cell_angle_beta   90.00000000
_cell_angle_gamma   120.24574468
_symmetry_Int_Tables_number   1
_chemical_formula_structural   Pr3In2HgPt3
_chemical_formula_sum   'Pr3 In2 Hg1 Pt3'
_cell_volume   214.44787133
_cell_formula_units_Z   1
loop_
 _symmetry_equiv_pos_site_id
 _symmetry_equiv_pos_as_xyz
  1  'x, y, z'
loop_
 _atom_site_type_symbol
 _atom_site_label
 _atom_site_symmetry_multiplicity
 _atom_site_fract_x
 _atom_site_fract_y
 _atom_site_fract_z
 _atom_site_occupancy
  Pr  Pr0  1  0.587973  0.000000  0.000000  1
  Pr  Pr1  1  0.004551  0.599039  0.000000  1
  Pr  Pr2  1  0.405512  0.400961  0.000000  1
  In  In3  1  0.998654  0.255926  0.500000  1
  In  In4  1  0.742728  0.744074  0.500000  1
  Hg  Hg5  1  0.259506  0.000000  0.500000  1
  Pt  Pt6  1  0.336184  0.655974  0.500000  1
  Pt  Pt7  1  0.680211  0.344026  0.500000  1
  Pt  Pt8  1  0.984681  0.000000  0.000000  1
