# generated using pymatgen
data_TbTm5TcBi2
_symmetry_space_group_name_H-M   'P 1'
_cell_length_a   8.22806500
_cell_length_b   8.22285342
_cell_length_c   4.27581400
_cell_angle_alpha   90.00000000
_cell_angle_beta   90.00000000
_cell_angle_gamma   120.02097995
_symmetry_Int_Tables_number   1
_chemical_formula_structural   TbTm5TcBi2
_chemical_formula_sum   'Tb1 Tm5 Tc1 Bi2'
_cell_volume   250.48276411
_cell_formula_units_Z   1
loop_
 _symmetry_equiv_pos_site_id
 _symmetry_equiv_pos_as_xyz
  1  'x, y, z'
loop_
 _atom_site_type_symbol
 _atom_site_label
 _atom_site_symmetry_multiplicity
 _atom_site_fract_x
 _atom_site_fract_y
 _atom_site_fract_z
 _atom_site_occupancy
  Tb  Tb0  1  0.609223  0.000000  0.000000  1
  Tm  Tm1  1  0.232717  0.000000  0.500000  1
  Tm  Tm2  1  0.000569  0.231116  0.500000  1
  Tm  Tm3  1  0.769452  0.768884  0.500000  1
  Tm  Tm4  1  0.999514  0.612533  0.000000  1
  Tm  Tm5  1  0.386980  0.387467  0.000000  1
  Tc  Tc6  1  0.003327  0.000000  0.000000  1
  Bi  Bi7  1  0.331318  0.664419  0.500000  1
  Bi  Bi8  1  0.666899  0.335581  0.500000  1
