# generated using pymatgen
data_Nd3Al12Os3Rh
_symmetry_space_group_name_H-M   'P 1'
_cell_length_a   8.87330209
_cell_length_b   8.87330065
_cell_length_c   9.66193600
_cell_angle_alpha   90.00000000
_cell_angle_beta   90.00000000
_cell_angle_gamma   118.95058473
_symmetry_Int_Tables_number   1
_chemical_formula_structural   Nd3Al12Os3Rh
_chemical_formula_sum   'Nd6 Al24 Os6 Rh2'
_cell_volume   665.67353403
_cell_formula_units_Z   2
loop_
 _symmetry_equiv_pos_site_id
 _symmetry_equiv_pos_as_xyz
  1  'x, y, z'
loop_
 _atom_site_type_symbol
 _atom_site_label
 _atom_site_symmetry_multiplicity
 _atom_site_fract_x
 _atom_site_fract_y
 _atom_site_fract_z
 _atom_site_occupancy
  Nd  Nd0  1  0.184045  0.382730  0.250000  1
  Nd  Nd1  1  0.815955  0.617270  0.750000  1
  Nd  Nd2  1  0.617270  0.815955  0.250000  1
  Nd  Nd3  1  0.382730  0.184045  0.750000  1
  Nd  Nd4  1  0.193097  0.806903  0.250000  1
  Nd  Nd5  1  0.806903  0.193097  0.750000  1
  Al  Al6  1  0.332557  0.667443  0.015536  1
  Al  Al7  1  0.667443  0.332557  0.984464  1
  Al  Al8  1  0.667443  0.332557  0.515536  1
  Al  Al9  1  0.332557  0.667443  0.484464  1
  Al  Al10  1  0.162503  0.324051  0.576434  1
  Al  Al11  1  0.837497  0.675949  0.423566  1
  Al  Al12  1  0.675949  0.837497  0.576434  1
  Al  Al13  1  0.837497  0.675949  0.076434  1
  Al  Al14  1  0.324051  0.162503  0.423566  1
  Al  Al15  1  0.162503  0.324051  0.923566  1
  Al  Al16  1  0.164845  0.835155  0.574117  1
  Al  Al17  1  0.324051  0.162503  0.076434  1
  Al  Al18  1  0.835155  0.164845  0.425883  1
  Al  Al19  1  0.675949  0.837497  0.923566  1
  Al  Al20  1  0.835155  0.164845  0.074117  1
  Al  Al21  1  0.164845  0.835155  0.925883  1
  Al  Al22  1  0.560307  0.126615  0.250000  1
  Al  Al23  1  0.439693  0.873385  0.750000  1
  Al  Al24  1  0.873385  0.439693  0.250000  1
  Al  Al25  1  0.126615  0.560307  0.750000  1
  Al  Al26  1  0.559006  0.440994  0.250000  1
  Al  Al27  1  0.440994  0.559006  0.750000  1
  Al  Al28  1  0.998259  0.001741  0.250000  1
  Al  Al29  1  0.001741  0.998259  0.750000  1
  Os  Os30  1  0.500000  0.000000  0.000000  1
  Os  Os31  1  0.000000  0.500000  0.000000  1
  Os  Os32  1  0.500000  0.000000  0.500000  1
  Os  Os33  1  0.000000  0.500000  0.500000  1
  Os  Os34  1  0.000000  0.000000  0.000000  1
  Os  Os35  1  0.000000  0.000000  0.500000  1
  Rh  Rh36  1  0.500000  0.500000  0.000000  1
  Rh  Rh37  1  0.500000  0.500000  0.500000  1
