# generated using pymatgen
data_CeY3CdRu
_symmetry_space_group_name_H-M   'P 1'
_cell_length_a   9.67203474
_cell_length_b   9.67203515
_cell_length_c   9.67203600
_cell_angle_alpha   60.00000393
_cell_angle_beta   60.00000252
_cell_angle_gamma   60.00000309
_symmetry_Int_Tables_number   1
_chemical_formula_structural   CeY3CdRu
_chemical_formula_sum   'Ce4 Y12 Cd4 Ru4'
_cell_volume   639.79177346
_cell_formula_units_Z   4
loop_
 _symmetry_equiv_pos_site_id
 _symmetry_equiv_pos_as_xyz
  1  'x, y, z'
loop_
 _atom_site_type_symbol
 _atom_site_label
 _atom_site_symmetry_multiplicity
 _atom_site_fract_x
 _atom_site_fract_y
 _atom_site_fract_z
 _atom_site_occupancy
  Ce  Ce0  1  0.344954  0.344954  0.965140  1
  Ce  Ce1  1  0.344954  0.965140  0.344954  1
  Ce  Ce2  1  0.965140  0.344954  0.344954  1
  Ce  Ce3  1  0.344954  0.344954  0.344954  1
  Y  Y4  1  0.561898  0.561898  0.938102  1
  Y  Y5  1  0.938102  0.561898  0.938102  1
  Y  Y6  1  0.561898  0.938102  0.938102  1
  Y  Y7  1  0.938102  0.938102  0.561898  1
  Y  Y8  1  0.561898  0.938102  0.561898  1
  Y  Y9  1  0.938102  0.561898  0.561898  1
  Y  Y10  1  0.189426  0.189426  0.810574  1
  Y  Y11  1  0.810574  0.189426  0.810574  1
  Y  Y12  1  0.189425  0.810575  0.810574  1
  Y  Y13  1  0.810574  0.810575  0.189426  1
  Y  Y14  1  0.189425  0.810574  0.189425  1
  Y  Y15  1  0.810574  0.189426  0.189426  1
  Cd  Cd16  1  0.580471  0.580471  0.258586  1
  Cd  Cd17  1  0.580471  0.258586  0.580471  1
  Cd  Cd18  1  0.258586  0.580471  0.580471  1
  Cd  Cd19  1  0.580471  0.580471  0.580471  1
  Ru  Ru20  1  0.145580  0.145580  0.563260  1
  Ru  Ru21  1  0.145580  0.563260  0.145580  1
  Ru  Ru22  1  0.563260  0.145580  0.145580  1
  Ru  Ru23  1  0.145580  0.145580  0.145580  1
