# generated using pymatgen
data_NaErV3Ni9As7
_symmetry_space_group_name_H-M   'P 1'
_cell_length_a   9.48236300
_cell_length_b   9.48236304
_cell_length_c   3.75738000
_cell_angle_alpha   90.00000000
_cell_angle_beta   90.00000000
_cell_angle_gamma   120.00000336
_symmetry_Int_Tables_number   1
_chemical_formula_structural   NaErV3Ni9As7
_chemical_formula_sum   'Na1 Er1 V3 Ni9 As7'
_cell_volume   292.58286727
_cell_formula_units_Z   1
loop_
 _symmetry_equiv_pos_site_id
 _symmetry_equiv_pos_as_xyz
  1  'x, y, z'
loop_
 _atom_site_type_symbol
 _atom_site_label
 _atom_site_symmetry_multiplicity
 _atom_site_fract_x
 _atom_site_fract_y
 _atom_site_fract_z
 _atom_site_occupancy
  Na  Na0  1  0.333333  0.666667  0.000000  1
  Er  Er1  1  0.666667  0.333333  0.500000  1
  V  V2  1  0.217613  0.120275  0.500000  1
  V  V3  1  0.879725  0.097339  0.500000  1
  V  V4  1  0.902661  0.782387  0.500000  1
  Ni  Ni5  1  0.124916  0.280409  0.000000  1
  Ni  Ni6  1  0.719591  0.844507  0.000000  1
  Ni  Ni7  1  0.155493  0.875084  0.000000  1
  Ni  Ni8  1  0.432247  0.371633  0.000000  1
  Ni  Ni9  1  0.628367  0.060614  0.000000  1
  Ni  Ni10  1  0.939386  0.567753  0.000000  1
  Ni  Ni11  1  0.049884  0.431708  0.500000  1
  Ni  Ni12  1  0.568292  0.618176  0.500000  1
  Ni  Ni13  1  0.381824  0.950116  0.500000  1
  As  As14  1  0.293459  0.411841  0.500000  1
  As  As15  1  0.588159  0.881618  0.500000  1
  As  As16  1  0.118382  0.706541  0.500000  1
  As  As17  1  0.410055  0.116763  0.000000  1
  As  As18  1  0.883237  0.293292  0.000000  1
  As  As19  1  0.706708  0.589945  0.000000  1
  As  As20  1  0.000000  0.000000  0.000000  1
