# generated using pymatgen
data_Cs4Rb2HoLuSb4
_symmetry_space_group_name_H-M   'P 1'
_cell_length_a   10.51544190
_cell_length_b   10.51544127
_cell_length_c   10.51544113
_cell_angle_alpha   130.45946850
_cell_angle_beta   136.92735529
_cell_angle_gamma   67.70357697
_symmetry_Int_Tables_number   1
_chemical_formula_structural   Cs4Rb2HoLuSb4
_chemical_formula_sum   'Cs4 Rb2 Ho1 Lu1 Sb4'
_cell_volume   594.07373369
_cell_formula_units_Z   1
loop_
 _symmetry_equiv_pos_site_id
 _symmetry_equiv_pos_as_xyz
  1  'x, y, z'
loop_
 _atom_site_type_symbol
 _atom_site_label
 _atom_site_symmetry_multiplicity
 _atom_site_fract_x
 _atom_site_fract_y
 _atom_site_fract_z
 _atom_site_occupancy
  Cs  Cs0  1  0.688505  0.464535  0.787780  1
  Cs  Cs1  1  0.811495  0.099274  0.276030  1
  Cs  Cs2  1  0.176756  0.900726  0.712220  1
  Cs  Cs3  1  0.323244  0.535465  0.223970  1
  Rb  Rb4  1  0.750000  0.000000  0.750000  1
  Rb  Rb5  1  0.250000  0.000000  0.250000  1
  Ho  Ho6  1  0.250000  0.500000  0.750000  1
  Lu  Lu7  1  0.750000  0.500000  0.250000  1
  Sb  Sb8  1  0.408242  0.214793  0.811404  1
  Sb  Sb9  1  0.596611  0.785207  0.193450  1
  Sb  Sb10  1  0.091758  0.403161  0.306550  1
  Sb  Sb11  1  0.903389  0.596839  0.688596  1
