# generated using pymatgen
data_Pr5Dy11Cd3HgIr3Pt
_symmetry_space_group_name_H-M   'P 1'
_cell_length_a   9.73850717
_cell_length_b   9.74689858
_cell_length_c   9.74689848
_cell_angle_alpha   60.17715537
_cell_angle_beta   60.12228163
_cell_angle_gamma   60.12228720
_symmetry_Int_Tables_number   1
_chemical_formula_structural   Pr5Dy11Cd3HgIr3Pt
_chemical_formula_sum   'Pr5 Dy11 Cd3 Hg1 Ir3 Pt1'
_cell_volume   656.28240581
_cell_formula_units_Z   1
loop_
 _symmetry_equiv_pos_site_id
 _symmetry_equiv_pos_as_xyz
  1  'x, y, z'
loop_
 _atom_site_type_symbol
 _atom_site_label
 _atom_site_symmetry_multiplicity
 _atom_site_fract_x
 _atom_site_fract_y
 _atom_site_fract_z
 _atom_site_occupancy
  Pr  Pr0  1  0.558862  0.941405  0.941405  1
  Pr  Pr1  1  0.562084  0.939818  0.559150  1
  Pr  Pr2  1  0.941071  0.559746  0.937868  1
  Pr  Pr3  1  0.562084  0.559150  0.939818  1
  Pr  Pr4  1  0.941071  0.937868  0.559746  1
  Dy  Dy5  1  0.346282  0.346860  0.346860  1
  Dy  Dy6  1  0.351224  0.352986  0.951571  1
  Dy  Dy7  1  0.351224  0.951571  0.352986  1
  Dy  Dy8  1  0.950145  0.352339  0.352339  1
  Dy  Dy9  1  0.808041  0.187862  0.187862  1
  Dy  Dy10  1  0.185535  0.811996  0.811996  1
  Dy  Dy11  1  0.187034  0.807502  0.189773  1
  Dy  Dy12  1  0.812130  0.186677  0.810960  1
  Dy  Dy13  1  0.187034  0.189773  0.807502  1
  Dy  Dy14  1  0.812130  0.810960  0.186677  1
  Dy  Dy15  1  0.942725  0.557260  0.557260  1
  Cd  Cd16  1  0.578431  0.579019  0.262962  1
  Cd  Cd17  1  0.578431  0.262962  0.579019  1
  Cd  Cd18  1  0.260138  0.578669  0.578669  1
  Hg  Hg19  1  0.586652  0.582172  0.582172  1
  Ir  Ir20  1  0.139828  0.144535  0.575039  1
  Ir  Ir21  1  0.139828  0.575039  0.144535  1
  Ir  Ir22  1  0.575187  0.141481  0.141481  1
  Pt  Pt23  1  0.142827  0.142350  0.142350  1
