# generated using pymatgen
data_Zr3Ir2Au3
_symmetry_space_group_name_H-M   'P 1'
_cell_length_a   7.34837000
_cell_length_b   7.34836992
_cell_length_c   3.27563800
_cell_angle_alpha   90.00000000
_cell_angle_beta   90.00000000
_cell_angle_gamma   120.00000038
_symmetry_Int_Tables_number   1
_chemical_formula_structural   Zr3Ir2Au3
_chemical_formula_sum   'Zr3 Ir2 Au3'
_cell_volume   153.18228964
_cell_formula_units_Z   1
loop_
 _symmetry_equiv_pos_site_id
 _symmetry_equiv_pos_as_xyz
  1  'x, y, z'
loop_
 _atom_site_type_symbol
 _atom_site_label
 _atom_site_symmetry_multiplicity
 _atom_site_fract_x
 _atom_site_fract_y
 _atom_site_fract_z
 _atom_site_occupancy
  Zr  Zr0  1  0.589031  0.000000  0.499999  1
  Zr  Zr1  1  0.410969  0.410968  0.499999  1
  Zr  Zr2  1  0.000000  0.589032  0.499999  1
  Ir  Ir3  1  0.666666  0.333333  0.000000  1
  Ir  Ir4  1  0.333333  0.666667  0.000000  1
  Au  Au5  1  0.228475  0.000000  0.000000  1
  Au  Au6  1  0.000000  0.228476  0.000000  1
  Au  Au7  1  0.771525  0.771525  0.000000  1
