# generated using pymatgen
data_Ta2TlReSe6
_symmetry_space_group_name_H-M   'P 1'
_cell_length_a   5.93256000
_cell_length_b   5.93256165
_cell_length_c   18.20630100
_cell_angle_alpha   90.00000000
_cell_angle_beta   90.00000000
_cell_angle_gamma   120.00000194
_symmetry_Int_Tables_number   1
_chemical_formula_structural   Ta2TlReSe6
_chemical_formula_sum   'Ta4 Tl2 Re2 Se12'
_cell_volume   554.92813108
_cell_formula_units_Z   2
loop_
 _symmetry_equiv_pos_site_id
 _symmetry_equiv_pos_as_xyz
  1  'x, y, z'
loop_
 _atom_site_type_symbol
 _atom_site_label
 _atom_site_symmetry_multiplicity
 _atom_site_fract_x
 _atom_site_fract_y
 _atom_site_fract_z
 _atom_site_occupancy
  Ta  Ta0  1  0.333333  0.666667  0.250000  1
  Ta  Ta1  1  0.666667  0.333333  0.750000  1
  Ta  Ta2  1  0.666667  0.333333  0.250000  1
  Ta  Ta3  1  0.333333  0.666667  0.750000  1
  Tl  Tl4  1  0.000000  0.000000  0.000000  1
  Tl  Tl5  1  0.000000  0.000000  0.500000  1
  Re  Re6  1  0.000000  0.000000  0.750000  1
  Re  Re7  1  0.000000  0.000000  0.250000  1
  Se  Se8  1  0.326337  0.000000  0.158456  1
  Se  Se9  1  0.000000  0.326337  0.158456  1
  Se  Se10  1  0.673663  0.673663  0.158456  1
  Se  Se11  1  0.326337  0.326337  0.658456  1
  Se  Se12  1  0.673663  0.673663  0.341544  1
  Se  Se13  1  0.673663  0.000000  0.658456  1
  Se  Se14  1  0.000000  0.673663  0.658456  1
  Se  Se15  1  0.000000  0.673663  0.841544  1
  Se  Se16  1  0.326337  0.326337  0.841544  1
  Se  Se17  1  0.000000  0.326337  0.341544  1
  Se  Se18  1  0.326337  0.000000  0.341544  1
  Se  Se19  1  0.673663  0.000000  0.841544  1
