# generated using pymatgen
data_Ho3InGa2CuPt2
_symmetry_space_group_name_H-M   'P 1'
_cell_length_a   7.43656400
_cell_length_b   7.39206097
_cell_length_c   3.80261500
_cell_angle_alpha   90.00000000
_cell_angle_beta   90.00000000
_cell_angle_gamma   120.19935327
_symmetry_Int_Tables_number   1
_chemical_formula_structural   Ho3InGa2CuPt2
_chemical_formula_sum   'Ho3 In1 Ga2 Cu1 Pt2'
_cell_volume   180.66537275
_cell_formula_units_Z   1
loop_
 _symmetry_equiv_pos_site_id
 _symmetry_equiv_pos_as_xyz
  1  'x, y, z'
loop_
 _atom_site_type_symbol
 _atom_site_label
 _atom_site_symmetry_multiplicity
 _atom_site_fract_x
 _atom_site_fract_y
 _atom_site_fract_z
 _atom_site_occupancy
  Ho  Ho0  1  0.598411  0.000000  0.500000  1
  Ho  Ho1  1  0.414245  0.416715  0.500000  1
  Ho  Ho2  1  0.997530  0.583285  0.500000  1
  In  In3  1  0.244736  0.000000  0.000000  1
  Ga  Ga4  1  0.752362  0.751615  0.000000  1
  Ga  Ga5  1  0.000747  0.248385  0.000000  1
  Cu  Cu6  1  0.984268  0.000000  0.500000  1
  Pt  Pt7  1  0.335011  0.662322  0.000000  1
  Pt  Pt8  1  0.672690  0.337678  0.000000  1
