# generated using pymatgen
data_Li6PrLu5(TeO6)4
_symmetry_space_group_name_H-M   'P 1'
_cell_length_a   10.64715066
_cell_length_b   10.70345894
_cell_length_c   10.67213697
_cell_angle_alpha   109.64610799
_cell_angle_beta   109.43250888
_cell_angle_gamma   109.34741831
_symmetry_Int_Tables_number   1
_chemical_formula_structural   Li6PrLu5(TeO6)4
_chemical_formula_sum   'Li12 Pr2 Lu10 Te8 O48'
_cell_volume   936.09162573
_cell_formula_units_Z   2
loop_
 _symmetry_equiv_pos_site_id
 _symmetry_equiv_pos_as_xyz
  1  'x, y, z'
loop_
 _atom_site_type_symbol
 _atom_site_label
 _atom_site_symmetry_multiplicity
 _atom_site_fract_x
 _atom_site_fract_y
 _atom_site_fract_z
 _atom_site_occupancy
  Li  Li0  1  0.751175  0.375233  0.125061  1
  Li  Li1  1  0.873891  0.749829  0.125062  1
  Li  Li2  1  0.124061  0.374965  0.250432  1
  Li  Li3  1  0.626370  0.875468  0.250434  1
  Li  Li4  1  0.249909  0.126784  0.377981  1
  Li  Li5  1  0.628069  0.251197  0.377980  1
  Li  Li6  1  0.750241  0.875483  0.625149  1
  Li  Li7  1  0.374908  0.749670  0.625149  1
  Li  Li8  1  0.374920  0.125042  0.748564  1
  Li  Li9  1  0.873644  0.623523  0.748565  1
  Li  Li10  1  0.249755  0.622537  0.872781  1
  Li  Li11  1  0.123027  0.250243  0.872783  1
  Pr  Pr12  1  0.375539  0.251717  0.124363  1
  Pr  Pr13  1  0.248823  0.872645  0.124362  1
  Lu  Lu14  1  0.376135  0.626135  0.252270  1
  Lu  Lu15  1  0.875035  0.125035  0.250071  1
  Lu  Lu16  1  0.124430  0.748947  0.376348  1
  Lu  Lu17  1  0.751918  0.627400  0.376349  1
  Lu  Lu18  1  0.874928  0.249804  0.624898  1
  Lu  Lu19  1  0.249970  0.375095  0.624899  1
  Lu  Lu20  1  0.625187  0.375187  0.750374  1
  Lu  Lu21  1  0.123109  0.873108  0.746218  1
  Lu  Lu22  1  0.749924  0.125021  0.874944  1
  Lu  Lu23  1  0.625020  0.749923  0.874944  1
  Te  Te24  1  0.993704  0.998547  0.995742  1
  Te  Te25  1  0.502036  0.997194  0.995742  1
  Te  Te26  1  0.997895  0.495355  0.999640  1
  Te  Te27  1  0.501746  0.504286  0.999641  1
  Te  Te28  1  0.999718  0.000294  0.499836  1
  Te  Te29  1  0.502961  0.504491  0.504825  1
  Te  Te30  1  0.501863  0.000334  0.504825  1
  Te  Te31  1  0.000117  0.499541  0.499836  1
  O  O32  1  0.198575  0.611256  0.024671  1
  O  O33  1  0.326095  0.413414  0.024669  1
  O  O34  1  0.875073  0.905545  0.077274  1
  O  O35  1  0.702201  0.171729  0.077273  1
  O  O36  1  0.624673  0.920095  0.091973  1
  O  O37  1  0.967300  0.171880  0.091974  1
  O  O38  1  0.023451  0.693905  0.124009  1
  O  O39  1  0.600559  0.430105  0.124009  1
  O  O40  1  0.191936  0.081365  0.173082  1
  O  O41  1  0.481146  0.091718  0.173084  1
  O  O42  1  0.123555  0.528591  0.202403  1
  O  O43  1  0.578847  0.673811  0.202404  1
  O  O44  1  0.475989  0.875684  0.305858  1
  O  O45  1  0.329870  0.430173  0.305857  1
  O  O46  1  0.922579  0.799081  0.328119  1
  O  O47  1  0.905537  0.529033  0.328116  1
  O  O48  1  0.588607  0.414042  0.389351  1
  O  O49  1  0.300744  0.975309  0.389350  1
  O  O50  1  0.827823  0.030233  0.405947  1
  O  O51  1  0.078125  0.375713  0.405949  1
  O  O52  1  0.093741  0.123919  0.422384  1
  O  O53  1  0.828642  0.298464  0.422384  1
  O  O54  1  0.595403  0.673565  0.471622  1
  O  O55  1  0.376219  0.798059  0.471621  1
  O  O56  1  0.406896  0.329803  0.529929  1
  O  O57  1  0.623034  0.200125  0.529929  1
  O  O58  1  0.171418  0.700528  0.576265  1
  O  O59  1  0.904847  0.875737  0.576266  1
  O  O60  1  0.923231  0.624104  0.594671  1
  O  O61  1  0.171443  0.970570  0.594672  1
  O  O62  1  0.421900  0.595099  0.625671  1
  O  O63  1  0.703770  0.030572  0.625671  1
  O  O64  1  0.077763  0.201778  0.671688  1
  O  O65  1  0.093926  0.469912  0.671690  1
  O  O66  1  0.532684  0.125449  0.705808  1
  O  O67  1  0.673122  0.580359  0.705808  1
  O  O68  1  0.876543  0.469975  0.799025  1
  O  O69  1  0.422482  0.329051  0.799024  1
  O  O70  1  0.532943  0.906152  0.825688  1
  O  O71  1  0.792744  0.919536  0.825690  1
  O  O72  1  0.967425  0.294833  0.874835  1
  O  O73  1  0.407412  0.580003  0.874836  1
  O  O74  1  0.376125  0.071641  0.899492  1
  O  O75  1  0.023366  0.827850  0.899490  1
  O  O76  1  0.300002  0.823701  0.910932  1
  O  O77  1  0.110929  0.087232  0.910932  1
  O  O78  1  0.796329  0.374291  0.969267  1
  O  O79  1  0.672940  0.594978  0.969269  1
