# generated using pymatgen
data_Li(ThZn8)2
_symmetry_space_group_name_H-M   'P 1'
_cell_length_a   6.84489397
_cell_length_b   6.83157167
_cell_length_c   6.84489389
_cell_angle_alpha   82.80444687
_cell_angle_beta   82.28466664
_cell_angle_gamma   82.80446304
_symmetry_Int_Tables_number   1
_chemical_formula_structural   Li(ThZn8)2
_chemical_formula_sum   'Li1 Th2 Zn16'
_cell_volume   312.76112762
_cell_formula_units_Z   1
loop_
 _symmetry_equiv_pos_site_id
 _symmetry_equiv_pos_as_xyz
  1  'x, y, z'
loop_
 _atom_site_type_symbol
 _atom_site_label
 _atom_site_symmetry_multiplicity
 _atom_site_fract_x
 _atom_site_fract_y
 _atom_site_fract_z
 _atom_site_occupancy
  Li  Li0  1  0.000000  0.500000  0.000000  1
  Th  Th1  1  0.660688  0.663493  0.660688  1
  Th  Th2  1  0.339312  0.336507  0.339312  1
  Zn  Zn3  1  0.345549  0.351075  0.847084  1
  Zn  Zn4  1  0.847084  0.351075  0.345549  1
  Zn  Zn5  1  0.098733  0.106190  0.098733  1
  Zn  Zn6  1  0.901267  0.893810  0.901267  1
  Zn  Zn7  1  0.000000  0.000000  0.500000  1
  Zn  Zn8  1  0.500000  0.000000  0.000000  1
  Zn  Zn9  1  0.288980  0.705063  0.000831  1
  Zn  Zn10  1  0.706504  0.000000  0.293496  1
  Zn  Zn11  1  0.999169  0.294937  0.711020  1
  Zn  Zn12  1  0.711020  0.294937  0.999169  1
  Zn  Zn13  1  0.293496  0.000000  0.706504  1
  Zn  Zn14  1  0.000831  0.705063  0.288980  1
  Zn  Zn15  1  0.152916  0.648925  0.654451  1
  Zn  Zn16  1  0.654451  0.648925  0.152916  1
  Zn  Zn17  1  0.649173  0.163369  0.649173  1
  Zn  Zn18  1  0.350827  0.836631  0.350827  1
