# generated using pymatgen
data_Ac6Ga7SiGe4
_symmetry_space_group_name_H-M   'P 1'
_cell_length_a   4.53493520
_cell_length_b   4.56198218
_cell_length_c   22.66497200
_cell_angle_alpha   84.22399811
_cell_angle_beta   84.25836002
_cell_angle_gamma   90.00000147
_symmetry_Int_Tables_number   1
_chemical_formula_structural   Ac6Ga7SiGe4
_chemical_formula_sum   'Ac6 Ga7 Si1 Ge4'
_cell_volume   464.15449135
_cell_formula_units_Z   1
loop_
 _symmetry_equiv_pos_site_id
 _symmetry_equiv_pos_as_xyz
  1  'x, y, z'
loop_
 _atom_site_type_symbol
 _atom_site_label
 _atom_site_symmetry_multiplicity
 _atom_site_fract_x
 _atom_site_fract_y
 _atom_site_fract_z
 _atom_site_occupancy
  Ac  Ac0  1  0.958376  0.707715  0.084894  1
  Ac  Ac1  1  0.291922  0.040163  0.416277  1
  Ac  Ac2  1  0.625446  0.374354  0.750188  1
  Ac  Ac3  1  0.373517  0.625223  0.251948  1
  Ac  Ac4  1  0.707902  0.959749  0.581780  1
  Ac  Ac5  1  0.040170  0.292478  0.917811  1
  Ga  Ga6  1  0.158755  0.905040  0.692202  1
  Ga  Ga7  1  0.430258  0.169777  0.139921  1
  Ga  Ga8  1  0.766131  0.507710  0.468785  1
  Ga  Ga9  1  0.097829  0.841203  0.803645  1
  Ga  Ga10  1  0.839537  0.096481  0.307830  1
  Ga  Ga11  1  0.175287  0.430473  0.638842  1
  Ga  Ga12  1  0.506999  0.763092  0.974174  1
  Si  Si13  1  0.824117  0.571756  0.359434  1
  Ge  Ge14  1  0.903464  0.160472  0.195548  1
  Ge  Ge15  1  0.238646  0.492325  0.526496  1
  Ge  Ge16  1  0.570070  0.824521  0.862473  1
  Ge  Ge17  1  0.491576  0.237470  0.027748  1
