# generated using pymatgen
data_TbEr7(AgPd)2
_symmetry_space_group_name_H-M   'P 1'
_cell_length_a   9.63120096
_cell_length_b   9.63120157
_cell_length_c   9.62798800
_cell_angle_alpha   60.01103684
_cell_angle_beta   60.01103477
_cell_angle_gamma   59.97792445
_symmetry_Int_Tables_number   1
_chemical_formula_structural   TbEr7(AgPd)2
_chemical_formula_sum   'Tb2 Er14 Ag4 Pd4'
_cell_volume   631.51162557
_cell_formula_units_Z   2
loop_
 _symmetry_equiv_pos_site_id
 _symmetry_equiv_pos_as_xyz
  1  'x, y, z'
loop_
 _atom_site_type_symbol
 _atom_site_label
 _atom_site_symmetry_multiplicity
 _atom_site_fract_x
 _atom_site_fract_y
 _atom_site_fract_z
 _atom_site_occupancy
  Tb  Tb0  1  0.566743  0.566743  0.933257  1
  Tb  Tb1  1  0.933257  0.933257  0.566743  1
  Er  Er2  1  0.354978  0.354978  0.355167  1
  Er  Er3  1  0.354978  0.354978  0.934878  1
  Er  Er4  1  0.355167  0.934878  0.354978  1
  Er  Er5  1  0.934878  0.355167  0.354978  1
  Er  Er6  1  0.811166  0.188834  0.188834  1
  Er  Er7  1  0.188834  0.811166  0.811166  1
  Er  Er8  1  0.188834  0.811166  0.188834  1
  Er  Er9  1  0.811166  0.188834  0.811166  1
  Er  Er10  1  0.188876  0.188876  0.811124  1
  Er  Er11  1  0.811124  0.811124  0.188876  1
  Er  Er12  1  0.934462  0.565538  0.565538  1
  Er  Er13  1  0.565538  0.934462  0.934462  1
  Er  Er14  1  0.565538  0.934462  0.565538  1
  Er  Er15  1  0.934462  0.565538  0.934462  1
  Ag  Ag16  1  0.583194  0.583194  0.582074  1
  Ag  Ag17  1  0.583194  0.583194  0.251538  1
  Ag  Ag18  1  0.582074  0.251538  0.583194  1
  Ag  Ag19  1  0.251538  0.582074  0.583194  1
  Pd  Pd20  1  0.144970  0.144970  0.144402  1
  Pd  Pd21  1  0.144970  0.144970  0.565659  1
  Pd  Pd22  1  0.144402  0.565659  0.144970  1
  Pd  Pd23  1  0.565659  0.144402  0.144970  1
