# generated using pymatgen
data_Nd2GdEr3Ta2O14
_symmetry_space_group_name_H-M   'P 1'
_cell_length_a   6.50484835
_cell_length_b   6.48772361
_cell_length_c   7.60262700
_cell_angle_alpha   90.00000000
_cell_angle_beta   90.00000000
_cell_angle_gamma   109.32754244
_symmetry_Int_Tables_number   1
_chemical_formula_structural   Nd2GdEr3Ta2O14
_chemical_formula_sum   'Nd2 Gd1 Er3 Ta2 O14'
_cell_volume   302.76135816
_cell_formula_units_Z   1
loop_
 _symmetry_equiv_pos_site_id
 _symmetry_equiv_pos_as_xyz
  1  'x, y, z'
loop_
 _atom_site_type_symbol
 _atom_site_label
 _atom_site_symmetry_multiplicity
 _atom_site_fract_x
 _atom_site_fract_y
 _atom_site_fract_z
 _atom_site_occupancy
  Nd  Nd0  1  0.501568  0.502086  0.501372  1
  Nd  Nd1  1  0.501568  0.502086  0.998628  1
  Gd  Gd2  1  0.467649  0.000005  0.250000  1
  Er  Er3  1  0.001521  0.532542  0.250000  1
  Er  Er4  1  0.998861  0.467142  0.750000  1
  Er  Er5  1  0.533908  0.000950  0.750000  1
  Ta  Ta6  1  0.000767  0.000127  0.501281  1
  Ta  Ta7  1  0.000767  0.000127  0.998719  1
  O  O8  1  0.936340  0.067033  0.750000  1
  O  O9  1  0.060267  0.935559  0.250000  1
  O  O10  1  0.355574  0.639018  0.250000  1
  O  O11  1  0.645352  0.356089  0.750000  1
  O  O12  1  0.361552  0.636787  0.750000  1
  O  O13  1  0.640958  0.370119  0.250000  1
  O  O14  1  0.319054  0.069631  0.963325  1
  O  O15  1  0.677546  0.926677  0.473802  1
  O  O16  1  0.319054  0.069631  0.536675  1
  O  O17  1  0.677546  0.926677  0.026198  1
  O  O18  1  0.066626  0.319979  0.466631  1
  O  O19  1  0.933446  0.678876  0.967212  1
  O  O20  1  0.933446  0.678876  0.532788  1
  O  O21  1  0.066626  0.319979  0.033369  1
