# generated using pymatgen
data_Na5Hf3(Cu4P3)4
_symmetry_space_group_name_H-M   'P 1'
_cell_length_a   12.71038900
_cell_length_b   12.71038859
_cell_length_c   3.84838600
_cell_angle_alpha   90.00000000
_cell_angle_beta   90.00000000
_cell_angle_gamma   120.00000368
_symmetry_Int_Tables_number   1
_chemical_formula_structural   Na5Hf3(Cu4P3)4
_chemical_formula_sum   'Na5 Hf3 Cu16 P12'
_cell_volume   538.42710190
_cell_formula_units_Z   1
loop_
 _symmetry_equiv_pos_site_id
 _symmetry_equiv_pos_as_xyz
  1  'x, y, z'
loop_
 _atom_site_type_symbol
 _atom_site_label
 _atom_site_symmetry_multiplicity
 _atom_site_fract_x
 _atom_site_fract_y
 _atom_site_fract_z
 _atom_site_occupancy
  Na  Na0  1  0.184130  0.184130  0.500000  1
  Na  Na1  1  0.815870  0.000000  0.500000  1
  Na  Na2  1  0.000000  0.815870  0.500000  1
  Na  Na3  1  0.333333  0.666667  0.000000  1
  Na  Na4  1  0.666667  0.333333  0.000000  1
  Hf  Hf5  1  0.565790  0.565790  0.000000  1
  Hf  Hf6  1  0.434210  0.000000  0.000000  1
  Hf  Hf7  1  0.000000  0.434210  0.000000  1
  Cu  Cu8  1  0.727146  0.727146  0.500000  1
  Cu  Cu9  1  0.272854  0.000000  0.500000  1
  Cu  Cu10  1  0.000000  0.272854  0.500000  1
  Cu  Cu11  1  0.184115  0.371404  0.000000  1
  Cu  Cu12  1  0.628596  0.812712  0.000000  1
  Cu  Cu13  1  0.187288  0.815885  0.000000  1
  Cu  Cu14  1  0.812712  0.628596  0.000000  1
  Cu  Cu15  1  0.815885  0.187288  0.000000  1
  Cu  Cu16  1  0.371404  0.184115  0.000000  1
  Cu  Cu17  1  0.357058  0.482360  0.500000  1
  Cu  Cu18  1  0.517640  0.874699  0.500000  1
  Cu  Cu19  1  0.125301  0.642942  0.500000  1
  Cu  Cu20  1  0.874699  0.517640  0.500000  1
  Cu  Cu21  1  0.642942  0.125301  0.500000  1
  Cu  Cu22  1  0.482360  0.357058  0.500000  1
  Cu  Cu23  1  0.000000  0.000000  0.000000  1
  P  P24  1  0.823403  0.823403  0.000000  1
  P  P25  1  0.176597  0.000000  0.000000  1
  P  P26  1  0.000000  0.176597  0.000000  1
  P  P27  1  0.167049  0.482174  0.500000  1
  P  P28  1  0.517826  0.684874  0.500000  1
  P  P29  1  0.315126  0.832951  0.500000  1
  P  P30  1  0.684874  0.517826  0.500000  1
  P  P31  1  0.832951  0.315126  0.500000  1
  P  P32  1  0.482174  0.167049  0.500000  1
  P  P33  1  0.364425  0.364425  0.000000  1
  P  P34  1  0.635575  0.000000  0.000000  1
  P  P35  1  0.000000  0.635575  0.000000  1
