# generated using pymatgen
data_Dy4NbSn(B2Ru5)2
_symmetry_space_group_name_H-M   'P 1'
_cell_length_a   9.70017600
_cell_length_b   9.70017600
_cell_length_c   3.14729900
_cell_angle_alpha   90.00000000
_cell_angle_beta   90.00000000
_cell_angle_gamma   90.00000000
_symmetry_Int_Tables_number   1
_chemical_formula_structural   Dy4NbSn(B2Ru5)2
_chemical_formula_sum   'Dy4 Nb1 Sn1 B4 Ru10'
_cell_volume   296.14010915
_cell_formula_units_Z   1
loop_
 _symmetry_equiv_pos_site_id
 _symmetry_equiv_pos_as_xyz
  1  'x, y, z'
loop_
 _atom_site_type_symbol
 _atom_site_label
 _atom_site_symmetry_multiplicity
 _atom_site_fract_x
 _atom_site_fract_y
 _atom_site_fract_z
 _atom_site_occupancy
  Dy  Dy0  1  0.825744  0.675953  0.000000  1
  Dy  Dy1  1  0.174256  0.324047  0.000000  1
  Dy  Dy2  1  0.324047  0.825744  0.000000  1
  Dy  Dy3  1  0.675953  0.174256  0.000000  1
  Nb  Nb4  1  0.000000  0.000000  0.000000  1
  Sn  Sn5  1  0.500000  0.500000  0.000000  1
  B  B6  1  0.620580  0.879608  0.000000  1
  B  B7  1  0.379420  0.120392  0.000000  1
  B  B8  1  0.120392  0.620580  0.000000  1
  B  B9  1  0.879608  0.379420  0.000000  1
  Ru  Ru10  1  0.571877  0.723264  0.500000  1
  Ru  Ru11  1  0.428123  0.276736  0.500000  1
  Ru  Ru12  1  0.068907  0.781415  0.500000  1
  Ru  Ru13  1  0.931093  0.218585  0.500000  1
  Ru  Ru14  1  0.276736  0.571877  0.500000  1
  Ru  Ru15  1  0.723264  0.428123  0.500000  1
  Ru  Ru16  1  0.218585  0.068907  0.500000  1
  Ru  Ru17  1  0.781415  0.931093  0.500000  1
  Ru  Ru18  1  0.500000  0.000000  0.500000  1
  Ru  Ru19  1  0.000000  0.500000  0.500000  1
