# generated using pymatgen
data_Sr4Sn3HgPd4
_symmetry_space_group_name_H-M   'P 1'
_cell_length_a   4.78456200
_cell_length_b   7.72944230
_cell_length_c   8.28267061
_cell_angle_alpha   90.18865582
_cell_angle_beta   90.00000000
_cell_angle_gamma   90.00000000
_symmetry_Int_Tables_number   1
_chemical_formula_structural   Sr4Sn3HgPd4
_chemical_formula_sum   'Sr4 Sn3 Hg1 Pd4'
_cell_volume   306.30803014
_cell_formula_units_Z   1
loop_
 _symmetry_equiv_pos_site_id
 _symmetry_equiv_pos_as_xyz
  1  'x, y, z'
loop_
 _atom_site_type_symbol
 _atom_site_label
 _atom_site_symmetry_multiplicity
 _atom_site_fract_x
 _atom_site_fract_y
 _atom_site_fract_z
 _atom_site_occupancy
  Sr  Sr0  1  0.250000  0.023152  0.317765  1
  Sr  Sr1  1  0.250000  0.519189  0.187074  1
  Sr  Sr2  1  0.750000  0.981878  0.686851  1
  Sr  Sr3  1  0.750000  0.482904  0.806847  1
  Sn  Sn4  1  0.250000  0.160971  0.928946  1
  Sn  Sn5  1  0.250000  0.663534  0.572285  1
  Sn  Sn6  1  0.750000  0.829146  0.074927  1
  Hg  Hg7  1  0.750000  0.330699  0.418646  1
  Pd  Pd8  1  0.250000  0.301718  0.625028  1
  Pd  Pd9  1  0.250000  0.798721  0.895222  1
  Pd  Pd10  1  0.750000  0.719004  0.395195  1
  Pd  Pd11  1  0.750000  0.189085  0.091214  1
