# generated using pymatgen
data_YEr3(HfPt)4
_symmetry_space_group_name_H-M   'P 1'
_cell_length_a   4.65219900
_cell_length_b   7.04997350
_cell_length_c   8.21389302
_cell_angle_alpha   90.03347132
_cell_angle_beta   90.00000000
_cell_angle_gamma   90.00000000
_symmetry_Int_Tables_number   1
_chemical_formula_structural   YEr3(HfPt)4
_chemical_formula_sum   'Y1 Er3 Hf4 Pt4'
_cell_volume   269.39822906
_cell_formula_units_Z   1
loop_
 _symmetry_equiv_pos_site_id
 _symmetry_equiv_pos_as_xyz
  1  'x, y, z'
loop_
 _atom_site_type_symbol
 _atom_site_label
 _atom_site_symmetry_multiplicity
 _atom_site_fract_x
 _atom_site_fract_y
 _atom_site_fract_z
 _atom_site_occupancy
  Y  Y0  1  0.750000  0.516663  0.821044  1
  Er  Er1  1  0.250000  0.982945  0.321521  1
  Er  Er2  1  0.250000  0.483064  0.178297  1
  Er  Er3  1  0.750000  0.016904  0.677727  1
  Hf  Hf4  1  0.250000  0.354038  0.576067  1
  Hf  Hf5  1  0.250000  0.854669  0.923183  1
  Hf  Hf6  1  0.750000  0.646067  0.422441  1
  Hf  Hf7  1  0.750000  0.145203  0.077556  1
  Pt  Pt8  1  0.250000  0.230076  0.903326  1
  Pt  Pt9  1  0.250000  0.732268  0.596541  1
  Pt  Pt10  1  0.750000  0.769293  0.099457  1
  Pt  Pt11  1  0.750000  0.268811  0.402841  1
