# generated using pymatgen
data_Hf7ScCo11Si16Pt
_symmetry_space_group_name_H-M   'P 1'
_cell_length_a   5.21499804
_cell_length_b   6.75757518
_cell_length_c   13.70309775
_cell_angle_alpha   90.16981871
_cell_angle_beta   90.03980398
_cell_angle_gamma   89.82395908
_symmetry_Int_Tables_number   1
_chemical_formula_structural   Hf7ScCo11Si16Pt
_chemical_formula_sum   'Hf7 Sc1 Co11 Si16 Pt1'
_cell_volume   482.90280876
_cell_formula_units_Z   1
loop_
 _symmetry_equiv_pos_site_id
 _symmetry_equiv_pos_as_xyz
  1  'x, y, z'
loop_
 _atom_site_type_symbol
 _atom_site_label
 _atom_site_symmetry_multiplicity
 _atom_site_fract_x
 _atom_site_fract_y
 _atom_site_fract_z
 _atom_site_occupancy
  Hf  Hf0  1  0.729384  0.099598  0.149192  1
  Hf  Hf1  1  0.270159  0.099636  0.644096  1
  Hf  Hf2  1  0.766161  0.401066  0.644154  1
  Hf  Hf3  1  0.231365  0.600671  0.354766  1
  Hf  Hf4  1  0.732550  0.899242  0.354636  1
  Hf  Hf5  1  0.265029  0.901177  0.851830  1
  Hf  Hf6  1  0.771933  0.601337  0.849751  1
  Sc  Sc7  1  0.233984  0.398442  0.149991  1
  Co  Co8  1  0.506971  0.224455  0.481706  1
  Co  Co9  1  0.773572  0.999297  0.748808  1
  Co  Co10  1  0.493653  0.218801  0.982035  1
  Co  Co11  1  0.723986  0.499672  0.251563  1
  Co  Co12  1  0.494775  0.774541  0.518342  1
  Co  Co13  1  0.006123  0.274562  0.481789  1
  Co  Co14  1  0.004977  0.728566  0.018824  1
  Co  Co15  1  0.224380  0.997799  0.252723  1
  Co  Co16  1  0.276975  0.502727  0.749485  1
  Co  Co17  1  0.506697  0.776882  0.019254  1
  Co  Co18  1  0.994491  0.724911  0.518000  1
  Si  Si19  1  0.226137  0.010974  0.075274  1
  Si  Si20  1  0.717942  0.518975  0.432124  1
  Si  Si21  1  0.782924  0.018864  0.567507  1
  Si  Si22  1  0.481608  0.753743  0.189409  1
  Si  Si23  1  0.020152  0.254447  0.802707  1
  Si  Si24  1  0.517588  0.246567  0.810820  1
  Si  Si25  1  0.218307  0.980252  0.432291  1
  Si  Si26  1  0.296511  0.529388  0.931084  1
  Si  Si27  1  0.979522  0.745430  0.188625  1
  Si  Si28  1  0.707104  0.490585  0.073090  1
  Si  Si29  1  0.281493  0.481035  0.567568  1
  Si  Si30  1  0.479357  0.245773  0.314041  1
  Si  Si31  1  0.020129  0.746846  0.685980  1
  Si  Si32  1  0.771197  0.969911  0.928062  1
  Si  Si33  1  0.518695  0.754230  0.686659  1
  Si  Si34  1  0.981307  0.253555  0.313633  1
  Pt  Pt35  1  0.992859  0.276045  0.980182  1
