# generated using pymatgen
data_Cs(ZrSe2)3
_symmetry_space_group_name_H-M   'P 1'
_cell_length_a   6.56591666
_cell_length_b   6.56591674
_cell_length_c   9.37805380
_cell_angle_alpha   96.61817020
_cell_angle_beta   96.61817057
_cell_angle_gamma   119.95380286
_symmetry_Int_Tables_number   1
_chemical_formula_structural   Cs(ZrSe2)3
_chemical_formula_sum   'Cs1 Zr3 Se6'
_cell_volume   340.87702254
_cell_formula_units_Z   1
loop_
 _symmetry_equiv_pos_site_id
 _symmetry_equiv_pos_as_xyz
  1  'x, y, z'
loop_
 _atom_site_type_symbol
 _atom_site_label
 _atom_site_symmetry_multiplicity
 _atom_site_fract_x
 _atom_site_fract_y
 _atom_site_fract_z
 _atom_site_occupancy
  Cs  Cs0  1  0.000000  0.000000  0.500000  1
  Zr  Zr1  1  0.833449  0.166551  0.000000  1
  Zr  Zr2  1  0.500000  0.500000  0.000000  1
  Zr  Zr3  1  0.166551  0.833449  0.000000  1
  Se  Se4  1  0.227044  0.227044  0.176909  1
  Se  Se5  1  0.892630  0.557781  0.177314  1
  Se  Se6  1  0.557781  0.892630  0.177314  1
  Se  Se7  1  0.442219  0.107370  0.822687  1
  Se  Se8  1  0.107370  0.442219  0.822687  1
  Se  Se9  1  0.772958  0.772958  0.823092  1
