# generated using pymatgen
data_Er4Th4Re3B24Ru
_symmetry_space_group_name_H-M   'P 1'
_cell_length_a   3.75716000
_cell_length_b   9.23582311
_cell_length_c   11.65374793
_cell_angle_alpha   90.09405476
_cell_angle_beta   90.00000000
_cell_angle_gamma   90.00000000
_symmetry_Int_Tables_number   1
_chemical_formula_structural   Er4Th4Re3B24Ru
_chemical_formula_sum   'Er4 Th4 Re3 B24 Ru1'
_cell_volume   404.38992901
_cell_formula_units_Z   1
loop_
 _symmetry_equiv_pos_site_id
 _symmetry_equiv_pos_as_xyz
  1  'x, y, z'
loop_
 _atom_site_type_symbol
 _atom_site_label
 _atom_site_symmetry_multiplicity
 _atom_site_fract_x
 _atom_site_fract_y
 _atom_site_fract_z
 _atom_site_occupancy
  Er  Er0  1  0.000000  0.945682  0.373124  1
  Er  Er1  1  0.000000  0.054756  0.626550  1
  Er  Er2  1  0.000000  0.443978  0.126601  1
  Er  Er3  1  0.000000  0.554758  0.873661  1
  Th  Th4  1  0.000000  0.320228  0.414705  1
  Th  Th5  1  0.000000  0.678252  0.587694  1
  Th  Th6  1  0.000000  0.823109  0.084321  1
  Th  Th7  1  0.000000  0.178633  0.913445  1
  Re  Re8  1  0.000000  0.360359  0.680074  1
  Re  Re9  1  0.000000  0.139734  0.180698  1
  Re  Re10  1  0.000000  0.859875  0.819628  1
  B  B11  1  0.500000  0.556929  0.429478  1
  B  B12  1  0.500000  0.443541  0.570123  1
  B  B13  1  0.500000  0.056549  0.070401  1
  B  B14  1  0.500000  0.943643  0.929525  1
  B  B15  1  0.500000  0.751036  0.417420  1
  B  B16  1  0.500000  0.249583  0.582797  1
  B  B17  1  0.500000  0.250482  0.083127  1
  B  B18  1  0.500000  0.749686  0.917115  1
  B  B19  1  0.500000  0.790928  0.266562  1
  B  B20  1  0.500000  0.208637  0.733454  1
  B  B21  1  0.500000  0.291610  0.233828  1
  B  B22  1  0.500000  0.708292  0.766498  1
  B  B23  1  0.500000  0.630534  0.184840  1
  B  B24  1  0.500000  0.369419  0.814265  1
  B  B25  1  0.500000  0.130726  0.314663  1
  B  B26  1  0.500000  0.869066  0.685563  1
  B  B27  1  0.500000  0.985416  0.214497  1
  B  B28  1  0.500000  0.014637  0.785407  1
  B  B29  1  0.500000  0.485999  0.285545  1
  B  B30  1  0.500000  0.514717  0.714506  1
  B  B31  1  0.500000  0.603510  0.029024  1
  B  B32  1  0.500000  0.396927  0.972168  1
  B  B33  1  0.500000  0.102888  0.471603  1
  B  B34  1  0.500000  0.896030  0.527466  1
  Ru  Ru35  1  0.000000  0.639848  0.319624  1
