# generated using pymatgen
data_Tb3ThAl4(Ga7Ir3)2
_symmetry_space_group_name_H-M   'P 1'
_cell_length_a   7.60662610
_cell_length_b   7.62057145
_cell_length_c   9.50418600
_cell_angle_alpha   90.00000000
_cell_angle_beta   90.00000000
_cell_angle_gamma   119.67191992
_symmetry_Int_Tables_number   1
_chemical_formula_structural   Tb3ThAl4(Ga7Ir3)2
_chemical_formula_sum   'Tb3 Th1 Al4 Ga14 Ir6'
_cell_volume   478.68680040
_cell_formula_units_Z   1
loop_
 _symmetry_equiv_pos_site_id
 _symmetry_equiv_pos_as_xyz
  1  'x, y, z'
loop_
 _atom_site_type_symbol
 _atom_site_label
 _atom_site_symmetry_multiplicity
 _atom_site_fract_x
 _atom_site_fract_y
 _atom_site_fract_z
 _atom_site_occupancy
  Tb  Tb0  1  0.998503  0.329749  0.750000  1
  Tb  Tb1  1  0.671729  0.999320  0.250000  1
  Tb  Tb2  1  0.329183  0.999041  0.750000  1
  Th  Th3  1  0.999064  0.669957  0.250000  1
  Al  Al4  1  0.330763  0.330791  0.556890  1
  Al  Al5  1  0.664246  0.667800  0.451368  1
  Al  Al6  1  0.664246  0.667800  0.048632  1
  Al  Al7  1  0.330763  0.330791  0.943110  1
  Ga  Ga8  1  0.129527  0.131982  0.250000  1
  Ga  Ga9  1  0.873764  0.876554  0.750000  1
  Ga  Ga10  1  0.000661  0.330173  0.077231  1
  Ga  Ga11  1  0.999547  0.664488  0.914230  1
  Ga  Ga12  1  0.999547  0.664488  0.585770  1
  Ga  Ga13  1  0.340986  0.005088  0.422592  1
  Ga  Ga14  1  0.000661  0.330173  0.422769  1
  Ga  Ga15  1  0.664608  0.001027  0.580477  1
  Ga  Ga16  1  0.664608  0.001027  0.919523  1
  Ga  Ga17  1  0.340986  0.005088  0.077408  1
  Ga  Ga18  1  0.352549  0.551556  0.250000  1
  Ga  Ga19  1  0.650340  0.447567  0.750000  1
  Ga  Ga20  1  0.545338  0.343750  0.250000  1
  Ga  Ga21  1  0.448466  0.653536  0.750000  1
  Ir  Ir22  1  0.671681  0.333123  0.000723  1
  Ir  Ir23  1  0.328239  0.668741  0.000725  1
  Ir  Ir24  1  0.328239  0.668741  0.499275  1
  Ir  Ir25  1  0.671681  0.333123  0.499277  1
  Ir  Ir26  1  0.000039  0.997264  0.001345  1
  Ir  Ir27  1  0.000039  0.997264  0.498655  1
