# generated using pymatgen
data_Sc2Be2SnIr5
_symmetry_space_group_name_H-M   'P 1'
_cell_length_a   9.58270900
_cell_length_b   9.58270900
_cell_length_c   3.21596600
_cell_angle_alpha   90.00000000
_cell_angle_beta   90.00000000
_cell_angle_gamma   90.00000000
_symmetry_Int_Tables_number   1
_chemical_formula_structural   Sc2Be2SnIr5
_chemical_formula_sum   'Sc4 Be4 Sn2 Ir10'
_cell_volume   295.31672852
_cell_formula_units_Z   2
loop_
 _symmetry_equiv_pos_site_id
 _symmetry_equiv_pos_as_xyz
  1  'x, y, z'
loop_
 _atom_site_type_symbol
 _atom_site_label
 _atom_site_symmetry_multiplicity
 _atom_site_fract_x
 _atom_site_fract_y
 _atom_site_fract_z
 _atom_site_occupancy
  Sc  Sc0  1  0.675214  0.175214  0.000000  1
  Sc  Sc1  1  0.324786  0.824786  0.000000  1
  Sc  Sc2  1  0.175214  0.324786  0.000000  1
  Sc  Sc3  1  0.824786  0.675214  0.000000  1
  Be  Be4  1  0.120901  0.620901  0.000000  1
  Be  Be5  1  0.879099  0.379099  0.000000  1
  Be  Be6  1  0.620901  0.879099  0.000000  1
  Be  Be7  1  0.379099  0.120901  0.000000  1
  Sn  Sn8  1  0.000000  0.000000  0.000000  1
  Sn  Sn9  1  0.500000  0.500000  0.000000  1
  Ir  Ir10  1  0.216986  0.070737  0.500000  1
  Ir  Ir11  1  0.783014  0.929263  0.500000  1
  Ir  Ir12  1  0.070737  0.783014  0.500000  1
  Ir  Ir13  1  0.716986  0.429263  0.500000  1
  Ir  Ir14  1  0.929263  0.216986  0.500000  1
  Ir  Ir15  1  0.283014  0.570737  0.500000  1
  Ir  Ir16  1  0.570737  0.716986  0.500000  1
  Ir  Ir17  1  0.429263  0.283014  0.500000  1
  Ir  Ir18  1  0.500000  0.000000  0.500000  1
  Ir  Ir19  1  0.000000  0.500000  0.500000  1
