# generated using pymatgen
data_Th2B10Pt
_symmetry_space_group_name_H-M   'P 1'
_cell_length_a   4.21068200
_cell_length_b   5.76513600
_cell_length_c   11.46182600
_cell_angle_alpha   90.00000000
_cell_angle_beta   90.00000000
_cell_angle_gamma   90.00000000
_symmetry_Int_Tables_number   1
_chemical_formula_structural   Th2B10Pt
_chemical_formula_sum   'Th4 B20 Pt2'
_cell_volume   278.23759566
_cell_formula_units_Z   2
loop_
 _symmetry_equiv_pos_site_id
 _symmetry_equiv_pos_as_xyz
  1  'x, y, z'
loop_
 _atom_site_type_symbol
 _atom_site_label
 _atom_site_symmetry_multiplicity
 _atom_site_fract_x
 _atom_site_fract_y
 _atom_site_fract_z
 _atom_site_occupancy
  Th  Th0  1  0.500000  0.306745  0.860332  1
  Th  Th1  1  0.500000  0.693255  0.139668  1
  Th  Th2  1  0.500000  0.806745  0.639668  1
  Th  Th3  1  0.500000  0.193255  0.360332  1
  B  B4  1  0.000000  0.115866  0.543967  1
  B  B5  1  0.000000  0.884134  0.456033  1
  B  B6  1  0.000000  0.615866  0.956033  1
  B  B7  1  0.000000  0.384134  0.043967  1
  B  B8  1  0.000000  0.140462  0.698235  1
  B  B9  1  0.000000  0.859538  0.301765  1
  B  B10  1  0.304007  0.216976  0.120209  1
  B  B11  1  0.304007  0.783024  0.879791  1
  B  B12  1  0.695993  0.716976  0.379791  1
  B  B13  1  0.695993  0.283024  0.620209  1
  B  B14  1  0.695993  0.783024  0.879791  1
  B  B15  1  0.695993  0.216976  0.120209  1
  B  B16  1  0.304007  0.283024  0.620209  1
  B  B17  1  0.304007  0.716976  0.379791  1
  B  B18  1  0.000000  0.052659  0.194322  1
  B  B19  1  0.000000  0.947341  0.805678  1
  B  B20  1  0.000000  0.552659  0.305678  1
  B  B21  1  0.000000  0.447341  0.694322  1
  B  B22  1  0.000000  0.359538  0.198235  1
  B  B23  1  0.000000  0.640462  0.801765  1
  Pt  Pt24  1  0.000000  0.500000  0.500000  1
  Pt  Pt25  1  0.000000  0.000000  0.000000  1
