# generated using pymatgen
data_Gd3Er3(BiO7)2
_symmetry_space_group_name_H-M   'P 1'
_cell_length_a   6.55337554
_cell_length_b   6.53939147
_cell_length_c   7.69585100
_cell_angle_alpha   106.90930894
_cell_angle_beta   89.73794690
_cell_angle_gamma   98.88025080
_symmetry_Int_Tables_number   1
_chemical_formula_structural   Gd3Er3(BiO7)2
_chemical_formula_sum   'Gd3 Er3 Bi2 O14'
_cell_volume   311.48139887
_cell_formula_units_Z   1
loop_
 _symmetry_equiv_pos_site_id
 _symmetry_equiv_pos_as_xyz
  1  'x, y, z'
loop_
 _atom_site_type_symbol
 _atom_site_label
 _atom_site_symmetry_multiplicity
 _atom_site_fract_x
 _atom_site_fract_y
 _atom_site_fract_z
 _atom_site_occupancy
  Gd  Gd0  1  0.727520  0.462285  0.115865  1
  Gd  Gd1  1  0.735064  0.477267  0.615491  1
  Gd  Gd2  1  0.263622  0.523575  0.386456  1
  Er  Er3  1  0.462130  0.005457  0.251509  1
  Er  Er4  1  0.536697  0.993574  0.748282  1
  Er  Er5  1  0.273169  0.539086  0.883393  1
  Bi  Bi6  1  0.001055  0.001709  0.501243  1
  Bi  Bi7  1  0.001806  0.000440  0.999120  1
  O  O8  1  0.443931  0.652527  0.164233  1
  O  O9  1  0.546393  0.346624  0.831925  1
  O  O10  1  0.303919  0.921836  0.951148  1
  O  O11  1  0.697428  0.073283  0.048619  1
  O  O12  1  0.301360  0.928386  0.514321  1
  O  O13  1  0.699893  0.071523  0.485184  1
  O  O14  1  0.543336  0.359808  0.344177  1
  O  O15  1  0.453843  0.640060  0.659723  1
  O  O16  1  0.929853  0.665728  0.958100  1
  O  O17  1  0.077494  0.333410  0.036130  1
  O  O18  1  0.071936  0.349840  0.624354  1
  O  O19  1  0.930587  0.652233  0.380567  1
  O  O20  1  0.870904  0.902640  0.725051  1
  O  O21  1  0.128060  0.098706  0.275108  1
