# generated using pymatgen
data_YHo(Tm5Os2)2
_symmetry_space_group_name_H-M   'P 1'
_cell_length_a   7.37166086
_cell_length_b   8.90832300
_cell_length_c   6.23425300
_cell_angle_alpha   90.00000000
_cell_angle_beta   90.13298654
_cell_angle_gamma   90.00000000
_symmetry_Int_Tables_number   1
_chemical_formula_structural   YHo(Tm5Os2)2
_chemical_formula_sum   'Y1 Ho1 Tm10 Os4'
_cell_volume   409.39690508
_cell_formula_units_Z   1
loop_
 _symmetry_equiv_pos_site_id
 _symmetry_equiv_pos_as_xyz
  1  'x, y, z'
loop_
 _atom_site_type_symbol
 _atom_site_label
 _atom_site_symmetry_multiplicity
 _atom_site_fract_x
 _atom_site_fract_y
 _atom_site_fract_z
 _atom_site_occupancy
  Y  Y0  1  0.961494  0.750000  0.372190  1
  Ho  Ho1  1  0.039043  0.250000  0.628409  1
  Tm  Tm2  1  0.459763  0.750000  0.128959  1
  Tm  Tm3  1  0.540269  0.250000  0.870683  1
  Tm  Tm4  1  0.175892  0.062849  0.164362  1
  Tm  Tm5  1  0.824252  0.937605  0.835669  1
  Tm  Tm6  1  0.327157  0.937841  0.667257  1
  Tm  Tm7  1  0.824252  0.562395  0.835669  1
  Tm  Tm8  1  0.672740  0.062704  0.332932  1
  Tm  Tm9  1  0.175892  0.437151  0.164362  1
  Tm  Tm10  1  0.672740  0.437296  0.332932  1
  Tm  Tm11  1  0.327157  0.562159  0.667257  1
  Os  Os12  1  0.382880  0.250000  0.461313  1
  Os  Os13  1  0.615802  0.750000  0.539896  1
  Os  Os14  1  0.118840  0.750000  0.957913  1
  Os  Os15  1  0.881829  0.250000  0.040200  1
