# generated using pymatgen
data_La13Pr3Cd4(OsRh)2
_symmetry_space_group_name_H-M   'P 1'
_cell_length_a   10.08400150
_cell_length_b   10.03267413
_cell_length_c   10.08400246
_cell_angle_alpha   60.19483644
_cell_angle_beta   60.39845785
_cell_angle_gamma   60.19483518
_symmetry_Int_Tables_number   1
_chemical_formula_structural   La13Pr3Cd4(OsRh)2
_chemical_formula_sum   'La13 Pr3 Cd4 Os2 Rh2'
_cell_volume   725.66927746
_cell_formula_units_Z   1
loop_
 _symmetry_equiv_pos_site_id
 _symmetry_equiv_pos_as_xyz
  1  'x, y, z'
loop_
 _atom_site_type_symbol
 _atom_site_label
 _atom_site_symmetry_multiplicity
 _atom_site_fract_x
 _atom_site_fract_y
 _atom_site_fract_z
 _atom_site_occupancy
  La  La0  1  0.691345  0.688830  0.308482  1
  La  La1  1  0.152233  0.153025  0.543370  1
  La  La2  1  0.308482  0.688830  0.691345  1
  La  La3  1  0.154633  0.154901  0.154633  1
  La  La4  1  0.543370  0.153025  0.152233  1
  La  La5  1  0.306694  0.693724  0.306694  1
  La  La6  1  0.309320  0.309342  0.692863  1
  La  La7  1  0.688303  0.310381  0.688303  1
  La  La8  1  0.936772  0.559760  0.557857  1
  La  La9  1  0.557857  0.559760  0.936772  1
  La  La10  1  0.153894  0.539085  0.153894  1
  La  La11  1  0.692863  0.309342  0.309320  1
  La  La12  1  0.939557  0.559369  0.939557  1
  Pr  Pr13  1  0.933646  0.941181  0.561202  1
  Pr  Pr14  1  0.562030  0.938599  0.562030  1
  Pr  Pr15  1  0.561202  0.941181  0.933646  1
  Cd  Cd16  1  0.239753  0.921110  0.919386  1
  Cd  Cd17  1  0.920498  0.921783  0.920498  1
  Cd  Cd18  1  0.919386  0.921110  0.239753  1
  Cd  Cd19  1  0.920482  0.237973  0.920482  1
  Os  Os20  1  0.918535  0.361026  0.363695  1
  Os  Os21  1  0.363695  0.361026  0.918535  1
  Rh  Rh22  1  0.362616  0.918161  0.362616  1
  Rh  Rh23  1  0.362833  0.357477  0.362833  1
