# generated using pymatgen
data_TmLu6Th(InRh)2
_symmetry_space_group_name_H-M   'P 1'
_cell_length_a   9.55362984
_cell_length_b   9.55362997
_cell_length_c   9.56132400
_cell_angle_alpha   59.97335563
_cell_angle_beta   59.97335515
_cell_angle_gamma   60.13487156
_symmetry_Int_Tables_number   1
_chemical_formula_structural   TmLu6Th(InRh)2
_chemical_formula_sum   'Tm2 Lu12 Th2 In4 Rh4'
_cell_volume   617.45484403
_cell_formula_units_Z   2
loop_
 _symmetry_equiv_pos_site_id
 _symmetry_equiv_pos_as_xyz
  1  'x, y, z'
loop_
 _atom_site_type_symbol
 _atom_site_label
 _atom_site_symmetry_multiplicity
 _atom_site_fract_x
 _atom_site_fract_y
 _atom_site_fract_z
 _atom_site_occupancy
  Tm  Tm0  1  0.603156  0.193721  0.601562  1
  Tm  Tm1  1  0.193721  0.603156  0.601562  1
  Lu  Lu2  1  0.062890  0.439516  0.437763  1
  Lu  Lu3  1  0.439516  0.062890  0.059832  1
  Lu  Lu4  1  0.439516  0.062890  0.437763  1
  Lu  Lu5  1  0.062890  0.439516  0.059832  1
  Lu  Lu6  1  0.436385  0.436385  0.063615  1
  Lu  Lu7  1  0.060328  0.060328  0.439672  1
  Lu  Lu8  1  0.185400  0.816139  0.813007  1
  Lu  Lu9  1  0.816139  0.185400  0.185454  1
  Lu  Lu10  1  0.816139  0.185400  0.813007  1
  Lu  Lu11  1  0.185400  0.816139  0.185454  1
  Lu  Lu12  1  0.815007  0.815007  0.184993  1
  Lu  Lu13  1  0.190809  0.190809  0.809191  1
  Th  Th14  1  0.596235  0.596235  0.600617  1
  Th  Th15  1  0.596235  0.596235  0.206913  1
  In  In16  1  0.835166  0.835166  0.833493  1
  In  In17  1  0.835166  0.835166  0.496175  1
  In  In18  1  0.834786  0.496978  0.834118  1
  In  In19  1  0.496978  0.834786  0.834118  1
  Rh  Rh20  1  0.390208  0.390208  0.395794  1
  Rh  Rh21  1  0.390208  0.390208  0.823788  1
  Rh  Rh22  1  0.393141  0.824577  0.391140  1
  Rh  Rh23  1  0.824577  0.393141  0.391140  1
