# generated using pymatgen
data_Rb6Li2Sn3Pb5
_symmetry_space_group_name_H-M   'P 1'
_cell_length_a   9.05992512
_cell_length_b   9.05992478
_cell_length_c   10.77266245
_cell_angle_alpha   89.88341207
_cell_angle_beta   90.11658663
_cell_angle_gamma   134.09856489
_symmetry_Int_Tables_number   1
_chemical_formula_structural   Rb6Li2Sn3Pb5
_chemical_formula_sum   'Rb6 Li2 Sn3 Pb5'
_cell_volume   635.01292322
_cell_formula_units_Z   1
loop_
 _symmetry_equiv_pos_site_id
 _symmetry_equiv_pos_as_xyz
  1  'x, y, z'
loop_
 _atom_site_type_symbol
 _atom_site_label
 _atom_site_symmetry_multiplicity
 _atom_site_fract_x
 _atom_site_fract_y
 _atom_site_fract_z
 _atom_site_occupancy
  Rb  Rb0  1  0.226983  0.773017  0.248303  1
  Rb  Rb1  1  0.771288  0.228712  0.754450  1
  Rb  Rb2  1  0.617913  0.382087  0.047617  1
  Rb  Rb3  1  0.382712  0.617288  0.953103  1
  Rb  Rb4  1  0.383122  0.616878  0.547814  1
  Rb  Rb5  1  0.614330  0.385670  0.453029  1
  Li  Li6  1  0.000406  0.999594  0.999386  1
  Li  Li7  1  0.002292  0.997708  0.498391  1
  Sn  Sn8  1  0.837233  0.162767  0.110199  1
  Sn  Sn9  1  0.163955  0.836045  0.887503  1
  Sn  Sn10  1  0.165252  0.834748  0.613250  1
  Pb  Pb11  1  0.198277  0.270520  0.248656  1
  Pb  Pb12  1  0.802905  0.728970  0.749292  1
  Pb  Pb13  1  0.729480  0.801723  0.248656  1
  Pb  Pb14  1  0.271030  0.197095  0.749292  1
  Pb  Pb15  1  0.832821  0.167179  0.391059  1
