# generated using pymatgen
data_Ca2La2YRh2
_symmetry_space_group_name_H-M   'P 1'
_cell_length_a   6.64871552
_cell_length_b   7.35218553
_cell_length_c   9.01893500
_cell_angle_alpha   96.27604025
_cell_angle_beta   111.62915749
_cell_angle_gamma   90.00000116
_symmetry_Int_Tables_number   1
_chemical_formula_structural   Ca2La2YRh2
_chemical_formula_sum   'Ca4 La4 Y2 Rh4'
_cell_volume   406.98317725
_cell_formula_units_Z   2
loop_
 _symmetry_equiv_pos_site_id
 _symmetry_equiv_pos_as_xyz
  1  'x, y, z'
loop_
 _atom_site_type_symbol
 _atom_site_label
 _atom_site_symmetry_multiplicity
 _atom_site_fract_x
 _atom_site_fract_y
 _atom_site_fract_z
 _atom_site_occupancy
  Ca  Ca0  1  0.632562  0.815448  0.422885  1
  Ca  Ca1  1  0.209678  0.684552  0.577115  1
  Ca  Ca2  1  0.367438  0.184552  0.577115  1
  Ca  Ca3  1  0.790322  0.315448  0.422885  1
  La  La4  1  0.986103  0.913074  0.185183  1
  La  La5  1  0.800921  0.586926  0.814817  1
  La  La6  1  0.013897  0.086926  0.814817  1
  La  La7  1  0.199079  0.413074  0.185183  1
  Y  Y8  1  0.427276  0.750000  0.000000  1
  Y  Y9  1  0.572724  0.250000  0.000000  1
  Rh  Rh10  1  0.817482  0.579477  0.194848  1
  Rh  Rh11  1  0.622634  0.920523  0.805152  1
  Rh  Rh12  1  0.182518  0.420523  0.805152  1
  Rh  Rh13  1  0.377366  0.079477  0.194848  1
