# generated using pymatgen
data_Sc6UTc12W5
_symmetry_space_group_name_H-M   'P 1'
_cell_length_a   4.49712400
_cell_length_b   6.36962100
_cell_length_c   13.51867400
_cell_angle_alpha   90.00088578
_cell_angle_beta   90.00018243
_cell_angle_gamma   89.99976840
_symmetry_Int_Tables_number   1
_chemical_formula_structural   Sc6UTc12W5
_chemical_formula_sum   'Sc6 U1 Tc12 W5'
_cell_volume   387.24208509
_cell_formula_units_Z   1
loop_
 _symmetry_equiv_pos_site_id
 _symmetry_equiv_pos_as_xyz
  1  'x, y, z'
loop_
 _atom_site_type_symbol
 _atom_site_label
 _atom_site_symmetry_multiplicity
 _atom_site_fract_x
 _atom_site_fract_y
 _atom_site_fract_z
 _atom_site_occupancy
  Sc  Sc0  1  0.000003  0.999975  0.999994  1
  Sc  Sc1  1  0.499966  0.500012  0.175304  1
  Sc  Sc2  1  0.999959  0.999988  0.334333  1
  Sc  Sc3  1  0.500007  0.500013  0.500003  1
  Sc  Sc4  1  0.000048  0.999986  0.665668  1
  Sc  Sc5  1  0.500044  0.500021  0.824692  1
  U  U6  1  0.000003  0.500020  0.999997  1
  Tc  Tc7  1  0.500004  0.254849  0.000003  1
  Tc  Tc8  1  0.500001  0.745149  0.000001  1
  Tc  Tc9  1  0.999976  0.250644  0.165833  1
  Tc  Tc10  1  0.999976  0.749358  0.165835  1
  Tc  Tc11  1  0.499971  0.248302  0.334014  1
  Tc  Tc12  1  0.499971  0.751700  0.334012  1
  Tc  Tc13  1  0.000009  0.251295  0.499998  1
  Tc  Tc14  1  0.000009  0.748706  0.499998  1
  Tc  Tc15  1  0.500042  0.248303  0.665988  1
  Tc  Tc16  1  0.500040  0.751692  0.665986  1
  Tc  Tc17  1  0.000025  0.250639  0.834167  1
  Tc  Tc18  1  0.000025  0.749356  0.834171  1
  W  W19  1  0.499972  0.999989  0.172117  1
  W  W20  1  0.999964  0.500013  0.337679  1
  W  W21  1  0.500005  0.999988  0.500001  1
  W  W22  1  0.000047  0.500013  0.662319  1
  W  W23  1  0.500033  0.999985  0.827883  1
