# generated using pymatgen
data_PrHo3Ir2(RhO7)2
_symmetry_space_group_name_H-M   'P 1'
_cell_length_a   7.30402492
_cell_length_b   7.23481731
_cell_length_c   7.22411716
_cell_angle_alpha   59.95099249
_cell_angle_beta   60.36990680
_cell_angle_gamma   60.31294426
_symmetry_Int_Tables_number   1
_chemical_formula_structural   PrHo3Ir2(RhO7)2
_chemical_formula_sum   'Pr1 Ho3 Ir2 Rh2 O14'
_cell_volume   271.21812262
_cell_formula_units_Z   1
loop_
 _symmetry_equiv_pos_site_id
 _symmetry_equiv_pos_as_xyz
  1  'x, y, z'
loop_
 _atom_site_type_symbol
 _atom_site_label
 _atom_site_symmetry_multiplicity
 _atom_site_fract_x
 _atom_site_fract_y
 _atom_site_fract_z
 _atom_site_occupancy
  Pr  Pr0  1  0.625000  0.125000  0.125000  1
  Ho  Ho1  1  0.125000  0.125000  0.625000  1
  Ho  Ho2  1  0.125000  0.125000  0.125000  1
  Ho  Ho3  1  0.125000  0.625000  0.125000  1
  Ir  Ir4  1  0.125000  0.625000  0.625000  1
  Ir  Ir5  1  0.625000  0.625000  0.125000  1
  Rh  Rh6  1  0.625000  0.625000  0.625000  1
  Rh  Rh7  1  0.625000  0.125000  0.625000  1
  O  O8  1  0.964224  0.541941  0.535509  1
  O  O9  1  0.285776  0.291673  0.714491  1
  O  O10  1  0.958987  0.541531  0.957952  1
  O  O11  1  0.723440  0.292405  0.286553  1
  O  O12  1  0.526560  0.552398  0.963447  1
  O  O13  1  0.524934  0.964753  0.545560  1
  O  O14  1  0.526560  0.957595  0.963447  1
  O  O15  1  0.236786  0.255331  0.252552  1
  O  O16  1  0.285776  0.708059  0.714491  1
  O  O17  1  0.725066  0.285247  0.704440  1
  O  O18  1  0.013214  0.994669  0.997448  1
  O  O19  1  0.964224  0.958327  0.535509  1
  O  O20  1  0.291013  0.708469  0.292048  1
  O  O21  1  0.723440  0.697602  0.286553  1
