# generated using pymatgen
data_PrDy(Cd2Sn)2
_symmetry_space_group_name_H-M   'P 1'
_cell_length_a   4.89752600
_cell_length_b   4.49417700
_cell_length_c   9.16311700
_cell_angle_alpha   90.00000000
_cell_angle_beta   90.00000000
_cell_angle_gamma   90.00000000
_symmetry_Int_Tables_number   1
_chemical_formula_structural   PrDy(Cd2Sn)2
_chemical_formula_sum   'Pr1 Dy1 Cd4 Sn2'
_cell_volume   201.68340040
_cell_formula_units_Z   1
loop_
 _symmetry_equiv_pos_site_id
 _symmetry_equiv_pos_as_xyz
  1  'x, y, z'
loop_
 _atom_site_type_symbol
 _atom_site_label
 _atom_site_symmetry_multiplicity
 _atom_site_fract_x
 _atom_site_fract_y
 _atom_site_fract_z
 _atom_site_occupancy
  Pr  Pr0  1  0.000000  0.000000  0.000000  1
  Dy  Dy1  1  0.000000  0.000000  0.500000  1
  Cd  Cd2  1  0.500000  0.500000  0.000000  1
  Cd  Cd3  1  0.500000  0.500000  0.500000  1
  Cd  Cd4  1  0.500000  0.000000  0.256422  1
  Cd  Cd5  1  0.500000  0.000000  0.743578  1
  Sn  Sn6  1  0.000000  0.500000  0.257589  1
  Sn  Sn7  1  0.000000  0.500000  0.742411  1
