# generated using pymatgen
data_CeZrB6Os
_symmetry_space_group_name_H-M   'P 1'
_cell_length_a   3.60649000
_cell_length_b   9.10860200
_cell_length_c   11.50081800
_cell_angle_alpha   90.00000000
_cell_angle_beta   90.00000000
_cell_angle_gamma   90.00000000
_symmetry_Int_Tables_number   1
_chemical_formula_structural   CeZrB6Os
_chemical_formula_sum   'Ce4 Zr4 B24 Os4'
_cell_volume   377.80281468
_cell_formula_units_Z   4
loop_
 _symmetry_equiv_pos_site_id
 _symmetry_equiv_pos_as_xyz
  1  'x, y, z'
loop_
 _atom_site_type_symbol
 _atom_site_label
 _atom_site_symmetry_multiplicity
 _atom_site_fract_x
 _atom_site_fract_y
 _atom_site_fract_z
 _atom_site_occupancy
  Ce  Ce0  1  0.000000  0.323968  0.413710  1
  Ce  Ce1  1  0.000000  0.676032  0.586290  1
  Ce  Ce2  1  0.000000  0.823968  0.086290  1
  Ce  Ce3  1  0.000000  0.176032  0.913710  1
  Zr  Zr4  1  0.000000  0.945965  0.374491  1
  Zr  Zr5  1  0.000000  0.054035  0.625509  1
  Zr  Zr6  1  0.000000  0.445965  0.125509  1
  Zr  Zr7  1  0.000000  0.554035  0.874491  1
  B  B8  1  0.500000  0.554577  0.433132  1
  B  B9  1  0.500000  0.445423  0.566868  1
  B  B10  1  0.500000  0.054577  0.066868  1
  B  B11  1  0.500000  0.945423  0.933132  1
  B  B12  1  0.500000  0.752666  0.418494  1
  B  B13  1  0.500000  0.247334  0.581506  1
  B  B14  1  0.500000  0.252666  0.081506  1
  B  B15  1  0.500000  0.747334  0.918494  1
  B  B16  1  0.500000  0.795885  0.264329  1
  B  B17  1  0.500000  0.204115  0.735671  1
  B  B18  1  0.500000  0.295885  0.235671  1
  B  B19  1  0.500000  0.704115  0.764329  1
  B  B20  1  0.500000  0.631187  0.183061  1
  B  B21  1  0.500000  0.368813  0.816939  1
  B  B22  1  0.500000  0.131187  0.316939  1
  B  B23  1  0.500000  0.868813  0.683061  1
  B  B24  1  0.500000  0.982845  0.213954  1
  B  B25  1  0.500000  0.017155  0.786046  1
  B  B26  1  0.500000  0.482845  0.286046  1
  B  B27  1  0.500000  0.517155  0.713954  1
  B  B28  1  0.500000  0.601724  0.027415  1
  B  B29  1  0.500000  0.398276  0.972585  1
  B  B30  1  0.500000  0.101724  0.472585  1
  B  B31  1  0.500000  0.898276  0.527415  1
  Os  Os32  1  0.000000  0.642848  0.319802  1
  Os  Os33  1  0.000000  0.357152  0.680198  1
  Os  Os34  1  0.000000  0.142848  0.180198  1
  Os  Os35  1  0.000000  0.857152  0.819802  1
