# generated using pymatgen
data_NbZn3Rh4
_symmetry_space_group_name_H-M   'P 1'
_cell_length_a   7.47726200
_cell_length_b   7.47726277
_cell_length_c   7.47726272
_cell_angle_alpha   33.92423430
_cell_angle_beta   33.92422530
_cell_angle_gamma   33.92424640
_symmetry_Int_Tables_number   1
_chemical_formula_structural   NbZn3Rh4
_chemical_formula_sum   'Nb1 Zn3 Rh4'
_cell_volume   116.05189029
_cell_formula_units_Z   1
loop_
 _symmetry_equiv_pos_site_id
 _symmetry_equiv_pos_as_xyz
  1  'x, y, z'
loop_
 _atom_site_type_symbol
 _atom_site_label
 _atom_site_symmetry_multiplicity
 _atom_site_fract_x
 _atom_site_fract_y
 _atom_site_fract_z
 _atom_site_occupancy
  Nb  Nb0  1  0.000000  0.000000  0.000000  1
  Zn  Zn1  1  0.248748  0.248748  0.248748  1
  Zn  Zn2  1  0.751252  0.751252  0.751252  1
  Zn  Zn3  1  0.500000  0.500000  0.500000  1
  Rh  Rh4  1  0.376095  0.376095  0.376095  1
  Rh  Rh5  1  0.875890  0.875890  0.875890  1
  Rh  Rh6  1  0.623905  0.623905  0.623905  1
  Rh  Rh7  1  0.124110  0.124110  0.124110  1
