# generated using pymatgen
data_Tb16Cd2InHgIr4
_symmetry_space_group_name_H-M   'P 1'
_cell_length_a   9.66743711
_cell_length_b   9.67313454
_cell_length_c   9.67606233
_cell_angle_alpha   60.02703189
_cell_angle_beta   60.02948225
_cell_angle_gamma   60.01948508
_symmetry_Int_Tables_number   1
_chemical_formula_structural   Tb16Cd2InHgIr4
_chemical_formula_sum   'Tb16 Cd2 In1 Hg1 Ir4'
_cell_volume   640.19395331
_cell_formula_units_Z   1
loop_
 _symmetry_equiv_pos_site_id
 _symmetry_equiv_pos_as_xyz
  1  'x, y, z'
loop_
 _atom_site_type_symbol
 _atom_site_label
 _atom_site_symmetry_multiplicity
 _atom_site_fract_x
 _atom_site_fract_y
 _atom_site_fract_z
 _atom_site_occupancy
  Tb  Tb0  1  0.099448  0.701552  0.099552  1
  Tb  Tb1  1  0.940483  0.939305  0.560006  1
  Tb  Tb2  1  0.942393  0.558817  0.939143  1
  Tb  Tb3  1  0.311952  0.690663  0.310214  1
  Tb  Tb4  1  0.939324  0.560345  0.561006  1
  Tb  Tb5  1  0.311889  0.312060  0.687791  1
  Tb  Tb6  1  0.099300  0.099739  0.099419  1
  Tb  Tb7  1  0.559645  0.558817  0.939143  1
  Tb  Tb8  1  0.099405  0.099857  0.701334  1
  Tb  Tb9  1  0.688260  0.312060  0.687791  1
  Tb  Tb10  1  0.687170  0.690663  0.310214  1
  Tb  Tb11  1  0.688327  0.312437  0.310907  1
  Tb  Tb12  1  0.311326  0.691281  0.686067  1
  Tb  Tb13  1  0.560206  0.939305  0.560006  1
  Tb  Tb14  1  0.701543  0.099739  0.099419  1
  Tb  Tb15  1  0.558890  0.942173  0.940046  1
  Cd  Cd16  1  0.331111  0.331374  0.332039  1
  Cd  Cd17  1  0.005475  0.331374  0.332039  1
  In  In18  1  0.331454  0.330803  0.006287  1
  Hg  Hg19  1  0.334409  0.995513  0.335669  1
  Ir  Ir20  1  0.890839  0.892070  0.892409  1
  Ir  Ir21  1  0.891437  0.892837  0.324290  1
  Ir  Ir22  1  0.324682  0.892070  0.892409  1
  Ir  Ir23  1  0.891028  0.325143  0.892800  1
