# generated using pymatgen
data_Hf3ScMn7Cr
_symmetry_space_group_name_H-M   'P 1'
_cell_length_a   4.98795300
_cell_length_b   4.86930469
_cell_length_c   8.16279412
_cell_angle_alpha   90.01703777
_cell_angle_beta   90.00000000
_cell_angle_gamma   120.80936054
_symmetry_Int_Tables_number   1
_chemical_formula_structural   Hf3ScMn7Cr
_chemical_formula_sum   'Hf3 Sc1 Mn7 Cr1'
_cell_volume   170.27806439
_cell_formula_units_Z   1
loop_
 _symmetry_equiv_pos_site_id
 _symmetry_equiv_pos_as_xyz
  1  'x, y, z'
loop_
 _atom_site_type_symbol
 _atom_site_label
 _atom_site_symmetry_multiplicity
 _atom_site_fract_x
 _atom_site_fract_y
 _atom_site_fract_z
 _atom_site_occupancy
  Hf  Hf0  1  0.667721  0.335442  0.937493  1
  Hf  Hf1  1  0.667621  0.335241  0.560969  1
  Hf  Hf2  1  0.333129  0.666258  0.064955  1
  Sc  Sc3  1  0.333169  0.666338  0.436404  1
  Mn  Mn4  1  0.832458  0.174519  0.249549  1
  Mn  Mn5  1  0.342060  0.174519  0.249549  1
  Mn  Mn6  1  0.657821  0.826368  0.750535  1
  Mn  Mn7  1  0.999818  0.999635  0.002264  1
  Mn  Mn8  1  0.999502  0.999003  0.497825  1
  Mn  Mn9  1  0.831344  0.662689  0.249679  1
  Mn  Mn10  1  0.168547  0.826368  0.750535  1
  Cr  Cr11  1  0.166809  0.333619  0.750242  1
