# generated using pymatgen
data_Er2Si2NiPt2
_symmetry_space_group_name_H-M   'P 1'
_cell_length_a   4.01433600
_cell_length_b   6.69196900
_cell_length_c   8.77631000
_cell_angle_alpha   90.00000000
_cell_angle_beta   90.00000000
_cell_angle_gamma   90.00000000
_symmetry_Int_Tables_number   1
_chemical_formula_structural   Er2Si2NiPt2
_chemical_formula_sum   'Er4 Si4 Ni2 Pt4'
_cell_volume   235.76514249
_cell_formula_units_Z   2
loop_
 _symmetry_equiv_pos_site_id
 _symmetry_equiv_pos_as_xyz
  1  'x, y, z'
loop_
 _atom_site_type_symbol
 _atom_site_label
 _atom_site_symmetry_multiplicity
 _atom_site_fract_x
 _atom_site_fract_y
 _atom_site_fract_z
 _atom_site_occupancy
  Er  Er0  1  0.000000  0.879557  0.328185  1
  Er  Er1  1  0.000000  0.120443  0.671815  1
  Er  Er2  1  0.000000  0.379557  0.171815  1
  Er  Er3  1  0.000000  0.620443  0.828185  1
  Si  Si4  1  0.500000  0.567876  0.362367  1
  Si  Si5  1  0.500000  0.432124  0.637633  1
  Si  Si6  1  0.500000  0.067876  0.137633  1
  Si  Si7  1  0.500000  0.932124  0.862367  1
  Ni  Ni8  1  0.000000  0.500000  0.500000  1
  Ni  Ni9  1  0.000000  0.000000  0.000000  1
  Pt  Pt10  1  0.500000  0.695729  0.088479  1
  Pt  Pt11  1  0.500000  0.304271  0.911521  1
  Pt  Pt12  1  0.500000  0.195729  0.411521  1
  Pt  Pt13  1  0.500000  0.804271  0.588479  1
