# generated using pymatgen
data_MnAl5(PdPt4)2
_symmetry_space_group_name_H-M   'P 1'
_cell_length_a   4.04727900
_cell_length_b   5.47459394
_cell_length_c   10.75643654
_cell_angle_alpha   90.24048634
_cell_angle_beta   90.00000000
_cell_angle_gamma   90.00000000
_symmetry_Int_Tables_number   1
_chemical_formula_structural   MnAl5(PdPt4)2
_chemical_formula_sum   'Mn1 Al5 Pd2 Pt8'
_cell_volume   238.33051423
_cell_formula_units_Z   1
loop_
 _symmetry_equiv_pos_site_id
 _symmetry_equiv_pos_as_xyz
  1  'x, y, z'
loop_
 _atom_site_type_symbol
 _atom_site_label
 _atom_site_symmetry_multiplicity
 _atom_site_fract_x
 _atom_site_fract_y
 _atom_site_fract_z
 _atom_site_occupancy
  Mn  Mn0  1  0.500000  0.186910  0.637470  1
  Al  Al1  1  0.500000  0.821421  0.360817  1
  Al  Al2  1  0.500000  0.683572  0.857164  1
  Al  Al3  1  0.500000  0.321536  0.139659  1
  Al  Al4  1  0.000000  0.482818  0.504608  1
  Al  Al5  1  0.000000  0.996167  0.998421  1
  Pd  Pd6  1  0.000000  0.439636  0.742684  1
  Pd  Pd7  1  0.000000  0.577071  0.268606  1
  Pt  Pt8  1  0.500000  0.299118  0.388759  1
  Pt  Pt9  1  0.500000  0.694754  0.607048  1
  Pt  Pt10  1  0.500000  0.797746  0.108703  1
  Pt  Pt11  1  0.500000  0.202388  0.894495  1
  Pt  Pt12  1  0.000000  0.936956  0.762967  1
  Pt  Pt13  1  0.000000  0.077157  0.231042  1
  Pt  Pt14  1  0.000000  0.498496  0.003567  1
  Pt  Pt15  1  0.000000  0.984250  0.493993  1
