# generated using pymatgen
data_Sr5AcSb6
_symmetry_space_group_name_H-M   'P 1'
_cell_length_a   8.77455300
_cell_length_b   8.79021321
_cell_length_c   6.67359300
_cell_angle_alpha   90.00000000
_cell_angle_beta   90.00000000
_cell_angle_gamma   119.94108803
_symmetry_Int_Tables_number   1
_chemical_formula_structural   Sr5AcSb6
_chemical_formula_sum   'Sr5 Ac1 Sb6'
_cell_volume   446.03841730
_cell_formula_units_Z   1
loop_
 _symmetry_equiv_pos_site_id
 _symmetry_equiv_pos_as_xyz
  1  'x, y, z'
loop_
 _atom_site_type_symbol
 _atom_site_label
 _atom_site_symmetry_multiplicity
 _atom_site_fract_x
 _atom_site_fract_y
 _atom_site_fract_z
 _atom_site_occupancy
  Sr  Sr0  1  0.324696  0.324481  0.000000  1
  Sr  Sr1  1  0.000215  0.675519  0.000000  1
  Sr  Sr2  1  0.334886  0.000000  0.500000  1
  Sr  Sr3  1  0.004884  0.343676  0.500000  1
  Sr  Sr4  1  0.661209  0.656324  0.500000  1
  Ac  Ac5  1  0.674566  0.000000  0.000000  1
  Sb  Sb6  1  0.667076  0.332269  0.241011  1
  Sb  Sb7  1  0.334807  0.667731  0.241011  1
  Sb  Sb8  1  0.997890  0.000000  0.264656  1
  Sb  Sb9  1  0.997890  0.000000  0.735345  1
  Sb  Sb10  1  0.667076  0.332269  0.758990  1
  Sb  Sb11  1  0.334807  0.667731  0.758990  1
