# generated using pymatgen
data_Y12Al4Co7Si4Rh
_symmetry_space_group_name_H-M   'P 1'
_cell_length_a   5.49920368
_cell_length_b   7.85457246
_cell_length_c   12.87431176
_cell_angle_alpha   90.01070251
_cell_angle_beta   90.10319698
_cell_angle_gamma   90.15106479
_symmetry_Int_Tables_number   1
_chemical_formula_structural   Y12Al4Co7Si4Rh
_chemical_formula_sum   'Y12 Al4 Co7 Si4 Rh1'
_cell_volume   556.08881000
_cell_formula_units_Z   1
loop_
 _symmetry_equiv_pos_site_id
 _symmetry_equiv_pos_as_xyz
  1  'x, y, z'
loop_
 _atom_site_type_symbol
 _atom_site_label
 _atom_site_symmetry_multiplicity
 _atom_site_fract_x
 _atom_site_fract_y
 _atom_site_fract_z
 _atom_site_occupancy
  Y  Y0  1  0.148604  0.602527  0.099939  1
  Y  Y1  1  0.147746  0.899762  0.898175  1
  Y  Y2  1  0.852925  0.098721  0.398279  1
  Y  Y3  1  0.856480  0.397550  0.604475  1
  Y  Y4  1  0.854509  0.397933  0.898868  1
  Y  Y5  1  0.854383  0.098343  0.099914  1
  Y  Y6  1  0.144314  0.899439  0.602386  1
  Y  Y7  1  0.145412  0.604467  0.398196  1
  Y  Y8  1  0.365290  0.242094  0.248201  1
  Y  Y9  1  0.364596  0.257205  0.751046  1
  Y  Y10  1  0.636909  0.744309  0.247562  1
  Y  Y11  1  0.636194  0.755539  0.750913  1
  Al  Al12  1  0.382093  0.249929  0.999356  1
  Al  Al13  1  0.614712  0.756516  0.502988  1
  Al  Al14  1  0.619728  0.750373  0.999318  1
  Al  Al15  1  0.375792  0.245661  0.502601  1
  Co  Co16  1  0.642660  0.471250  0.090727  1
  Co  Co17  1  0.641303  0.028876  0.907799  1
  Co  Co18  1  0.355744  0.970322  0.407812  1
  Co  Co19  1  0.354069  0.528986  0.593750  1
  Co  Co20  1  0.358110  0.529902  0.908167  1
  Co  Co21  1  0.358308  0.970282  0.091979  1
  Co  Co22  1  0.642233  0.032011  0.593598  1
  Si  Si23  1  0.855112  0.392163  0.244179  1
  Si  Si24  1  0.847434  0.104405  0.751233  1
  Si  Si25  1  0.152764  0.895000  0.249519  1
  Si  Si26  1  0.151683  0.604995  0.750917  1
  Rh  Rh27  1  0.640892  0.471438  0.408102  1
