# generated using pymatgen
data_Na4In7(GaTe4)5
_symmetry_space_group_name_H-M   'P 1'
_cell_length_a   10.87016187
_cell_length_b   10.83293456
_cell_length_c   10.83629840
_cell_angle_alpha   88.87716068
_cell_angle_beta   89.37069905
_cell_angle_gamma   90.94793616
_symmetry_Int_Tables_number   1
_chemical_formula_structural   Na4In7(GaTe4)5
_chemical_formula_sum   'Na4 In7 Ga5 Te20'
_cell_volume   1275.53523787
_cell_formula_units_Z   1
loop_
 _symmetry_equiv_pos_site_id
 _symmetry_equiv_pos_as_xyz
  1  'x, y, z'
loop_
 _atom_site_type_symbol
 _atom_site_label
 _atom_site_symmetry_multiplicity
 _atom_site_fract_x
 _atom_site_fract_y
 _atom_site_fract_z
 _atom_site_occupancy
  Na  Na0  1  0.257275  0.999985  0.257359  1
  Na  Na1  1  0.001185  0.742182  0.742251  1
  Na  Na2  1  0.742874  0.257562  0.000157  1
  Na  Na3  1  0.499728  0.499786  0.499607  1
  In  In4  1  0.426469  0.122533  0.838864  1
  In  In5  1  0.121290  0.161208  0.572614  1
  In  In6  1  0.160290  0.428117  0.878305  1
  In  In7  1  0.878482  0.572567  0.160773  1
  In  In8  1  0.571897  0.838046  0.123071  1
  In  In9  1  0.840050  0.878204  0.425529  1
  In  In10  1  0.657553  0.833495  0.745292  1
  Ga  Ga11  1  0.834069  0.254506  0.345077  1
  Ga  Ga12  1  0.254304  0.654568  0.166696  1
  Ga  Ga13  1  0.165986  0.345328  0.254571  1
  Ga  Ga14  1  0.343450  0.745410  0.834516  1
  Ga  Ga15  1  0.747142  0.168430  0.655116  1
  Te  Te16  1  0.999572  0.181897  0.182133  1
  Te  Te17  1  0.829476  0.010504  0.822543  1
  Te  Te18  1  0.833434  0.834451  0.164038  1
  Te  Te19  1  0.165932  0.167192  0.834562  1
  Te  Te20  1  0.181114  0.818406  0.999940  1
  Te  Te21  1  0.914166  0.500642  0.914041  1
  Te  Te22  1  0.500276  0.085295  0.085564  1
  Te  Te23  1  0.085563  0.914309  0.500338  1
  Te  Te24  1  0.579124  0.316144  0.743809  1
  Te  Te25  1  0.315765  0.254849  0.421506  1
  Te  Te26  1  0.255118  0.579103  0.683880  1
  Te  Te27  1  0.684171  0.420698  0.254144  1
  Te  Te28  1  0.420153  0.744782  0.317539  1
  Te  Te29  1  0.752363  0.675069  0.568934  1
  Te  Te30  1  0.421573  0.923357  0.670877  1
  Te  Te31  1  0.921978  0.328875  0.565454  1
  Te  Te32  1  0.326694  0.433016  0.079813  1
  Te  Te33  1  0.079297  0.566471  0.327482  1
  Te  Te34  1  0.558768  0.664540  0.929187  1
  Te  Te35  1  0.673420  0.078475  0.434415  1
