# generated using pymatgen
data_Mg2ZrUNi8
_symmetry_space_group_name_H-M   'P 1'
_cell_length_a   4.87054200
_cell_length_b   4.87054171
_cell_length_c   8.44420871
_cell_angle_alpha   73.23808283
_cell_angle_beta   90.00000000
_cell_angle_gamma   120.00000194
_symmetry_Int_Tables_number   1
_chemical_formula_structural   Mg2ZrUNi8
_chemical_formula_sum   'Mg2 Zr1 U1 Ni8'
_cell_volume   163.57632541
_cell_formula_units_Z   1
loop_
 _symmetry_equiv_pos_site_id
 _symmetry_equiv_pos_as_xyz
  1  'x, y, z'
loop_
 _atom_site_type_symbol
 _atom_site_label
 _atom_site_symmetry_multiplicity
 _atom_site_fract_x
 _atom_site_fract_y
 _atom_site_fract_z
 _atom_site_occupancy
  Mg  Mg0  1  0.872342  0.744686  0.382972  1
  Mg  Mg1  1  0.377998  0.755996  0.866006  1
  Zr  Zr2  1  0.500416  0.000831  0.498752  1
  U  U3  1  0.999749  0.999499  0.000751  1
  Ni  Ni4  1  0.436015  0.376310  0.187675  1
  Ni  Ni5  1  0.936779  0.374534  0.688689  1
  Ni  Ni6  1  0.436015  0.872029  0.187675  1
  Ni  Ni7  1  0.936779  0.873556  0.688689  1
  Ni  Ni8  1  0.187758  0.375516  0.436727  1
  Ni  Ni9  1  0.688101  0.376201  0.935698  1
  Ni  Ni10  1  0.940295  0.376310  0.187675  1
  Ni  Ni11  1  0.437754  0.374534  0.688689  1
