# generated using pymatgen
data_Zn3Co5Si8(PbO4)8
_symmetry_space_group_name_H-M   'P 1'
_cell_length_a   5.14421754
_cell_length_b   8.38447438
_cell_length_c   19.33696994
_cell_angle_alpha   90.03190278
_cell_angle_beta   90.04976379
_cell_angle_gamma   89.98656842
_symmetry_Int_Tables_number   1
_chemical_formula_structural   Zn3Co5Si8(PbO4)8
_chemical_formula_sum   'Zn3 Co5 Si8 Pb8 O32'
_cell_volume   834.03321662
_cell_formula_units_Z   1
loop_
 _symmetry_equiv_pos_site_id
 _symmetry_equiv_pos_as_xyz
  1  'x, y, z'
loop_
 _atom_site_type_symbol
 _atom_site_label
 _atom_site_symmetry_multiplicity
 _atom_site_fract_x
 _atom_site_fract_y
 _atom_site_fract_z
 _atom_site_occupancy
  Zn  Zn0  1  0.218683  0.680230  0.655897  1
  Zn  Zn1  1  0.218698  0.180581  0.844187  1
  Zn  Zn2  1  0.718049  0.819116  0.155647  1
  Co  Co3  1  0.721855  0.001758  0.442331  1
  Co  Co4  1  0.221749  0.998858  0.558251  1
  Co  Co5  1  0.220775  0.499537  0.942072  1
  Co  Co6  1  0.720531  0.499875  0.057825  1
  Co  Co7  1  0.718102  0.319469  0.344327  1
  Si  Si8  1  0.211352  0.229855  0.427643  1
  Si  Si9  1  0.710682  0.769358  0.572481  1
  Si  Si10  1  0.711064  0.269470  0.927398  1
  Si  Si11  1  0.210446  0.729917  0.072342  1
  Si  Si12  1  0.723353  0.701663  0.322152  1
  Si  Si13  1  0.225491  0.299566  0.677933  1
  Si  Si14  1  0.225657  0.799867  0.822253  1
  Si  Si15  1  0.728762  0.200154  0.177724  1
  Pb  Pb16  1  0.286929  0.647225  0.440806  1
  Pb  Pb17  1  0.788338  0.352490  0.558964  1
  Pb  Pb18  1  0.789333  0.852409  0.940814  1
  Pb  Pb19  1  0.290384  0.147265  0.058972  1
  Pb  Pb20  1  0.248654  0.543318  0.231387  1
  Pb  Pb21  1  0.750634  0.457282  0.768498  1
  Pb  Pb22  1  0.750853  0.957226  0.731565  1
  Pb  Pb23  1  0.253450  0.041902  0.268034  1
  O  O24  1  0.529746  0.204132  0.420875  1
  O  O25  1  0.027357  0.798703  0.580930  1
  O  O26  1  0.027570  0.299331  0.919113  1
  O  O27  1  0.526976  0.700166  0.080788  1
  O  O28  1  0.145444  0.390715  0.472524  1
  O  O29  1  0.650598  0.609666  0.526326  1
  O  O30  1  0.652718  0.109788  0.973549  1
  O  O31  1  0.152374  0.889841  0.026276  1
  O  O32  1  0.082306  0.072834  0.466990  1
  O  O33  1  0.580756  0.926604  0.533357  1
  O  O34  1  0.579780  0.426317  0.966549  1
  O  O35  1  0.079339  0.573016  0.033255  1
  O  O36  1  0.083612  0.242042  0.349245  1
  O  O37  1  0.581907  0.754560  0.650664  1
  O  O38  1  0.582306  0.254316  0.849191  1
  O  O39  1  0.081429  0.744937  0.150527  1
  O  O40  1  0.037752  0.675877  0.318848  1
  O  O41  1  0.540061  0.323515  0.681212  1
  O  O42  1  0.540169  0.824039  0.819062  1
  O  O43  1  0.043427  0.176196  0.180403  1
  O  O44  1  0.576649  0.537995  0.353346  1
  O  O45  1  0.078049  0.463304  0.646969  1
  O  O46  1  0.077683  0.963685  0.853013  1
  O  O47  1  0.579935  0.036772  0.146857  1
  O  O48  1  0.604022  0.221218  0.256591  1
  O  O49  1  0.097359  0.777156  0.743883  1
  O  O50  1  0.097396  0.277764  0.756312  1
  O  O51  1  0.595124  0.723331  0.243668  1
  O  O52  1  0.638040  0.347434  0.128410  1
  O  O53  1  0.136771  0.653530  0.872268  1
  O  O54  1  0.136546  0.152650  0.628123  1
  O  O55  1  0.636978  0.850172  0.371378  1
