# generated using pymatgen
data_Dy5Y11MgCd3Ni4
_symmetry_space_group_name_H-M   'P 1'
_cell_length_a   9.56131073
_cell_length_b   9.56923680
_cell_length_c   9.56923616
_cell_angle_alpha   60.04768373
_cell_angle_beta   60.07495039
_cell_angle_gamma   60.07495172
_symmetry_Int_Tables_number   1
_chemical_formula_structural   Dy5Y11MgCd3Ni4
_chemical_formula_sum   'Dy5 Y11 Mg1 Cd3 Ni4'
_cell_volume   620.01857852
_cell_formula_units_Z   1
loop_
 _symmetry_equiv_pos_site_id
 _symmetry_equiv_pos_as_xyz
  1  'x, y, z'
loop_
 _atom_site_type_symbol
 _atom_site_label
 _atom_site_symmetry_multiplicity
 _atom_site_fract_x
 _atom_site_fract_y
 _atom_site_fract_z
 _atom_site_occupancy
  Dy  Dy0  1  0.596254  0.596431  0.596431  1
  Dy  Dy1  1  0.599283  0.598949  0.204399  1
  Dy  Dy2  1  0.599283  0.204399  0.598949  1
  Dy  Dy3  1  0.204141  0.599267  0.599267  1
  Dy  Dy4  1  0.061137  0.440860  0.440860  1
  Y  Y5  1  0.438069  0.062968  0.062968  1
  Y  Y6  1  0.440783  0.060640  0.441025  1
  Y  Y7  1  0.063008  0.438228  0.062969  1
  Y  Y8  1  0.440783  0.441025  0.060640  1
  Y  Y9  1  0.063008  0.062969  0.438228  1
  Y  Y10  1  0.185682  0.814805  0.814805  1
  Y  Y11  1  0.812917  0.187559  0.187559  1
  Y  Y12  1  0.814699  0.186568  0.814047  1
  Y  Y13  1  0.187730  0.812373  0.188054  1
  Y  Y14  1  0.814699  0.814047  0.186568  1
  Y  Y15  1  0.187730  0.188054  0.812373  1
  Mg  Mg16  1  0.825363  0.825298  0.825298  1
  Cd  Cd17  1  0.830429  0.830768  0.505196  1
  Cd  Cd18  1  0.830429  0.505196  0.830768  1
  Cd  Cd19  1  0.505030  0.830585  0.830585  1
  Ni  Ni20  1  0.392640  0.394780  0.394780  1
  Ni  Ni21  1  0.392356  0.391414  0.820658  1
  Ni  Ni22  1  0.392356  0.820658  0.391414  1
  Ni  Ni23  1  0.822192  0.392156  0.392156  1
