# generated using pymatgen
data_Tb9Y(FeBi2)2
_symmetry_space_group_name_H-M   'P 1'
_cell_length_a   7.99579549
_cell_length_b   8.92276000
_cell_length_c   12.43291914
_cell_angle_alpha   90.00000000
_cell_angle_beta   89.85382591
_cell_angle_gamma   90.00000000
_symmetry_Int_Tables_number   1
_chemical_formula_structural   Tb9Y(FeBi2)2
_chemical_formula_sum   'Tb18 Y2 Fe4 Bi8'
_cell_volume   887.01831061
_cell_formula_units_Z   2
loop_
 _symmetry_equiv_pos_site_id
 _symmetry_equiv_pos_as_xyz
  1  'x, y, z'
loop_
 _atom_site_type_symbol
 _atom_site_label
 _atom_site_symmetry_multiplicity
 _atom_site_fract_x
 _atom_site_fract_y
 _atom_site_fract_z
 _atom_site_occupancy
  Tb  Tb0  1  0.347508  0.250000  0.700103  1
  Tb  Tb1  1  0.652492  0.750000  0.299897  1
  Tb  Tb2  1  0.381668  0.750000  0.689254  1
  Tb  Tb3  1  0.618332  0.250000  0.310746  1
  Tb  Tb4  1  0.881789  0.250000  0.809735  1
  Tb  Tb5  1  0.118211  0.750000  0.190265  1
  Tb  Tb6  1  0.946896  0.750000  0.503885  1
  Tb  Tb7  1  0.053104  0.250000  0.496115  1
  Tb  Tb8  1  0.445671  0.250000  0.995036  1
  Tb  Tb9  1  0.554329  0.750000  0.004964  1
  Tb  Tb10  1  0.675406  0.036011  0.562824  1
  Tb  Tb11  1  0.324594  0.963989  0.437176  1
  Tb  Tb12  1  0.174728  0.963904  0.937730  1
  Tb  Tb13  1  0.324594  0.536011  0.437176  1
  Tb  Tb14  1  0.825272  0.036096  0.062270  1
  Tb  Tb15  1  0.675406  0.463989  0.562824  1
  Tb  Tb16  1  0.825272  0.463904  0.062270  1
  Tb  Tb17  1  0.174728  0.536096  0.937730  1
  Y  Y18  1  0.847522  0.750000  0.798449  1
  Y  Y19  1  0.152478  0.250000  0.201551  1
  Fe  Fe20  1  0.572812  0.750000  0.510220  1
  Fe  Fe21  1  0.427188  0.250000  0.489780  1
  Fe  Fe22  1  0.072980  0.250000  0.988374  1
  Fe  Fe23  1  0.927020  0.750000  0.011626  1
  Bi  Bi24  1  0.571846  0.493394  0.826640  1
  Bi  Bi25  1  0.428154  0.506606  0.173360  1
  Bi  Bi26  1  0.071534  0.507651  0.673160  1
  Bi  Bi27  1  0.428154  0.993394  0.173360  1
  Bi  Bi28  1  0.928466  0.492349  0.326840  1
  Bi  Bi29  1  0.571846  0.006606  0.826640  1
  Bi  Bi30  1  0.928466  0.007651  0.326840  1
  Bi  Bi31  1  0.071534  0.992349  0.673160  1
