# generated using pymatgen
data_Ba3Er2WO9
_symmetry_space_group_name_H-M   'P 1'
_cell_length_a   6.05704042
_cell_length_b   8.58372959
_cell_length_c   10.50061242
_cell_angle_alpha   65.87522691
_cell_angle_beta   73.23698325
_cell_angle_gamma   89.99999995
_symmetry_Int_Tables_number   1
_chemical_formula_structural   Ba3Er2WO9
_chemical_formula_sum   'Ba6 Er4 W2 O18'
_cell_volume   472.72941628
_cell_formula_units_Z   2
loop_
 _symmetry_equiv_pos_site_id
 _symmetry_equiv_pos_as_xyz
  1  'x, y, z'
loop_
 _atom_site_type_symbol
 _atom_site_label
 _atom_site_symmetry_multiplicity
 _atom_site_fract_x
 _atom_site_fract_y
 _atom_site_fract_z
 _atom_site_occupancy
  Ba  Ba0  1  0.500000  0.266121  0.000000  1
  Ba  Ba1  1  0.839495  0.579721  0.321009  1
  Ba  Ba2  1  0.160505  0.900731  0.678991  1
  Ba  Ba3  1  0.500000  0.733879  0.000000  1
  Ba  Ba4  1  0.839495  0.099269  0.321009  1
  Ba  Ba5  1  0.160505  0.420279  0.678991  1
  Er  Er6  1  0.000000  0.000000  0.000000  1
  Er  Er7  1  0.328877  0.328877  0.342246  1
  Er  Er8  1  0.671123  0.671123  0.657754  1
  Er  Er9  1  0.000000  0.500000  0.000000  1
  W  W10  1  0.334183  0.834183  0.331633  1
  W  W11  1  0.665817  0.165817  0.668366  1
  O  O12  1  0.000000  0.246734  0.000000  1
  O  O13  1  0.330353  0.600305  0.339293  1
  O  O14  1  0.669647  0.939600  0.660707  1
  O  O15  1  0.161809  0.410877  0.178245  1
  O  O16  1  0.490293  0.759132  0.481735  1
  O  O17  1  0.818941  0.089317  0.821364  1
  O  O18  1  0.340053  0.589123  0.821755  1
  O  O19  1  0.640306  0.910683  0.178636  1
  O  O20  1  0.972029  0.240868  0.518265  1
  O  O21  1  0.000000  0.753266  0.000000  1
  O  O22  1  0.330353  0.060400  0.339293  1
  O  O23  1  0.669647  0.399695  0.660707  1
  O  O24  1  0.838191  0.589123  0.821755  1
  O  O25  1  0.181059  0.910683  0.178636  1
  O  O26  1  0.509707  0.240868  0.518265  1
  O  O27  1  0.659947  0.410877  0.178245  1
  O  O28  1  0.027971  0.759132  0.481735  1
  O  O29  1  0.359694  0.089317  0.821364  1
