# generated using pymatgen
data_Tm4MnCoSi4
_symmetry_space_group_name_H-M   'P 1'
_cell_length_a   5.57500489
_cell_length_b   5.57500483
_cell_length_c   9.85640127
_cell_angle_alpha   63.52266969
_cell_angle_beta   63.52267052
_cell_angle_gamma   43.31203577
_symmetry_Int_Tables_number   1
_chemical_formula_structural   Tm4MnCoSi4
_chemical_formula_sum   'Tm4 Mn1 Co1 Si4'
_cell_volume   184.38590294
_cell_formula_units_Z   1
loop_
 _symmetry_equiv_pos_site_id
 _symmetry_equiv_pos_as_xyz
  1  'x, y, z'
loop_
 _atom_site_type_symbol
 _atom_site_label
 _atom_site_symmetry_multiplicity
 _atom_site_fract_x
 _atom_site_fract_y
 _atom_site_fract_z
 _atom_site_occupancy
  Tm  Tm0  1  0.002886  0.002886  0.324530  1
  Tm  Tm1  1  0.998760  0.998760  0.671930  1
  Tm  Tm2  1  0.811343  0.811343  0.109162  1
  Tm  Tm3  1  0.185857  0.185857  0.892346  1
  Mn  Mn4  1  0.725994  0.725994  0.630050  1
  Co  Co5  1  0.272707  0.272707  0.374153  1
  Si  Si6  1  0.649045  0.649045  0.433167  1
  Si  Si7  1  0.359537  0.359537  0.558648  1
  Si  Si8  1  0.503222  0.503222  0.126477  1
  Si  Si9  1  0.490649  0.490649  0.879537  1
