# generated using pymatgen
data_Hf4Zr2InCoTe
_symmetry_space_group_name_H-M   'P 1'
_cell_length_a   3.51495300
_cell_length_b   7.88510902
_cell_length_c   7.88806556
_cell_angle_alpha   120.08481717
_cell_angle_beta   90.00000000
_cell_angle_gamma   90.00000000
_symmetry_Int_Tables_number   1
_chemical_formula_structural   Hf4Zr2InCoTe
_chemical_formula_sum   'Hf4 Zr2 In1 Co1 Te1'
_cell_volume   189.17186808
_cell_formula_units_Z   1
loop_
 _symmetry_equiv_pos_site_id
 _symmetry_equiv_pos_as_xyz
  1  'x, y, z'
loop_
 _atom_site_type_symbol
 _atom_site_label
 _atom_site_symmetry_multiplicity
 _atom_site_fract_x
 _atom_site_fract_y
 _atom_site_fract_z
 _atom_site_occupancy
  Hf  Hf0  1  0.500000  0.762647  0.759108  1
  Hf  Hf1  1  0.500000  0.996894  0.237737  1
  Hf  Hf2  1  0.500000  0.241033  0.004735  1
  Hf  Hf3  1  0.000000  0.390200  0.397685  1
  Zr  Zr4  1  0.000000  0.008452  0.607252  1
  Zr  Zr5  1  0.000000  0.598763  0.991757  1
  In  In6  1  0.500000  0.666138  0.333808  1
  Co  Co7  1  0.000000  0.002124  0.002060  1
  Te  Te8  1  0.500000  0.333751  0.665858  1
