# generated using pymatgen
data_Tb2Pa2(Al8Pt3)3
_symmetry_space_group_name_H-M   'P 1'
_cell_length_a   7.57905331
_cell_length_b   7.58517539
_cell_length_c   13.11459335
_cell_angle_alpha   84.48239967
_cell_angle_beta   78.89057993
_cell_angle_gamma   59.91174879
_symmetry_Int_Tables_number   1
_chemical_formula_structural   Tb2Pa2(Al8Pt3)3
_chemical_formula_sum   'Tb2 Pa2 Al24 Pt9'
_cell_volume   640.12329357
_cell_formula_units_Z   1
loop_
 _symmetry_equiv_pos_site_id
 _symmetry_equiv_pos_as_xyz
  1  'x, y, z'
loop_
 _atom_site_type_symbol
 _atom_site_label
 _atom_site_symmetry_multiplicity
 _atom_site_fract_x
 _atom_site_fract_y
 _atom_site_fract_z
 _atom_site_occupancy
  Tb  Tb0  1  0.733626  0.498516  0.808431  1
  Tb  Tb1  1  0.266374  0.501484  0.191569  1
  Pa  Pa2  1  0.395778  0.167971  0.804124  1
  Pa  Pa3  1  0.604222  0.832029  0.195876  1
  Al  Al4  1  0.684008  0.834066  0.944835  1
  Al  Al5  1  0.315992  0.165934  0.055165  1
  Al  Al6  1  0.145447  0.832772  0.561308  1
  Al  Al7  1  0.854553  0.167228  0.438692  1
  Al  Al8  1  0.480736  0.167664  0.557806  1
  Al  Al9  1  0.519264  0.832336  0.442194  1
  Al  Al10  1  0.213900  0.168370  0.331437  1
  Al  Al11  1  0.786100  0.831630  0.668563  1
  Al  Al12  1  0.437559  0.509722  0.669361  1
  Al  Al13  1  0.562441  0.490278  0.330639  1
  Al  Al14  1  0.107686  0.159524  0.667585  1
  Al  Al15  1  0.892314  0.840476  0.332415  1
  Al  Al16  1  0.353041  0.499372  0.943241  1
  Al  Al17  1  0.646959  0.500628  0.056759  1
  Al  Al18  1  0.016113  0.167586  0.952400  1
  Al  Al19  1  0.983887  0.832414  0.047600  1
  Al  Al20  1  0.185528  0.500386  0.441344  1
  Al  Al21  1  0.814472  0.499614  0.558656  1
  Al  Al22  1  0.736780  0.161902  0.182931  1
  Al  Al23  1  0.263220  0.838098  0.817069  1
  Al  Al24  1  0.062896  0.630824  0.815955  1
  Al  Al25  1  0.937104  0.369176  0.184045  1
  Al  Al26  1  0.855075  0.039971  0.816996  1
  Al  Al27  1  0.144925  0.960029  0.183005  1
  Pt  Pt28  1  0.120773  0.490462  0.639911  1
  Pt  Pt29  1  0.879227  0.509538  0.360089  1
  Pt  Pt30  1  0.656735  0.172676  0.000059  1
  Pt  Pt31  1  0.343265  0.827324  0.999941  1
  Pt  Pt32  1  0.537535  0.165634  0.360407  1
  Pt  Pt33  1  0.462465  0.834366  0.639593  1
  Pt  Pt34  1  0.777476  0.175251  0.638720  1
  Pt  Pt35  1  0.222524  0.824749  0.361280  1
  Pt  Pt36  1  0.000000  0.500000  0.000000  1
