# generated using pymatgen
data_Er6Ni11B4Ir3
_symmetry_space_group_name_H-M   'P 1'
_cell_length_a   5.11341680
_cell_length_b   5.11365776
_cell_length_c   14.62328661
_cell_angle_alpha   90.29643855
_cell_angle_beta   89.70351124
_cell_angle_gamma   120.75923332
_symmetry_Int_Tables_number   1
_chemical_formula_structural   Er6Ni11B4Ir3
_chemical_formula_sum   'Er6 Ni11 B4 Ir3'
_cell_volume   328.57695083
_cell_formula_units_Z   1
loop_
 _symmetry_equiv_pos_site_id
 _symmetry_equiv_pos_as_xyz
  1  'x, y, z'
loop_
 _atom_site_type_symbol
 _atom_site_label
 _atom_site_symmetry_multiplicity
 _atom_site_fract_x
 _atom_site_fract_y
 _atom_site_fract_z
 _atom_site_occupancy
  Er  Er0  1  0.332417  0.667580  0.467555  1
  Er  Er1  1  0.665983  0.334023  0.968770  1
  Er  Er2  1  0.664756  0.335249  0.532184  1
  Er  Er3  1  0.334079  0.665918  0.030823  1
  Er  Er4  1  0.666616  0.333381  0.750129  1
  Er  Er5  1  0.333144  0.666858  0.248681  1
  Ni  Ni6  1  0.834817  0.669203  0.349217  1
  Ni  Ni7  1  0.834242  0.669196  0.149690  1
  Ni  Ni8  1  0.165838  0.834164  0.653944  1
  Ni  Ni9  1  0.670003  0.834152  0.653028  1
  Ni  Ni10  1  0.330806  0.165761  0.149692  1
  Ni  Ni11  1  0.834831  0.165168  0.150627  1
  Ni  Ni12  1  0.164924  0.331029  0.847940  1
  Ni  Ni13  1  0.164645  0.835356  0.847454  1
  Ni  Ni14  1  0.165846  0.329997  0.653029  1
  Ni  Ni15  1  0.668964  0.835065  0.847943  1
  Ni  Ni16  1  0.330796  0.165184  0.349214  1
  B  B17  1  0.662247  0.337751  0.247817  1
  B  B18  1  0.333745  0.666260  0.750647  1
  B  B19  1  0.000364  0.999637  0.750488  1
  B  B20  1  0.003357  0.996642  0.247967  1
  Ir  Ir21  1  0.834083  0.165914  0.350285  1
  Ir  Ir22  1  0.999844  0.000160  0.998840  1
  Ir  Ir23  1  0.003650  0.996353  0.504038  1
