# generated using pymatgen
data_Li6Ni16As7
_symmetry_space_group_name_H-M   'P 1'
_cell_length_a   8.06620832
_cell_length_b   8.06949552
_cell_length_c   8.06707900
_cell_angle_alpha   59.99971813
_cell_angle_beta   59.98720535
_cell_angle_gamma   59.99610659
_symmetry_Int_Tables_number   1
_chemical_formula_structural   Li6Ni16As7
_chemical_formula_sum   'Li6 Ni16 As7'
_cell_volume   371.24568602
_cell_formula_units_Z   1
loop_
 _symmetry_equiv_pos_site_id
 _symmetry_equiv_pos_as_xyz
  1  'x, y, z'
loop_
 _atom_site_type_symbol
 _atom_site_label
 _atom_site_symmetry_multiplicity
 _atom_site_fract_x
 _atom_site_fract_y
 _atom_site_fract_z
 _atom_site_occupancy
  Li  Li0  1  0.205514  0.206044  0.794181  1
  Li  Li1  1  0.205629  0.794149  0.794293  1
  Li  Li2  1  0.794371  0.205851  0.205707  1
  Li  Li3  1  0.205590  0.794108  0.205966  1
  Li  Li4  1  0.794410  0.205892  0.794034  1
  Li  Li5  1  0.794486  0.793956  0.205819  1
  Ni  Ni6  1  0.831730  0.505038  0.831633  1
  Ni  Ni7  1  0.168292  0.168509  0.494773  1
  Ni  Ni8  1  0.495032  0.168390  0.168284  1
  Ni  Ni9  1  0.168261  0.168479  0.168376  1
  Ni  Ni10  1  0.504968  0.831610  0.831716  1
  Ni  Ni11  1  0.831739  0.831521  0.831624  1
  Ni  Ni12  1  0.831708  0.831491  0.505227  1
  Ni  Ni13  1  0.168270  0.494962  0.168367  1
  Ni  Ni14  1  0.618204  0.145113  0.618380  1
  Ni  Ni15  1  0.381764  0.381634  0.854952  1
  Ni  Ni16  1  0.854888  0.381713  0.381645  1
  Ni  Ni17  1  0.381795  0.381688  0.381638  1
  Ni  Ni18  1  0.145112  0.618287  0.618355  1
  Ni  Ni19  1  0.618205  0.618312  0.618362  1
  Ni  Ni20  1  0.618236  0.618366  0.145048  1
  Ni  Ni21  1  0.381796  0.854887  0.381620  1
  As  As22  1  0.500000  0.500000  0.500000  1
  As  As23  1  0.500000  0.500000  0.000000  1
  As  As24  1  0.000000  0.500000  0.500000  1
  As  As25  1  0.500000  0.000000  0.000000  1
  As  As26  1  0.000000  0.000000  0.500000  1
  As  As27  1  0.000000  0.500000  0.000000  1
  As  As28  1  0.500000  0.000000  0.500000  1
