# generated using pymatgen
data_Th3MgPd11Pt
_symmetry_space_group_name_H-M   'P 1'
_cell_length_a   5.88087500
_cell_length_b   5.87843693
_cell_length_c   9.64606800
_cell_angle_alpha   90.00000000
_cell_angle_beta   90.00000000
_cell_angle_gamma   120.01371507
_symmetry_Int_Tables_number   1
_chemical_formula_structural   Th3MgPd11Pt
_chemical_formula_sum   'Th3 Mg1 Pd11 Pt1'
_cell_volume   288.75181666
_cell_formula_units_Z   1
loop_
 _symmetry_equiv_pos_site_id
 _symmetry_equiv_pos_as_xyz
  1  'x, y, z'
loop_
 _atom_site_type_symbol
 _atom_site_label
 _atom_site_symmetry_multiplicity
 _atom_site_fract_x
 _atom_site_fract_y
 _atom_site_fract_z
 _atom_site_occupancy
  Th  Th0  1  0.000216  0.000433  0.491994  1
  Th  Th1  1  0.000216  0.000433  0.008006  1
  Th  Th2  1  0.666411  0.332821  0.750000  1
  Mg  Mg3  1  0.333296  0.666593  0.250000  1
  Pd  Pd4  1  0.498002  0.502321  0.495369  1
  Pd  Pd5  1  0.497865  0.995730  0.495205  1
  Pd  Pd6  1  0.004319  0.502321  0.495369  1
  Pd  Pd7  1  0.498002  0.502321  0.004631  1
  Pd  Pd8  1  0.497865  0.995730  0.004795  1
  Pd  Pd9  1  0.004319  0.502321  0.004631  1
  Pd  Pd10  1  0.824743  0.649487  0.250000  1
  Pd  Pd11  1  0.350031  0.175030  0.250000  1
  Pd  Pd12  1  0.824999  0.175030  0.250000  1
  Pd  Pd13  1  0.654241  0.827196  0.750000  1
  Pd  Pd14  1  0.172956  0.827196  0.750000  1
  Pt  Pt15  1  0.172520  0.345039  0.750000  1
