# generated using pymatgen
data_NaYbErI6
_symmetry_space_group_name_H-M   'P 1'
_cell_length_a   8.63805046
_cell_length_b   8.63809311
_cell_length_c   8.63801400
_cell_angle_alpha   53.44682322
_cell_angle_beta   53.44691899
_cell_angle_gamma   53.44687942
_symmetry_Int_Tables_number   1
_chemical_formula_structural   NaYbErI6
_chemical_formula_sum   'Na1 Yb1 Er1 I6'
_cell_volume   385.85825632
_cell_formula_units_Z   1
loop_
 _symmetry_equiv_pos_site_id
 _symmetry_equiv_pos_as_xyz
  1  'x, y, z'
loop_
 _atom_site_type_symbol
 _atom_site_label
 _atom_site_symmetry_multiplicity
 _atom_site_fract_x
 _atom_site_fract_y
 _atom_site_fract_z
 _atom_site_occupancy
  Na  Na0  1  0.669820  0.669824  0.669837  1
  Yb  Yb1  1  0.330925  0.330933  0.330939  1
  Er  Er2  1  0.999988  0.999905  0.999873  1
  I  I3  1  0.235186  0.601143  0.925145  1
  I  I4  1  0.601121  0.925146  0.235208  1
  I  I5  1  0.925136  0.235209  0.601129  1
  I  I6  1  0.754627  0.387859  0.095361  1
  I  I7  1  0.387853  0.095351  0.754642  1
  I  I8  1  0.095348  0.754631  0.387867  1
