# generated using pymatgen
data_Tb4YbSm(CoSn6)2
_symmetry_space_group_name_H-M   'P 1'
_cell_length_a   8.49179815
_cell_length_b   8.49179871
_cell_length_c   13.17511913
_cell_angle_alpha   90.00280750
_cell_angle_beta   89.99719148
_cell_angle_gamma   148.51789507
_symmetry_Int_Tables_number   1
_chemical_formula_structural   Tb4YbSm(CoSn6)2
_chemical_formula_sum   'Tb4 Yb1 Sm1 Co2 Sn12'
_cell_volume   496.15523727
_cell_formula_units_Z   1
loop_
 _symmetry_equiv_pos_site_id
 _symmetry_equiv_pos_as_xyz
  1  'x, y, z'
loop_
 _atom_site_type_symbol
 _atom_site_label
 _atom_site_symmetry_multiplicity
 _atom_site_fract_x
 _atom_site_fract_y
 _atom_site_fract_z
 _atom_site_occupancy
  Tb  Tb0  1  0.101235  0.898765  0.594359  1
  Tb  Tb1  1  0.900713  0.099287  0.751697  1
  Tb  Tb2  1  0.100747  0.899253  0.906572  1
  Tb  Tb3  1  0.099845  0.900155  0.249748  1
  Yb  Yb4  1  0.899173  0.100827  0.403852  1
  Sm  Sm5  1  0.899167  0.100833  0.093661  1
  Co  Co6  1  0.298651  0.701349  0.250509  1
  Co  Co7  1  0.700263  0.299737  0.749430  1
  Sn  Sn8  1  0.757029  0.242971  0.571932  1
  Sn  Sn9  1  0.428735  0.571265  0.576585  1
  Sn  Sn10  1  0.572749  0.427251  0.423965  1
  Sn  Sn11  1  0.734228  0.265772  0.249145  1
  Sn  Sn12  1  0.265103  0.734897  0.750431  1
  Sn  Sn13  1  0.243193  0.756807  0.071497  1
  Sn  Sn14  1  0.244124  0.755876  0.428965  1
  Sn  Sn15  1  0.571722  0.428278  0.075757  1
  Sn  Sn16  1  0.454095  0.545905  0.249670  1
  Sn  Sn17  1  0.546237  0.453763  0.750462  1
  Sn  Sn18  1  0.755395  0.244605  0.927756  1
  Sn  Sn19  1  0.427596  0.572404  0.924009  1
