# generated using pymatgen
data_TbDy4Nb2P12Ir17
_symmetry_space_group_name_H-M   'P 1'
_cell_length_a   12.59646703
_cell_length_b   12.80347068
_cell_length_c   4.00618100
_cell_angle_alpha   90.00000000
_cell_angle_beta   90.00000000
_cell_angle_gamma   119.47391864
_symmetry_Int_Tables_number   1
_chemical_formula_structural   TbDy4Nb2P12Ir17
_chemical_formula_sum   'Tb1 Dy4 Nb2 P12 Ir17'
_cell_volume   562.49102640
_cell_formula_units_Z   1
loop_
 _symmetry_equiv_pos_site_id
 _symmetry_equiv_pos_as_xyz
  1  'x, y, z'
loop_
 _atom_site_type_symbol
 _atom_site_label
 _atom_site_symmetry_multiplicity
 _atom_site_fract_x
 _atom_site_fract_y
 _atom_site_fract_z
 _atom_site_occupancy
  Tb  Tb0  1  0.999499  0.813408  0.000000  1
  Dy  Dy1  1  0.330224  0.661442  0.500000  1
  Dy  Dy2  1  0.668796  0.338551  0.500000  1
  Dy  Dy3  1  0.185997  0.186715  0.000000  1
  Dy  Dy4  1  0.814997  0.000022  0.000000  1
  Nb  Nb5  1  0.997312  0.450473  0.500000  1
  Nb  Nb6  1  0.546586  0.549375  0.500000  1
  P  P7  1  0.002819  0.641897  0.500000  1
  P  P8  1  0.360689  0.357795  0.500000  1
  P  P9  1  0.645665  0.999998  0.500000  1
  P  P10  1  0.514370  0.683122  0.000000  1
  P  P11  1  0.308710  0.823705  0.000000  1
  P  P12  1  0.163283  0.480708  0.000000  1
  P  P13  1  0.485058  0.176311  0.000000  1
  P  P14  1  0.682577  0.519305  0.000000  1
  P  P15  1  0.831294  0.316836  0.000000  1
  P  P16  1  0.000165  0.175712  0.500000  1
  P  P17  1  0.824402  0.824418  0.500000  1
  P  P18  1  0.181191  0.000180  0.500000  1
  Ir  Ir19  1  0.505523  0.863887  0.000000  1
  Ir  Ir20  1  0.127454  0.640861  0.000000  1
  Ir  Ir21  1  0.354413  0.493438  0.000000  1
  Ir  Ir22  1  0.486583  0.359082  0.000000  1
  Ir  Ir23  1  0.860994  0.506491  0.000000  1
  Ir  Ir24  1  0.641696  0.136130  0.000000  1
  Ir  Ir25  1  0.464583  0.000039  0.500000  1
  Ir  Ir26  1  0.997301  0.282103  0.000000  1
  Ir  Ir27  1  0.715014  0.717856  0.000000  1
  Ir  Ir28  1  0.292290  0.000123  0.000000  1
  Ir  Ir29  1  0.624483  0.807307  0.500000  1
  Ir  Ir30  1  0.202195  0.823963  0.500000  1
  Ir  Ir31  1  0.177428  0.368410  0.500000  1
  Ir  Ir32  1  0.377880  0.176194  0.500000  1
  Ir  Ir33  1  0.808506  0.631183  0.500000  1
  Ir  Ir34  1  0.817227  0.192722  0.500000  1
  Ir  Ir35  1  0.002796  0.000241  0.500000  1
