# generated using pymatgen
data_Tm6CdHg9
_symmetry_space_group_name_H-M   'P 1'
_cell_length_a   6.35385084
_cell_length_b   6.35385202
_cell_length_c   10.00485300
_cell_angle_alpha   90.00000000
_cell_angle_beta   90.00000000
_cell_angle_gamma   106.35578649
_symmetry_Int_Tables_number   1
_chemical_formula_structural   Tm6CdHg9
_chemical_formula_sum   'Tm6 Cd1 Hg9'
_cell_volume   387.56458855
_cell_formula_units_Z   1
loop_
 _symmetry_equiv_pos_site_id
 _symmetry_equiv_pos_as_xyz
  1  'x, y, z'
loop_
 _atom_site_type_symbol
 _atom_site_label
 _atom_site_symmetry_multiplicity
 _atom_site_fract_x
 _atom_site_fract_y
 _atom_site_fract_z
 _atom_site_occupancy
  Tm  Tm0  1  0.541892  0.541892  0.250000  1
  Tm  Tm1  1  0.449409  0.449409  0.750000  1
  Tm  Tm2  1  0.223858  0.776919  0.502465  1
  Tm  Tm3  1  0.223858  0.776919  0.997535  1
  Tm  Tm4  1  0.776919  0.223858  0.502465  1
  Tm  Tm5  1  0.776919  0.223858  0.997535  1
  Cd  Cd6  1  0.973944  0.973943  0.250000  1
  Hg  Hg7  1  0.039570  0.039569  0.750000  1
  Hg  Hg8  1  0.275560  0.275560  0.025835  1
  Hg  Hg9  1  0.719660  0.719660  0.978075  1
  Hg  Hg10  1  0.275560  0.275560  0.474165  1
  Hg  Hg11  1  0.719660  0.719660  0.521925  1
  Hg  Hg12  1  0.483726  0.019692  0.250000  1
  Hg  Hg13  1  0.972247  0.527523  0.750000  1
  Hg  Hg14  1  0.527523  0.972247  0.750000  1
  Hg  Hg15  1  0.019692  0.483726  0.250000  1
