# generated using pymatgen
data_Tb2NdY2(MnB3)2
_symmetry_space_group_name_H-M   'P 1'
_cell_length_a   5.43839856
_cell_length_b   5.43839851
_cell_length_c   8.34194408
_cell_angle_alpha   70.97582615
_cell_angle_beta   70.97582661
_cell_angle_gamma   60.00001861
_symmetry_Int_Tables_number   1
_chemical_formula_structural   Tb2NdY2(MnB3)2
_chemical_formula_sum   'Tb2 Nd1 Y2 Mn2 B6'
_cell_volume   197.95501422
_cell_formula_units_Z   1
loop_
 _symmetry_equiv_pos_site_id
 _symmetry_equiv_pos_as_xyz
  1  'x, y, z'
loop_
 _atom_site_type_symbol
 _atom_site_label
 _atom_site_symmetry_multiplicity
 _atom_site_fract_x
 _atom_site_fract_y
 _atom_site_fract_z
 _atom_site_occupancy
  Tb  Tb0  1  0.250593  0.250593  0.248221  1
  Tb  Tb1  1  0.749407  0.749407  0.751779  1
  Nd  Nd2  1  0.000000  0.000000  0.000000  1
  Y  Y3  1  0.417492  0.417492  0.747524  1
  Y  Y4  1  0.582508  0.582508  0.252476  1
  Mn  Mn5  1  0.115366  0.115366  0.653902  1
  Mn  Mn6  1  0.884634  0.884634  0.346098  1
  B  B7  1  0.165613  0.834387  0.500000  1
  B  B8  1  0.834387  0.500000  0.500000  1
  B  B9  1  0.500000  0.165613  0.500000  1
  B  B10  1  0.165613  0.500000  0.500000  1
  B  B11  1  0.500000  0.834387  0.500000  1
  B  B12  1  0.834387  0.165613  0.500000  1
