# generated using pymatgen
data_Ba4Na4Si7Ge
_symmetry_space_group_name_H-M   'P 1'
_cell_length_a   4.88516800
_cell_length_b   7.33463978
_cell_length_c   12.58468990
_cell_angle_alpha   89.94282350
_cell_angle_beta   90.00000000
_cell_angle_gamma   90.00000000
_symmetry_Int_Tables_number   1
_chemical_formula_structural   Ba4Na4Si7Ge
_chemical_formula_sum   'Ba4 Na4 Si7 Ge1'
_cell_volume   450.92113914
_cell_formula_units_Z   1
loop_
 _symmetry_equiv_pos_site_id
 _symmetry_equiv_pos_as_xyz
  1  'x, y, z'
loop_
 _atom_site_type_symbol
 _atom_site_label
 _atom_site_symmetry_multiplicity
 _atom_site_fract_x
 _atom_site_fract_y
 _atom_site_fract_z
 _atom_site_occupancy
  Ba  Ba0  1  0.250000  0.132530  0.147998  1
  Ba  Ba1  1  0.750000  0.865824  0.852330  1
  Ba  Ba2  1  0.250000  0.632603  0.352916  1
  Ba  Ba3  1  0.750000  0.366625  0.646486  1
  Na  Na4  1  0.250000  0.124590  0.442635  1
  Na  Na5  1  0.750000  0.875417  0.555951  1
  Na  Na6  1  0.250000  0.625256  0.057168  1
  Na  Na7  1  0.750000  0.378630  0.943865  1
  Si  Si8  1  0.750000  0.469642  0.177509  1
  Si  Si9  1  0.250000  0.535935  0.822491  1
  Si  Si10  1  0.750000  0.969258  0.322481  1
  Si  Si11  1  0.250000  0.027876  0.674722  1
  Si  Si12  1  0.750000  0.295150  0.338135  1
  Si  Si13  1  0.250000  0.703566  0.660651  1
  Si  Si14  1  0.750000  0.795380  0.161996  1
  Ge  Ge15  1  0.250000  0.201717  0.842667  1
