# generated using pymatgen
data_Th2Ni14(PH)3
_symmetry_space_group_name_H-M   'P 1'
_cell_length_a   6.28711669
_cell_length_b   6.28711679
_cell_length_c   6.28711733
_cell_angle_alpha   84.35476515
_cell_angle_beta   84.35475627
_cell_angle_gamma   84.35476100
_symmetry_Int_Tables_number   1
_chemical_formula_structural   Th2Ni14(PH)3
_chemical_formula_sum   'Th2 Ni14 P3 H3'
_cell_volume   245.12241595
_cell_formula_units_Z   1
loop_
 _symmetry_equiv_pos_site_id
 _symmetry_equiv_pos_as_xyz
  1  'x, y, z'
loop_
 _atom_site_type_symbol
 _atom_site_label
 _atom_site_symmetry_multiplicity
 _atom_site_fract_x
 _atom_site_fract_y
 _atom_site_fract_z
 _atom_site_occupancy
  Th  Th0  1  0.652785  0.652785  0.652785  1
  Th  Th1  1  0.347215  0.347215  0.347215  1
  Ni  Ni2  1  0.711579  0.288421  0.000000  1
  Ni  Ni3  1  0.000000  0.711579  0.288421  1
  Ni  Ni4  1  0.288421  0.000000  0.711579  1
  Ni  Ni5  1  0.000000  0.288421  0.711579  1
  Ni  Ni6  1  0.711579  0.000000  0.288421  1
  Ni  Ni7  1  0.288421  0.711579  0.000000  1
  Ni  Ni8  1  0.341464  0.341464  0.863411  1
  Ni  Ni9  1  0.863411  0.341464  0.341464  1
  Ni  Ni10  1  0.341464  0.863411  0.341464  1
  Ni  Ni11  1  0.658536  0.658536  0.136589  1
  Ni  Ni12  1  0.136589  0.658536  0.658536  1
  Ni  Ni13  1  0.658536  0.136589  0.658536  1
  Ni  Ni14  1  0.898856  0.898856  0.898856  1
  Ni  Ni15  1  0.101144  0.101144  0.101144  1
  P  P16  1  0.000000  0.000000  0.500000  1
  P  P17  1  0.500000  0.000000  0.000000  1
  P  P18  1  0.000000  0.500000  0.000000  1
  H  H19  1  0.500000  0.500000  0.000000  1
  H  H20  1  0.000000  0.500000  0.500000  1
  H  H21  1  0.500000  0.000000  0.500000  1
