# generated using pymatgen
data_Yb12Ga8Ir7Pd
_symmetry_space_group_name_H-M   'P 1'
_cell_length_a   5.66896147
_cell_length_b   7.71923933
_cell_length_c   13.83704509
_cell_angle_alpha   90.00688256
_cell_angle_beta   89.84259970
_cell_angle_gamma   90.19509762
_symmetry_Int_Tables_number   1
_chemical_formula_structural   Yb12Ga8Ir7Pd
_chemical_formula_sum   'Yb12 Ga8 Ir7 Pd1'
_cell_volume   605.50426685
_cell_formula_units_Z   1
loop_
 _symmetry_equiv_pos_site_id
 _symmetry_equiv_pos_as_xyz
  1  'x, y, z'
loop_
 _atom_site_type_symbol
 _atom_site_label
 _atom_site_symmetry_multiplicity
 _atom_site_fract_x
 _atom_site_fract_y
 _atom_site_fract_z
 _atom_site_occupancy
  Yb  Yb0  1  0.148141  0.602667  0.093156  1
  Yb  Yb1  1  0.147508  0.896339  0.905859  1
  Yb  Yb2  1  0.853419  0.099142  0.405514  1
  Yb  Yb3  1  0.850699  0.397798  0.596188  1
  Yb  Yb4  1  0.852015  0.396749  0.906350  1
  Yb  Yb5  1  0.853041  0.103491  0.093385  1
  Yb  Yb6  1  0.146249  0.895591  0.594633  1
  Yb  Yb7  1  0.148075  0.607025  0.406014  1
  Yb  Yb8  1  0.377667  0.247284  0.247209  1
  Yb  Yb9  1  0.377172  0.248943  0.750943  1
  Yb  Yb10  1  0.623877  0.753885  0.245924  1
  Yb  Yb11  1  0.623494  0.750245  0.750318  1
  Ga  Ga12  1  0.388725  0.251002  0.999146  1
  Ga  Ga13  1  0.611081  0.753959  0.503879  1
  Ga  Ga14  1  0.613111  0.748385  0.000377  1
  Ga  Ga15  1  0.374891  0.246295  0.502327  1
  Ga  Ga16  1  0.865707  0.402654  0.248769  1
  Ga  Ga17  1  0.854528  0.097305  0.750830  1
  Ga  Ga18  1  0.145532  0.902592  0.249808  1
  Ga  Ga19  1  0.144515  0.597248  0.749813  1
  Ir  Ir20  1  0.643429  0.468946  0.097215  1
  Ir  Ir21  1  0.643530  0.029208  0.905462  1
  Ir  Ir22  1  0.359630  0.968311  0.404587  1
  Ir  Ir23  1  0.354132  0.527584  0.594091  1
  Ir  Ir24  1  0.358859  0.530677  0.903559  1
  Ir  Ir25  1  0.355549  0.969798  0.094460  1
  Ir  Ir26  1  0.643463  0.036930  0.595427  1
  Pd  Pd27  1  0.641960  0.469945  0.404759  1
