# generated using pymatgen
data_YHo15In4(OsRh)2
_symmetry_space_group_name_H-M   'P 1'
_cell_length_a   9.64787900
_cell_length_b   9.70322834
_cell_length_c   9.65593493
_cell_angle_alpha   59.70855086
_cell_angle_beta   59.36633591
_cell_angle_gamma   59.64243499
_symmetry_Int_Tables_number   1
_chemical_formula_structural   YHo15In4(OsRh)2
_chemical_formula_sum   'Y1 Ho15 In4 Os2 Rh2'
_cell_volume   632.96079990
_cell_formula_units_Z   1
loop_
 _symmetry_equiv_pos_site_id
 _symmetry_equiv_pos_as_xyz
  1  'x, y, z'
loop_
 _atom_site_type_symbol
 _atom_site_label
 _atom_site_symmetry_multiplicity
 _atom_site_fract_x
 _atom_site_fract_y
 _atom_site_fract_z
 _atom_site_occupancy
  Y  Y0  1  0.190176  0.190796  0.805727  1
  Ho  Ho1  1  0.596687  0.599029  0.207812  1
  Ho  Ho2  1  0.442906  0.056773  0.442733  1
  Ho  Ho3  1  0.440899  0.443219  0.057673  1
  Ho  Ho4  1  0.812158  0.187709  0.811462  1
  Ho  Ho5  1  0.194082  0.805982  0.193584  1
  Ho  Ho6  1  0.439688  0.056069  0.059638  1
  Ho  Ho7  1  0.190852  0.811773  0.803472  1
  Ho  Ho8  1  0.055287  0.442810  0.055688  1
  Ho  Ho9  1  0.806218  0.813162  0.189060  1
  Ho  Ho10  1  0.208254  0.597271  0.595520  1
  Ho  Ho11  1  0.059007  0.442222  0.440115  1
  Ho  Ho12  1  0.058683  0.055387  0.439889  1
  Ho  Ho13  1  0.800922  0.193471  0.192807  1
  Ho  Ho14  1  0.598526  0.205122  0.599810  1
  Ho  Ho15  1  0.600671  0.600132  0.598661  1
  In  In16  1  0.828458  0.834967  0.833397  1
  In  In17  1  0.834288  0.832497  0.500579  1
  In  In18  1  0.501734  0.832490  0.834468  1
  In  In19  1  0.833240  0.499956  0.833147  1
  Os  Os20  1  0.392157  0.830084  0.393254  1
  Os  Os21  1  0.393051  0.386212  0.388922  1
  Rh  Rh22  1  0.829935  0.390784  0.392864  1
  Rh  Rh23  1  0.392125  0.392081  0.829718  1
