# generated using pymatgen
data_PuPa5(Ni3Bi4)2
_symmetry_space_group_name_H-M   'P 1'
_cell_length_a   8.37473648
_cell_length_b   8.37473652
_cell_length_c   8.37473700
_cell_angle_alpha   109.62211877
_cell_angle_beta   109.39582252
_cell_angle_gamma   109.39582801
_symmetry_Int_Tables_number   1
_chemical_formula_structural   PuPa5(Ni3Bi4)2
_chemical_formula_sum   'Pu1 Pa5 Ni6 Bi8'
_cell_volume   452.15706281
_cell_formula_units_Z   1
loop_
 _symmetry_equiv_pos_site_id
 _symmetry_equiv_pos_as_xyz
  1  'x, y, z'
loop_
 _atom_site_type_symbol
 _atom_site_label
 _atom_site_symmetry_multiplicity
 _atom_site_fract_x
 _atom_site_fract_y
 _atom_site_fract_z
 _atom_site_occupancy
  Pu  Pu0  1  0.750000  0.375000  0.625000  1
  Pa  Pa1  1  0.127305  0.875640  0.251067  1
  Pa  Pa2  1  0.372695  0.623762  0.748334  1
  Pa  Pa3  1  0.875428  0.251666  0.124360  1
  Pa  Pa4  1  0.624572  0.748933  0.376238  1
  Pa  Pa5  1  0.250000  0.125000  0.875000  1
  Ni  Ni6  1  0.615915  0.371324  0.233580  1
  Ni  Ni7  1  0.884085  0.117664  0.755410  1
  Ni  Ni8  1  0.362255  0.244590  0.628676  1
  Ni  Ni9  1  0.137745  0.766420  0.882336  1
  Ni  Ni10  1  0.250000  0.625000  0.375000  1
  Ni  Ni11  1  0.750000  0.875000  0.125000  1
  Bi  Bi12  1  0.333190  0.331284  0.333657  1
  Bi  Bi13  1  0.166810  0.500467  0.998095  1
  Bi  Bi14  1  0.996845  0.167563  0.498548  1
  Bi  Bi15  1  0.830985  0.829283  0.832437  1
  Bi  Bi16  1  0.503155  0.001702  0.170717  1
  Bi  Bi17  1  0.669015  0.501452  0.998298  1
  Bi  Bi18  1  0.502373  0.001905  0.668716  1
  Bi  Bi19  1  0.997627  0.666343  0.499533  1
