# generated using pymatgen
data_La5Tl2Ru3
_symmetry_space_group_name_H-M   'P 1'
_cell_length_a   8.84259651
_cell_length_b   8.84259580
_cell_length_c   8.84259600
_cell_angle_alpha   109.47122109
_cell_angle_beta   109.47121947
_cell_angle_gamma   109.47122343
_symmetry_Int_Tables_number   1
_chemical_formula_structural   La5Tl2Ru3
_chemical_formula_sum   'La10 Tl4 Ru6'
_cell_volume   532.25219806
_cell_formula_units_Z   2
loop_
 _symmetry_equiv_pos_site_id
 _symmetry_equiv_pos_as_xyz
  1  'x, y, z'
loop_
 _atom_site_type_symbol
 _atom_site_label
 _atom_site_symmetry_multiplicity
 _atom_site_fract_x
 _atom_site_fract_y
 _atom_site_fract_z
 _atom_site_occupancy
  La  La0  1  0.250000  0.687880  0.437881  1
  La  La1  1  0.750000  0.812120  0.062120  1
  La  La2  1  0.437881  0.250000  0.687880  1
  La  La3  1  0.687880  0.437881  0.250000  1
  La  La4  1  0.062120  0.750000  0.812120  1
  La  La5  1  0.812120  0.062120  0.750000  1
  La  La6  1  0.205891  0.205891  0.205891  1
  La  La7  1  0.500001  0.000000  0.294109  1
  La  La8  1  0.294109  0.500001  0.000000  1
  La  La9  1  0.000000  0.294109  0.500001  1
  Tl  Tl10  1  0.500001  0.000000  0.910106  1
  Tl  Tl11  1  0.589894  0.589894  0.589894  1
  Tl  Tl12  1  0.910106  0.500001  0.000000  1
  Tl  Tl13  1  0.000000  0.910106  0.500001  1
  Ru  Ru14  1  0.250001  0.140699  0.890699  1
  Ru  Ru15  1  0.750000  0.359300  0.609300  1
  Ru  Ru16  1  0.890699  0.250001  0.140699  1
  Ru  Ru17  1  0.140699  0.890699  0.250001  1
  Ru  Ru18  1  0.609300  0.750000  0.359300  1
  Ru  Ru19  1  0.359300  0.609300  0.750000  1
