# generated using pymatgen
data_K3Zr7BBr20
_symmetry_space_group_name_H-M   'P 1'
_cell_length_a   14.38366545
_cell_length_b   14.38366535
_cell_length_c   14.38366500
_cell_angle_alpha   55.83491609
_cell_angle_beta   55.83491635
_cell_angle_gamma   55.83491553
_symmetry_Int_Tables_number   1
_chemical_formula_structural   K3Zr7BBr20
_chemical_formula_sum   'K6 Zr14 B2 Br40'
_cell_volume   1901.03893174
_cell_formula_units_Z   2
loop_
 _symmetry_equiv_pos_site_id
 _symmetry_equiv_pos_as_xyz
  1  'x, y, z'
loop_
 _atom_site_type_symbol
 _atom_site_label
 _atom_site_symmetry_multiplicity
 _atom_site_fract_x
 _atom_site_fract_y
 _atom_site_fract_z
 _atom_site_occupancy
  K  K0  1  0.000000  0.500000  0.500000  1
  K  K1  1  0.500000  0.000000  0.500000  1
  K  K2  1  0.000000  0.500000  0.000000  1
  K  K3  1  0.500000  0.500000  0.000000  1
  K  K4  1  0.000000  0.000000  0.500000  1
  K  K5  1  0.500000  0.000000  0.000000  1
  Zr  Zr6  1  0.449912  0.327061  0.610599  1
  Zr  Zr7  1  0.672939  0.389401  0.550088  1
  Zr  Zr8  1  0.389401  0.550088  0.672939  1
  Zr  Zr9  1  0.827061  0.949912  0.110599  1
  Zr  Zr10  1  0.250000  0.250000  0.250000  1
  Zr  Zr11  1  0.327061  0.610599  0.449912  1
  Zr  Zr12  1  0.889401  0.172939  0.050088  1
  Zr  Zr13  1  0.172939  0.050088  0.889401  1
  Zr  Zr14  1  0.050088  0.889401  0.172939  1
  Zr  Zr15  1  0.550088  0.672939  0.389401  1
  Zr  Zr16  1  0.110599  0.827061  0.949912  1
  Zr  Zr17  1  0.610599  0.449912  0.327061  1
  Zr  Zr18  1  0.949912  0.110599  0.827061  1
  Zr  Zr19  1  0.750000  0.750000  0.750000  1
  B  B20  1  0.000000  0.000000  0.000000  1
  B  B21  1  0.500000  0.500000  0.500000  1
  Br  Br22  1  0.325746  0.857615  0.817764  1
  Br  Br23  1  0.182236  0.674254  0.142385  1
  Br  Br24  1  0.571664  0.431452  0.753448  1
  Br  Br25  1  0.822448  0.822448  0.822448  1
  Br  Br26  1  0.246552  0.428336  0.568548  1
  Br  Br27  1  0.753448  0.571664  0.431452  1
  Br  Br28  1  0.428336  0.568548  0.246552  1
  Br  Br29  1  0.825746  0.317764  0.357615  1
  Br  Br30  1  0.071664  0.253448  0.931452  1
  Br  Br31  1  0.604606  0.895394  0.250000  1
  Br  Br32  1  0.431452  0.753448  0.571664  1
  Br  Br33  1  0.438603  0.250000  0.061397  1
  Br  Br34  1  0.061397  0.438603  0.250000  1
  Br  Br35  1  0.177552  0.177552  0.177552  1
  Br  Br36  1  0.674254  0.142385  0.182236  1
  Br  Br37  1  0.250000  0.604606  0.895394  1
  Br  Br38  1  0.750000  0.938603  0.561397  1
  Br  Br39  1  0.142385  0.182236  0.674254  1
  Br  Br40  1  0.682236  0.642385  0.174254  1
  Br  Br41  1  0.174254  0.682236  0.642385  1
  Br  Br42  1  0.746552  0.068548  0.928336  1
  Br  Br43  1  0.561397  0.750000  0.938603  1
  Br  Br44  1  0.250000  0.061397  0.438603  1
  Br  Br45  1  0.642385  0.174254  0.682236  1
  Br  Br46  1  0.938603  0.561397  0.750000  1
  Br  Br47  1  0.928336  0.746552  0.068548  1
  Br  Br48  1  0.253448  0.931452  0.071664  1
  Br  Br49  1  0.357615  0.825746  0.317764  1
  Br  Br50  1  0.322448  0.322448  0.322448  1
  Br  Br51  1  0.895394  0.250000  0.604606  1
  Br  Br52  1  0.677552  0.677552  0.677552  1
  Br  Br53  1  0.568548  0.246552  0.428336  1
  Br  Br54  1  0.395394  0.104606  0.750000  1
  Br  Br55  1  0.931452  0.071664  0.253448  1
  Br  Br56  1  0.068548  0.928336  0.746552  1
  Br  Br57  1  0.750000  0.395394  0.104606  1
  Br  Br58  1  0.104606  0.750000  0.395394  1
  Br  Br59  1  0.817764  0.325746  0.857615  1
  Br  Br60  1  0.317764  0.357615  0.825746  1
  Br  Br61  1  0.857615  0.817764  0.325746  1
