# generated using pymatgen
data_Ho8Zr11Si16W
_symmetry_space_group_name_H-M   'P 1'
_cell_length_a   7.29123952
_cell_length_b   7.29123905
_cell_length_c   13.40280732
_cell_angle_alpha   90.05338223
_cell_angle_beta   89.94661920
_cell_angle_gamma   90.13228497
_symmetry_Int_Tables_number   1
_chemical_formula_structural   Ho8Zr11Si16W
_chemical_formula_sum   'Ho8 Zr11 Si16 W1'
_cell_volume   712.51980921
_cell_formula_units_Z   1
loop_
 _symmetry_equiv_pos_site_id
 _symmetry_equiv_pos_as_xyz
  1  'x, y, z'
loop_
 _atom_site_type_symbol
 _atom_site_label
 _atom_site_symmetry_multiplicity
 _atom_site_fract_x
 _atom_site_fract_y
 _atom_site_fract_z
 _atom_site_occupancy
  Ho  Ho0  1  0.344938  0.003873  0.464146  1
  Ho  Ho1  1  0.496095  0.844639  0.716306  1
  Ho  Ho2  1  0.501153  0.155411  0.211372  1
  Ho  Ho3  1  0.844639  0.496095  0.283694  1
  Ho  Ho4  1  0.155411  0.501153  0.788628  1
  Ho  Ho5  1  0.652962  0.998636  0.965053  1
  Ho  Ho6  1  0.003873  0.344938  0.535854  1
  Ho  Ho7  1  0.998636  0.652962  0.034947  1
  Zr  Zr8  1  0.175797  0.825041  0.248175  1
  Zr  Zr9  1  0.825041  0.175797  0.751825  1
  Zr  Zr10  1  0.675047  0.675047  0.500000  1
  Zr  Zr11  1  0.149055  0.005211  0.876401  1
  Zr  Zr12  1  0.494858  0.645632  0.121897  1
  Zr  Zr13  1  0.502803  0.354152  0.626766  1
  Zr  Zr14  1  0.645632  0.494858  0.878103  1
  Zr  Zr15  1  0.354152  0.502803  0.373234  1
  Zr  Zr16  1  0.853582  0.996328  0.374708  1
  Zr  Zr17  1  0.005211  0.149055  0.123599  1
  Zr  Zr18  1  0.996328  0.853582  0.625292  1
  Si  Si19  1  0.206281  0.139675  0.683973  1
  Si  Si20  1  0.359450  0.702040  0.933296  1
  Si  Si21  1  0.639151  0.293680  0.433002  1
  Si  Si22  1  0.702040  0.359450  0.066704  1
  Si  Si23  1  0.293680  0.639151  0.566998  1
  Si  Si24  1  0.793657  0.860541  0.181931  1
  Si  Si25  1  0.139675  0.206281  0.316027  1
  Si  Si26  1  0.860541  0.793657  0.818069  1
  Si  Si27  1  0.297810  0.955628  0.062382  1
  Si  Si28  1  0.549816  0.797439  0.312319  1
  Si  Si29  1  0.446912  0.205198  0.818321  1
  Si  Si30  1  0.797439  0.549816  0.687681  1
  Si  Si31  1  0.205198  0.446912  0.181679  1
  Si  Si32  1  0.702661  0.051065  0.563967  1
  Si  Si33  1  0.955628  0.297810  0.937618  1
  Si  Si34  1  0.051065  0.702661  0.436033  1
  W  W35  1  0.323785  0.323785  0.000000  1
