# generated using pymatgen
data_Na5RuO6
_symmetry_space_group_name_H-M   'P 1'
_cell_length_a   5.69155646
_cell_length_b   5.69122394
_cell_length_c   5.64281539
_cell_angle_alpha   79.74058891
_cell_angle_beta   79.73575307
_cell_angle_gamma   119.53783087
_symmetry_Int_Tables_number   1
_chemical_formula_structural   Na5RuO6
_chemical_formula_sum   'Na5 Ru1 O6'
_cell_volume   148.73849810
_cell_formula_units_Z   1
loop_
 _symmetry_equiv_pos_site_id
 _symmetry_equiv_pos_as_xyz
  1  'x, y, z'
loop_
 _atom_site_type_symbol
 _atom_site_label
 _atom_site_symmetry_multiplicity
 _atom_site_fract_x
 _atom_site_fract_y
 _atom_site_fract_z
 _atom_site_occupancy
  Na  Na0  1  0.833036  0.166791  0.000007  1
  Na  Na1  1  0.166964  0.833209  0.999993  1
  Na  Na2  1  0.670962  0.328968  0.500008  1
  Na  Na3  1  0.329038  0.671032  0.499992  1
  Na  Na4  1  0.000000  0.000000  0.500000  1
  Ru  Ru5  1  0.500000  0.500000  0.000000  1
  O  O6  1  0.429347  0.149575  0.216773  1
  O  O7  1  0.570653  0.850425  0.783227  1
  O  O8  1  0.850340  0.570651  0.783290  1
  O  O9  1  0.149660  0.429349  0.216710  1
  O  O10  1  0.704626  0.704617  0.204512  1
  O  O11  1  0.295374  0.295383  0.795488  1
