# generated using pymatgen
data_DyHo7Mg2(SiB4)4
_symmetry_space_group_name_H-M   'P 1'
_cell_length_a   7.15578802
_cell_length_b   7.15574502
_cell_length_c   7.81209100
_cell_angle_alpha   90.00039027
_cell_angle_beta   90.00195231
_cell_angle_gamma   89.99120838
_symmetry_Int_Tables_number   1
_chemical_formula_structural   DyHo7Mg2(SiB4)4
_chemical_formula_sum   'Dy1 Ho7 Mg2 Si4 B16'
_cell_volume   400.01807189
_cell_formula_units_Z   1
loop_
 _symmetry_equiv_pos_site_id
 _symmetry_equiv_pos_as_xyz
  1  'x, y, z'
loop_
 _atom_site_type_symbol
 _atom_site_label
 _atom_site_symmetry_multiplicity
 _atom_site_fract_x
 _atom_site_fract_y
 _atom_site_fract_z
 _atom_site_occupancy
  Dy  Dy0  1  0.182924  0.317118  0.233721  1
  Ho  Ho1  1  0.682912  0.182882  0.233192  1
  Ho  Ho2  1  0.317096  0.817071  0.766820  1
  Ho  Ho3  1  0.317104  0.817075  0.233171  1
  Ho  Ho4  1  0.817085  0.682960  0.233065  1
  Ho  Ho5  1  0.817065  0.682894  0.766936  1
  Ho  Ho6  1  0.682939  0.182913  0.766846  1
  Ho  Ho7  1  0.182859  0.317100  0.766894  1
  Mg  Mg8  1  0.999934  0.999878  0.500095  1
  Mg  Mg9  1  0.500124  0.500067  0.500095  1
  Si  Si10  1  0.115440  0.615826  0.500214  1
  Si  Si11  1  0.884175  0.384560  0.500261  1
  Si  Si12  1  0.384720  0.115279  0.500308  1
  Si  Si13  1  0.615594  0.884407  0.500046  1
  B  B14  1  0.173730  0.039796  0.999875  1
  B  B15  1  0.826164  0.960022  0.999944  1
  B  B16  1  0.959962  0.173765  0.999834  1
  B  B17  1  0.326234  0.540037  0.999883  1
  B  B18  1  0.039856  0.826113  0.999942  1
  B  B19  1  0.673887  0.460143  0.999889  1
  B  B20  1  0.539979  0.673835  0.999917  1
  B  B21  1  0.460203  0.326272  0.999900  1
  B  B22  1  0.089385  0.589494  0.999809  1
  B  B23  1  0.910506  0.410614  0.999824  1
  B  B24  1  0.410564  0.089435  0.999960  1
  B  B25  1  0.589471  0.910529  0.999951  1
  B  B26  1  0.999876  0.999758  0.163294  1
  B  B27  1  0.999968  0.000002  0.836510  1
  B  B28  1  0.500034  0.500042  0.836511  1
  B  B29  1  0.500210  0.500113  0.163293  1
