# generated using pymatgen
data_Er3Cd3Ga2Cu
_symmetry_space_group_name_H-M   'P 1'
_cell_length_a   7.21538831
_cell_length_b   7.21459298
_cell_length_c   4.28498306
_cell_angle_alpha   89.98572893
_cell_angle_beta   90.00992754
_cell_angle_gamma   119.98515116
_symmetry_Int_Tables_number   1
_chemical_formula_structural   Er3Cd3Ga2Cu
_chemical_formula_sum   'Er3 Cd3 Ga2 Cu1'
_cell_volume   193.20405296
_cell_formula_units_Z   1
loop_
 _symmetry_equiv_pos_site_id
 _symmetry_equiv_pos_as_xyz
  1  'x, y, z'
loop_
 _atom_site_type_symbol
 _atom_site_label
 _atom_site_symmetry_multiplicity
 _atom_site_fract_x
 _atom_site_fract_y
 _atom_site_fract_z
 _atom_site_occupancy
  Er  Er0  1  0.000187  0.410845  0.499863  1
  Er  Er1  1  0.589329  0.589209  0.499807  1
  Er  Er2  1  0.410680  0.000061  0.499861  1
  Cd  Cd3  1  0.000136  0.756794  0.000034  1
  Cd  Cd4  1  0.243414  0.243308  0.999965  1
  Cd  Cd5  1  0.756514  0.000052  0.999803  1
  Ga  Ga6  1  0.333445  0.666684  0.999919  1
  Ga  Ga7  1  0.666890  0.333440  0.999943  1
  Cu  Cu8  1  0.999407  0.999608  0.500805  1
