# generated using pymatgen
data_Er3Tm7Zn3Ru
_symmetry_space_group_name_H-M   'P 1'
_cell_length_a   9.30545301
_cell_length_b   9.30695185
_cell_length_c   9.52731900
_cell_angle_alpha   90.00000000
_cell_angle_beta   90.00000000
_cell_angle_gamma   120.00113607
_symmetry_Int_Tables_number   1
_chemical_formula_structural   Er3Tm7Zn3Ru
_chemical_formula_sum   'Er6 Tm14 Zn6 Ru2'
_cell_volume   714.56436495
_cell_formula_units_Z   2
loop_
 _symmetry_equiv_pos_site_id
 _symmetry_equiv_pos_as_xyz
  1  'x, y, z'
loop_
 _atom_site_type_symbol
 _atom_site_label
 _atom_site_symmetry_multiplicity
 _atom_site_fract_x
 _atom_site_fract_y
 _atom_site_fract_z
 _atom_site_occupancy
  Er  Er0  1  0.540904  0.459085  0.250000  1
  Er  Er1  1  0.540924  0.081839  0.250000  1
  Er  Er2  1  0.918159  0.459072  0.250000  1
  Er  Er3  1  0.459096  0.540915  0.750000  1
  Er  Er4  1  0.459076  0.918161  0.750000  1
  Er  Er5  1  0.081841  0.540928  0.750000  1
  Tm  Tm6  1  0.000000  0.000000  0.500000  1
  Tm  Tm7  1  0.000000  0.000000  0.000000  1
  Tm  Tm8  1  0.207654  0.792318  0.442510  1
  Tm  Tm9  1  0.207662  0.415346  0.442516  1
  Tm  Tm10  1  0.584666  0.792329  0.442474  1
  Tm  Tm11  1  0.792346  0.207682  0.557490  1
  Tm  Tm12  1  0.792338  0.584654  0.557484  1
  Tm  Tm13  1  0.415334  0.207671  0.557526  1
  Tm  Tm14  1  0.792346  0.207682  0.942510  1
  Tm  Tm15  1  0.792338  0.584654  0.942516  1
  Tm  Tm16  1  0.415334  0.207671  0.942474  1
  Tm  Tm17  1  0.207654  0.792318  0.057490  1
  Tm  Tm18  1  0.207662  0.415346  0.057484  1
  Tm  Tm19  1  0.584666  0.792329  0.057526  1
  Zn  Zn20  1  0.886270  0.113702  0.250000  1
  Zn  Zn21  1  0.886283  0.772576  0.250000  1
  Zn  Zn22  1  0.227425  0.113705  0.250000  1
  Zn  Zn23  1  0.113730  0.886298  0.750000  1
  Zn  Zn24  1  0.113717  0.227424  0.750000  1
  Zn  Zn25  1  0.772575  0.886295  0.750000  1
  Ru  Ru26  1  0.333368  0.666690  0.250000  1
  Ru  Ru27  1  0.666632  0.333310  0.750000  1
