# generated using pymatgen
data_HoTm9NiSb5
_symmetry_space_group_name_H-M   'P 1'
_cell_length_a   7.87620400
_cell_length_b   9.11113700
_cell_length_c   11.76968700
_cell_angle_alpha   90.00000000
_cell_angle_beta   90.00000000
_cell_angle_gamma   90.00000000
_symmetry_Int_Tables_number   1
_chemical_formula_structural   HoTm9NiSb5
_chemical_formula_sum   'Ho2 Tm18 Ni2 Sb10'
_cell_volume   844.60655301
_cell_formula_units_Z   2
loop_
 _symmetry_equiv_pos_site_id
 _symmetry_equiv_pos_as_xyz
  1  'x, y, z'
loop_
 _atom_site_type_symbol
 _atom_site_label
 _atom_site_symmetry_multiplicity
 _atom_site_fract_x
 _atom_site_fract_y
 _atom_site_fract_z
 _atom_site_occupancy
  Ho  Ho0  1  0.573788  0.500000  0.773806  1
  Ho  Ho1  1  0.426212  0.500000  0.273806  1
  Tm  Tm2  1  0.432696  0.182447  0.564716  1
  Tm  Tm3  1  0.567304  0.817553  0.064716  1
  Tm  Tm4  1  0.067454  0.720745  0.434656  1
  Tm  Tm5  1  0.932546  0.279255  0.934656  1
  Tm  Tm6  1  0.067454  0.279255  0.434656  1
  Tm  Tm7  1  0.932546  0.720745  0.934656  1
  Tm  Tm8  1  0.432696  0.817553  0.564716  1
  Tm  Tm9  1  0.567304  0.182447  0.064716  1
  Tm  Tm10  1  0.910740  0.000000  0.206025  1
  Tm  Tm11  1  0.089260  0.000000  0.706025  1
  Tm  Tm12  1  0.266854  0.500000  0.994610  1
  Tm  Tm13  1  0.733146  0.500000  0.494610  1
  Tm  Tm14  1  0.202540  0.000000  0.999428  1
  Tm  Tm15  1  0.797460  0.000000  0.499428  1
  Tm  Tm16  1  0.092113  0.500000  0.714957  1
  Tm  Tm17  1  0.907887  0.500000  0.214957  1
  Tm  Tm18  1  0.380371  0.000000  0.303228  1
  Tm  Tm19  1  0.619629  0.000000  0.803228  1
  Ni  Ni20  1  0.167137  0.000000  0.485205  1
  Ni  Ni21  1  0.832863  0.000000  0.985205  1
  Sb  Sb22  1  0.815184  0.741007  0.672571  1
  Sb  Sb23  1  0.184816  0.258993  0.172571  1
  Sb  Sb24  1  0.682617  0.241782  0.326071  1
  Sb  Sb25  1  0.317383  0.758218  0.826071  1
  Sb  Sb26  1  0.682617  0.758218  0.326071  1
  Sb  Sb27  1  0.317383  0.241782  0.826071  1
  Sb  Sb28  1  0.815184  0.258993  0.672571  1
  Sb  Sb29  1  0.184816  0.741007  0.172571  1
  Sb  Sb30  1  0.343310  0.500000  0.526714  1
  Sb  Sb31  1  0.656690  0.500000  0.026714  1
