# generated using pymatgen
data_SmHo5Co16(P6W)2
_symmetry_space_group_name_H-M   'P 1'
_cell_length_a   3.72421600
_cell_length_b   10.57033300
_cell_length_c   12.25150700
_cell_angle_alpha   90.00000000
_cell_angle_beta   90.00000000
_cell_angle_gamma   90.00000000
_symmetry_Int_Tables_number   1
_chemical_formula_structural   SmHo5Co16(P6W)2
_chemical_formula_sum   'Sm1 Ho5 Co16 P12 W2'
_cell_volume   482.29531510
_cell_formula_units_Z   1
loop_
 _symmetry_equiv_pos_site_id
 _symmetry_equiv_pos_as_xyz
  1  'x, y, z'
loop_
 _atom_site_type_symbol
 _atom_site_label
 _atom_site_symmetry_multiplicity
 _atom_site_fract_x
 _atom_site_fract_y
 _atom_site_fract_z
 _atom_site_occupancy
  Sm  Sm0  1  0.000000  0.500000  0.524759  1
  Ho  Ho1  1  0.500000  0.000000  0.475706  1
  Ho  Ho2  1  0.500000  0.819656  0.204821  1
  Ho  Ho3  1  0.500000  0.180344  0.204821  1
  Ho  Ho4  1  0.000000  0.680783  0.795672  1
  Ho  Ho5  1  0.000000  0.319217  0.795672  1
  Co  Co6  1  0.000000  0.500000  0.987156  1
  Co  Co7  1  0.500000  0.000000  0.012913  1
  Co  Co8  1  0.500000  0.293755  0.430911  1
  Co  Co9  1  0.500000  0.706245  0.430911  1
  Co  Co10  1  0.000000  0.202620  0.568987  1
  Co  Co11  1  0.000000  0.797380  0.568987  1
  Co  Co12  1  0.500000  0.878683  0.708002  1
  Co  Co13  1  0.500000  0.121317  0.708002  1
  Co  Co14  1  0.000000  0.622221  0.291491  1
  Co  Co15  1  0.000000  0.377779  0.291491  1
  Co  Co16  1  0.500000  0.332388  0.990352  1
  Co  Co17  1  0.500000  0.667612  0.990352  1
  Co  Co18  1  0.000000  0.167074  0.009582  1
  Co  Co19  1  0.000000  0.832926  0.009582  1
  Co  Co20  1  0.500000  0.500000  0.703101  1
  Co  Co21  1  0.000000  0.000000  0.298417  1
  P  P22  1  0.500000  0.309217  0.616934  1
  P  P23  1  0.500000  0.690783  0.616934  1
  P  P24  1  0.000000  0.188172  0.383948  1
  P  P25  1  0.000000  0.811828  0.383948  1
  P  P26  1  0.500000  0.500000  0.881205  1
  P  P27  1  0.000000  0.000000  0.119344  1
  P  P28  1  0.500000  0.844270  0.892689  1
  P  P29  1  0.500000  0.155730  0.892689  1
  P  P30  1  0.000000  0.656288  0.107095  1
  P  P31  1  0.000000  0.343712  0.107095  1
  P  P32  1  0.500000  0.500000  0.347947  1
  P  P33  1  0.000000  0.000000  0.649740  1
  W  W34  1  0.500000  0.500000  0.155166  1
  W  W35  1  0.000000  0.000000  0.843577  1
