# generated using pymatgen
data_NaSr3PuO6
_symmetry_space_group_name_H-M   'P 1'
_cell_length_a   7.06166116
_cell_length_b   7.06166147
_cell_length_c   7.06166120
_cell_angle_alpha   92.07766001
_cell_angle_beta   92.07766529
_cell_angle_gamma   92.07766058
_symmetry_Int_Tables_number   1
_chemical_formula_structural   NaSr3PuO6
_chemical_formula_sum   'Na2 Sr6 Pu2 O12'
_cell_volume   351.43252066
_cell_formula_units_Z   2
loop_
 _symmetry_equiv_pos_site_id
 _symmetry_equiv_pos_as_xyz
  1  'x, y, z'
loop_
 _atom_site_type_symbol
 _atom_site_label
 _atom_site_symmetry_multiplicity
 _atom_site_fract_x
 _atom_site_fract_y
 _atom_site_fract_z
 _atom_site_occupancy
  Na  Na0  1  0.250000  0.250000  0.250000  1
  Na  Na1  1  0.750000  0.750000  0.750000  1
  Sr  Sr2  1  0.405468  0.750000  0.094532  1
  Sr  Sr3  1  0.250000  0.905468  0.594532  1
  Sr  Sr4  1  0.750000  0.094532  0.405468  1
  Sr  Sr5  1  0.594532  0.250000  0.905468  1
  Sr  Sr6  1  0.094532  0.405468  0.750000  1
  Sr  Sr7  1  0.905468  0.594532  0.250000  1
  Pu  Pu8  1  0.000000  0.000000  0.000000  1
  Pu  Pu9  1  0.500000  0.500000  0.500000  1
  O  O10  1  0.446937  0.569580  0.791152  1
  O  O11  1  0.569580  0.791152  0.446937  1
  O  O12  1  0.430420  0.208848  0.553063  1
  O  O13  1  0.291152  0.069580  0.946937  1
  O  O14  1  0.208848  0.553063  0.430420  1
  O  O15  1  0.553063  0.430420  0.208848  1
  O  O16  1  0.069580  0.946937  0.291152  1
  O  O17  1  0.946937  0.291152  0.069580  1
  O  O18  1  0.708848  0.930420  0.053063  1
  O  O19  1  0.791152  0.446937  0.569580  1
  O  O20  1  0.930420  0.053063  0.708848  1
  O  O21  1  0.053063  0.708848  0.930420  1
