# generated using pymatgen
data_LuZrTa3Si4
_symmetry_space_group_name_H-M   'P 1'
_cell_length_a   6.93167297
_cell_length_b   6.93229809
_cell_length_c   12.81330499
_cell_angle_alpha   89.96471381
_cell_angle_beta   90.02807381
_cell_angle_gamma   89.89773627
_symmetry_Int_Tables_number   1
_chemical_formula_structural   LuZrTa3Si4
_chemical_formula_sum   'Lu4 Zr4 Ta12 Si16'
_cell_volume   615.70918340
_cell_formula_units_Z   4
loop_
 _symmetry_equiv_pos_site_id
 _symmetry_equiv_pos_as_xyz
  1  'x, y, z'
loop_
 _atom_site_type_symbol
 _atom_site_label
 _atom_site_symmetry_multiplicity
 _atom_site_fract_x
 _atom_site_fract_y
 _atom_site_fract_z
 _atom_site_occupancy
  Lu  Lu0  1  0.999464  0.659720  0.030929  1
  Lu  Lu1  1  0.001647  0.338275  0.530582  1
  Lu  Lu2  1  0.660526  0.999240  0.969901  1
  Lu  Lu3  1  0.161195  0.501592  0.780606  1
  Zr  Zr4  1  0.841546  0.501686  0.281803  1
  Zr  Zr5  1  0.498512  0.159477  0.219112  1
  Zr  Zr6  1  0.503055  0.843493  0.718432  1
  Zr  Zr7  1  0.342782  0.997103  0.468895  1
  Ta  Ta8  1  0.347614  0.505760  0.375327  1
  Ta  Ta9  1  0.845796  0.995515  0.373452  1
  Ta  Ta10  1  0.005962  0.152847  0.127517  1
  Ta  Ta11  1  0.993387  0.847638  0.624865  1
  Ta  Ta12  1  0.651078  0.493839  0.875436  1
  Ta  Ta13  1  0.504296  0.346481  0.622736  1
  Ta  Ta14  1  0.495080  0.651827  0.125535  1
  Ta  Ta15  1  0.153265  0.004862  0.873271  1
  Ta  Ta16  1  0.667668  0.671295  0.499667  1
  Ta  Ta17  1  0.828737  0.167479  0.749479  1
  Ta  Ta18  1  0.169143  0.830864  0.250672  1
  Ta  Ta19  1  0.330638  0.330533  0.000715  1
  Si  Si20  1  0.043608  0.702601  0.436520  1
  Si  Si21  1  0.956332  0.297380  0.936724  1
  Si  Si22  1  0.700733  0.044435  0.563230  1
  Si  Si23  1  0.201759  0.455958  0.186672  1
  Si  Si24  1  0.796811  0.542930  0.686300  1
  Si  Si25  1  0.456341  0.200842  0.813738  1
  Si  Si26  1  0.543672  0.799091  0.313715  1
  Si  Si27  1  0.298478  0.956891  0.063774  1
  Si  Si28  1  0.863664  0.794009  0.819720  1
  Si  Si29  1  0.135692  0.206661  0.321696  1
  Si  Si30  1  0.792398  0.865758  0.179890  1
  Si  Si31  1  0.294959  0.637173  0.571219  1
  Si  Si32  1  0.706395  0.364346  0.072773  1
  Si  Si33  1  0.633917  0.292848  0.427208  1
  Si  Si34  1  0.365481  0.706662  0.929309  1
  Si  Si35  1  0.208369  0.132891  0.678579  1
