# generated using pymatgen
data_Er5Tm(AlC3)2
_symmetry_space_group_name_H-M   'P 1'
_cell_length_a   3.53163800
_cell_length_b   6.96469470
_cell_length_c   9.95392700
_cell_angle_alpha   90.06657791
_cell_angle_beta   90.00000000
_cell_angle_gamma   90.00000000
_symmetry_Int_Tables_number   1
_chemical_formula_structural   Er5Tm(AlC3)2
_chemical_formula_sum   'Er5 Tm1 Al2 C6'
_cell_volume   244.83439192
_cell_formula_units_Z   1
loop_
 _symmetry_equiv_pos_site_id
 _symmetry_equiv_pos_as_xyz
  1  'x, y, z'
loop_
 _atom_site_type_symbol
 _atom_site_label
 _atom_site_symmetry_multiplicity
 _atom_site_fract_x
 _atom_site_fract_y
 _atom_site_fract_z
 _atom_site_occupancy
  Er  Er0  1  0.500000  0.510167  0.201163  1
  Er  Er1  1  0.500000  0.489565  0.798929  1
  Er  Er2  1  0.500000  0.989525  0.201144  1
  Er  Er3  1  0.000000  0.750158  0.457516  1
  Er  Er4  1  0.000000  0.249902  0.542445  1
  Tm  Tm5  1  0.500000  0.011747  0.798402  1
  Al  Al6  1  0.000000  0.749890  0.004779  1
  Al  Al7  1  0.000000  0.249901  0.994779  1
  C  C8  1  0.500000  0.509263  0.566510  1
  C  C9  1  0.500000  0.490693  0.433725  1
  C  C10  1  0.500000  0.991034  0.566879  1
  C  C11  1  0.500000  0.009122  0.433898  1
  C  C12  1  0.000000  0.749904  0.208645  1
  C  C13  1  0.000000  0.249128  0.791187  1
