# generated using pymatgen
data_Dy3Tm14(LuBi4)3
_symmetry_space_group_name_H-M   'P 1'
_cell_length_a   8.17436120
_cell_length_b   9.44009518
_cell_length_c   11.86875800
_cell_angle_alpha   89.99631587
_cell_angle_beta   90.01274975
_cell_angle_gamma   90.01044627
_symmetry_Int_Tables_number   1
_chemical_formula_structural   Dy3Tm14(LuBi4)3
_chemical_formula_sum   'Dy3 Tm14 Lu3 Bi12'
_cell_volume   915.87341498
_cell_formula_units_Z   1
loop_
 _symmetry_equiv_pos_site_id
 _symmetry_equiv_pos_as_xyz
  1  'x, y, z'
loop_
 _atom_site_type_symbol
 _atom_site_label
 _atom_site_symmetry_multiplicity
 _atom_site_fract_x
 _atom_site_fract_y
 _atom_site_fract_z
 _atom_site_occupancy
  Dy  Dy0  1  0.813022  0.249992  0.282586  1
  Dy  Dy1  1  0.686782  0.749962  0.782501  1
  Dy  Dy2  1  0.186647  0.749846  0.717257  1
  Tm  Tm3  1  0.352511  0.749678  0.218000  1
  Tm  Tm4  1  0.852844  0.749773  0.282146  1
  Tm  Tm5  1  0.647249  0.249945  0.782695  1
  Tm  Tm6  1  0.147513  0.249841  0.717613  1
  Tm  Tm7  1  0.692007  0.566289  0.059249  1
  Tm  Tm8  1  0.191721  0.933549  0.440873  1
  Tm  Tm9  1  0.308366  0.066240  0.940864  1
  Tm  Tm10  1  0.808550  0.433794  0.559164  1
  Tm  Tm11  1  0.308290  0.433797  0.940881  1
  Tm  Tm12  1  0.808910  0.066285  0.559054  1
  Tm  Tm13  1  0.691985  0.933688  0.059239  1
  Tm  Tm14  1  0.476950  0.249979  0.488754  1
  Tm  Tm15  1  0.977201  0.249888  0.011326  1
  Tm  Tm16  1  0.312951  0.249965  0.217021  1
  Lu  Lu17  1  0.191276  0.567602  0.440600  1
  Lu  Lu18  1  0.522177  0.749803  0.510890  1
  Lu  Lu19  1  0.022311  0.749963  0.989216  1
  Bi  Bi20  1  0.402557  0.750029  0.958034  1
  Bi  Bi21  1  0.902436  0.749817  0.541868  1
  Bi  Bi22  1  0.596300  0.249983  0.042747  1
  Bi  Bi23  1  0.097713  0.250754  0.457509  1
  Bi  Bi24  1  0.564695  0.995336  0.325292  1
  Bi  Bi25  1  0.066169  0.504431  0.174536  1
  Bi  Bi26  1  0.435176  0.495479  0.674394  1
  Bi  Bi27  1  0.934924  0.004448  0.825742  1
  Bi  Bi28  1  0.435062  0.004384  0.674402  1
  Bi  Bi29  1  0.934972  0.495464  0.825700  1
  Bi  Bi30  1  0.564640  0.504539  0.325326  1
  Bi  Bi31  1  0.066095  0.995457  0.174519  1
