# generated using pymatgen
data_LaY2NiIr8
_symmetry_space_group_name_H-M   'P 1'
_cell_length_a   5.34408019
_cell_length_b   5.34407957
_cell_length_c   9.19095769
_cell_angle_alpha   73.09864774
_cell_angle_beta   106.90135265
_cell_angle_gamma   120.00000964
_symmetry_Int_Tables_number   1
_chemical_formula_structural   LaY2NiIr8
_chemical_formula_sum   'La1 Y2 Ni1 Ir8'
_cell_volume   214.12817764
_cell_formula_units_Z   1
loop_
 _symmetry_equiv_pos_site_id
 _symmetry_equiv_pos_as_xyz
  1  'x, y, z'
loop_
 _atom_site_type_symbol
 _atom_site_label
 _atom_site_symmetry_multiplicity
 _atom_site_fract_x
 _atom_site_fract_y
 _atom_site_fract_z
 _atom_site_occupancy
  La  La0  1  0.000072  0.999928  0.000215  1
  Y  Y1  1  0.139395  0.860604  0.418187  1
  Y  Y2  1  0.858880  0.141121  0.576637  1
  Ni  Ni3  1  0.333194  0.666805  0.999581  1
  Ir  Ir4  1  0.667570  0.332431  0.002707  1
  Ir  Ir5  1  0.086016  0.420380  0.245254  1
  Ir  Ir6  1  0.579620  0.420381  0.245254  1
  Ir  Ir7  1  0.579620  0.913986  0.245254  1
  Ir  Ir8  1  0.500772  0.499228  0.502316  1
  Ir  Ir9  1  0.416478  0.078089  0.754865  1
  Ir  Ir10  1  0.416478  0.583524  0.754865  1
  Ir  Ir11  1  0.921911  0.583522  0.754865  1
