# generated using pymatgen
data_La4Yb3Lu3Ru4
_symmetry_space_group_name_H-M   'P 1'
_cell_length_a   6.47873184
_cell_length_b   7.29801474
_cell_length_c   8.68166065
_cell_angle_alpha   96.65104174
_cell_angle_beta   110.66619383
_cell_angle_gamma   89.72379276
_symmetry_Int_Tables_number   1
_chemical_formula_structural   La4Yb3Lu3Ru4
_chemical_formula_sum   'La4 Yb3 Lu3 Ru4'
_cell_volume   381.19949768
_cell_formula_units_Z   1
loop_
 _symmetry_equiv_pos_site_id
 _symmetry_equiv_pos_as_xyz
  1  'x, y, z'
loop_
 _atom_site_type_symbol
 _atom_site_label
 _atom_site_symmetry_multiplicity
 _atom_site_fract_x
 _atom_site_fract_y
 _atom_site_fract_z
 _atom_site_occupancy
  La  La0  1  0.521144  0.088267  0.807842  1
  La  La1  1  0.479969  0.911371  0.192687  1
  La  La2  1  0.710727  0.411984  0.186673  1
  La  La3  1  0.291284  0.591882  0.810974  1
  Yb  Yb4  1  0.297025  0.313944  0.425468  1
  Yb  Yb5  1  0.698833  0.687383  0.574018  1
  Yb  Yb6  1  0.872605  0.186683  0.572719  1
  Lu  Lu7  1  0.124123  0.816544  0.421803  1
  Lu  Lu8  1  0.072428  0.247250  0.998189  1
  Lu  Lu9  1  0.928134  0.751556  0.001597  1
  Ru  Ru10  1  0.312013  0.587771  0.211403  1
  Ru  Ru11  1  0.681861  0.416610  0.802081  1
  Ru  Ru12  1  0.113356  0.912804  0.777659  1
  Ru  Ru13  1  0.896496  0.075951  0.216888  1
