# generated using pymatgen
data_Ho3ErReB12Ir
_symmetry_space_group_name_H-M   'P 1'
_cell_length_a   3.65640300
_cell_length_b   9.13270485
_cell_length_c   11.52019421
_cell_angle_alpha   90.33920276
_cell_angle_beta   90.00000000
_cell_angle_gamma   90.00000000
_symmetry_Int_Tables_number   1
_chemical_formula_structural   Ho3ErReB12Ir
_chemical_formula_sum   'Ho6 Er2 Re2 B24 Ir2'
_cell_volume   384.68536883
_cell_formula_units_Z   2
loop_
 _symmetry_equiv_pos_site_id
 _symmetry_equiv_pos_as_xyz
  1  'x, y, z'
loop_
 _atom_site_type_symbol
 _atom_site_label
 _atom_site_symmetry_multiplicity
 _atom_site_fract_x
 _atom_site_fract_y
 _atom_site_fract_z
 _atom_site_occupancy
  Ho  Ho0  1  0.000000  0.317225  0.409710  1
  Ho  Ho1  1  0.000000  0.682775  0.590290  1
  Ho  Ho2  1  0.000000  0.826321  0.082378  1
  Ho  Ho3  1  0.000000  0.173679  0.917622  1
  Ho  Ho4  1  0.000000  0.946048  0.372295  1
  Ho  Ho5  1  0.000000  0.053952  0.627705  1
  Er  Er6  1  0.000000  0.441633  0.125713  1
  Er  Er7  1  0.000000  0.558367  0.874287  1
  Re  Re8  1  0.000000  0.138708  0.179641  1
  Re  Re9  1  0.000000  0.861292  0.820359  1
  B  B10  1  0.500000  0.553837  0.433950  1
  B  B11  1  0.500000  0.446163  0.566050  1
  B  B12  1  0.500000  0.053294  0.067079  1
  B  B13  1  0.500000  0.946706  0.932921  1
  B  B14  1  0.500000  0.749011  0.421270  1
  B  B15  1  0.500000  0.250989  0.578730  1
  B  B16  1  0.500000  0.248269  0.080488  1
  B  B17  1  0.500000  0.751731  0.919512  1
  B  B18  1  0.500000  0.790722  0.265896  1
  B  B19  1  0.500000  0.209278  0.734104  1
  B  B20  1  0.500000  0.292592  0.234151  1
  B  B21  1  0.500000  0.707408  0.765849  1
  B  B22  1  0.500000  0.631269  0.183774  1
  B  B23  1  0.500000  0.368731  0.816226  1
  B  B24  1  0.500000  0.131871  0.314665  1
  B  B25  1  0.500000  0.868129  0.685335  1
  B  B26  1  0.500000  0.982753  0.212975  1
  B  B27  1  0.500000  0.017247  0.787025  1
  B  B28  1  0.500000  0.482036  0.287066  1
  B  B29  1  0.500000  0.517964  0.712934  1
  B  B30  1  0.500000  0.605808  0.029749  1
  B  B31  1  0.500000  0.394192  0.970251  1
  B  B32  1  0.500000  0.108247  0.470644  1
  B  B33  1  0.500000  0.891753  0.529356  1
  Ir  Ir34  1  0.000000  0.636374  0.321927  1
  Ir  Ir35  1  0.000000  0.363626  0.678073  1
