# generated using pymatgen
data_CePr8DyIr4
_symmetry_space_group_name_H-M   'P 1'
_cell_length_a   6.70020014
_cell_length_b   7.28186876
_cell_length_c   9.01973600
_cell_angle_alpha   96.75034939
_cell_angle_beta   111.80315146
_cell_angle_gamma   90.00000301
_symmetry_Int_Tables_number   1
_chemical_formula_structural   CePr8DyIr4
_chemical_formula_sum   'Ce1 Pr8 Dy1 Ir4'
_cell_volume   405.30471449
_cell_formula_units_Z   1
loop_
 _symmetry_equiv_pos_site_id
 _symmetry_equiv_pos_as_xyz
  1  'x, y, z'
loop_
 _atom_site_type_symbol
 _atom_site_label
 _atom_site_symmetry_multiplicity
 _atom_site_fract_x
 _atom_site_fract_y
 _atom_site_fract_z
 _atom_site_occupancy
  Ce  Ce0  1  0.435690  0.750000  0.000000  1
  Pr  Pr1  1  0.977431  0.926696  0.183313  1
  Pr  Pr2  1  0.794119  0.573304  0.816687  1
  Pr  Pr3  1  0.019807  0.079146  0.816172  1
  Pr  Pr4  1  0.203633  0.420854  0.183828  1
  Pr  Pr5  1  0.647051  0.813059  0.433222  1
  Pr  Pr6  1  0.213828  0.686941  0.566778  1
  Pr  Pr7  1  0.356419  0.187283  0.571034  1
  Pr  Pr8  1  0.785385  0.312717  0.428966  1
  Dy  Dy9  1  0.564202  0.250000  0.000000  1
  Ir  Ir10  1  0.800407  0.573293  0.205076  1
  Ir  Ir11  1  0.595332  0.926707  0.794924  1
  Ir  Ir12  1  0.200803  0.434050  0.794910  1
  Ir  Ir13  1  0.405892  0.065950  0.205090  1
