# generated using pymatgen
data_Nd4Al4Ir3Pd
_symmetry_space_group_name_H-M   'P 1'
_cell_length_a   4.38099800
_cell_length_b   7.09370116
_cell_length_c   8.01804012
_cell_angle_alpha   90.14012299
_cell_angle_beta   90.00000000
_cell_angle_gamma   90.00000000
_symmetry_Int_Tables_number   1
_chemical_formula_structural   Nd4Al4Ir3Pd
_chemical_formula_sum   'Nd4 Al4 Ir3 Pd1'
_cell_volume   249.17982123
_cell_formula_units_Z   1
loop_
 _symmetry_equiv_pos_site_id
 _symmetry_equiv_pos_as_xyz
  1  'x, y, z'
loop_
 _atom_site_type_symbol
 _atom_site_label
 _atom_site_symmetry_multiplicity
 _atom_site_fract_x
 _atom_site_fract_y
 _atom_site_fract_z
 _atom_site_occupancy
  Nd  Nd0  1  0.750000  0.463863  0.182803  1
  Nd  Nd1  1  0.250000  0.029818  0.682740  1
  Nd  Nd2  1  0.750000  0.973031  0.321164  1
  Nd  Nd3  1  0.250000  0.526233  0.813920  1
  Al  Al4  1  0.750000  0.861602  0.931967  1
  Al  Al5  1  0.250000  0.637816  0.440660  1
  Al  Al6  1  0.750000  0.359551  0.564369  1
  Al  Al7  1  0.250000  0.146630  0.063955  1
  Ir  Ir8  1  0.750000  0.724440  0.615069  1
  Ir  Ir9  1  0.750000  0.223508  0.886091  1
  Ir  Ir10  1  0.250000  0.274962  0.383647  1
  Pd  Pd11  1  0.250000  0.778547  0.113614  1
