# generated using pymatgen
data_YbDy8ZrIr6
_symmetry_space_group_name_H-M   'P 1'
_cell_length_a   10.86546500
_cell_length_b   10.86546500
_cell_length_c   6.30254500
_cell_angle_alpha   90.00000000
_cell_angle_beta   90.00000000
_cell_angle_gamma   90.00000000
_symmetry_Int_Tables_number   1
_chemical_formula_structural   YbDy8ZrIr6
_chemical_formula_sum   'Yb2 Dy16 Zr2 Ir12'
_cell_volume   744.06793535
_cell_formula_units_Z   2
loop_
 _symmetry_equiv_pos_site_id
 _symmetry_equiv_pos_as_xyz
  1  'x, y, z'
loop_
 _atom_site_type_symbol
 _atom_site_label
 _atom_site_symmetry_multiplicity
 _atom_site_fract_x
 _atom_site_fract_y
 _atom_site_fract_z
 _atom_site_occupancy
  Yb  Yb0  1  0.500000  0.500000  0.000000  1
  Yb  Yb1  1  0.500000  0.500000  0.500000  1
  Dy  Dy2  1  0.288990  0.087434  0.376181  1
  Dy  Dy3  1  0.288990  0.912566  0.876181  1
  Dy  Dy4  1  0.711010  0.087434  0.876181  1
  Dy  Dy5  1  0.711010  0.912566  0.376181  1
  Dy  Dy6  1  0.587474  0.791651  0.877560  1
  Dy  Dy7  1  0.587474  0.208349  0.377560  1
  Dy  Dy8  1  0.412526  0.791651  0.377560  1
  Dy  Dy9  1  0.412526  0.208349  0.877560  1
  Dy  Dy10  1  0.208349  0.412526  0.622440  1
  Dy  Dy11  1  0.208349  0.587474  0.122440  1
  Dy  Dy12  1  0.791651  0.412526  0.122440  1
  Dy  Dy13  1  0.791651  0.587474  0.622440  1
  Dy  Dy14  1  0.912566  0.711010  0.123819  1
  Dy  Dy15  1  0.912566  0.288990  0.623819  1
  Dy  Dy16  1  0.087434  0.711010  0.623819  1
  Dy  Dy17  1  0.087434  0.288990  0.123819  1
  Zr  Zr18  1  0.000000  0.000000  0.500000  1
  Zr  Zr19  1  0.000000  0.000000  0.000000  1
  Ir  Ir20  1  0.856315  0.143685  0.250000  1
  Ir  Ir21  1  0.856315  0.856315  0.750000  1
  Ir  Ir22  1  0.143685  0.143685  0.750000  1
  Ir  Ir23  1  0.143685  0.856315  0.250000  1
  Ir  Ir24  1  0.658907  0.341093  0.750000  1
  Ir  Ir25  1  0.658907  0.658907  0.250000  1
  Ir  Ir26  1  0.341093  0.341093  0.250000  1
  Ir  Ir27  1  0.341093  0.658907  0.750000  1
  Ir  Ir28  1  0.500000  0.000000  0.122906  1
  Ir  Ir29  1  0.500000  0.000000  0.622906  1
  Ir  Ir30  1  0.000000  0.500000  0.877094  1
  Ir  Ir31  1  0.000000  0.500000  0.377094  1
