# generated using pymatgen
data_Dy5Y11(CdPt)4
_symmetry_space_group_name_H-M   'P 1'
_cell_length_a   9.69742984
_cell_length_b   9.71090371
_cell_length_c   9.71090332
_cell_angle_alpha   60.03110472
_cell_angle_beta   60.04588773
_cell_angle_gamma   60.04588667
_symmetry_Int_Tables_number   1
_chemical_formula_structural   Dy5Y11(CdPt)4
_chemical_formula_sum   'Dy5 Y11 Cd4 Pt4'
_cell_volume   647.23788094
_cell_formula_units_Z   1
loop_
 _symmetry_equiv_pos_site_id
 _symmetry_equiv_pos_as_xyz
  1  'x, y, z'
loop_
 _atom_site_type_symbol
 _atom_site_label
 _atom_site_symmetry_multiplicity
 _atom_site_fract_x
 _atom_site_fract_y
 _atom_site_fract_z
 _atom_site_occupancy
  Dy  Dy0  1  0.600227  0.602170  0.602170  1
  Dy  Dy1  1  0.602351  0.604021  0.191276  1
  Dy  Dy2  1  0.602351  0.191276  0.604021  1
  Dy  Dy3  1  0.195432  0.602170  0.602170  1
  Dy  Dy4  1  0.059146  0.440854  0.440854  1
  Y  Y5  1  0.439481  0.060519  0.060519  1
  Y  Y6  1  0.440533  0.060104  0.440193  1
  Y  Y7  1  0.059171  0.440193  0.060104  1
  Y  Y8  1  0.440533  0.440193  0.060104  1
  Y  Y9  1  0.059171  0.060104  0.440193  1
  Y  Y10  1  0.185112  0.814888  0.814888  1
  Y  Y11  1  0.813396  0.186604  0.186604  1
  Y  Y12  1  0.814280  0.186553  0.813315  1
  Y  Y13  1  0.185852  0.813315  0.186553  1
  Y  Y14  1  0.814280  0.813315  0.186553  1
  Y  Y15  1  0.185852  0.186553  0.813315  1
  Cd  Cd16  1  0.832446  0.831100  0.831100  1
  Cd  Cd17  1  0.832064  0.831308  0.504562  1
  Cd  Cd18  1  0.832064  0.504562  0.831308  1
  Cd  Cd19  1  0.505351  0.831100  0.831100  1
  Pt  Pt20  1  0.394097  0.394024  0.394024  1
  Pt  Pt21  1  0.394477  0.392276  0.818772  1
  Pt  Pt22  1  0.394477  0.818772  0.392276  1
  Pt  Pt23  1  0.817856  0.394024  0.394024  1
