# generated using pymatgen
data_Zr3ScCoOs7
_symmetry_space_group_name_H-M   'P 1'
_cell_length_a   5.17193040
_cell_length_b   5.17192978
_cell_length_c   8.55217548
_cell_angle_alpha   90.07581056
_cell_angle_beta   89.92418543
_cell_angle_gamma   119.47777964
_symmetry_Int_Tables_number   1
_chemical_formula_structural   Zr3ScCoOs7
_chemical_formula_sum   'Zr3 Sc1 Co1 Os7'
_cell_volume   199.14683572
_cell_formula_units_Z   1
loop_
 _symmetry_equiv_pos_site_id
 _symmetry_equiv_pos_as_xyz
  1  'x, y, z'
loop_
 _atom_site_type_symbol
 _atom_site_label
 _atom_site_symmetry_multiplicity
 _atom_site_fract_x
 _atom_site_fract_y
 _atom_site_fract_z
 _atom_site_occupancy
  Zr  Zr0  1  0.667370  0.332630  0.559452  1
  Zr  Zr1  1  0.667994  0.332006  0.936808  1
  Zr  Zr2  1  0.333165  0.666835  0.072188  1
  Sc  Sc3  1  0.333263  0.666737  0.433976  1
  Co  Co4  1  0.829774  0.170226  0.250177  1
  Os  Os5  1  0.999242  0.000758  0.494966  1
  Os  Os6  1  0.995812  0.004188  0.002981  1
  Os  Os7  1  0.825146  0.653374  0.249618  1
  Os  Os8  1  0.346626  0.174854  0.249618  1
  Os  Os9  1  0.172078  0.827922  0.750470  1
  Os  Os10  1  0.172871  0.343343  0.749873  1
  Os  Os11  1  0.656657  0.827129  0.749873  1
