# generated using pymatgen
data_Tm4Ga16Co3
_symmetry_space_group_name_H-M   'P 1'
_cell_length_a   5.99620500
_cell_length_b   5.99620500
_cell_length_c   11.08908800
_cell_angle_alpha   90.00000000
_cell_angle_beta   90.00000000
_cell_angle_gamma   90.00000000
_symmetry_Int_Tables_number   1
_chemical_formula_structural   Tm4Ga16Co3
_chemical_formula_sum   'Tm4 Ga16 Co3'
_cell_volume   398.70233064
_cell_formula_units_Z   1
loop_
 _symmetry_equiv_pos_site_id
 _symmetry_equiv_pos_as_xyz
  1  'x, y, z'
loop_
 _atom_site_type_symbol
 _atom_site_label
 _atom_site_symmetry_multiplicity
 _atom_site_fract_x
 _atom_site_fract_y
 _atom_site_fract_z
 _atom_site_occupancy
  Tm  Tm0  1  0.000000  0.500000  0.194621  1
  Tm  Tm1  1  0.000000  0.500000  0.805379  1
  Tm  Tm2  1  0.500000  0.000000  0.805379  1
  Tm  Tm3  1  0.500000  0.000000  0.194621  1
  Ga  Ga4  1  0.000000  0.000000  0.216952  1
  Ga  Ga5  1  0.000000  0.000000  0.783048  1
  Ga  Ga6  1  0.500000  0.500000  0.194700  1
  Ga  Ga7  1  0.500000  0.500000  0.805300  1
  Ga  Ga8  1  0.280116  0.280116  0.000000  1
  Ga  Ga9  1  0.719884  0.719884  0.000000  1
  Ga  Ga10  1  0.280116  0.719884  0.000000  1
  Ga  Ga11  1  0.719884  0.280116  0.000000  1
  Ga  Ga12  1  0.249661  0.249661  0.384112  1
  Ga  Ga13  1  0.750339  0.750339  0.384112  1
  Ga  Ga14  1  0.249661  0.750339  0.615888  1
  Ga  Ga15  1  0.750339  0.249661  0.615888  1
  Ga  Ga16  1  0.750339  0.750339  0.615888  1
  Ga  Ga17  1  0.249661  0.249661  0.615888  1
  Ga  Ga18  1  0.249661  0.750339  0.384112  1
  Ga  Ga19  1  0.750339  0.249661  0.384112  1
  Co  Co20  1  0.000000  0.500000  0.500000  1
  Co  Co21  1  0.500000  0.000000  0.500000  1
  Co  Co22  1  0.000000  0.000000  0.000000  1
