# generated using pymatgen
data_Tb2Er4Al17Si7Os8
_symmetry_space_group_name_H-M   'P 1'
_cell_length_a   8.69444903
_cell_length_b   8.68332356
_cell_length_c   9.47435400
_cell_angle_alpha   90.00000000
_cell_angle_beta   90.00000000
_cell_angle_gamma   120.10413719
_symmetry_Int_Tables_number   1
_chemical_formula_structural   Tb2Er4Al17Si7Os8
_chemical_formula_sum   'Tb2 Er4 Al17 Si7 Os8'
_cell_volume   618.80184927
_cell_formula_units_Z   1
loop_
 _symmetry_equiv_pos_site_id
 _symmetry_equiv_pos_as_xyz
  1  'x, y, z'
loop_
 _atom_site_type_symbol
 _atom_site_label
 _atom_site_symmetry_multiplicity
 _atom_site_fract_x
 _atom_site_fract_y
 _atom_site_fract_z
 _atom_site_occupancy
  Tb  Tb0  1  0.807964  0.615570  0.750000  1
  Tb  Tb1  1  0.386198  0.190320  0.750000  1
  Er  Er2  1  0.193397  0.388947  0.250000  1
  Er  Er3  1  0.609830  0.806341  0.250000  1
  Er  Er4  1  0.196146  0.804647  0.250000  1
  Er  Er5  1  0.801791  0.191584  0.750000  1
  Al  Al6  1  0.164231  0.330273  0.578076  1
  Al  Al7  1  0.834393  0.671117  0.420844  1
  Al  Al8  1  0.671043  0.835239  0.577670  1
  Al  Al9  1  0.834393  0.671117  0.079156  1
  Al  Al10  1  0.330005  0.165859  0.422122  1
  Al  Al11  1  0.164231  0.330273  0.921924  1
  Al  Al12  1  0.164092  0.834255  0.575875  1
  Al  Al13  1  0.330005  0.165859  0.077878  1
  Al  Al14  1  0.835624  0.164010  0.421310  1
  Al  Al15  1  0.671043  0.835239  0.922330  1
  Al  Al16  1  0.835624  0.164010  0.078690  1
  Al  Al17  1  0.164092  0.834255  0.924125  1
  Al  Al18  1  0.125686  0.565446  0.750000  1
  Al  Al19  1  0.564438  0.434918  0.250000  1
  Al  Al20  1  0.438551  0.566342  0.750000  1
  Al  Al21  1  0.999454  0.998825  0.250000  1
  Al  Al22  1  0.998989  0.001506  0.750000  1
  Si  Si23  1  0.333433  0.664771  0.040749  1
  Si  Si24  1  0.666863  0.335430  0.960726  1
  Si  Si25  1  0.666863  0.335430  0.539274  1
  Si  Si26  1  0.333433  0.664771  0.459251  1
  Si  Si27  1  0.564808  0.124242  0.250000  1
  Si  Si28  1  0.436129  0.872538  0.750000  1
  Si  Si29  1  0.874614  0.434421  0.250000  1
  Os  Os30  1  0.501010  0.000352  0.002155  1
  Os  Os31  1  0.999116  0.499535  0.007680  1
  Os  Os32  1  0.501010  0.000352  0.497845  1
  Os  Os33  1  0.500362  0.500680  0.001829  1
  Os  Os34  1  0.999116  0.499535  0.492320  1
  Os  Os35  1  0.500362  0.500680  0.498171  1
  Os  Os36  1  0.000830  0.000659  0.000606  1
  Os  Os37  1  0.000830  0.000659  0.499394  1
