# generated using pymatgen
data_LaCoSbAsRh
_symmetry_space_group_name_H-M   'P 1'
_cell_length_a   4.37931600
_cell_length_b   4.37931600
_cell_length_c   10.02114400
_cell_angle_alpha   90.00000000
_cell_angle_beta   90.00000000
_cell_angle_gamma   90.00000000
_symmetry_Int_Tables_number   1
_chemical_formula_structural   LaCoSbAsRh
_chemical_formula_sum   'La2 Co2 Sb2 As2 Rh2'
_cell_volume   192.18959455
_cell_formula_units_Z   2
loop_
 _symmetry_equiv_pos_site_id
 _symmetry_equiv_pos_as_xyz
  1  'x, y, z'
loop_
 _atom_site_type_symbol
 _atom_site_label
 _atom_site_symmetry_multiplicity
 _atom_site_fract_x
 _atom_site_fract_y
 _atom_site_fract_z
 _atom_site_occupancy
  La  La0  1  0.000000  0.500000  0.271257  1
  La  La1  1  0.500000  0.000000  0.728743  1
  Co  Co2  1  0.000000  0.500000  0.596084  1
  Co  Co3  1  0.500000  0.000000  0.403916  1
  Sb  Sb4  1  0.000000  0.500000  0.849119  1
  Sb  Sb5  1  0.500000  0.000000  0.150881  1
  As  As6  1  0.000000  0.000000  0.500000  1
  As  As7  1  0.500000  0.500000  0.500000  1
  Rh  Rh8  1  0.000000  0.000000  0.000000  1
  Rh  Rh9  1  0.500000  0.500000  0.000000  1
