# generated using pymatgen
data_YTh2In3Pd2Pt
_symmetry_space_group_name_H-M   'P 1'
_cell_length_a   7.75758859
_cell_length_b   7.73493630
_cell_length_c   4.03075900
_cell_angle_alpha   90.00000000
_cell_angle_beta   90.00000000
_cell_angle_gamma   120.28837001
_symmetry_Int_Tables_number   1
_chemical_formula_structural   YTh2In3Pd2Pt
_chemical_formula_sum   'Y1 Th2 In3 Pd2 Pt1'
_cell_volume   208.84862712
_cell_formula_units_Z   1
loop_
 _symmetry_equiv_pos_site_id
 _symmetry_equiv_pos_as_xyz
  1  'x, y, z'
loop_
 _atom_site_type_symbol
 _atom_site_label
 _atom_site_symmetry_multiplicity
 _atom_site_fract_x
 _atom_site_fract_y
 _atom_site_fract_z
 _atom_site_occupancy
  Y  Y0  1  0.588794  0.592275  0.500000  1
  Th  Th1  1  0.410750  0.995414  0.500000  1
  Th  Th2  1  0.004384  0.413818  0.500000  1
  In  In3  1  0.748053  0.993175  0.000000  1
  In  In4  1  0.263192  0.259916  0.000000  1
  In  In5  1  0.986784  0.745314  0.000000  1
  Pd  Pd6  1  0.006497  0.005988  0.500000  1
  Pd  Pd7  1  0.667198  0.326069  0.000000  1
  Pt  Pt8  1  0.324348  0.668033  0.000000  1
