# generated using pymatgen
data_Tm8V3Si16W9
_symmetry_space_group_name_H-M   'P 1'
_cell_length_a   6.66218501
_cell_length_b   6.84492640
_cell_length_c   12.82572800
_cell_angle_alpha   89.97322262
_cell_angle_beta   89.99712755
_cell_angle_gamma   89.96017159
_symmetry_Int_Tables_number   1
_chemical_formula_structural   Tm8V3Si16W9
_chemical_formula_sum   'Tm8 V3 Si16 W9'
_cell_volume   584.88077210
_cell_formula_units_Z   1
loop_
 _symmetry_equiv_pos_site_id
 _symmetry_equiv_pos_as_xyz
  1  'x, y, z'
loop_
 _atom_site_type_symbol
 _atom_site_label
 _atom_site_symmetry_multiplicity
 _atom_site_fract_x
 _atom_site_fract_y
 _atom_site_fract_z
 _atom_site_occupancy
  Tm  Tm0  1  0.495572  0.331631  0.092418  1
  Tm  Tm1  1  0.994772  0.168292  0.406699  1
  Tm  Tm2  1  0.503921  0.668907  0.593698  1
  Tm  Tm3  1  0.004616  0.831488  0.906518  1
  Tm  Tm4  1  0.502422  0.670563  0.906888  1
  Tm  Tm5  1  0.002279  0.829321  0.593850  1
  Tm  Tm6  1  0.497106  0.330956  0.406660  1
  Tm  Tm7  1  0.996443  0.169830  0.092151  1
  V  V8  1  0.668146  0.837368  0.125633  1
  V  V9  1  0.832459  0.336500  0.874043  1
  V  V10  1  0.333019  0.162949  0.626164  1
  Si  Si11  1  0.660310  0.043496  0.544907  1
  Si  Si12  1  0.159377  0.456551  0.955233  1
  Si  Si13  1  0.340234  0.956866  0.045053  1
  Si  Si14  1  0.837495  0.542070  0.455865  1
  Si  Si15  1  0.334728  0.960383  0.458112  1
  Si  Si16  1  0.833503  0.544590  0.043447  1
  Si  Si17  1  0.667013  0.044652  0.956856  1
  Si  Si18  1  0.167094  0.452567  0.545005  1
  Si  Si19  1  0.534493  0.373508  0.750297  1
  Si  Si20  1  0.034527  0.127123  0.750099  1
  Si  Si21  1  0.469061  0.627366  0.248033  1
  Si  Si22  1  0.963524  0.873624  0.248035  1
  Si  Si23  1  0.799464  0.632253  0.752311  1
  Si  Si24  1  0.299449  0.867450  0.748364  1
  Si  Si25  1  0.199719  0.363231  0.249880  1
  Si  Si26  1  0.699555  0.133372  0.247971  1
  W  W27  1  0.831235  0.336482  0.624572  1
  W  W28  1  0.331786  0.163708  0.875296  1
  W  W29  1  0.169945  0.662665  0.124594  1
  W  W30  1  0.668023  0.836935  0.375844  1
  W  W31  1  0.170168  0.663163  0.374970  1
  W  W32  1  0.661324  0.006762  0.750374  1
  W  W33  1  0.161767  0.493716  0.750230  1
  W  W34  1  0.338234  0.995631  0.250167  1
  W  W35  1  0.837218  0.504030  0.249768  1
