# generated using pymatgen
data_Ho4Lu8Ru3Rh
_symmetry_space_group_name_H-M   'P 1'
_cell_length_a   6.22823234
_cell_length_b   7.21999948
_cell_length_c   8.95064500
_cell_angle_alpha   90.00000000
_cell_angle_beta   90.00000000
_cell_angle_gamma   89.99801125
_symmetry_Int_Tables_number   1
_chemical_formula_structural   Ho4Lu8Ru3Rh
_chemical_formula_sum   'Ho4 Lu8 Ru3 Rh1'
_cell_volume   402.49112059
_cell_formula_units_Z   1
loop_
 _symmetry_equiv_pos_site_id
 _symmetry_equiv_pos_as_xyz
  1  'x, y, z'
loop_
 _atom_site_type_symbol
 _atom_site_label
 _atom_site_symmetry_multiplicity
 _atom_site_fract_x
 _atom_site_fract_y
 _atom_site_fract_z
 _atom_site_occupancy
  Ho  Ho0  1  0.872022  0.538095  0.250000  1
  Ho  Ho1  1  0.628245  0.038399  0.250000  1
  Ho  Ho2  1  0.126667  0.461119  0.750000  1
  Ho  Ho3  1  0.370771  0.962016  0.750000  1
  Lu  Lu4  1  0.332964  0.674273  0.062081  1
  Lu  Lu5  1  0.169935  0.179411  0.437797  1
  Lu  Lu6  1  0.669070  0.323384  0.563716  1
  Lu  Lu7  1  0.827993  0.822573  0.934087  1
  Lu  Lu8  1  0.669070  0.323384  0.936284  1
  Lu  Lu9  1  0.827993  0.822573  0.565913  1
  Lu  Lu10  1  0.332964  0.674273  0.437919  1
  Lu  Lu11  1  0.169935  0.179411  0.062203  1
  Ru  Ru12  1  0.459737  0.385235  0.250000  1
  Ru  Ru13  1  0.959632  0.113715  0.750000  1
  Ru  Ru14  1  0.537533  0.615015  0.750000  1
  Rh  Rh15  1  0.045468  0.887127  0.250000  1
