# generated using pymatgen
data_Hf12TiMn8Nb3N4
_symmetry_space_group_name_H-M   'P 1'
_cell_length_a   8.44181754
_cell_length_b   8.44181669
_cell_length_c   8.44181603
_cell_angle_alpha   59.97896834
_cell_angle_beta   59.97896339
_cell_angle_gamma   59.97896634
_symmetry_Int_Tables_number   1
_chemical_formula_structural   Hf12TiMn8Nb3N4
_chemical_formula_sum   'Hf12 Ti1 Mn8 Nb3 N4'
_cell_volume   425.19248058
_cell_formula_units_Z   1
loop_
 _symmetry_equiv_pos_site_id
 _symmetry_equiv_pos_as_xyz
  1  'x, y, z'
loop_
 _atom_site_type_symbol
 _atom_site_label
 _atom_site_symmetry_multiplicity
 _atom_site_fract_x
 _atom_site_fract_y
 _atom_site_fract_z
 _atom_site_occupancy
  Hf  Hf0  1  0.811913  0.811913  0.189522  1
  Hf  Hf1  1  0.187320  0.187320  0.812547  1
  Hf  Hf2  1  0.811913  0.189522  0.811913  1
  Hf  Hf3  1  0.187320  0.812547  0.187320  1
  Hf  Hf4  1  0.189522  0.811913  0.811913  1
  Hf  Hf5  1  0.812547  0.187320  0.187320  1
  Hf  Hf6  1  0.438087  0.438087  0.060478  1
  Hf  Hf7  1  0.062680  0.062680  0.437453  1
  Hf  Hf8  1  0.438087  0.060478  0.438087  1
  Hf  Hf9  1  0.062680  0.437453  0.062680  1
  Hf  Hf10  1  0.060478  0.438087  0.438087  1
  Hf  Hf11  1  0.437453  0.062680  0.062680  1
  Ti  Ti12  1  0.625000  0.625000  0.625000  1
  Mn  Mn13  1  0.738213  0.420959  0.420959  1
  Mn  Mn14  1  0.420959  0.738213  0.420959  1
  Mn  Mn15  1  0.420959  0.420959  0.738213  1
  Mn  Mn16  1  0.420172  0.420172  0.420172  1
  Mn  Mn17  1  0.511787  0.829041  0.829041  1
  Mn  Mn18  1  0.829041  0.511787  0.829041  1
  Mn  Mn19  1  0.829041  0.829041  0.511787  1
  Mn  Mn20  1  0.829828  0.829828  0.829828  1
  Nb  Nb21  1  0.125000  0.625000  0.625000  1
  Nb  Nb22  1  0.625000  0.125000  0.625000  1
  Nb  Nb23  1  0.625000  0.625000  0.125000  1
  N  N24  1  0.625000  0.125000  0.125000  1
  N  N25  1  0.125000  0.625000  0.125000  1
  N  N26  1  0.125000  0.125000  0.625000  1
  N  N27  1  0.125000  0.125000  0.125000  1
