# generated using pymatgen
data_Ti2AlSi2Ge
_symmetry_space_group_name_H-M   'P 1'
_cell_length_a   3.66002016
_cell_length_b   3.61987100
_cell_length_c   7.09537531
_cell_angle_alpha   90.00000000
_cell_angle_beta   75.05356281
_cell_angle_gamma   90.00000000
_symmetry_Int_Tables_number   1
_chemical_formula_structural   Ti2AlSi2Ge
_chemical_formula_sum   'Ti2 Al1 Si2 Ge1'
_cell_volume   90.82476985
_cell_formula_units_Z   1
loop_
 _symmetry_equiv_pos_site_id
 _symmetry_equiv_pos_as_xyz
  1  'x, y, z'
loop_
 _atom_site_type_symbol
 _atom_site_label
 _atom_site_symmetry_multiplicity
 _atom_site_fract_x
 _atom_site_fract_y
 _atom_site_fract_z
 _atom_site_occupancy
  Ti  Ti0  1  0.096260  0.750000  0.807479  1
  Ti  Ti1  1  0.904730  0.250000  0.190539  1
  Al  Al2  1  0.751220  0.750000  0.497561  1
  Si  Si3  1  0.439363  0.750000  0.121274  1
  Si  Si4  1  0.559798  0.250000  0.880404  1
  Ge  Ge5  1  0.248628  0.250000  0.502743  1
