# generated using pymatgen
data_Lu2Nb2Ni10As7
_symmetry_space_group_name_H-M   'P 1'
_cell_length_a   9.59553122
_cell_length_b   9.46204112
_cell_length_c   3.81451600
_cell_angle_alpha   90.00000000
_cell_angle_beta   90.00000000
_cell_angle_gamma   120.32983163
_symmetry_Int_Tables_number   1
_chemical_formula_structural   Lu2Nb2Ni10As7
_chemical_formula_sum   'Lu2 Nb2 Ni10 As7'
_cell_volume   298.93095415
_cell_formula_units_Z   1
loop_
 _symmetry_equiv_pos_site_id
 _symmetry_equiv_pos_as_xyz
  1  'x, y, z'
loop_
 _atom_site_type_symbol
 _atom_site_label
 _atom_site_symmetry_multiplicity
 _atom_site_fract_x
 _atom_site_fract_y
 _atom_site_fract_z
 _atom_site_occupancy
  Lu  Lu0  1  0.344089  0.667686  0.000000  1
  Lu  Lu1  1  0.665035  0.337968  0.500000  1
  Nb  Nb2  1  0.217481  0.098480  0.500000  1
  Nb  Nb3  1  0.896819  0.115451  0.500000  1
  Ni  Ni4  1  0.429634  0.062017  0.000000  1
  Ni  Ni5  1  0.154791  0.284004  0.000000  1
  Ni  Ni6  1  0.938763  0.372294  0.000000  1
  Ni  Ni7  1  0.633324  0.568201  0.000000  1
  Ni  Ni8  1  0.128253  0.835937  0.000000  1
  Ni  Ni9  1  0.712687  0.874938  0.000000  1
  Ni  Ni10  1  0.384490  0.441554  0.500000  1
  Ni  Ni11  1  0.043874  0.615272  0.500000  1
  Ni  Ni12  1  0.884562  0.782850  0.500000  1
  Ni  Ni13  1  0.561431  0.942958  0.500000  1
  As  As14  1  0.993401  0.986634  0.000000  1
  As  As15  1  0.695902  0.118949  0.000000  1
  As  As16  1  0.414775  0.303408  0.000000  1
  As  As17  1  0.882518  0.588324  0.000000  1
  As  As18  1  0.123266  0.417722  0.500000  1
  As  As19  1  0.600690  0.710878  0.500000  1
  As  As20  1  0.294218  0.874474  0.500000  1
