# generated using pymatgen
data_Tb5Er5(Hg2Pd)4
_symmetry_space_group_name_H-M   'P 1'
_cell_length_a   3.65491500
_cell_length_b   7.97959687
_cell_length_c   18.04829488
_cell_angle_alpha   89.90437686
_cell_angle_beta   90.00000000
_cell_angle_gamma   90.00000000
_symmetry_Int_Tables_number   1
_chemical_formula_structural   Tb5Er5(Hg2Pd)4
_chemical_formula_sum   'Tb5 Er5 Hg8 Pd4'
_cell_volume   526.37324404
_cell_formula_units_Z   1
loop_
 _symmetry_equiv_pos_site_id
 _symmetry_equiv_pos_as_xyz
  1  'x, y, z'
loop_
 _atom_site_type_symbol
 _atom_site_label
 _atom_site_symmetry_multiplicity
 _atom_site_fract_x
 _atom_site_fract_y
 _atom_site_fract_z
 _atom_site_occupancy
  Tb  Tb0  1  0.000000  0.500572  0.499707  1
  Tb  Tb1  1  0.000000  0.999344  0.000187  1
  Tb  Tb2  1  0.000000  0.726852  0.286050  1
  Tb  Tb3  1  0.000000  0.274053  0.713505  1
  Tb  Tb4  1  0.000000  0.774665  0.786815  1
  Er  Er5  1  0.000000  0.225644  0.213773  1
  Er  Er6  1  0.000000  0.609392  0.086095  1
  Er  Er7  1  0.000000  0.388848  0.914957  1
  Er  Er8  1  0.000000  0.889131  0.584841  1
  Er  Er9  1  0.000000  0.111886  0.414258  1
  Hg  Hg10  1  0.500000  0.709015  0.938301  1
  Hg  Hg11  1  0.500000  0.288706  0.063230  1
  Hg  Hg12  1  0.500000  0.790718  0.436602  1
  Hg  Hg13  1  0.500000  0.209985  0.562270  1
  Hg  Hg14  1  0.500000  0.591243  0.648056  1
  Hg  Hg15  1  0.500000  0.409130  0.351912  1
  Hg  Hg16  1  0.500000  0.910780  0.147744  1
  Hg  Hg17  1  0.500000  0.090769  0.852187  1
  Pd  Pd18  1  0.500000  0.513620  0.196048  1
  Pd  Pd19  1  0.500000  0.482861  0.804646  1
  Pd  Pd20  1  0.500000  0.982048  0.695420  1
  Pd  Pd21  1  0.500000  0.020737  0.303396  1
