# generated using pymatgen
data_LiSm6Co(P3Rh4)4
_symmetry_space_group_name_H-M   'P 1'
_cell_length_a   3.93524800
_cell_length_b   11.23203200
_cell_length_c   12.88412100
_cell_angle_alpha   90.00000000
_cell_angle_beta   90.00000000
_cell_angle_gamma   90.00000000
_symmetry_Int_Tables_number   1
_chemical_formula_structural   LiSm6Co(P3Rh4)4
_chemical_formula_sum   'Li1 Sm6 Co1 P12 Rh16'
_cell_volume   569.48886088
_cell_formula_units_Z   1
loop_
 _symmetry_equiv_pos_site_id
 _symmetry_equiv_pos_as_xyz
  1  'x, y, z'
loop_
 _atom_site_type_symbol
 _atom_site_label
 _atom_site_symmetry_multiplicity
 _atom_site_fract_x
 _atom_site_fract_y
 _atom_site_fract_z
 _atom_site_occupancy
  Li  Li0  1  0.500000  0.500000  0.154125  1
  Sm  Sm1  1  0.000000  0.500000  0.515410  1
  Sm  Sm2  1  0.500000  0.000000  0.479697  1
  Sm  Sm3  1  0.500000  0.819054  0.203851  1
  Sm  Sm4  1  0.500000  0.180946  0.203851  1
  Sm  Sm5  1  0.000000  0.685852  0.797050  1
  Sm  Sm6  1  0.000000  0.314148  0.797050  1
  Co  Co7  1  0.500000  0.000000  0.018294  1
  P  P8  1  0.500000  0.500000  0.883156  1
  P  P9  1  0.000000  0.000000  0.117356  1
  P  P10  1  0.500000  0.500000  0.342639  1
  P  P11  1  0.000000  0.000000  0.650528  1
  P  P12  1  0.500000  0.313872  0.618502  1
  P  P13  1  0.500000  0.686128  0.618502  1
  P  P14  1  0.000000  0.188054  0.382685  1
  P  P15  1  0.000000  0.811946  0.382685  1
  P  P16  1  0.500000  0.855520  0.895940  1
  P  P17  1  0.500000  0.144480  0.895940  1
  P  P18  1  0.000000  0.659109  0.106059  1
  P  P19  1  0.000000  0.340891  0.106059  1
  Rh  Rh20  1  0.000000  0.000000  0.830428  1
  Rh  Rh21  1  0.500000  0.500000  0.703976  1
  Rh  Rh22  1  0.000000  0.000000  0.297576  1
  Rh  Rh23  1  0.000000  0.500000  0.985021  1
  Rh  Rh24  1  0.500000  0.329315  0.995685  1
  Rh  Rh25  1  0.500000  0.670685  0.995685  1
  Rh  Rh26  1  0.000000  0.159872  0.004801  1
  Rh  Rh27  1  0.000000  0.840128  0.004801  1
  Rh  Rh28  1  0.500000  0.289385  0.432925  1
  Rh  Rh29  1  0.500000  0.710615  0.432925  1
  Rh  Rh30  1  0.000000  0.204565  0.572061  1
  Rh  Rh31  1  0.000000  0.795435  0.572061  1
  Rh  Rh32  1  0.500000  0.875817  0.711766  1
  Rh  Rh33  1  0.500000  0.124183  0.711766  1
  Rh  Rh34  1  0.000000  0.625881  0.289573  1
  Rh  Rh35  1  0.000000  0.374119  0.289573  1
