# generated using pymatgen
data_Sr4Tb2TaRuO12
_symmetry_space_group_name_H-M   'P 1'
_cell_length_a   5.84062953
_cell_length_b   5.92558389
_cell_length_c   8.30466798
_cell_angle_alpha   90.33175492
_cell_angle_beta   90.33717239
_cell_angle_gamma   90.06950119
_symmetry_Int_Tables_number   1
_chemical_formula_structural   Sr4Tb2TaRuO12
_chemical_formula_sum   'Sr4 Tb2 Ta1 Ru1 O12'
_cell_volume   287.40740061
_cell_formula_units_Z   1
loop_
 _symmetry_equiv_pos_site_id
 _symmetry_equiv_pos_as_xyz
  1  'x, y, z'
loop_
 _atom_site_type_symbol
 _atom_site_label
 _atom_site_symmetry_multiplicity
 _atom_site_fract_x
 _atom_site_fract_y
 _atom_site_fract_z
 _atom_site_occupancy
  Sr  Sr0  1  0.010755  0.535767  0.253818  1
  Sr  Sr1  1  0.492928  0.040139  0.254655  1
  Sr  Sr2  1  0.507073  0.959861  0.745345  1
  Sr  Sr3  1  0.989245  0.464234  0.746183  1
  Tb  Tb4  1  0.500000  0.499999  0.999999  1
  Tb  Tb5  1  0.000000  0.000000  0.500000  1
  Ta  Ta6  1  0.000000  0.000000  0.000000  1
  Ru  Ru7  1  0.500000  0.499999  0.500000  1
  O  O8  1  0.275299  0.805564  0.042277  1
  O  O9  1  0.191423  0.276621  0.045717  1
  O  O10  1  0.918667  0.976444  0.234643  1
  O  O11  1  0.578124  0.477396  0.267680  1
  O  O12  1  0.304669  0.770773  0.458435  1
  O  O13  1  0.229995  0.301466  0.460121  1
  O  O14  1  0.770006  0.698534  0.539878  1
  O  O15  1  0.695331  0.229227  0.541565  1
  O  O16  1  0.421876  0.522603  0.732320  1
  O  O17  1  0.081333  0.023556  0.765357  1
  O  O18  1  0.808578  0.723379  0.954282  1
  O  O19  1  0.724701  0.194434  0.957723  1
