# generated using pymatgen
data_Cs5Na(ReH9)3
_symmetry_space_group_name_H-M   'P 1'
_cell_length_a   10.24462872
_cell_length_b   9.86706024
_cell_length_c   6.11632700
_cell_angle_alpha   90.00000000
_cell_angle_beta   90.00000000
_cell_angle_gamma   118.78816937
_symmetry_Int_Tables_number   1
_chemical_formula_structural   Cs5Na(ReH9)3
_chemical_formula_sum   'Cs5 Na1 Re3 H27'
_cell_volume   541.85128664
_cell_formula_units_Z   1
loop_
 _symmetry_equiv_pos_site_id
 _symmetry_equiv_pos_as_xyz
  1  'x, y, z'
loop_
 _atom_site_type_symbol
 _atom_site_label
 _atom_site_symmetry_multiplicity
 _atom_site_fract_x
 _atom_site_fract_y
 _atom_site_fract_z
 _atom_site_occupancy
  Cs  Cs0  1  0.741685  0.752522  0.500000  1
  Cs  Cs1  1  0.258315  0.010837  0.500000  1
  Cs  Cs2  1  0.000000  0.584778  0.000000  1
  Cs  Cs3  1  0.408445  0.404373  0.000000  1
  Cs  Cs4  1  0.591555  0.995929  0.000000  1
  Na  Na5  1  0.000000  0.298930  0.500000  1
  Re  Re6  1  0.685582  0.328254  0.500000  1
  Re  Re7  1  0.314418  0.642673  0.500000  1
  Re  Re8  1  0.000000  0.022152  0.000000  1
  H  H9  1  0.791928  0.300290  0.694466  1
  H  H10  1  0.706030  0.454079  0.705908  1
  H  H11  1  0.558780  0.226246  0.699576  1
  H  H12  1  0.208072  0.508362  0.305534  1
  H  H13  1  0.558780  0.226246  0.300424  1
  H  H14  1  0.791928  0.300290  0.305534  1
  H  H15  1  0.706030  0.454079  0.294092  1
  H  H16  1  0.293970  0.748051  0.705908  1
  H  H17  1  0.441220  0.667466  0.699576  1
  H  H18  1  0.166597  0.025210  0.000000  1
  H  H19  1  0.833403  0.858613  0.000000  1
  H  H20  1  0.000000  0.192848  0.000000  1
  H  H21  1  0.887787  0.029424  0.201297  1
  H  H22  1  0.112213  0.141637  0.798703  1
  H  H23  1  0.000000  0.894437  0.809244  1
  H  H24  1  0.000000  0.894437  0.190756  1
  H  H25  1  0.112213  0.141637  0.201297  1
  H  H26  1  0.887787  0.029424  0.798703  1
  H  H27  1  0.142131  0.624672  0.500000  1
  H  H28  1  0.455419  0.826902  0.500000  1
  H  H29  1  0.353270  0.495281  0.500000  1
  H  H30  1  0.544581  0.371483  0.500000  1
  H  H31  1  0.857869  0.482542  0.500000  1
  H  H32  1  0.646730  0.142011  0.500000  1
  H  H33  1  0.208072  0.508362  0.694466  1
  H  H34  1  0.293970  0.748051  0.294092  1
  H  H35  1  0.441220  0.667466  0.300424  1
