# generated using pymatgen
data_Y4Er16CoBi8Ir3
_symmetry_space_group_name_H-M   'P 1'
_cell_length_a   7.94523612
_cell_length_b   8.94436600
_cell_length_c   12.44560558
_cell_angle_alpha   90.00000000
_cell_angle_beta   90.22099842
_cell_angle_gamma   90.00000000
_symmetry_Int_Tables_number   1
_chemical_formula_structural   Y4Er16CoBi8Ir3
_chemical_formula_sum   'Y4 Er16 Co1 Bi8 Ir3'
_cell_volume   884.44162315
_cell_formula_units_Z   1
loop_
 _symmetry_equiv_pos_site_id
 _symmetry_equiv_pos_as_xyz
  1  'x, y, z'
loop_
 _atom_site_type_symbol
 _atom_site_label
 _atom_site_symmetry_multiplicity
 _atom_site_fract_x
 _atom_site_fract_y
 _atom_site_fract_z
 _atom_site_occupancy
  Y  Y0  1  0.657518  0.750000  0.700925  1
  Y  Y1  1  0.839140  0.750000  0.208085  1
  Y  Y2  1  0.124545  0.750000  0.806419  1
  Y  Y3  1  0.379362  0.750000  0.312928  1
  Er  Er4  1  0.339238  0.250000  0.293723  1
  Er  Er5  1  0.160519  0.250000  0.793947  1
  Er  Er6  1  0.876471  0.250000  0.190816  1
  Er  Er7  1  0.623071  0.250000  0.691024  1
  Er  Er8  1  0.556702  0.750000  0.997506  1
  Er  Er9  1  0.445791  0.250000  0.001234  1
  Er  Er10  1  0.056018  0.250000  0.501406  1
  Er  Er11  1  0.946728  0.750000  0.498481  1
  Er  Er12  1  0.825726  0.456712  0.933568  1
  Er  Er13  1  0.174958  0.541566  0.066457  1
  Er  Er14  1  0.325633  0.542931  0.565246  1
  Er  Er15  1  0.174958  0.958434  0.066457  1
  Er  Er16  1  0.673075  0.463260  0.436307  1
  Er  Er17  1  0.825726  0.043288  0.933568  1
  Er  Er18  1  0.673075  0.036740  0.436307  1
  Er  Er19  1  0.325633  0.957069  0.565246  1
  Co  Co20  1  0.568074  0.750000  0.492037  1
  Bi  Bi21  1  0.932589  0.010001  0.671523  1
  Bi  Bi22  1  0.066325  0.992097  0.328248  1
  Bi  Bi23  1  0.434063  0.991749  0.827000  1
  Bi  Bi24  1  0.066325  0.507903  0.328248  1
  Bi  Bi25  1  0.565627  0.009246  0.173120  1
  Bi  Bi26  1  0.932589  0.489999  0.671523  1
  Bi  Bi27  1  0.565627  0.490754  0.173120  1
  Bi  Bi28  1  0.434063  0.508251  0.827000  1
  Ir  Ir29  1  0.928528  0.750000  0.991409  1
  Ir  Ir30  1  0.072618  0.250000  0.008973  1
  Ir  Ir31  1  0.429686  0.250000  0.508146  1
