# generated using pymatgen
data_Np7PaO16
_symmetry_space_group_name_H-M   'P 1'
_cell_length_a   7.65979400
_cell_length_b   7.65979400
_cell_length_c   5.41877100
_cell_angle_alpha   90.00000000
_cell_angle_beta   90.00000000
_cell_angle_gamma   90.00000000
_symmetry_Int_Tables_number   1
_chemical_formula_structural   Np7PaO16
_chemical_formula_sum   'Np7 Pa1 O16'
_cell_volume   317.93253871
_cell_formula_units_Z   1
loop_
 _symmetry_equiv_pos_site_id
 _symmetry_equiv_pos_as_xyz
  1  'x, y, z'
loop_
 _atom_site_type_symbol
 _atom_site_label
 _atom_site_symmetry_multiplicity
 _atom_site_fract_x
 _atom_site_fract_y
 _atom_site_fract_z
 _atom_site_occupancy
  Np  Np0  1  0.251688  0.251688  0.500000  1
  Np  Np1  1  0.500000  0.000000  0.000000  1
  Np  Np2  1  0.748312  0.251688  0.500000  1
  Np  Np3  1  0.000000  0.500000  0.000000  1
  Np  Np4  1  0.251688  0.748312  0.500000  1
  Np  Np5  1  0.500000  0.500000  0.000000  1
  Np  Np6  1  0.748312  0.748312  0.500000  1
  Pa  Pa7  1  0.000000  0.000000  0.000000  1
  O  O8  1  0.000000  0.246005  0.247015  1
  O  O9  1  0.246005  0.000000  0.247015  1
  O  O10  1  0.246005  0.000000  0.752985  1
  O  O11  1  0.000000  0.246005  0.752985  1
  O  O12  1  0.500000  0.248256  0.250688  1
  O  O13  1  0.753995  0.000000  0.247015  1
  O  O14  1  0.753995  0.000000  0.752985  1
  O  O15  1  0.500000  0.248256  0.749312  1
  O  O16  1  0.000000  0.753995  0.247015  1
  O  O17  1  0.248256  0.500000  0.250688  1
  O  O18  1  0.248256  0.500000  0.749312  1
  O  O19  1  0.000000  0.753995  0.752985  1
  O  O20  1  0.500000  0.751744  0.250688  1
  O  O21  1  0.751744  0.500000  0.250688  1
  O  O22  1  0.751744  0.500000  0.749312  1
  O  O23  1  0.500000  0.751744  0.749312  1
