# generated using pymatgen
data_Y3Er5(BCl6)2
_symmetry_space_group_name_H-M   'P 1'
_cell_length_a   3.85063300
_cell_length_b   12.59690877
_cell_length_c   13.04862265
_cell_angle_alpha   90.21803219
_cell_angle_beta   90.00000000
_cell_angle_gamma   90.00000000
_symmetry_Int_Tables_number   1
_chemical_formula_structural   Y3Er5(BCl6)2
_chemical_formula_sum   'Y3 Er5 B2 Cl12'
_cell_volume   632.93285506
_cell_formula_units_Z   1
loop_
 _symmetry_equiv_pos_site_id
 _symmetry_equiv_pos_as_xyz
  1  'x, y, z'
loop_
 _atom_site_type_symbol
 _atom_site_label
 _atom_site_symmetry_multiplicity
 _atom_site_fract_x
 _atom_site_fract_y
 _atom_site_fract_z
 _atom_site_occupancy
  Y  Y0  1  0.500000  0.126956  0.850835  1
  Y  Y1  1  0.500000  0.873445  0.149416  1
  Y  Y2  1  0.500000  0.626885  0.649332  1
  Er  Er3  1  0.000000  0.105731  0.084018  1
  Er  Er4  1  0.000000  0.894997  0.916711  1
  Er  Er5  1  0.000000  0.604916  0.416647  1
  Er  Er6  1  0.000000  0.394792  0.583055  1
  Er  Er7  1  0.500000  0.373840  0.351452  1
  B  B8  1  0.500000  0.000371  0.000282  1
  B  B9  1  0.500000  0.499483  0.499408  1
  Cl  Cl10  1  0.500000  0.269414  0.680829  1
  Cl  Cl11  1  0.500000  0.729246  0.317820  1
  Cl  Cl12  1  0.500000  0.769645  0.818338  1
  Cl  Cl13  1  0.500000  0.231441  0.183172  1
  Cl  Cl14  1  0.000000  0.257834  0.931755  1
  Cl  Cl15  1  0.000000  0.742443  0.068505  1
  Cl  Cl16  1  0.000000  0.476911  0.244001  1
  Cl  Cl17  1  0.000000  0.519739  0.757011  1
  Cl  Cl18  1  0.000000  0.980700  0.257791  1
  Cl  Cl19  1  0.000000  0.019424  0.742569  1
  Cl  Cl20  1  0.000000  0.244397  0.428259  1
  Cl  Cl21  1  0.000000  0.757389  0.568792  1
