# generated using pymatgen
data_HoLu3(Fe2Br)2
_symmetry_space_group_name_H-M   'P 1'
_cell_length_a   3.87945300
_cell_length_b   3.87945338
_cell_length_c   16.19818100
_cell_angle_alpha   90.00000000
_cell_angle_beta   90.00000000
_cell_angle_gamma   120.00000529
_symmetry_Int_Tables_number   1
_chemical_formula_structural   HoLu3(Fe2Br)2
_chemical_formula_sum   'Ho1 Lu3 Fe4 Br2'
_cell_volume   211.12413728
_cell_formula_units_Z   1
loop_
 _symmetry_equiv_pos_site_id
 _symmetry_equiv_pos_as_xyz
  1  'x, y, z'
loop_
 _atom_site_type_symbol
 _atom_site_label
 _atom_site_symmetry_multiplicity
 _atom_site_fract_x
 _atom_site_fract_y
 _atom_site_fract_z
 _atom_site_occupancy
  Ho  Ho0  1  0.000000  0.000000  0.890436  1
  Lu  Lu1  1  0.000000  0.000000  0.108038  1
  Lu  Lu2  1  0.000000  0.000000  0.392406  1
  Lu  Lu3  1  0.000000  0.000000  0.607314  1
  Fe  Fe4  1  0.333334  0.666668  0.007715  1
  Fe  Fe5  1  0.333334  0.666668  0.493713  1
  Fe  Fe6  1  0.666667  0.333333  0.506363  1
  Fe  Fe7  1  0.666667  0.333333  0.994687  1
  Br  Br8  1  0.666667  0.333333  0.250164  1
  Br  Br9  1  0.333334  0.666668  0.749165  1
