# generated using pymatgen
data_Li4Dy3TmSi8
_symmetry_space_group_name_H-M   'P 1'
_cell_length_a   3.78823200
_cell_length_b   7.57225527
_cell_length_c   10.15091501
_cell_angle_alpha   90.06576686
_cell_angle_beta   90.00000000
_cell_angle_gamma   90.00000000
_symmetry_Int_Tables_number   1
_chemical_formula_structural   Li4Dy3TmSi8
_chemical_formula_sum   'Li4 Dy3 Tm1 Si8'
_cell_volume   291.18347166
_cell_formula_units_Z   1
loop_
 _symmetry_equiv_pos_site_id
 _symmetry_equiv_pos_as_xyz
  1  'x, y, z'
loop_
 _atom_site_type_symbol
 _atom_site_label
 _atom_site_symmetry_multiplicity
 _atom_site_fract_x
 _atom_site_fract_y
 _atom_site_fract_z
 _atom_site_occupancy
  Li  Li0  1  0.250000  0.990712  0.391587  1
  Li  Li1  1  0.250000  0.490454  0.108316  1
  Li  Li2  1  0.750000  0.009751  0.608457  1
  Li  Li3  1  0.750000  0.509666  0.891994  1
  Dy  Dy4  1  0.250000  0.139379  0.864233  1
  Dy  Dy5  1  0.250000  0.638994  0.635506  1
  Dy  Dy6  1  0.750000  0.860507  0.135983  1
  Tm  Tm7  1  0.750000  0.361696  0.364056  1
  Si  Si8  1  0.250000  0.232582  0.566241  1
  Si  Si9  1  0.250000  0.731554  0.931944  1
  Si  Si10  1  0.750000  0.767226  0.431650  1
  Si  Si11  1  0.750000  0.269321  0.069427  1
  Si  Si12  1  0.250000  0.653948  0.320378  1
  Si  Si13  1  0.250000  0.157702  0.181361  1
  Si  Si14  1  0.750000  0.343656  0.679024  1
  Si  Si15  1  0.750000  0.842850  0.819841  1
