# generated using pymatgen
data_Nd8Te5SeN4
_symmetry_space_group_name_H-M   'P 1'
_cell_length_a   7.36953000
_cell_length_b   11.35216300
_cell_length_c   11.72389900
_cell_angle_alpha   90.00000000
_cell_angle_beta   90.00000000
_cell_angle_gamma   90.00000000
_symmetry_Int_Tables_number   1
_chemical_formula_structural   Nd8Te5SeN4
_chemical_formula_sum   'Nd16 Te10 Se2 N8'
_cell_volume   980.82263065
_cell_formula_units_Z   2
loop_
 _symmetry_equiv_pos_site_id
 _symmetry_equiv_pos_as_xyz
  1  'x, y, z'
loop_
 _atom_site_type_symbol
 _atom_site_label
 _atom_site_symmetry_multiplicity
 _atom_site_fract_x
 _atom_site_fract_y
 _atom_site_fract_z
 _atom_site_occupancy
  Nd  Nd0  1  0.144786  0.391459  0.951491  1
  Nd  Nd1  1  0.413370  0.158611  0.250000  1
  Nd  Nd2  1  0.351898  0.887419  0.053313  1
  Nd  Nd3  1  0.728980  0.469748  0.750000  1
  Nd  Nd4  1  0.851898  0.612581  0.446687  1
  Nd  Nd5  1  0.770664  0.956122  0.250000  1
  Nd  Nd6  1  0.270664  0.543878  0.250000  1
  Nd  Nd7  1  0.144786  0.391459  0.548509  1
  Nd  Nd8  1  0.351898  0.887419  0.446687  1
  Nd  Nd9  1  0.090741  0.659929  0.750000  1
  Nd  Nd10  1  0.913370  0.341389  0.250000  1
  Nd  Nd11  1  0.228980  0.030252  0.750000  1
  Nd  Nd12  1  0.644786  0.108541  0.548509  1
  Nd  Nd13  1  0.590741  0.840071  0.750000  1
  Nd  Nd14  1  0.851898  0.612581  0.053313  1
  Nd  Nd15  1  0.644786  0.108541  0.951491  1
  Te  Te16  1  0.066572  0.133999  0.079549  1
  Te  Te17  1  0.566572  0.366001  0.079549  1
  Te  Te18  1  0.934655  0.864841  0.922572  1
  Te  Te19  1  0.434655  0.635159  0.922572  1
  Te  Te20  1  0.916968  0.225271  0.750000  1
  Te  Te21  1  0.934655  0.864841  0.577428  1
  Te  Te22  1  0.066572  0.133999  0.420451  1
  Te  Te23  1  0.434655  0.635159  0.577428  1
  Te  Te24  1  0.566572  0.366001  0.420451  1
  Te  Te25  1  0.416968  0.274729  0.750000  1
  Se  Se26  1  0.083640  0.770621  0.250000  1
  Se  Se27  1  0.583640  0.729379  0.250000  1
  N  N28  1  0.445377  0.965182  0.620395  1
  N  N29  1  0.554529  0.028862  0.122963  1
  N  N30  1  0.945377  0.534818  0.620395  1
  N  N31  1  0.054529  0.471138  0.377037  1
  N  N32  1  0.945377  0.534818  0.879605  1
  N  N33  1  0.054529  0.471138  0.122963  1
  N  N34  1  0.554529  0.028862  0.377037  1
  N  N35  1  0.445377  0.965182  0.879605  1
