# generated using pymatgen
data_SmEu3(WO6)2
_symmetry_space_group_name_H-M   'P 1'
_cell_length_a   5.51460900
_cell_length_b   7.85084136
_cell_length_c   11.70061934
_cell_angle_alpha   75.92774253
_cell_angle_beta   90.00000000
_cell_angle_gamma   90.00000000
_symmetry_Int_Tables_number   1
_chemical_formula_structural   SmEu3(WO6)2
_chemical_formula_sum   'Sm2 Eu6 W4 O24'
_cell_volume   491.36811527
_cell_formula_units_Z   2
loop_
 _symmetry_equiv_pos_site_id
 _symmetry_equiv_pos_as_xyz
  1  'x, y, z'
loop_
 _atom_site_type_symbol
 _atom_site_label
 _atom_site_symmetry_multiplicity
 _atom_site_fract_x
 _atom_site_fract_y
 _atom_site_fract_z
 _atom_site_occupancy
  Sm  Sm0  1  0.683078  0.500000  0.750000  1
  Sm  Sm1  1  0.316922  0.500000  0.250000  1
  Eu  Eu2  1  0.737050  0.000000  0.750000  1
  Eu  Eu3  1  0.262950  0.000000  0.250000  1
  Eu  Eu4  1  0.196109  0.801401  0.576683  1
  Eu  Eu5  1  0.803891  0.801401  0.076683  1
  Eu  Eu6  1  0.196109  0.198599  0.923317  1
  Eu  Eu7  1  0.803891  0.198599  0.423317  1
  W  W8  1  0.250895  0.719753  0.887513  1
  W  W9  1  0.749105  0.719753  0.387513  1
  W  W10  1  0.250895  0.280247  0.612487  1
  W  W11  1  0.749105  0.280247  0.112487  1
  O  O12  1  0.037344  0.934327  0.896803  1
  O  O13  1  0.512038  0.855772  0.929146  1
  O  O14  1  0.962656  0.934327  0.396803  1
  O  O15  1  0.457648  0.780577  0.733736  1
  O  O16  1  0.487962  0.855772  0.429146  1
  O  O17  1  0.986539  0.708810  0.776031  1
  O  O18  1  0.542352  0.780577  0.233736  1
  O  O19  1  0.847308  0.636915  0.546505  1
  O  O20  1  0.361153  0.491807  0.888847  1
  O  O21  1  0.013461  0.708810  0.276031  1
  O  O22  1  0.361153  0.508193  0.611153  1
  O  O23  1  0.847308  0.363085  0.953495  1
  O  O24  1  0.152692  0.636915  0.046505  1
  O  O25  1  0.638847  0.491807  0.388847  1
  O  O26  1  0.986539  0.291190  0.723969  1
  O  O27  1  0.638847  0.508193  0.111153  1
  O  O28  1  0.152692  0.363085  0.453495  1
  O  O29  1  0.457648  0.219423  0.766264  1
  O  O30  1  0.013461  0.291190  0.223969  1
  O  O31  1  0.512038  0.144228  0.570854  1
  O  O32  1  0.542352  0.219423  0.266264  1
  O  O33  1  0.037344  0.065673  0.603197  1
  O  O34  1  0.487962  0.144228  0.070854  1
  O  O35  1  0.962656  0.065673  0.103197  1
