# generated using pymatgen
data_Tb2DyTm3FeTe2
_symmetry_space_group_name_H-M   'P 1'
_cell_length_a   8.22290500
_cell_length_b   8.23874802
_cell_length_c   3.98958300
_cell_angle_alpha   90.00000000
_cell_angle_beta   90.00000000
_cell_angle_gamma   119.93640438
_symmetry_Int_Tables_number   1
_chemical_formula_structural   Tb2DyTm3FeTe2
_chemical_formula_sum   'Tb2 Dy1 Tm3 Fe1 Te2'
_cell_volume   234.21924829
_cell_formula_units_Z   1
loop_
 _symmetry_equiv_pos_site_id
 _symmetry_equiv_pos_as_xyz
  1  'x, y, z'
loop_
 _atom_site_type_symbol
 _atom_site_label
 _atom_site_symmetry_multiplicity
 _atom_site_fract_x
 _atom_site_fract_y
 _atom_site_fract_z
 _atom_site_occupancy
  Tb  Tb0  1  0.390554  0.390493  0.000000  1
  Tb  Tb1  1  0.000059  0.609507  0.000000  1
  Dy  Dy2  1  0.610894  0.000000  0.000000  1
  Tm  Tm3  1  0.231998  0.000000  0.500000  1
  Tm  Tm4  1  0.767838  0.767882  0.500000  1
  Tm  Tm5  1  0.999957  0.232118  0.500000  1
  Fe  Fe6  1  0.998126  0.000000  0.000000  1
  Te  Te7  1  0.333835  0.667095  0.500000  1
  Te  Te8  1  0.666739  0.332905  0.500000  1
