# generated using pymatgen
data_Lu3NbB4(Ru5W)2
_symmetry_space_group_name_H-M   'P 1'
_cell_length_a   9.51711634
_cell_length_b   9.51711554
_cell_length_c   3.07808600
_cell_angle_alpha   90.00000000
_cell_angle_beta   90.00000000
_cell_angle_gamma   89.95444438
_symmetry_Int_Tables_number   1
_chemical_formula_structural   Lu3NbB4(Ru5W)2
_chemical_formula_sum   'Lu3 Nb1 B4 Ru10 W2'
_cell_volume   278.79907744
_cell_formula_units_Z   1
loop_
 _symmetry_equiv_pos_site_id
 _symmetry_equiv_pos_as_xyz
  1  'x, y, z'
loop_
 _atom_site_type_symbol
 _atom_site_label
 _atom_site_symmetry_multiplicity
 _atom_site_fract_x
 _atom_site_fract_y
 _atom_site_fract_z
 _atom_site_occupancy
  Lu  Lu0  1  0.175009  0.824991  0.000000  1
  Lu  Lu1  1  0.324897  0.324568  0.000000  1
  Lu  Lu2  1  0.675432  0.675103  0.000000  1
  Nb  Nb3  1  0.824147  0.175853  0.000000  1
  B  B4  1  0.622655  0.377345  0.000000  1
  B  B5  1  0.381752  0.618248  0.000000  1
  B  B6  1  0.119292  0.122930  0.000000  1
  B  B7  1  0.877070  0.880708  0.000000  1
  Ru  Ru8  1  0.503242  0.496758  0.500000  1
  Ru  Ru9  1  0.992735  0.007265  0.500000  1
  Ru  Ru10  1  0.579957  0.212200  0.500000  1
  Ru  Ru11  1  0.431606  0.782914  0.500000  1
  Ru  Ru12  1  0.061340  0.282871  0.500000  1
  Ru  Ru13  1  0.929211  0.718615  0.500000  1
  Ru  Ru14  1  0.281385  0.070789  0.500000  1
  Ru  Ru15  1  0.717129  0.938660  0.500000  1
  Ru  Ru16  1  0.217086  0.568394  0.500000  1
  Ru  Ru17  1  0.787800  0.420043  0.500000  1
  W  W18  1  0.495987  0.997731  0.000000  1
  W  W19  1  0.002269  0.504013  0.000000  1
