# generated using pymatgen
data_Pr5DyIrI10
_symmetry_space_group_name_H-M   'P 1'
_cell_length_a   7.98882278
_cell_length_b   10.01798161
_cell_length_c   10.09576078
_cell_angle_alpha   107.16249851
_cell_angle_beta   104.71221426
_cell_angle_gamma   96.50220759
_symmetry_Int_Tables_number   1
_chemical_formula_structural   Pr5DyIrI10
_chemical_formula_sum   'Pr5 Dy1 Ir1 I10'
_cell_volume   731.04891026
_cell_formula_units_Z   1
loop_
 _symmetry_equiv_pos_site_id
 _symmetry_equiv_pos_as_xyz
  1  'x, y, z'
loop_
 _atom_site_type_symbol
 _atom_site_label
 _atom_site_symmetry_multiplicity
 _atom_site_fract_x
 _atom_site_fract_y
 _atom_site_fract_z
 _atom_site_occupancy
  Pr  Pr0  1  0.353837  0.170533  0.126379  1
  Pr  Pr1  1  0.030583  0.910273  0.708803  1
  Pr  Pr2  1  0.964914  0.086871  0.289661  1
  Pr  Pr3  1  0.114269  0.760734  0.042108  1
  Pr  Pr4  1  0.879627  0.236889  0.955161  1
  Dy  Dy5  1  0.657391  0.834950  0.877162  1
  Ir  Ir6  1  0.997274  0.999127  0.998903  1
  I  I7  1  0.643618  0.729230  0.558483  1
  I  I8  1  0.350443  0.270618  0.451002  1
  I  I9  1  0.235240  0.658047  0.749024  1
  I  I10  1  0.779632  0.349272  0.256042  1
  I  I11  1  0.456383  0.084021  0.815839  1
  I  I12  1  0.545905  0.904984  0.175187  1
  I  I13  1  0.253243  0.459200  0.085112  1
  I  I14  1  0.738166  0.546307  0.911471  1
  I  I15  1  0.086258  0.818620  0.370577  1
  I  I16  1  0.913216  0.180325  0.629086  1
