# generated using pymatgen
data_Dy3Ho3Lu10Cd4(RuPt)2
_symmetry_space_group_name_H-M   'P 1'
_cell_length_a   9.51364213
_cell_length_b   9.51771823
_cell_length_c   9.56158502
_cell_angle_alpha   59.83914667
_cell_angle_beta   59.83011625
_cell_angle_gamma   59.67670023
_symmetry_Int_Tables_number   1
_chemical_formula_structural   Dy3Ho3Lu10Cd4(RuPt)2
_chemical_formula_sum   'Dy3 Ho3 Lu10 Cd4 Ru2 Pt2'
_cell_volume   609.16844817
_cell_formula_units_Z   1
loop_
 _symmetry_equiv_pos_site_id
 _symmetry_equiv_pos_as_xyz
  1  'x, y, z'
loop_
 _atom_site_type_symbol
 _atom_site_label
 _atom_site_symmetry_multiplicity
 _atom_site_fract_x
 _atom_site_fract_y
 _atom_site_fract_z
 _atom_site_occupancy
  Dy  Dy0  1  0.188283  0.807573  0.815674  1
  Dy  Dy1  1  0.807746  0.188210  0.188647  1
  Dy  Dy2  1  0.807574  0.188359  0.815423  1
  Ho  Ho3  1  0.188322  0.807562  0.188764  1
  Ho  Ho4  1  0.812348  0.812251  0.187833  1
  Ho  Ho5  1  0.189465  0.189307  0.810725  1
  Lu  Lu6  1  0.599747  0.599824  0.601716  1
  Lu  Lu7  1  0.599795  0.599896  0.198607  1
  Lu  Lu8  1  0.596496  0.205412  0.599110  1
  Lu  Lu9  1  0.205381  0.596588  0.599070  1
  Lu  Lu10  1  0.067117  0.435956  0.438331  1
  Lu  Lu11  1  0.435970  0.067134  0.058622  1
  Lu  Lu12  1  0.435992  0.067056  0.438291  1
  Lu  Lu13  1  0.067082  0.435984  0.058673  1
  Lu  Lu14  1  0.435959  0.436021  0.064035  1
  Lu  Lu15  1  0.060585  0.060557  0.439327  1
  Cd  Cd16  1  0.828993  0.829084  0.831174  1
  Cd  Cd17  1  0.829342  0.828994  0.510382  1
  Cd  Cd18  1  0.830810  0.506335  0.831393  1
  Cd  Cd19  1  0.506027  0.830797  0.831679  1
  Ru  Ru20  1  0.394409  0.394531  0.388920  1
  Ru  Ru21  1  0.394406  0.394468  0.822148  1
  Pt  Pt22  1  0.394419  0.823655  0.390666  1
  Pt  Pt23  1  0.823731  0.394447  0.390789  1
