# generated using pymatgen
data_PrPa5(Ni3Bi4)2
_symmetry_space_group_name_H-M   'P 1'
_cell_length_a   8.37473677
_cell_length_b   8.37473708
_cell_length_c   8.37473726
_cell_angle_alpha   109.62212034
_cell_angle_beta   109.39581907
_cell_angle_gamma   109.39582786
_symmetry_Int_Tables_number   1
_chemical_formula_structural   PrPa5(Ni3Bi4)2
_chemical_formula_sum   'Pr1 Pa5 Ni6 Bi8'
_cell_volume   452.15713396
_cell_formula_units_Z   1
loop_
 _symmetry_equiv_pos_site_id
 _symmetry_equiv_pos_as_xyz
  1  'x, y, z'
loop_
 _atom_site_type_symbol
 _atom_site_label
 _atom_site_symmetry_multiplicity
 _atom_site_fract_x
 _atom_site_fract_y
 _atom_site_fract_z
 _atom_site_occupancy
  Pr  Pr0  1  0.750000  0.375000  0.625000  1
  Pa  Pa1  1  0.127171  0.875341  0.250521  1
  Pa  Pa2  1  0.372829  0.623350  0.748170  1
  Pa  Pa3  1  0.875180  0.251830  0.124659  1
  Pa  Pa4  1  0.624820  0.749479  0.376650  1
  Pa  Pa5  1  0.250000  0.125000  0.875000  1
  Ni  Ni6  1  0.616849  0.371683  0.235033  1
  Ni  Ni7  1  0.883151  0.118183  0.754834  1
  Ni  Ni8  1  0.363349  0.245166  0.628317  1
  Ni  Ni9  1  0.136651  0.764967  0.881817  1
  Ni  Ni10  1  0.250000  0.625000  0.375000  1
  Ni  Ni11  1  0.750000  0.875000  0.125000  1
  Bi  Bi12  1  0.331178  0.330653  0.331753  1
  Bi  Bi13  1  0.168822  0.500575  0.999476  1
  Bi  Bi14  1  0.997711  0.166136  0.498296  1
  Bi  Bi15  1  0.832160  0.831575  0.833864  1
  Bi  Bi16  1  0.502289  0.000585  0.168425  1
  Bi  Bi17  1  0.667840  0.501704  0.999415  1
  Bi  Bi18  1  0.501100  0.000524  0.669347  1
  Bi  Bi19  1  0.998900  0.668247  0.499425  1
