# generated using pymatgen
data_Nb6ZnGa4CuN2
_symmetry_space_group_name_H-M   'P 1'
_cell_length_a   8.28210599
_cell_length_b   8.26854004
_cell_length_c   8.28210615
_cell_angle_alpha   60.05416258
_cell_angle_beta   60.17093831
_cell_angle_gamma   60.05416928
_symmetry_Int_Tables_number   1
_chemical_formula_structural   Nb6ZnGa4CuN2
_chemical_formula_sum   'Nb12 Zn2 Ga8 Cu2 N4'
_cell_volume   401.89196465
_cell_formula_units_Z   2
loop_
 _symmetry_equiv_pos_site_id
 _symmetry_equiv_pos_as_xyz
  1  'x, y, z'
loop_
 _atom_site_type_symbol
 _atom_site_label
 _atom_site_symmetry_multiplicity
 _atom_site_fract_x
 _atom_site_fract_y
 _atom_site_fract_z
 _atom_site_occupancy
  Nb  Nb0  1  0.439350  0.436971  0.058833  1
  Nb  Nb1  1  0.065235  0.434765  0.065235  1
  Nb  Nb2  1  0.439350  0.064846  0.058833  1
  Nb  Nb3  1  0.058833  0.064846  0.439350  1
  Nb  Nb4  1  0.441633  0.058367  0.441633  1
  Nb  Nb5  1  0.058833  0.436971  0.439350  1
  Nb  Nb6  1  0.810650  0.813029  0.191167  1
  Nb  Nb7  1  0.184765  0.815235  0.184765  1
  Nb  Nb8  1  0.810650  0.185154  0.191167  1
  Nb  Nb9  1  0.191167  0.185154  0.810650  1
  Nb  Nb10  1  0.808367  0.191633  0.808367  1
  Nb  Nb11  1  0.191167  0.813029  0.810650  1
  Zn  Zn12  1  0.625000  0.125000  0.625000  1
  Zn  Zn13  1  0.625000  0.625000  0.625000  1
  Ga  Ga14  1  0.842748  0.832503  0.492247  1
  Ga  Ga15  1  0.840534  0.488917  0.840534  1
  Ga  Ga16  1  0.492247  0.832503  0.842748  1
  Ga  Ga17  1  0.840534  0.830016  0.840534  1
  Ga  Ga18  1  0.407252  0.417497  0.757753  1
  Ga  Ga19  1  0.409466  0.761083  0.409466  1
  Ga  Ga20  1  0.757753  0.417497  0.407252  1
  Ga  Ga21  1  0.409466  0.419984  0.409466  1
  Cu  Cu22  1  0.625000  0.625000  0.125000  1
  Cu  Cu23  1  0.125000  0.625000  0.625000  1
  N  N24  1  0.125000  0.125000  0.625000  1
  N  N25  1  0.125000  0.625000  0.125000  1
  N  N26  1  0.625000  0.125000  0.125000  1
  N  N27  1  0.125000  0.125000  0.125000  1
