# generated using pymatgen
data_Hf3Ti2Si2PN
_symmetry_space_group_name_H-M   'P 1'
_cell_length_a   7.62875200
_cell_length_b   7.65946825
_cell_length_c   5.30629700
_cell_angle_alpha   90.00000000
_cell_angle_beta   90.00000000
_cell_angle_gamma   119.86742238
_symmetry_Int_Tables_number   1
_chemical_formula_structural   Hf3Ti2Si2PN
_chemical_formula_sum   'Hf6 Ti4 Si4 P2 N2'
_cell_volume   268.87656152
_cell_formula_units_Z   2
loop_
 _symmetry_equiv_pos_site_id
 _symmetry_equiv_pos_as_xyz
  1  'x, y, z'
loop_
 _atom_site_type_symbol
 _atom_site_label
 _atom_site_symmetry_multiplicity
 _atom_site_fract_x
 _atom_site_fract_y
 _atom_site_fract_z
 _atom_site_occupancy
  Hf  Hf0  1  0.240702  0.000000  0.250000  1
  Hf  Hf1  1  0.759298  0.000000  0.750000  1
  Hf  Hf2  1  0.000161  0.238136  0.250000  1
  Hf  Hf3  1  0.999839  0.761864  0.750000  1
  Hf  Hf4  1  0.762025  0.761864  0.250000  1
  Hf  Hf5  1  0.237975  0.238136  0.750000  1
  Ti  Ti6  1  0.337102  0.674205  0.000000  1
  Ti  Ti7  1  0.662898  0.325795  0.000000  1
  Ti  Ti8  1  0.662898  0.325795  0.500000  1
  Ti  Ti9  1  0.337102  0.674205  0.500000  1
  Si  Si10  1  0.998486  0.589125  0.250000  1
  Si  Si11  1  0.001514  0.410875  0.750000  1
  Si  Si12  1  0.409361  0.410875  0.250000  1
  Si  Si13  1  0.590639  0.589125  0.750000  1
  P  P14  1  0.596868  0.000000  0.250000  1
  P  P15  1  0.403132  0.000000  0.750000  1
  N  N16  1  0.000000  0.000000  0.000000  1
  N  N17  1  0.000000  0.000000  0.500000  1
