# generated using pymatgen
data_Ho4Co5P12Ir11Rh4
_symmetry_space_group_name_H-M   'P 1'
_cell_length_a   3.89295700
_cell_length_b   10.67310089
_cell_length_c   12.36626029
_cell_angle_alpha   89.91879731
_cell_angle_beta   90.00000000
_cell_angle_gamma   90.00000000
_symmetry_Int_Tables_number   1
_chemical_formula_structural   Ho4Co5P12Ir11Rh4
_chemical_formula_sum   'Ho4 Co5 P12 Ir11 Rh4'
_cell_volume   513.81664440
_cell_formula_units_Z   1
loop_
 _symmetry_equiv_pos_site_id
 _symmetry_equiv_pos_as_xyz
  1  'x, y, z'
loop_
 _atom_site_type_symbol
 _atom_site_label
 _atom_site_symmetry_multiplicity
 _atom_site_fract_x
 _atom_site_fract_y
 _atom_site_fract_z
 _atom_site_occupancy
  Ho  Ho0  1  0.250000  0.581455  0.710631  1
  Ho  Ho1  1  0.250000  0.915997  0.209210  1
  Ho  Ho2  1  0.750000  0.416309  0.290117  1
  Ho  Ho3  1  0.750000  0.087483  0.790749  1
  Co  Co4  1  0.750000  0.382411  0.803841  1
  Co  Co5  1  0.250000  0.463204  0.930777  1
  Co  Co6  1  0.250000  0.037384  0.434913  1
  Co  Co7  1  0.750000  0.538646  0.063415  1
  Co  Co8  1  0.750000  0.963227  0.566776  1
  P  P9  1  0.250000  0.426431  0.103376  1
  P  P10  1  0.250000  0.077597  0.607067  1
  P  P11  1  0.750000  0.565250  0.887635  1
  P  P12  1  0.750000  0.925230  0.395128  1
  P  P13  1  0.250000  0.274171  0.870062  1
  P  P14  1  0.250000  0.229461  0.370949  1
  P  P15  1  0.750000  0.729636  0.127780  1
  P  P16  1  0.750000  0.769873  0.628947  1
  P  P17  1  0.250000  0.595653  0.386075  1
  P  P18  1  0.250000  0.902922  0.885382  1
  P  P19  1  0.750000  0.402355  0.624257  1
  P  P20  1  0.750000  0.098649  0.113959  1
  Ir  Ir21  1  0.250000  0.406431  0.477072  1
  Ir  Ir22  1  0.250000  0.092873  0.976259  1
  Ir  Ir23  1  0.750000  0.589145  0.524348  1
  Ir  Ir24  1  0.750000  0.908856  0.021478  1
  Ir  Ir25  1  0.250000  0.230564  0.177771  1
  Ir  Ir26  1  0.250000  0.276548  0.681560  1
  Ir  Ir27  1  0.750000  0.766648  0.820766  1
  Ir  Ir28  1  0.750000  0.729883  0.320774  1
  Ir  Ir29  1  0.250000  0.887032  0.698709  1
  Ir  Ir30  1  0.250000  0.613874  0.197766  1
  Ir  Ir31  1  0.750000  0.115079  0.302880  1
  Rh  Rh32  1  0.250000  0.719208  0.983378  1
  Rh  Rh33  1  0.250000  0.779450  0.483357  1
  Rh  Rh34  1  0.750000  0.281379  0.012498  1
  Rh  Rh35  1  0.750000  0.219688  0.520338  1
