# generated using pymatgen
data_PuOs3F24
_symmetry_space_group_name_H-M   'P 1'
_cell_length_a   5.28314870
_cell_length_b   9.05065700
_cell_length_c   10.04072052
_cell_angle_alpha   90.00000000
_cell_angle_beta   90.22832235
_cell_angle_gamma   90.00000000
_symmetry_Int_Tables_number   1
_chemical_formula_structural   PuOs3F24
_chemical_formula_sum   'Pu1 Os3 F24'
_cell_volume   480.10294711
_cell_formula_units_Z   1
loop_
 _symmetry_equiv_pos_site_id
 _symmetry_equiv_pos_as_xyz
  1  'x, y, z'
loop_
 _atom_site_type_symbol
 _atom_site_label
 _atom_site_symmetry_multiplicity
 _atom_site_fract_x
 _atom_site_fract_y
 _atom_site_fract_z
 _atom_site_occupancy
  Pu  Pu0  1  0.590768  0.750000  0.126927  1
  Os  Os1  1  0.090940  0.250000  0.373165  1
  Os  Os2  1  0.409160  0.250000  0.872882  1
  Os  Os3  1  0.909381  0.750000  0.627007  1
  F  F4  1  0.260234  0.104624  0.979480  1
  F  F5  1  0.759202  0.895729  0.520717  1
  F  F6  1  0.748971  0.594215  0.014142  1
  F  F7  1  0.240348  0.395675  0.479895  1
  F  F8  1  0.624214  0.750000  0.737022  1
  F  F9  1  0.123733  0.250000  0.762079  1
  F  F10  1  0.375269  0.250000  0.262485  1
  F  F11  1  0.896039  0.750000  0.245641  1
  F  F12  1  0.058668  0.604144  0.733226  1
  F  F13  1  0.557562  0.395401  0.766480  1
  F  F14  1  0.941608  0.104363  0.266324  1
  F  F15  1  0.433405  0.905793  0.239828  1
  F  F16  1  0.941608  0.395637  0.266324  1
  F  F17  1  0.433405  0.594207  0.239828  1
  F  F18  1  0.058668  0.895856  0.733226  1
  F  F19  1  0.557562  0.104599  0.766480  1
  F  F20  1  0.193845  0.750000  0.516959  1
  F  F21  1  0.693880  0.250000  0.983969  1
  F  F22  1  0.806662  0.250000  0.483620  1
  F  F23  1  0.286114  0.750000  0.008060  1
  F  F24  1  0.759202  0.604271  0.520717  1
  F  F25  1  0.260234  0.395376  0.979480  1
  F  F26  1  0.240348  0.104325  0.479895  1
  F  F27  1  0.748971  0.905785  0.014142  1
