# generated using pymatgen
data_CeHf3ThSi4
_symmetry_space_group_name_H-M   'P 1'
_cell_length_a   7.35022900
_cell_length_b   7.35022900
_cell_length_c   13.53636500
_cell_angle_alpha   90.00000000
_cell_angle_beta   90.00000000
_cell_angle_gamma   90.00000000
_symmetry_Int_Tables_number   1
_chemical_formula_structural   CeHf3ThSi4
_chemical_formula_sum   'Ce4 Hf12 Th4 Si16'
_cell_volume   731.31384639
_cell_formula_units_Z   4
loop_
 _symmetry_equiv_pos_site_id
 _symmetry_equiv_pos_as_xyz
  1  'x, y, z'
loop_
 _atom_site_type_symbol
 _atom_site_label
 _atom_site_symmetry_multiplicity
 _atom_site_fract_x
 _atom_site_fract_y
 _atom_site_fract_z
 _atom_site_occupancy
  Ce  Ce0  1  0.842369  0.504695  0.964979  1
  Ce  Ce1  1  0.157631  0.495305  0.464979  1
  Ce  Ce2  1  0.004695  0.657631  0.714979  1
  Ce  Ce3  1  0.995305  0.342369  0.214979  1
  Hf  Hf4  1  0.674564  0.326583  0.750203  1
  Hf  Hf5  1  0.325436  0.673417  0.250203  1
  Hf  Hf6  1  0.826583  0.825436  0.500203  1
  Hf  Hf7  1  0.173417  0.174564  0.000203  1
  Hf  Hf8  1  0.496916  0.346721  0.124861  1
  Hf  Hf9  1  0.503084  0.653279  0.624861  1
  Hf  Hf10  1  0.846721  0.003084  0.874861  1
  Hf  Hf11  1  0.153279  0.996916  0.374861  1
  Hf  Hf12  1  0.653330  0.502219  0.374783  1
  Hf  Hf13  1  0.346670  0.497781  0.874783  1
  Hf  Hf14  1  0.002219  0.846670  0.124783  1
  Hf  Hf15  1  0.997781  0.153330  0.624783  1
  Th  Th16  1  0.494274  0.159074  0.534159  1
  Th  Th17  1  0.505726  0.840926  0.034159  1
  Th  Th18  1  0.659074  0.005726  0.284159  1
  Th  Th19  1  0.340926  0.994274  0.784159  1
  Si  Si20  1  0.799264  0.137418  0.065348  1
  Si  Si21  1  0.200736  0.862582  0.565348  1
  Si  Si22  1  0.637418  0.700736  0.815348  1
  Si  Si23  1  0.362582  0.299264  0.315348  1
  Si  Si24  1  0.868627  0.204542  0.435345  1
  Si  Si25  1  0.131373  0.795458  0.935345  1
  Si  Si26  1  0.704542  0.631373  0.185345  1
  Si  Si27  1  0.295458  0.368627  0.685345  1
  Si  Si28  1  0.548073  0.209929  0.935153  1
  Si  Si29  1  0.451927  0.790071  0.435153  1
  Si  Si30  1  0.709929  0.951927  0.685153  1
  Si  Si31  1  0.290071  0.048073  0.185153  1
  Si  Si32  1  0.794649  0.455196  0.565170  1
  Si  Si33  1  0.205351  0.544804  0.065170  1
  Si  Si34  1  0.955196  0.705351  0.315170  1
  Si  Si35  1  0.044804  0.294649  0.815170  1
