# generated using pymatgen
data_Ce3Y12Th(CdIr)4
_symmetry_space_group_name_H-M   'P 1'
_cell_length_a   9.69440355
_cell_length_b   9.74082451
_cell_length_c   9.74082600
_cell_angle_alpha   60.00000172
_cell_angle_beta   59.84147498
_cell_angle_gamma   59.84147376
_symmetry_Int_Tables_number   1
_chemical_formula_structural   Ce3Y12Th(CdIr)4
_chemical_formula_sum   'Ce3 Y12 Th1 Cd4 Ir4'
_cell_volume   648.86271782
_cell_formula_units_Z   1
loop_
 _symmetry_equiv_pos_site_id
 _symmetry_equiv_pos_as_xyz
  1  'x, y, z'
loop_
 _atom_site_type_symbol
 _atom_site_label
 _atom_site_symmetry_multiplicity
 _atom_site_fract_x
 _atom_site_fract_y
 _atom_site_fract_z
 _atom_site_occupancy
  Ce  Ce0  1  0.349389  0.348592  0.348592  1
  Ce  Ce1  1  0.349389  0.348592  0.953426  1
  Ce  Ce2  1  0.349389  0.953426  0.348592  1
  Y  Y3  1  0.811262  0.188492  0.188492  1
  Y  Y4  1  0.188702  0.810982  0.810982  1
  Y  Y5  1  0.188702  0.810982  0.189334  1
  Y  Y6  1  0.811262  0.188492  0.811753  1
  Y  Y7  1  0.188702  0.189334  0.810982  1
  Y  Y8  1  0.811262  0.811753  0.188492  1
  Y  Y9  1  0.936505  0.564002  0.564002  1
  Y  Y10  1  0.561813  0.937613  0.937613  1
  Y  Y11  1  0.561813  0.937613  0.562960  1
  Y  Y12  1  0.936505  0.564002  0.935490  1
  Y  Y13  1  0.561813  0.562960  0.937613  1
  Y  Y14  1  0.936505  0.935490  0.564002  1
  Th  Th15  1  0.952320  0.349227  0.349227  1
  Cd  Cd16  1  0.580269  0.583264  0.583264  1
  Cd  Cd17  1  0.580269  0.583264  0.253203  1
  Cd  Cd18  1  0.580269  0.253203  0.583264  1
  Cd  Cd19  1  0.254779  0.581740  0.581740  1
  Ir  Ir20  1  0.146431  0.142236  0.142236  1
  Ir  Ir21  1  0.146431  0.142236  0.569095  1
  Ir  Ir22  1  0.146431  0.569095  0.142236  1
  Ir  Ir23  1  0.569782  0.143406  0.143406  1
