# generated using pymatgen
data_Zr3Ta(NiTe2)4
_symmetry_space_group_name_H-M   'P 1'
_cell_length_a   6.61156354
_cell_length_b   7.54777934
_cell_length_c   8.09350800
_cell_angle_alpha   90.00000000
_cell_angle_beta   90.00000000
_cell_angle_gamma   89.57507028
_symmetry_Int_Tables_number   1
_chemical_formula_structural   Zr3Ta(NiTe2)4
_chemical_formula_sum   'Zr3 Ta1 Ni4 Te8'
_cell_volume   403.87616819
_cell_formula_units_Z   1
loop_
 _symmetry_equiv_pos_site_id
 _symmetry_equiv_pos_as_xyz
  1  'x, y, z'
loop_
 _atom_site_type_symbol
 _atom_site_label
 _atom_site_symmetry_multiplicity
 _atom_site_fract_x
 _atom_site_fract_y
 _atom_site_fract_z
 _atom_site_occupancy
  Zr  Zr0  1  0.500000  0.000000  0.791302  1
  Zr  Zr1  1  0.000000  0.000000  0.708542  1
  Zr  Zr2  1  0.000000  0.000000  0.289695  1
  Ta  Ta3  1  0.500000  0.000000  0.211141  1
  Ni  Ni4  1  0.855677  0.881790  0.998664  1
  Ni  Ni5  1  0.643574  0.884375  0.493255  1
  Ni  Ni6  1  0.356426  0.115625  0.493255  1
  Ni  Ni7  1  0.144323  0.118210  0.998664  1
  Te  Te8  1  0.246030  0.788358  0.012316  1
  Te  Te9  1  0.738987  0.689173  0.243901  1
  Te  Te10  1  0.737112  0.218333  0.504814  1
  Te  Te11  1  0.753970  0.211642  0.012316  1
  Te  Te12  1  0.261013  0.310827  0.243901  1
  Te  Te13  1  0.246290  0.314008  0.746710  1
  Te  Te14  1  0.753710  0.685992  0.746710  1
  Te  Te15  1  0.262888  0.781667  0.504814  1
