# generated using pymatgen
data_Dy4Mg3ZnIr4
_symmetry_space_group_name_H-M   'P 1'
_cell_length_a   4.08830100
_cell_length_b   7.04654800
_cell_length_c   8.46059902
_cell_angle_alpha   89.85763253
_cell_angle_beta   90.00000000
_cell_angle_gamma   90.00000000
_symmetry_Int_Tables_number   1
_chemical_formula_structural   Dy4Mg3ZnIr4
_chemical_formula_sum   'Dy4 Mg3 Zn1 Ir4'
_cell_volume   243.73564645
_cell_formula_units_Z   1
loop_
 _symmetry_equiv_pos_site_id
 _symmetry_equiv_pos_as_xyz
  1  'x, y, z'
loop_
 _atom_site_type_symbol
 _atom_site_label
 _atom_site_symmetry_multiplicity
 _atom_site_fract_x
 _atom_site_fract_y
 _atom_site_fract_z
 _atom_site_occupancy
  Dy  Dy0  1  0.250000  0.535707  0.181088  1
  Dy  Dy1  1  0.750000  0.458439  0.821958  1
  Dy  Dy2  1  0.250000  0.046994  0.328366  1
  Dy  Dy3  1  0.750000  0.962447  0.673809  1
  Mg  Mg4  1  0.250000  0.135894  0.938569  1
  Mg  Mg5  1  0.750000  0.863662  0.061054  1
  Mg  Mg6  1  0.250000  0.631387  0.557040  1
  Zn  Zn7  1  0.750000  0.365838  0.438127  1
  Ir  Ir8  1  0.750000  0.747593  0.372461  1
  Ir  Ir9  1  0.250000  0.254566  0.625394  1
  Ir  Ir10  1  0.750000  0.248443  0.132214  1
  Ir  Ir11  1  0.250000  0.749029  0.869921  1
