# generated using pymatgen
data_Tm10Si16Pt
_symmetry_space_group_name_H-M   'P 1'
_cell_length_a   10.97379028
_cell_length_b   10.99247117
_cell_length_c   10.97415863
_cell_angle_alpha   144.76558747
_cell_angle_beta   136.40144683
_cell_angle_gamma   57.21865013
_symmetry_Int_Tables_number   1
_chemical_formula_structural   Tm10Si16Pt
_chemical_formula_sum   'Tm10 Si16 Pt1'
_cell_volume   522.48103776
_cell_formula_units_Z   1
loop_
 _symmetry_equiv_pos_site_id
 _symmetry_equiv_pos_as_xyz
  1  'x, y, z'
loop_
 _atom_site_type_symbol
 _atom_site_label
 _atom_site_symmetry_multiplicity
 _atom_site_fract_x
 _atom_site_fract_y
 _atom_site_fract_z
 _atom_site_occupancy
  Tm  Tm0  1  0.051728  0.563882  0.015384  1
  Tm  Tm1  1  0.352637  0.372576  0.523192  1
  Tm  Tm2  1  0.151581  0.166422  0.521191  1
  Tm  Tm3  1  0.451822  0.963151  0.014547  1
  Tm  Tm4  1  0.645236  0.166420  0.014842  1
  Tm  Tm5  1  0.948603  0.963149  0.511325  1
  Tm  Tm6  1  0.849380  0.372576  0.019937  1
  Tm  Tm7  1  0.548503  0.563884  0.512157  1
  Tm  Tm8  1  0.248046  0.761676  0.009212  1
  Tm  Tm9  1  0.752463  0.761678  0.513631  1
  Si  Si10  1  0.120147  0.083708  0.963559  1
  Si  Si11  1  0.797955  0.179973  0.382014  1
  Si  Si12  1  0.300106  0.898888  0.598783  1
  Si  Si13  1  0.399858  0.500798  0.100947  1
  Si  Si14  1  0.884479  0.848575  0.964101  1
  Si  Si15  1  0.104787  0.710909  0.606121  1
  Si  Si16  1  0.200575  0.580269  0.379690  1
  Si  Si17  1  0.697157  0.292266  0.595109  1
  Si  Si18  1  0.000428  0.432933  0.432499  1
  Si  Si19  1  0.714547  0.668972  0.954424  1
  Si  Si20  1  0.600201  0.703199  0.102996  1
  Si  Si21  1  0.001383  0.085554  0.084176  1
  Si  Si22  1  0.500860  0.386971  0.886105  1
  Si  Si23  1  0.284391  0.242151  0.957763  1
  Si  Si24  1  0.580730  0.042330  0.461594  1
  Si  Si25  1  0.416181  0.874104  0.457926  1
  Pt  Pt26  1  0.896214  0.501908  0.605693  1
