# generated using pymatgen
data_Pr16Ga6TcRu
_symmetry_space_group_name_H-M   'P 1'
_cell_length_a   10.59637671
_cell_length_b   10.59980286
_cell_length_c   7.16207022
_cell_angle_alpha   89.97442614
_cell_angle_beta   90.00191171
_cell_angle_gamma   120.05507554
_symmetry_Int_Tables_number   1
_chemical_formula_structural   Pr16Ga6TcRu
_chemical_formula_sum   'Pr16 Ga6 Tc1 Ru1'
_cell_volume   696.27858610
_cell_formula_units_Z   1
loop_
 _symmetry_equiv_pos_site_id
 _symmetry_equiv_pos_as_xyz
  1  'x, y, z'
loop_
 _atom_site_type_symbol
 _atom_site_label
 _atom_site_symmetry_multiplicity
 _atom_site_fract_x
 _atom_site_fract_y
 _atom_site_fract_z
 _atom_site_occupancy
  Pr  Pr0  1  0.169176  0.830827  0.989666  1
  Pr  Pr1  1  0.337004  0.168506  0.489771  1
  Pr  Pr2  1  0.831491  0.662996  0.489766  1
  Pr  Pr3  1  0.169190  0.338367  0.989660  1
  Pr  Pr4  1  0.661624  0.830812  0.989659  1
  Pr  Pr5  1  0.831508  0.168489  0.489767  1
  Pr  Pr6  1  0.333336  0.666677  0.668779  1
  Pr  Pr7  1  0.666670  0.333343  0.166976  1
  Pr  Pr8  1  0.463187  0.536816  0.295381  1
  Pr  Pr9  1  0.925788  0.462902  0.796201  1
  Pr  Pr10  1  0.537093  0.074214  0.796210  1
  Pr  Pr11  1  0.463200  0.926378  0.295371  1
  Pr  Pr12  1  0.073619  0.536802  0.295380  1
  Pr  Pr13  1  0.537105  0.462890  0.796202  1
  Pr  Pr14  1  0.999983  0.000000  0.270184  1
  Pr  Pr15  1  0.000014  0.999997  0.770814  1
  Ga  Ga16  1  0.165509  0.834497  0.538994  1
  Ga  Ga17  1  0.329361  0.164690  0.038701  1
  Ga  Ga18  1  0.835292  0.670625  0.038705  1
  Ga  Ga19  1  0.165518  0.330985  0.538977  1
  Ga  Ga20  1  0.669036  0.834497  0.538965  1
  Ga  Ga21  1  0.835291  0.164691  0.038722  1
  Tc  Tc22  1  0.666674  0.333331  0.550721  1
  Ru  Ru23  1  0.333332  0.666671  0.052428  1
