# generated using pymatgen
data_Hf2MnSi2Rh
_symmetry_space_group_name_H-M   'P 1'
_cell_length_a   4.01457700
_cell_length_b   6.38298666
_cell_length_c   7.21214260
_cell_angle_alpha   91.18622324
_cell_angle_beta   90.00000000
_cell_angle_gamma   90.00000000
_symmetry_Int_Tables_number   1
_chemical_formula_structural   Hf2MnSi2Rh
_chemical_formula_sum   'Hf4 Mn2 Si4 Rh2'
_cell_volume   184.77148578
_cell_formula_units_Z   2
loop_
 _symmetry_equiv_pos_site_id
 _symmetry_equiv_pos_as_xyz
  1  'x, y, z'
loop_
 _atom_site_type_symbol
 _atom_site_label
 _atom_site_symmetry_multiplicity
 _atom_site_fract_x
 _atom_site_fract_y
 _atom_site_fract_z
 _atom_site_occupancy
  Hf  Hf0  1  0.250000  0.502654  0.183832  1
  Hf  Hf1  1  0.750000  0.497346  0.816168  1
  Hf  Hf2  1  0.250000  0.008112  0.292784  1
  Hf  Hf3  1  0.750000  0.991888  0.707216  1
  Mn  Mn4  1  0.750000  0.839734  0.060846  1
  Mn  Mn5  1  0.250000  0.160266  0.939154  1
  Si  Si6  1  0.250000  0.789545  0.898691  1
  Si  Si7  1  0.750000  0.210455  0.101309  1
  Si  Si8  1  0.250000  0.278344  0.625186  1
  Si  Si9  1  0.750000  0.721656  0.374814  1
  Rh  Rh10  1  0.750000  0.341615  0.437184  1
  Rh  Rh11  1  0.250000  0.658385  0.562816  1
