# generated using pymatgen
data_Pr16MgCo4Hg3
_symmetry_space_group_name_H-M   'P 1'
_cell_length_a   9.79977107
_cell_length_b   9.79976998
_cell_length_c   9.79976992
_cell_angle_alpha   60.04049863
_cell_angle_beta   60.04050461
_cell_angle_gamma   60.04049826
_symmetry_Int_Tables_number   1
_chemical_formula_structural   Pr16MgCo4Hg3
_chemical_formula_sum   'Pr16 Mg1 Co4 Hg3'
_cell_volume   666.08737046
_cell_formula_units_Z   1
loop_
 _symmetry_equiv_pos_site_id
 _symmetry_equiv_pos_as_xyz
  1  'x, y, z'
loop_
 _atom_site_type_symbol
 _atom_site_label
 _atom_site_symmetry_multiplicity
 _atom_site_fract_x
 _atom_site_fract_y
 _atom_site_fract_z
 _atom_site_occupancy
  Pr  Pr0  1  0.290783  0.903073  0.903073  1
  Pr  Pr1  1  0.688201  0.688201  0.310892  1
  Pr  Pr2  1  0.903073  0.903073  0.290783  1
  Pr  Pr3  1  0.309499  0.690620  0.309499  1
  Pr  Pr4  1  0.690620  0.309499  0.309499  1
  Pr  Pr5  1  0.062172  0.439148  0.439148  1
  Pr  Pr6  1  0.441051  0.058986  0.058986  1
  Pr  Pr7  1  0.058986  0.058986  0.441051  1
  Pr  Pr8  1  0.309499  0.309499  0.690620  1
  Pr  Pr9  1  0.439148  0.062172  0.439148  1
  Pr  Pr10  1  0.902048  0.902048  0.902048  1
  Pr  Pr11  1  0.439148  0.439148  0.062172  1
  Pr  Pr12  1  0.310892  0.688201  0.688201  1
  Pr  Pr13  1  0.688201  0.310892  0.688201  1
  Pr  Pr14  1  0.058986  0.441051  0.058986  1
  Pr  Pr15  1  0.903073  0.290783  0.903073  1
  Mg  Mg16  1  0.678962  0.678962  0.678962  1
  Co  Co17  1  0.108653  0.108653  0.108653  1
  Co  Co18  1  0.108156  0.108156  0.671528  1
  Co  Co19  1  0.671528  0.108156  0.108156  1
  Co  Co20  1  0.108156  0.671528  0.108156  1
  Hg  Hg21  1  0.665116  0.665116  0.998935  1
  Hg  Hg22  1  0.998935  0.665116  0.665116  1
  Hg  Hg23  1  0.665116  0.998935  0.665116  1
