# generated using pymatgen
data_LaNd4DyTa2O14
_symmetry_space_group_name_H-M   'P 1'
_cell_length_a   6.67116305
_cell_length_b   6.65329873
_cell_length_c   7.70046126
_cell_angle_alpha   90.01274668
_cell_angle_beta   90.02144406
_cell_angle_gamma   108.69051532
_symmetry_Int_Tables_number   1
_chemical_formula_structural   LaNd4DyTa2O14
_chemical_formula_sum   'La1 Nd4 Dy1 Ta2 O14'
_cell_volume   323.76208619
_cell_formula_units_Z   1
loop_
 _symmetry_equiv_pos_site_id
 _symmetry_equiv_pos_as_xyz
  1  'x, y, z'
loop_
 _atom_site_type_symbol
 _atom_site_label
 _atom_site_symmetry_multiplicity
 _atom_site_fract_x
 _atom_site_fract_y
 _atom_site_fract_z
 _atom_site_occupancy
  La  La0  1  0.520291  0.516022  0.498626  1
  Nd  Nd1  1  0.537758  0.531460  0.000942  1
  Nd  Nd2  1  0.006280  0.462421  0.751169  1
  Nd  Nd3  1  0.532645  0.003321  0.749754  1
  Nd  Nd4  1  0.462077  0.003510  0.248519  1
  Dy  Dy5  1  0.003593  0.530893  0.250597  1
  Ta  Ta6  1  0.999092  0.999326  0.497847  1
  Ta  Ta7  1  0.001046  0.001631  0.002169  1
  O  O8  1  0.944524  0.056541  0.749954  1
  O  O9  1  0.058171  0.936151  0.249922  1
  O  O10  1  0.354246  0.635630  0.246400  1
  O  O11  1  0.642705  0.368241  0.752111  1
  O  O12  1  0.372096  0.631844  0.753197  1
  O  O13  1  0.644114  0.376583  0.248160  1
  O  O14  1  0.307291  0.067523  0.968684  1
  O  O15  1  0.681136  0.923335  0.471387  1
  O  O16  1  0.309772  0.070288  0.529826  1
  O  O17  1  0.678984  0.919148  0.026947  1
  O  O18  1  0.043428  0.303457  0.460085  1
  O  O19  1  0.930185  0.680548  0.976631  1
  O  O20  1  0.935403  0.682755  0.525024  1
  O  O21  1  0.035164  0.299371  0.042048  1
