# generated using pymatgen
data_Rb2NiS16
_symmetry_space_group_name_H-M   'P 1'
_cell_length_a   11.72791400
_cell_length_b   11.72791400
_cell_length_c   7.28060800
_cell_angle_alpha   90.00000000
_cell_angle_beta   90.00000000
_cell_angle_gamma   90.00000000
_symmetry_Int_Tables_number   1
_chemical_formula_structural   Rb2NiS16
_chemical_formula_sum   'Rb4 Ni2 S32'
_cell_volume   1001.40370497
_cell_formula_units_Z   2
loop_
 _symmetry_equiv_pos_site_id
 _symmetry_equiv_pos_as_xyz
  1  'x, y, z'
loop_
 _atom_site_type_symbol
 _atom_site_label
 _atom_site_symmetry_multiplicity
 _atom_site_fract_x
 _atom_site_fract_y
 _atom_site_fract_z
 _atom_site_occupancy
  Rb  Rb0  1  0.500000  0.000000  0.000000  1
  Rb  Rb1  1  0.000000  0.500000  0.000000  1
  Rb  Rb2  1  0.500000  0.500000  0.500000  1
  Rb  Rb3  1  0.000000  0.000000  0.500000  1
  Ni  Ni4  1  0.000000  0.000000  0.000000  1
  Ni  Ni5  1  0.500000  0.500000  0.000000  1
  S  S6  1  0.185007  0.422949  0.574569  1
  S  S7  1  0.814993  0.577051  0.574569  1
  S  S8  1  0.577051  0.185007  0.425431  1
  S  S9  1  0.422949  0.814993  0.425431  1
  S  S10  1  0.314993  0.922949  0.574569  1
  S  S11  1  0.077051  0.314993  0.425431  1
  S  S12  1  0.822612  0.954096  0.937691  1
  S  S13  1  0.045904  0.822612  0.062309  1
  S  S14  1  0.954096  0.177388  0.062309  1
  S  S15  1  0.177388  0.045904  0.937691  1
  S  S16  1  0.545904  0.677388  0.062309  1
  S  S17  1  0.454096  0.322612  0.062309  1
  S  S18  1  0.677388  0.454096  0.937691  1
  S  S19  1  0.322612  0.545904  0.937691  1
  S  S20  1  0.783913  0.204247  0.114116  1
  S  S21  1  0.795753  0.783913  0.885884  1
  S  S22  1  0.204247  0.216087  0.885884  1
  S  S23  1  0.216087  0.795753  0.114116  1
  S  S24  1  0.295753  0.716087  0.885884  1
  S  S25  1  0.704247  0.283913  0.885884  1
  S  S26  1  0.716087  0.704247  0.114116  1
  S  S27  1  0.283913  0.295753  0.114116  1
  S  S28  1  0.923252  0.312647  0.566378  1
  S  S29  1  0.687353  0.923252  0.433622  1
  S  S30  1  0.312647  0.076748  0.433622  1
  S  S31  1  0.076748  0.687353  0.566378  1
  S  S32  1  0.187353  0.576748  0.433622  1
  S  S33  1  0.812647  0.423252  0.433622  1
  S  S34  1  0.576748  0.812647  0.566378  1
  S  S35  1  0.423252  0.187353  0.566378  1
  S  S36  1  0.685007  0.077051  0.574569  1
  S  S37  1  0.922949  0.685007  0.425431  1
