# generated using pymatgen
data_Lu2Re3Mo
_symmetry_space_group_name_H-M   'P 1'
_cell_length_a   5.40524806
_cell_length_b   5.40524867
_cell_length_c   8.77551300
_cell_angle_alpha   90.00000000
_cell_angle_beta   90.00000000
_cell_angle_gamma   119.97871536
_symmetry_Int_Tables_number   1
_chemical_formula_structural   Lu2Re3Mo
_chemical_formula_sum   'Lu4 Re6 Mo2'
_cell_volume   222.08926178
_cell_formula_units_Z   2
loop_
 _symmetry_equiv_pos_site_id
 _symmetry_equiv_pos_as_xyz
  1  'x, y, z'
loop_
 _atom_site_type_symbol
 _atom_site_label
 _atom_site_symmetry_multiplicity
 _atom_site_fract_x
 _atom_site_fract_y
 _atom_site_fract_z
 _atom_site_occupancy
  Lu  Lu0  1  0.666640  0.333360  0.562848  1
  Lu  Lu1  1  0.333360  0.666640  0.437152  1
  Lu  Lu2  1  0.333360  0.666640  0.062848  1
  Lu  Lu3  1  0.666640  0.333360  0.937152  1
  Re  Re4  1  0.171700  0.343374  0.750000  1
  Re  Re5  1  0.171875  0.828125  0.750000  1
  Re  Re6  1  0.656626  0.828300  0.750000  1
  Re  Re7  1  0.828300  0.656626  0.250000  1
  Re  Re8  1  0.828125  0.171875  0.250000  1
  Re  Re9  1  0.343374  0.171700  0.250000  1
  Mo  Mo10  1  0.000000  0.000000  0.500000  1
  Mo  Mo11  1  0.000000  0.000000  0.000000  1
