# generated using pymatgen
data_Dy3YZr2(SnIr2)2
_symmetry_space_group_name_H-M   'P 1'
_cell_length_a   4.39096000
_cell_length_b   7.16375381
_cell_length_c   8.42331895
_cell_angle_alpha   89.94544020
_cell_angle_beta   90.00000000
_cell_angle_gamma   90.00000000
_symmetry_Int_Tables_number   1
_chemical_formula_structural   Dy3YZr2(SnIr2)2
_chemical_formula_sum   'Dy3 Y1 Zr2 Sn2 Ir4'
_cell_volume   264.96174931
_cell_formula_units_Z   1
loop_
 _symmetry_equiv_pos_site_id
 _symmetry_equiv_pos_as_xyz
  1  'x, y, z'
loop_
 _atom_site_type_symbol
 _atom_site_label
 _atom_site_symmetry_multiplicity
 _atom_site_fract_x
 _atom_site_fract_y
 _atom_site_fract_z
 _atom_site_occupancy
  Dy  Dy0  1  0.250000  0.033684  0.330221  1
  Dy  Dy1  1  0.750000  0.971275  0.678168  1
  Dy  Dy2  1  0.750000  0.471554  0.821957  1
  Y  Y3  1  0.250000  0.533953  0.169913  1
  Zr  Zr4  1  0.250000  0.129582  0.939734  1
  Zr  Zr5  1  0.250000  0.629935  0.560422  1
  Sn  Sn6  1  0.750000  0.855804  0.071372  1
  Sn  Sn7  1  0.750000  0.355910  0.428690  1
  Ir  Ir8  1  0.250000  0.259435  0.634833  1
  Ir  Ir9  1  0.250000  0.759959  0.864483  1
  Ir  Ir10  1  0.750000  0.750153  0.394643  1
  Ir  Ir11  1  0.750000  0.248759  0.105565  1
