# generated using pymatgen
data_Dy8Ti12Si15Pt
_symmetry_space_group_name_H-M   'P 1'
_cell_length_a   7.10698144
_cell_length_b   7.05402954
_cell_length_c   13.01245609
_cell_angle_alpha   89.92310599
_cell_angle_beta   89.91138996
_cell_angle_gamma   90.01705225
_symmetry_Int_Tables_number   1
_chemical_formula_structural   Dy8Ti12Si15Pt
_chemical_formula_sum   'Dy8 Ti12 Si15 Pt1'
_cell_volume   652.35020371
_cell_formula_units_Z   1
loop_
 _symmetry_equiv_pos_site_id
 _symmetry_equiv_pos_as_xyz
  1  'x, y, z'
loop_
 _atom_site_type_symbol
 _atom_site_label
 _atom_site_symmetry_multiplicity
 _atom_site_fract_x
 _atom_site_fract_y
 _atom_site_fract_z
 _atom_site_occupancy
  Dy  Dy0  1  0.340259  0.001980  0.465721  1
  Dy  Dy1  1  0.501197  0.838862  0.717683  1
  Dy  Dy2  1  0.500703  0.160014  0.216793  1
  Dy  Dy3  1  0.841709  0.496953  0.283248  1
  Dy  Dy4  1  0.157234  0.502031  0.782974  1
  Dy  Dy5  1  0.659669  0.997491  0.967512  1
  Dy  Dy6  1  0.001708  0.339099  0.534758  1
  Dy  Dy7  1  0.998904  0.660037  0.033313  1
  Ti  Ti8  1  0.326191  0.326582  0.001154  1
  Ti  Ti9  1  0.173910  0.826320  0.249841  1
  Ti  Ti10  1  0.822918  0.172585  0.749853  1
  Ti  Ti11  1  0.673582  0.672196  0.499412  1
  Ti  Ti12  1  0.155071  0.012108  0.876604  1
  Ti  Ti13  1  0.491019  0.652317  0.126247  1
  Ti  Ti14  1  0.503219  0.344718  0.626490  1
  Ti  Ti15  1  0.654960  0.495534  0.875327  1
  Ti  Ti16  1  0.348252  0.507453  0.373263  1
  Ti  Ti17  1  0.847023  0.991521  0.375307  1
  Ti  Ti18  1  0.008475  0.152012  0.125123  1
  Ti  Ti19  1  0.987144  0.848719  0.618941  1
  Si  Si20  1  0.369722  0.702534  0.935070  1
  Si  Si21  1  0.631068  0.297384  0.434073  1
  Si  Si22  1  0.702809  0.370156  0.066488  1
  Si  Si23  1  0.301506  0.631107  0.563640  1
  Si  Si24  1  0.795900  0.869440  0.183328  1
  Si  Si25  1  0.130114  0.202681  0.315604  1
  Si  Si26  1  0.869212  0.798738  0.815822  1
  Si  Si27  1  0.291444  0.953416  0.065663  1
  Si  Si28  1  0.547405  0.790095  0.314783  1
  Si  Si29  1  0.457081  0.214382  0.818166  1
  Si  Si30  1  0.789204  0.547655  0.685747  1
  Si  Si31  1  0.208525  0.453553  0.185084  1
  Si  Si32  1  0.706950  0.046867  0.563170  1
  Si  Si33  1  0.951554  0.291073  0.936759  1
  Si  Si34  1  0.048377  0.708745  0.433185  1
  Pt  Pt35  1  0.205983  0.123642  0.683854  1
