# generated using pymatgen
data_Tm2Pa(AlRh)3
_symmetry_space_group_name_H-M   'P 1'
_cell_length_a   7.12670103
_cell_length_b   7.19830593
_cell_length_c   3.85840100
_cell_angle_alpha   90.00000000
_cell_angle_beta   90.00000000
_cell_angle_gamma   120.33292967
_symmetry_Int_Tables_number   1
_chemical_formula_structural   Tm2Pa(AlRh)3
_chemical_formula_sum   'Tm2 Pa1 Al3 Rh3'
_cell_volume   170.84019415
_cell_formula_units_Z   1
loop_
 _symmetry_equiv_pos_site_id
 _symmetry_equiv_pos_as_xyz
  1  'x, y, z'
loop_
 _atom_site_type_symbol
 _atom_site_label
 _atom_site_symmetry_multiplicity
 _atom_site_fract_x
 _atom_site_fract_y
 _atom_site_fract_z
 _atom_site_occupancy
  Tm  Tm0  1  0.588079  0.582652  0.000000  1
  Tm  Tm1  1  0.411921  0.994573  0.000000  1
  Pa  Pa2  1  0.000000  0.423838  0.000000  1
  Al  Al3  1  0.255353  0.242831  0.500000  1
  Al  Al4  1  0.000000  0.774854  0.500000  1
  Al  Al5  1  0.744647  0.987478  0.500000  1
  Rh  Rh6  1  0.694189  0.334910  0.500000  1
  Rh  Rh7  1  0.305811  0.640722  0.500000  1
  Rh  Rh8  1  0.000000  0.018142  0.000000  1
