# generated using pymatgen
data_NpAuO5
_symmetry_space_group_name_H-M   'P 1'
_cell_length_a   6.13999435
_cell_length_b   6.13999371
_cell_length_c   7.44682495
_cell_angle_alpha   72.94347306
_cell_angle_beta   72.94347259
_cell_angle_gamma   64.50239100
_symmetry_Int_Tables_number   1
_chemical_formula_structural   NpAuO5
_chemical_formula_sum   'Np2 Au2 O10'
_cell_volume   237.67003425
_cell_formula_units_Z   2
loop_
 _symmetry_equiv_pos_site_id
 _symmetry_equiv_pos_as_xyz
  1  'x, y, z'
loop_
 _atom_site_type_symbol
 _atom_site_label
 _atom_site_symmetry_multiplicity
 _atom_site_fract_x
 _atom_site_fract_y
 _atom_site_fract_z
 _atom_site_occupancy
  Np  Np0  1  0.958980  0.041020  0.250000  1
  Np  Np1  1  0.041020  0.958980  0.750000  1
  Au  Au2  1  0.500000  0.500000  0.000000  1
  Au  Au3  1  0.500000  0.500000  0.500000  1
  O  O4  1  0.391359  0.608641  0.750000  1
  O  O5  1  0.228838  0.137619  0.661923  1
  O  O6  1  0.771162  0.862381  0.338077  1
  O  O7  1  0.137619  0.228838  0.161923  1
  O  O8  1  0.608641  0.391359  0.250000  1
  O  O9  1  0.862381  0.771162  0.838077  1
  O  O10  1  0.201156  0.802310  0.049324  1
  O  O11  1  0.802310  0.201156  0.549324  1
  O  O12  1  0.798844  0.197690  0.950676  1
  O  O13  1  0.197690  0.798844  0.450676  1
