# generated using pymatgen
data_Lu5Mg3(B6Rh)4
_symmetry_space_group_name_H-M   'P 1'
_cell_length_a   3.54219400
_cell_length_b   8.91782473
_cell_length_c   11.28230404
_cell_angle_alpha   89.91045111
_cell_angle_beta   90.00000000
_cell_angle_gamma   90.00000000
_symmetry_Int_Tables_number   1
_chemical_formula_structural   Lu5Mg3(B6Rh)4
_chemical_formula_sum   'Lu5 Mg3 B24 Rh4'
_cell_volume   356.39249040
_cell_formula_units_Z   1
loop_
 _symmetry_equiv_pos_site_id
 _symmetry_equiv_pos_as_xyz
  1  'x, y, z'
loop_
 _atom_site_type_symbol
 _atom_site_label
 _atom_site_symmetry_multiplicity
 _atom_site_fract_x
 _atom_site_fract_y
 _atom_site_fract_z
 _atom_site_occupancy
  Lu  Lu0  1  0.000000  0.178960  0.912399  1
  Lu  Lu1  1  0.000000  0.820358  0.084323  1
  Lu  Lu2  1  0.000000  0.681376  0.586622  1
  Lu  Lu3  1  0.000000  0.318449  0.416391  1
  Lu  Lu4  1  0.000000  0.445263  0.124457  1
  Mg  Mg5  1  0.000000  0.947993  0.380586  1
  Mg  Mg6  1  0.000000  0.052616  0.620575  1
  Mg  Mg7  1  0.000000  0.554430  0.875050  1
  B  B8  1  0.500000  0.370299  0.817628  1
  B  B9  1  0.500000  0.980598  0.215096  1
  B  B10  1  0.500000  0.555908  0.435109  1
  B  B11  1  0.500000  0.291994  0.237306  1
  B  B12  1  0.500000  0.205148  0.734909  1
  B  B13  1  0.500000  0.101031  0.473133  1
  B  B14  1  0.500000  0.796274  0.265251  1
  B  B15  1  0.500000  0.445480  0.566147  1
  B  B16  1  0.500000  0.244839  0.579479  1
  B  B17  1  0.500000  0.482052  0.287221  1
  B  B18  1  0.500000  0.705981  0.763678  1
  B  B19  1  0.500000  0.756138  0.422080  1
  B  B20  1  0.500000  0.519137  0.713815  1
  B  B21  1  0.500000  0.899026  0.527858  1
  B  B22  1  0.500000  0.052967  0.065188  1
  B  B23  1  0.500000  0.605734  0.026313  1
  B  B24  1  0.500000  0.746722  0.919254  1
  B  B25  1  0.500000  0.018730  0.785078  1
  B  B26  1  0.500000  0.395985  0.969961  1
  B  B27  1  0.500000  0.945226  0.933083  1
  B  B28  1  0.500000  0.632735  0.181654  1
  B  B29  1  0.500000  0.250343  0.078004  1
  B  B30  1  0.500000  0.871733  0.680441  1
  B  B31  1  0.500000  0.128020  0.320809  1
  Rh  Rh32  1  0.000000  0.135966  0.181187  1
  Rh  Rh33  1  0.000000  0.359134  0.681846  1
  Rh  Rh34  1  0.000000  0.859145  0.818267  1
  Rh  Rh35  1  0.000000  0.644209  0.319808  1
