# generated using pymatgen
data_TmLu3Ga5GeIr7
_symmetry_space_group_name_H-M   'P 1'
_cell_length_a   7.23854063
_cell_length_b   7.23870595
_cell_length_c   7.23870534
_cell_angle_alpha   109.91449338
_cell_angle_beta   109.38464368
_cell_angle_gamma   109.38463282
_symmetry_Int_Tables_number   1
_chemical_formula_structural   TmLu3Ga5GeIr7
_chemical_formula_sum   'Tm1 Lu3 Ga5 Ge1 Ir7'
_cell_volume   290.99495658
_cell_formula_units_Z   1
loop_
 _symmetry_equiv_pos_site_id
 _symmetry_equiv_pos_as_xyz
  1  'x, y, z'
loop_
 _atom_site_type_symbol
 _atom_site_label
 _atom_site_symmetry_multiplicity
 _atom_site_fract_x
 _atom_site_fract_y
 _atom_site_fract_z
 _atom_site_occupancy
  Tm  Tm0  1  0.499806  0.501459  0.501459  1
  Lu  Lu1  1  0.999968  0.001811  0.501434  1
  Lu  Lu2  1  0.999968  0.501434  0.001811  1
  Lu  Lu3  1  0.500289  0.001786  0.001786  1
  Ga  Ga4  1  0.687455  0.688653  0.001845  1
  Ga  Ga5  1  0.312518  0.000498  0.313695  1
  Ga  Ga6  1  0.999447  0.309004  0.309004  1
  Ga  Ga7  1  0.312518  0.313695  0.000498  1
  Ga  Ga8  1  0.687455  0.001845  0.688653  1
  Ge  Ge9  1  0.000572  0.683971  0.683971  1
  Ir  Ir10  1  0.751096  0.249920  0.500427  1
  Ir  Ir11  1  0.751096  0.500427  0.249920  1
  Ir  Ir12  1  0.500019  0.250455  0.752097  1
  Ir  Ir13  1  0.248867  0.500464  0.750986  1
  Ir  Ir14  1  0.248867  0.750986  0.500464  1
  Ir  Ir15  1  0.500019  0.752097  0.250455  1
  Ir  Ir16  1  0.000041  0.991497  0.991497  1
