# generated using pymatgen
data_Y4ErIr2Ru
_symmetry_space_group_name_H-M   'P 1'
_cell_length_a   10.86797700
_cell_length_b   10.86797700
_cell_length_c   6.42831500
_cell_angle_alpha   90.00000000
_cell_angle_beta   90.00000000
_cell_angle_gamma   90.00000000
_symmetry_Int_Tables_number   1
_chemical_formula_structural   Y4ErIr2Ru
_chemical_formula_sum   'Y16 Er4 Ir8 Ru4'
_cell_volume   759.26708151
_cell_formula_units_Z   4
loop_
 _symmetry_equiv_pos_site_id
 _symmetry_equiv_pos_as_xyz
  1  'x, y, z'
loop_
 _atom_site_type_symbol
 _atom_site_label
 _atom_site_symmetry_multiplicity
 _atom_site_fract_x
 _atom_site_fract_y
 _atom_site_fract_z
 _atom_site_occupancy
  Y  Y0  1  0.293300  0.086902  0.378521  1
  Y  Y1  1  0.293300  0.913098  0.878521  1
  Y  Y2  1  0.706700  0.086902  0.878521  1
  Y  Y3  1  0.706700  0.913098  0.378521  1
  Y  Y4  1  0.586902  0.793300  0.878521  1
  Y  Y5  1  0.586902  0.206700  0.378521  1
  Y  Y6  1  0.413098  0.793300  0.378521  1
  Y  Y7  1  0.413098  0.206700  0.878521  1
  Y  Y8  1  0.206700  0.413098  0.621479  1
  Y  Y9  1  0.206700  0.586902  0.121479  1
  Y  Y10  1  0.793300  0.413098  0.121479  1
  Y  Y11  1  0.793300  0.586902  0.621479  1
  Y  Y12  1  0.913098  0.706700  0.121479  1
  Y  Y13  1  0.913098  0.293300  0.621479  1
  Y  Y14  1  0.086902  0.706700  0.621479  1
  Y  Y15  1  0.086902  0.293300  0.121479  1
  Er  Er16  1  0.000000  0.000000  0.500000  1
  Er  Er17  1  0.000000  0.000000  0.000000  1
  Er  Er18  1  0.500000  0.500000  0.000000  1
  Er  Er19  1  0.500000  0.500000  0.500000  1
  Ir  Ir20  1  0.849731  0.150269  0.250000  1
  Ir  Ir21  1  0.849731  0.849731  0.750000  1
  Ir  Ir22  1  0.150269  0.150269  0.750000  1
  Ir  Ir23  1  0.150269  0.849731  0.250000  1
  Ir  Ir24  1  0.650269  0.349731  0.750000  1
  Ir  Ir25  1  0.650269  0.650269  0.250000  1
  Ir  Ir26  1  0.349731  0.349731  0.250000  1
  Ir  Ir27  1  0.349731  0.650269  0.750000  1
  Ru  Ru28  1  0.500000  0.000000  0.123611  1
  Ru  Ru29  1  0.500000  0.000000  0.623611  1
  Ru  Ru30  1  0.000000  0.500000  0.876389  1
  Ru  Ru31  1  0.000000  0.500000  0.376389  1
