# generated using pymatgen
data_TbDy3Sn6Ir7
_symmetry_space_group_name_H-M   'P 1'
_cell_length_a   7.61123128
_cell_length_b   7.61123084
_cell_length_c   7.61123127
_cell_angle_alpha   109.48654706
_cell_angle_beta   109.48655214
_cell_angle_gamma   109.48654734
_symmetry_Int_Tables_number   1
_chemical_formula_structural   TbDy3Sn6Ir7
_chemical_formula_sum   'Tb1 Dy3 Sn6 Ir7'
_cell_volume   339.23146494
_cell_formula_units_Z   1
loop_
 _symmetry_equiv_pos_site_id
 _symmetry_equiv_pos_as_xyz
  1  'x, y, z'
loop_
 _atom_site_type_symbol
 _atom_site_label
 _atom_site_symmetry_multiplicity
 _atom_site_fract_x
 _atom_site_fract_y
 _atom_site_fract_z
 _atom_site_occupancy
  Tb  Tb0  1  0.500000  0.500000  0.500000  1
  Dy  Dy1  1  0.000000  0.000000  0.500000  1
  Dy  Dy2  1  0.000000  0.500000  0.000000  1
  Dy  Dy3  1  0.500000  0.000000  0.000000  1
  Sn  Sn4  1  0.686041  0.686041  0.000249  1
  Sn  Sn5  1  0.313959  0.999751  0.313959  1
  Sn  Sn6  1  0.999751  0.313959  0.313959  1
  Sn  Sn7  1  0.313959  0.313959  0.999751  1
  Sn  Sn8  1  0.686041  0.000249  0.686041  1
  Sn  Sn9  1  0.000249  0.686041  0.686041  1
  Ir  Ir10  1  0.750164  0.249836  0.500000  1
  Ir  Ir11  1  0.750164  0.500000  0.249836  1
  Ir  Ir12  1  0.500000  0.249836  0.750164  1
  Ir  Ir13  1  0.249836  0.500000  0.750164  1
  Ir  Ir14  1  0.249836  0.750164  0.500000  1
  Ir  Ir15  1  0.500000  0.750164  0.249836  1
  Ir  Ir16  1  0.000000  0.000000  0.000000  1
