# generated using pymatgen
data_Y16Cd3Co3HgRu
_symmetry_space_group_name_H-M   'P 1'
_cell_length_a   9.61337557
_cell_length_b   9.56026702
_cell_length_c   9.59700350
_cell_angle_alpha   59.87849023
_cell_angle_beta   60.02352203
_cell_angle_gamma   59.89925600
_symmetry_Int_Tables_number   1
_chemical_formula_structural   Y16Cd3Co3HgRu
_chemical_formula_sum   'Y16 Cd3 Co3 Hg1 Ru1'
_cell_volume   622.74739506
_cell_formula_units_Z   1
loop_
 _symmetry_equiv_pos_site_id
 _symmetry_equiv_pos_as_xyz
  1  'x, y, z'
loop_
 _atom_site_type_symbol
 _atom_site_label
 _atom_site_symmetry_multiplicity
 _atom_site_fract_x
 _atom_site_fract_y
 _atom_site_fract_z
 _atom_site_occupancy
  Y  Y0  1  0.436192  0.439010  0.061681  1
  Y  Y1  1  0.063415  0.057554  0.440042  1
  Y  Y2  1  0.438622  0.062439  0.062306  1
  Y  Y3  1  0.842513  0.849606  0.850049  1
  Y  Y4  1  0.689061  0.310690  0.309834  1
  Y  Y5  1  0.062187  0.441113  0.438340  1
  Y  Y6  1  0.313554  0.689089  0.689569  1
  Y  Y7  1  0.315231  0.307885  0.686099  1
  Y  Y8  1  0.842409  0.850756  0.456961  1
  Y  Y9  1  0.689634  0.688701  0.309767  1
  Y  Y10  1  0.461313  0.847025  0.847947  1
  Y  Y11  1  0.063760  0.441143  0.057557  1
  Y  Y12  1  0.841601  0.459527  0.850368  1
  Y  Y13  1  0.437570  0.062520  0.437188  1
  Y  Y14  1  0.314645  0.686833  0.306936  1
  Y  Y15  1  0.688855  0.310736  0.688149  1
  Cd  Cd16  1  0.080749  0.080660  0.758638  1
  Cd  Cd17  1  0.758121  0.080731  0.080280  1
  Cd  Cd18  1  0.079973  0.079501  0.079776  1
  Co  Co19  1  0.640524  0.078509  0.642365  1
  Co  Co20  1  0.638683  0.641001  0.641469  1
  Co  Co21  1  0.640198  0.642885  0.079048  1
  Hg  Hg22  1  0.083968  0.749180  0.083721  1
  Ru  Ru23  1  0.077221  0.642902  0.641903  1
