# generated using pymatgen
data_NbReS4
_symmetry_space_group_name_H-M   'P 1'
_cell_length_a   3.22149000
_cell_length_b   5.58358714
_cell_length_c   6.98134343
_cell_angle_alpha   74.09516654
_cell_angle_beta   90.00000000
_cell_angle_gamma   90.00000000
_symmetry_Int_Tables_number   1
_chemical_formula_structural   NbReS4
_chemical_formula_sum   'Nb1 Re1 S4'
_cell_volume   120.76940344
_cell_formula_units_Z   1
loop_
 _symmetry_equiv_pos_site_id
 _symmetry_equiv_pos_as_xyz
  1  'x, y, z'
loop_
 _atom_site_type_symbol
 _atom_site_label
 _atom_site_symmetry_multiplicity
 _atom_site_fract_x
 _atom_site_fract_y
 _atom_site_fract_z
 _atom_site_occupancy
  Nb  Nb0  1  0.500000  0.498958  0.000782  1
  Re  Re1  1  0.000000  0.003025  0.000452  1
  S  S2  1  0.000000  0.405406  0.762085  1
  S  S3  1  0.500000  0.920411  0.769880  1
  S  S4  1  0.500000  0.762184  0.231596  1
  S  S5  1  0.000000  0.242015  0.239206  1
