# generated using pymatgen
data_Ho9ErIn8(IrPd)2
_symmetry_space_group_name_H-M   'P 1'
_cell_length_a   3.61195500
_cell_length_b   8.12429674
_cell_length_c   18.22886347
_cell_angle_alpha   90.11172849
_cell_angle_beta   90.00000000
_cell_angle_gamma   90.00000000
_symmetry_Int_Tables_number   1
_chemical_formula_structural   Ho9ErIn8(IrPd)2
_chemical_formula_sum   'Ho9 Er1 In8 Ir2 Pd2'
_cell_volume   534.91758491
_cell_formula_units_Z   1
loop_
 _symmetry_equiv_pos_site_id
 _symmetry_equiv_pos_as_xyz
  1  'x, y, z'
loop_
 _atom_site_type_symbol
 _atom_site_label
 _atom_site_symmetry_multiplicity
 _atom_site_fract_x
 _atom_site_fract_y
 _atom_site_fract_z
 _atom_site_occupancy
  Ho  Ho0  1  0.000000  0.499960  0.499968  1
  Ho  Ho1  1  0.000000  0.000005  0.000003  1
  Ho  Ho2  1  0.000000  0.728277  0.277546  1
  Ho  Ho3  1  0.000000  0.271731  0.722460  1
  Ho  Ho4  1  0.000000  0.747262  0.779925  1
  Ho  Ho5  1  0.000000  0.252668  0.220099  1
  Ho  Ho6  1  0.000000  0.613453  0.087012  1
  Ho  Ho7  1  0.000000  0.386525  0.912995  1
  Ho  Ho8  1  0.000000  0.884868  0.584383  1
  Er  Er9  1  0.000000  0.115054  0.415456  1
  In  In10  1  0.500000  0.709606  0.932163  1
  In  In11  1  0.500000  0.290337  0.067832  1
  In  In12  1  0.500000  0.791511  0.432006  1
  In  In13  1  0.500000  0.208899  0.567796  1
  In  In14  1  0.500000  0.578777  0.648176  1
  In  In15  1  0.500000  0.420804  0.351889  1
  In  In16  1  0.500000  0.922753  0.149797  1
  In  In17  1  0.500000  0.077279  0.850236  1
  Ir  Ir18  1  0.500000  0.519164  0.195780  1
  Ir  Ir19  1  0.500000  0.480817  0.804213  1
  Pd  Pd20  1  0.500000  0.980727  0.696143  1
  Pd  Pd21  1  0.500000  0.019524  0.304122  1
