# generated using pymatgen
data_Tb10Y6CdIn(AgIr2)2
_symmetry_space_group_name_H-M   'P 1'
_cell_length_a   9.66207700
_cell_length_b   9.63383469
_cell_length_c   9.66727100
_cell_angle_alpha   59.88512648
_cell_angle_beta   59.98221929
_cell_angle_gamma   59.89683147
_symmetry_Int_Tables_number   1
_chemical_formula_structural   Tb10Y6CdIn(AgIr2)2
_chemical_formula_sum   'Tb10 Y6 Cd1 In1 Ag2 Ir4'
_cell_volume   635.15942610
_cell_formula_units_Z   1
loop_
 _symmetry_equiv_pos_site_id
 _symmetry_equiv_pos_as_xyz
  1  'x, y, z'
loop_
 _atom_site_type_symbol
 _atom_site_label
 _atom_site_symmetry_multiplicity
 _atom_site_fract_x
 _atom_site_fract_y
 _atom_site_fract_z
 _atom_site_occupancy
  Tb  Tb0  1  0.349958  0.349430  0.349395  1
  Tb  Tb1  1  0.349958  0.349430  0.951217  1
  Tb  Tb2  1  0.349345  0.951507  0.349574  1
  Tb  Tb3  1  0.949905  0.349391  0.350353  1
  Tb  Tb4  1  0.808672  0.190257  0.192199  1
  Tb  Tb5  1  0.188283  0.810927  0.810769  1
  Tb  Tb6  1  0.188283  0.810927  0.190022  1
  Tb  Tb7  1  0.808672  0.190257  0.808872  1
  Tb  Tb8  1  0.191780  0.190111  0.809054  1
  Tb  Tb9  1  0.810224  0.810778  0.189499  1
  Y  Y10  1  0.936499  0.560142  0.563443  1
  Y  Y11  1  0.562232  0.934111  0.940317  1
  Y  Y12  1  0.562232  0.934111  0.563343  1
  Y  Y13  1  0.936499  0.560142  0.939916  1
  Y  Y14  1  0.561831  0.560160  0.939005  1
  Y  Y15  1  0.937641  0.935500  0.563430  1
  Cd  Cd16  1  0.260608  0.582595  0.578399  1
  In  In17  1  0.581624  0.259410  0.579483  1
  Ag  Ag18  1  0.582506  0.583728  0.581794  1
  Ag  Ag19  1  0.582506  0.583728  0.251974  1
  Ir  Ir20  1  0.141809  0.143113  0.140510  1
  Ir  Ir21  1  0.141809  0.143113  0.574571  1
  Ir  Ir22  1  0.141992  0.574448  0.141781  1
  Ir  Ir23  1  0.575138  0.142690  0.141086  1
