# generated using pymatgen
data_LiLa2Si3Ag
_symmetry_space_group_name_H-M   'P 1'
_cell_length_a   9.66528825
_cell_length_b   9.66528811
_cell_length_c   6.95513408
_cell_angle_alpha   90.01684649
_cell_angle_beta   89.98315217
_cell_angle_gamma   152.97753646
_symmetry_Int_Tables_number   1
_chemical_formula_structural   LiLa2Si3Ag
_chemical_formula_sum   'Li2 La4 Si6 Ag2'
_cell_volume   295.19967828
_cell_formula_units_Z   2
loop_
 _symmetry_equiv_pos_site_id
 _symmetry_equiv_pos_as_xyz
  1  'x, y, z'
loop_
 _atom_site_type_symbol
 _atom_site_label
 _atom_site_symmetry_multiplicity
 _atom_site_fract_x
 _atom_site_fract_y
 _atom_site_fract_z
 _atom_site_occupancy
  Li  Li0  1  0.813029  0.186971  0.060128  1
  Li  Li1  1  0.186971  0.813029  0.939872  1
  La  La2  1  0.551698  0.448302  0.748120  1
  La  La3  1  0.448302  0.551698  0.251880  1
  La  La4  1  0.342289  0.657711  0.754448  1
  La  La5  1  0.657711  0.342289  0.245552  1
  Si  Si6  1  0.943085  0.056915  0.924961  1
  Si  Si7  1  0.056915  0.943085  0.075039  1
  Si  Si8  1  0.943787  0.056213  0.579664  1
  Si  Si9  1  0.056213  0.943787  0.420336  1
  Si  Si10  1  0.720978  0.279022  0.750971  1
  Si  Si11  1  0.279022  0.720978  0.249029  1
  Ag  Ag12  1  0.815851  0.184149  0.433370  1
  Ag  Ag13  1  0.184149  0.815851  0.566630  1
