# generated using pymatgen
data_SrSb3F15
_symmetry_space_group_name_H-M   'P 1'
_cell_length_a   11.07563500
_cell_length_b   11.45866300
_cell_length_c   12.04547800
_cell_angle_alpha   90.00000000
_cell_angle_beta   90.00000000
_cell_angle_gamma   90.00000000
_symmetry_Int_Tables_number   1
_chemical_formula_structural   SrSb3F15
_chemical_formula_sum   'Sr4 Sb12 F60'
_cell_volume   1528.71533024
_cell_formula_units_Z   4
loop_
 _symmetry_equiv_pos_site_id
 _symmetry_equiv_pos_as_xyz
  1  'x, y, z'
loop_
 _atom_site_type_symbol
 _atom_site_label
 _atom_site_symmetry_multiplicity
 _atom_site_fract_x
 _atom_site_fract_y
 _atom_site_fract_z
 _atom_site_occupancy
  Sr  Sr0  1  0.999761  0.126984  0.869129  1
  Sr  Sr1  1  0.000239  0.626984  0.630871  1
  Sr  Sr2  1  0.499761  0.373016  0.130871  1
  Sr  Sr3  1  0.500239  0.873016  0.369129  1
  Sb  Sb4  1  0.755687  0.066528  0.155427  1
  Sb  Sb5  1  0.244313  0.566528  0.344573  1
  Sb  Sb6  1  0.255687  0.433472  0.844573  1
  Sb  Sb7  1  0.744313  0.933472  0.655427  1
  Sb  Sb8  1  0.744653  0.433356  0.844986  1
  Sb  Sb9  1  0.255347  0.933356  0.655014  1
  Sb  Sb10  1  0.244653  0.066644  0.155014  1
  Sb  Sb11  1  0.755347  0.566644  0.344986  1
  Sb  Sb12  1  0.983394  0.751656  0.994637  1
  Sb  Sb13  1  0.016606  0.251656  0.505363  1
  Sb  Sb14  1  0.483394  0.748344  0.005363  1
  Sb  Sb15  1  0.516606  0.248344  0.494637  1
  F  F16  1  0.649509  0.001247  0.268322  1
  F  F17  1  0.350491  0.501247  0.231678  1
  F  F18  1  0.149509  0.498753  0.731678  1
  F  F19  1  0.850491  0.998753  0.768322  1
  F  F20  1  0.851360  0.499777  0.733247  1
  F  F21  1  0.148640  0.999777  0.766753  1
  F  F22  1  0.351360  0.000223  0.266753  1
  F  F23  1  0.648640  0.500223  0.233247  1
  F  F24  1  0.856113  0.931657  0.164796  1
  F  F25  1  0.143887  0.431657  0.335204  1
  F  F26  1  0.356113  0.568343  0.835204  1
  F  F27  1  0.643887  0.068343  0.664796  1
  F  F28  1  0.645050  0.568089  0.836314  1
  F  F29  1  0.354950  0.068089  0.663686  1
  F  F30  1  0.145050  0.931911  0.163686  1
  F  F31  1  0.854950  0.431911  0.336314  1
  F  F32  1  0.650920  0.203150  0.146846  1
  F  F33  1  0.349080  0.703150  0.353154  1
  F  F34  1  0.150920  0.296850  0.853154  1
  F  F35  1  0.849080  0.796850  0.646846  1
  F  F36  1  0.848648  0.296487  0.852885  1
  F  F37  1  0.151352  0.796487  0.647115  1
  F  F38  1  0.348648  0.203513  0.147115  1
  F  F39  1  0.651352  0.703513  0.352885  1
  F  F40  1  0.005841  0.914915  0.948835  1
  F  F41  1  0.994159  0.414915  0.551165  1
  F  F42  1  0.505841  0.585085  0.051165  1
  F  F43  1  0.494159  0.085085  0.448835  1
  F  F44  1  0.005311  0.702823  0.838909  1
  F  F45  1  0.994689  0.202823  0.661091  1
  F  F46  1  0.505311  0.797177  0.161091  1
  F  F47  1  0.494689  0.297177  0.338909  1
  F  F48  1  0.846347  0.144715  0.266148  1
  F  F49  1  0.153653  0.644715  0.233852  1
  F  F50  1  0.346347  0.355285  0.733852  1
  F  F51  1  0.653653  0.855285  0.766148  1
  F  F52  1  0.655660  0.355868  0.731966  1
  F  F53  1  0.344340  0.855868  0.768034  1
  F  F54  1  0.155660  0.144132  0.268034  1
  F  F55  1  0.844340  0.644132  0.231966  1
  F  F56  1  0.657464  0.996512  0.044027  1
  F  F57  1  0.342536  0.496512  0.455973  1
  F  F58  1  0.157464  0.503488  0.955973  1
  F  F59  1  0.842536  0.003488  0.544027  1
  F  F60  1  0.843606  0.501438  0.957468  1
  F  F61  1  0.156394  0.001438  0.542532  1
  F  F62  1  0.343606  0.998562  0.042532  1
  F  F63  1  0.656394  0.498562  0.457468  1
  F  F64  1  0.858254  0.131725  0.039644  1
  F  F65  1  0.141746  0.631725  0.460356  1
  F  F66  1  0.358254  0.368275  0.960356  1
  F  F67  1  0.641746  0.868275  0.539644  1
  F  F68  1  0.641551  0.367122  0.959441  1
  F  F69  1  0.358449  0.867122  0.540559  1
  F  F70  1  0.141551  0.132878  0.040559  1
  F  F71  1  0.858449  0.632878  0.459441  1
  F  F72  1  0.811735  0.762163  0.975376  1
  F  F73  1  0.188265  0.262162  0.524624  1
  F  F74  1  0.311735  0.737837  0.024624  1
  F  F75  1  0.688265  0.237837  0.475376  1
