# generated using pymatgen
data_Ho5Sc3(P3Ir4)4
_symmetry_space_group_name_H-M   'P 1'
_cell_length_a   12.85057400
_cell_length_b   12.85057490
_cell_length_c   3.96077200
_cell_angle_alpha   90.00000000
_cell_angle_beta   90.00000000
_cell_angle_gamma   120.00000283
_symmetry_Int_Tables_number   1
_chemical_formula_structural   Ho5Sc3(P3Ir4)4
_chemical_formula_sum   'Ho5 Sc3 P12 Ir16'
_cell_volume   566.44212924
_cell_formula_units_Z   1
loop_
 _symmetry_equiv_pos_site_id
 _symmetry_equiv_pos_as_xyz
  1  'x, y, z'
loop_
 _atom_site_type_symbol
 _atom_site_label
 _atom_site_symmetry_multiplicity
 _atom_site_fract_x
 _atom_site_fract_y
 _atom_site_fract_z
 _atom_site_occupancy
  Ho  Ho0  1  0.333333  0.666667  0.500000  1
  Ho  Ho1  1  0.666667  0.333333  0.500000  1
  Ho  Ho2  1  0.000000  0.811873  0.000000  1
  Ho  Ho3  1  0.188127  0.188127  0.000000  1
  Ho  Ho4  1  0.811873  0.000000  0.000000  1
  Sc  Sc5  1  0.000000  0.444902  0.500000  1
  Sc  Sc6  1  0.555098  0.555098  0.500000  1
  Sc  Sc7  1  0.444902  0.000000  0.500000  1
  P  P8  1  0.000000  0.645862  0.500000  1
  P  P9  1  0.354138  0.354138  0.500000  1
  P  P10  1  0.645862  0.000000  0.500000  1
  P  P11  1  0.516762  0.686536  0.000000  1
  P  P12  1  0.313464  0.830226  0.000000  1
  P  P13  1  0.169774  0.483238  0.000000  1
  P  P14  1  0.483238  0.169774  0.000000  1
  P  P15  1  0.686536  0.516762  0.000000  1
  P  P16  1  0.830226  0.313464  0.000000  1
  P  P17  1  0.000000  0.176632  0.500000  1
  P  P18  1  0.823368  0.823368  0.500000  1
  P  P19  1  0.176632  0.000000  0.500000  1
  Ir  Ir20  1  0.509876  0.867623  0.000000  1
  Ir  Ir21  1  0.132377  0.642254  0.000000  1
  Ir  Ir22  1  0.357746  0.490124  0.000000  1
  Ir  Ir23  1  0.490124  0.357746  0.000000  1
  Ir  Ir24  1  0.867623  0.509876  0.000000  1
  Ir  Ir25  1  0.642254  0.132377  0.000000  1
  Ir  Ir26  1  0.000000  0.277930  0.000000  1
  Ir  Ir27  1  0.722070  0.722070  0.000000  1
  Ir  Ir28  1  0.277930  0.000000  0.000000  1
  Ir  Ir29  1  0.628002  0.806922  0.500000  1
  Ir  Ir30  1  0.193078  0.821080  0.500000  1
  Ir  Ir31  1  0.178920  0.371998  0.500000  1
  Ir  Ir32  1  0.371998  0.178920  0.500000  1
  Ir  Ir33  1  0.806922  0.628002  0.500000  1
  Ir  Ir34  1  0.821080  0.193078  0.500000  1
  Ir  Ir35  1  0.000000  0.000000  0.500000  1
