# generated using pymatgen
data_DyHo9(OsRh)2
_symmetry_space_group_name_H-M   'P 1'
_cell_length_a   6.42374321
_cell_length_b   7.27085724
_cell_length_c   8.40029000
_cell_angle_alpha   96.62162034
_cell_angle_beta   112.45690911
_cell_angle_gamma   89.99831640
_symmetry_Int_Tables_number   1
_chemical_formula_structural   DyHo9(OsRh)2
_chemical_formula_sum   'Dy1 Ho9 Os2 Rh2'
_cell_volume   359.75925280
_cell_formula_units_Z   1
loop_
 _symmetry_equiv_pos_site_id
 _symmetry_equiv_pos_as_xyz
  1  'x, y, z'
loop_
 _atom_site_type_symbol
 _atom_site_label
 _atom_site_symmetry_multiplicity
 _atom_site_fract_x
 _atom_site_fract_y
 _atom_site_fract_z
 _atom_site_occupancy
  Dy  Dy0  1  0.969878  0.916177  0.180653  1
  Ho  Ho1  1  0.789826  0.583703  0.819597  1
  Ho  Ho2  1  0.025107  0.081775  0.814993  1
  Ho  Ho3  1  0.209700  0.418520  0.184452  1
  Ho  Ho4  1  0.653811  0.816343  0.440722  1
  Ho  Ho5  1  0.212973  0.683619  0.559390  1
  Ho  Ho6  1  0.349092  0.180726  0.561967  1
  Ho  Ho7  1  0.787655  0.319158  0.438472  1
  Ho  Ho8  1  0.425987  0.749727  0.999827  1
  Ho  Ho9  1  0.576999  0.250098  0.000031  1
  Os  Os10  1  0.824956  0.573053  0.218265  1
  Os  Os11  1  0.607168  0.926481  0.781992  1
  Rh  Rh12  1  0.172851  0.425085  0.779212  1
  Rh  Rh13  1  0.393997  0.075534  0.220427  1
