# generated using pymatgen
data_Y2TmAl12Ir3Ru
_symmetry_space_group_name_H-M   'P 1'
_cell_length_a   8.81164400
_cell_length_b   8.83476522
_cell_length_c   9.48522300
_cell_angle_alpha   90.00000000
_cell_angle_beta   90.00000000
_cell_angle_gamma   119.91346565
_symmetry_Int_Tables_number   1
_chemical_formula_structural   Y2TmAl12Ir3Ru
_chemical_formula_sum   'Y4 Tm2 Al24 Ir6 Ru2'
_cell_volume   640.04154948
_cell_formula_units_Z   2
loop_
 _symmetry_equiv_pos_site_id
 _symmetry_equiv_pos_as_xyz
  1  'x, y, z'
loop_
 _atom_site_type_symbol
 _atom_site_label
 _atom_site_symmetry_multiplicity
 _atom_site_fract_x
 _atom_site_fract_y
 _atom_site_fract_z
 _atom_site_occupancy
  Y  Y0  1  0.807775  0.192517  0.750000  1
  Y  Y1  1  0.192225  0.807483  0.250000  1
  Y  Y2  1  0.384741  0.192517  0.750000  1
  Y  Y3  1  0.615259  0.807483  0.250000  1
  Tm  Tm4  1  0.806252  0.612505  0.750000  1
  Tm  Tm5  1  0.193748  0.387495  0.250000  1
  Al  Al6  1  0.666589  0.333176  0.971464  1
  Al  Al7  1  0.333411  0.666824  0.028536  1
  Al  Al8  1  0.333411  0.666824  0.471464  1
  Al  Al9  1  0.666589  0.333176  0.528536  1
  Al  Al10  1  0.837467  0.163480  0.423331  1
  Al  Al11  1  0.162533  0.836520  0.576669  1
  Al  Al12  1  0.326012  0.163480  0.423331  1
  Al  Al13  1  0.162533  0.836520  0.923331  1
  Al  Al14  1  0.673988  0.836520  0.576669  1
  Al  Al15  1  0.837467  0.163480  0.076669  1
  Al  Al16  1  0.837033  0.674066  0.424243  1
  Al  Al17  1  0.673988  0.836520  0.923331  1
  Al  Al18  1  0.162967  0.325934  0.575757  1
  Al  Al19  1  0.326012  0.163480  0.076669  1
  Al  Al20  1  0.162967  0.325934  0.924243  1
  Al  Al21  1  0.837033  0.674066  0.075757  1
  Al  Al22  1  0.438588  0.562517  0.750000  1
  Al  Al23  1  0.561412  0.437483  0.250000  1
  Al  Al24  1  0.123929  0.562517  0.750000  1
  Al  Al25  1  0.876071  0.437483  0.250000  1
  Al  Al26  1  0.437703  0.875408  0.750000  1
  Al  Al27  1  0.562297  0.124592  0.250000  1
  Al  Al28  1  0.998842  0.997683  0.750000  1
  Al  Al29  1  0.001158  0.002317  0.250000  1
  Ir  Ir30  1  0.500000  0.500000  0.000000  1
  Ir  Ir31  1  0.000000  0.500000  0.000000  1
  Ir  Ir32  1  0.500000  0.500000  0.500000  1
  Ir  Ir33  1  0.500000  0.000000  0.000000  1
  Ir  Ir34  1  0.000000  0.500000  0.500000  1
  Ir  Ir35  1  0.500000  0.000000  0.500000  1
  Ru  Ru36  1  0.000000  0.000000  0.000000  1
  Ru  Ru37  1  0.000000  0.000000  0.500000  1
