# generated using pymatgen
data_Pa4Bi2Ir3Rh
_symmetry_space_group_name_H-M   'P 1'
_cell_length_a   7.83540700
_cell_length_b   7.83540694
_cell_length_c   3.59532300
_cell_angle_alpha   90.00000000
_cell_angle_beta   90.00000000
_cell_angle_gamma   89.83386160
_symmetry_Int_Tables_number   1
_chemical_formula_structural   Pa4Bi2Ir3Rh
_chemical_formula_sum   'Pa4 Bi2 Ir3 Rh1'
_cell_volume   220.72890276
_cell_formula_units_Z   1
loop_
 _symmetry_equiv_pos_site_id
 _symmetry_equiv_pos_as_xyz
  1  'x, y, z'
loop_
 _atom_site_type_symbol
 _atom_site_label
 _atom_site_symmetry_multiplicity
 _atom_site_fract_x
 _atom_site_fract_y
 _atom_site_fract_z
 _atom_site_occupancy
  Pa  Pa0  1  0.333690  0.170668  0.500001  1
  Pa  Pa1  1  0.831182  0.331183  0.500001  1
  Pa  Pa2  1  0.167050  0.667049  0.500001  1
  Pa  Pa3  1  0.670667  0.833689  0.500001  1
  Bi  Bi4  1  0.003852  0.000161  0.000000  1
  Bi  Bi5  1  0.500162  0.503853  0.000000  1
  Ir  Ir6  1  0.626468  0.126469  0.000000  1
  Ir  Ir7  1  0.129975  0.370324  0.000000  1
  Ir  Ir8  1  0.870325  0.629974  0.000000  1
  Rh  Rh9  1  0.366629  0.866630  0.000000  1
