# generated using pymatgen
data_KTm(WO4)2
_symmetry_space_group_name_H-M   'P 1'
_cell_length_a   7.58927157
_cell_length_b   7.58927212
_cell_length_c   7.43416341
_cell_angle_alpha   62.08969627
_cell_angle_beta   62.08968927
_cell_angle_gamma   87.74104172
_symmetry_Int_Tables_number   1
_chemical_formula_structural   KTm(WO4)2
_chemical_formula_sum   'K2 Tm2 W4 O16'
_cell_volume   325.39443853
_cell_formula_units_Z   2
loop_
 _symmetry_equiv_pos_site_id
 _symmetry_equiv_pos_as_xyz
  1  'x, y, z'
loop_
 _atom_site_type_symbol
 _atom_site_label
 _atom_site_symmetry_multiplicity
 _atom_site_fract_x
 _atom_site_fract_y
 _atom_site_fract_z
 _atom_site_occupancy
  K  K0  1  0.205690  0.794310  0.750000  1
  K  K1  1  0.794310  0.205690  0.250000  1
  Tm  Tm2  1  0.776113  0.223887  0.750000  1
  Tm  Tm3  1  0.223887  0.776113  0.250000  1
  W  W4  1  0.701654  0.691992  0.785358  1
  W  W5  1  0.298346  0.308008  0.214642  1
  W  W6  1  0.308008  0.298346  0.714642  1
  W  W7  1  0.691992  0.701654  0.285358  1
  O  O8  1  0.622096  0.756315  0.557485  1
  O  O9  1  0.377904  0.243685  0.442515  1
  O  O10  1  0.243685  0.377904  0.942515  1
  O  O11  1  0.756315  0.622096  0.057485  1
  O  O12  1  0.362184  0.053296  0.881366  1
  O  O13  1  0.637816  0.946704  0.118634  1
  O  O14  1  0.946704  0.637816  0.618634  1
  O  O15  1  0.053296  0.362184  0.381366  1
  O  O16  1  0.595511  0.371649  0.962120  1
  O  O17  1  0.404489  0.628351  0.037880  1
  O  O18  1  0.628351  0.404489  0.537880  1
  O  O19  1  0.371649  0.595511  0.462120  1
  O  O20  1  0.773899  0.961674  0.691594  1
  O  O21  1  0.226101  0.038326  0.308406  1
  O  O22  1  0.038326  0.226101  0.808406  1
  O  O23  1  0.961674  0.773899  0.191594  1
