# generated using pymatgen
data_Ti12Tc5Ir6W
_symmetry_space_group_name_H-M   'P 1'
_cell_length_a   4.39035400
_cell_length_b   6.20950000
_cell_length_c   13.20282800
_cell_angle_alpha   90.00000000
_cell_angle_beta   89.99996959
_cell_angle_gamma   90.00000000
_symmetry_Int_Tables_number   1
_chemical_formula_structural   Ti12Tc5Ir6W
_chemical_formula_sum   'Ti12 Tc5 Ir6 W1'
_cell_volume   359.93421841
_cell_formula_units_Z   1
loop_
 _symmetry_equiv_pos_site_id
 _symmetry_equiv_pos_as_xyz
  1  'x, y, z'
loop_
 _atom_site_type_symbol
 _atom_site_label
 _atom_site_symmetry_multiplicity
 _atom_site_fract_x
 _atom_site_fract_y
 _atom_site_fract_z
 _atom_site_occupancy
  Ti  Ti0  1  0.500000  0.251182  0.000000  1
  Ti  Ti1  1  0.500000  0.748819  0.000000  1
  Ti  Ti2  1  0.000067  0.250116  0.166601  1
  Ti  Ti3  1  0.000067  0.749884  0.166601  1
  Ti  Ti4  1  0.500075  0.250232  0.333033  1
  Ti  Ti5  1  0.500075  0.749769  0.333033  1
  Ti  Ti6  1  0.000000  0.249499  0.500000  1
  Ti  Ti7  1  0.000000  0.750500  0.500000  1
  Ti  Ti8  1  0.499924  0.250232  0.666967  1
  Ti  Ti9  1  0.499924  0.749769  0.666967  1
  Ti  Ti10  1  0.999933  0.250116  0.833398  1
  Ti  Ti11  1  0.999933  0.749884  0.833398  1
  Tc  Tc12  1  0.500078  0.500000  0.167595  1
  Tc  Tc13  1  0.000081  0.000000  0.334152  1
  Tc  Tc14  1  0.500000  0.500000  0.500000  1
  Tc  Tc15  1  0.999919  0.000000  0.665847  1
  Tc  Tc16  1  0.499922  0.500000  0.832404  1
  Ir  Ir17  1  0.000000  0.500000  0.000000  1
  Ir  Ir18  1  0.500115  0.000000  0.167849  1
  Ir  Ir19  1  0.000125  0.500000  0.334007  1
  Ir  Ir20  1  0.500000  0.000000  0.500000  1
  Ir  Ir21  1  0.999874  0.500000  0.665994  1
  Ir  Ir22  1  0.499885  0.000000  0.832151  1
  W  W23  1  0.000000  0.000000  0.000000  1
