# generated using pymatgen
data_GeB2Ru5W2
_symmetry_space_group_name_H-M   'P 1'
_cell_length_a   9.35798300
_cell_length_b   9.35798300
_cell_length_c   2.89698200
_cell_angle_alpha   90.00000000
_cell_angle_beta   90.00000000
_cell_angle_gamma   90.00000000
_symmetry_Int_Tables_number   1
_chemical_formula_structural   GeB2Ru5W2
_chemical_formula_sum   'Ge2 B4 Ru10 W4'
_cell_volume   253.69406107
_cell_formula_units_Z   2
loop_
 _symmetry_equiv_pos_site_id
 _symmetry_equiv_pos_as_xyz
  1  'x, y, z'
loop_
 _atom_site_type_symbol
 _atom_site_label
 _atom_site_symmetry_multiplicity
 _atom_site_fract_x
 _atom_site_fract_y
 _atom_site_fract_z
 _atom_site_occupancy
  Ge  Ge0  1  0.000000  0.000000  0.000000  1
  Ge  Ge1  1  0.500000  0.500000  0.000000  1
  B  B2  1  0.125166  0.625166  0.000000  1
  B  B3  1  0.874834  0.374834  0.000000  1
  B  B4  1  0.625166  0.874834  0.000000  1
  B  B5  1  0.374834  0.125166  0.000000  1
  Ru  Ru6  1  0.214162  0.066684  0.500000  1
  Ru  Ru7  1  0.785838  0.933316  0.500000  1
  Ru  Ru8  1  0.066684  0.785838  0.500000  1
  Ru  Ru9  1  0.714162  0.433316  0.500000  1
  Ru  Ru10  1  0.933316  0.214162  0.500000  1
  Ru  Ru11  1  0.285838  0.566684  0.500000  1
  Ru  Ru12  1  0.566684  0.714162  0.500000  1
  Ru  Ru13  1  0.433316  0.285838  0.500000  1
  Ru  Ru14  1  0.500000  0.000000  0.500000  1
  Ru  Ru15  1  0.000000  0.500000  0.500000  1
  W  W16  1  0.677856  0.177856  0.000000  1
  W  W17  1  0.322144  0.822144  0.000000  1
  W  W18  1  0.177856  0.322144  0.000000  1
  W  W19  1  0.822144  0.677856  0.000000  1
