# generated using pymatgen
data_Pr4HfRu3F28
_symmetry_space_group_name_H-M   'P 1'
_cell_length_a   5.77412816
_cell_length_b   9.28678905
_cell_length_c   12.39015636
_cell_angle_alpha   62.51685861
_cell_angle_beta   90.16564021
_cell_angle_gamma   89.76204184
_symmetry_Int_Tables_number   1
_chemical_formula_structural   Pr4HfRu3F28
_chemical_formula_sum   'Pr4 Hf1 Ru3 F28'
_cell_volume   589.40536543
_cell_formula_units_Z   1
loop_
 _symmetry_equiv_pos_site_id
 _symmetry_equiv_pos_as_xyz
  1  'x, y, z'
loop_
 _atom_site_type_symbol
 _atom_site_label
 _atom_site_symmetry_multiplicity
 _atom_site_fract_x
 _atom_site_fract_y
 _atom_site_fract_z
 _atom_site_occupancy
  Pr  Pr0  1  0.758309  0.807386  0.767313  1
  Pr  Pr1  1  0.256846  0.191283  0.726895  1
  Pr  Pr2  1  0.241087  0.190427  0.237138  1
  Pr  Pr3  1  0.742393  0.809582  0.266578  1
  Hf  Hf4  1  0.752784  0.272657  0.957307  1
  Ru  Ru5  1  0.254467  0.726762  0.542751  1
  Ru  Ru6  1  0.245622  0.726509  0.043919  1
  Ru  Ru7  1  0.745558  0.274603  0.456004  1
  F  F8  1  0.444634  0.707614  0.921744  1
  F  F9  1  0.939173  0.293157  0.580186  1
  F  F10  1  0.539022  0.291294  0.077269  1
  F  F11  1  0.054526  0.709146  0.420767  1
  F  F12  1  0.460652  0.287869  0.540072  1
  F  F13  1  0.965291  0.717669  0.955150  1
  F  F14  1  0.533934  0.713634  0.455434  1
  F  F15  1  0.035354  0.285721  0.048575  1
  F  F16  1  0.767199  0.514972  0.860030  1
  F  F17  1  0.258724  0.494563  0.636386  1
  F  F18  1  0.236307  0.494505  0.138132  1
  F  F19  1  0.740867  0.506163  0.362441  1
  F  F20  1  0.760706  0.031127  0.056522  1
  F  F21  1  0.259191  0.958203  0.452985  1
  F  F22  1  0.244578  0.957462  0.951658  1
  F  F23  1  0.740920  0.043807  0.546985  1
  F  F24  1  0.978630  0.735299  0.633346  1
  F  F25  1  0.481931  0.265733  0.857970  1
  F  F26  1  0.026333  0.267069  0.368352  1
  F  F27  1  0.520110  0.729190  0.137288  1
  F  F28  1  0.049890  0.743994  0.168157  1
  F  F29  1  0.554109  0.255998  0.330614  1
  F  F30  1  0.961875  0.250081  0.835478  1
  F  F31  1  0.452514  0.744865  0.666244  1
  F  F32  1  0.416961  0.971936  0.233368  1
  F  F33  1  0.915660  0.030192  0.270482  1
  F  F34  1  0.581590  0.029631  0.766643  1
  F  F35  1  0.082254  0.969900  0.729815  1
