# generated using pymatgen
data_Tm3Sc5Re3B24Rh
_symmetry_space_group_name_H-M   'P 1'
_cell_length_a   3.55649600
_cell_length_b   8.94941355
_cell_length_c   11.29736743
_cell_angle_alpha   90.06476341
_cell_angle_beta   90.00000000
_cell_angle_gamma   90.00000000
_symmetry_Int_Tables_number   1
_chemical_formula_structural   Tm3Sc5Re3B24Rh
_chemical_formula_sum   'Tm3 Sc5 Re3 B24 Rh1'
_cell_volume   359.57863396
_cell_formula_units_Z   1
loop_
 _symmetry_equiv_pos_site_id
 _symmetry_equiv_pos_as_xyz
  1  'x, y, z'
loop_
 _atom_site_type_symbol
 _atom_site_label
 _atom_site_symmetry_multiplicity
 _atom_site_fract_x
 _atom_site_fract_y
 _atom_site_fract_z
 _atom_site_occupancy
  Tm  Tm0  1  0.000000  0.317221  0.415268  1
  Tm  Tm1  1  0.000000  0.680099  0.589934  1
  Tm  Tm2  1  0.000000  0.824094  0.082016  1
  Sc  Sc3  1  0.000000  0.177668  0.911842  1
  Sc  Sc4  1  0.000000  0.946984  0.371507  1
  Sc  Sc5  1  0.000000  0.055282  0.628991  1
  Sc  Sc6  1  0.000000  0.440977  0.126087  1
  Sc  Sc7  1  0.000000  0.555285  0.871849  1
  Re  Re8  1  0.000000  0.358979  0.682018  1
  Re  Re9  1  0.000000  0.140385  0.179917  1
  Re  Re10  1  0.000000  0.861526  0.819702  1
  B  B11  1  0.500000  0.555072  0.434084  1
  B  B12  1  0.500000  0.445700  0.566910  1
  B  B13  1  0.500000  0.054253  0.064897  1
  B  B14  1  0.500000  0.947094  0.933555  1
  B  B15  1  0.500000  0.754065  0.420172  1
  B  B16  1  0.500000  0.245786  0.581774  1
  B  B17  1  0.500000  0.253330  0.078602  1
  B  B18  1  0.500000  0.746715  0.919382  1
  B  B19  1  0.500000  0.793987  0.264217  1
  B  B20  1  0.500000  0.204688  0.737064  1
  B  B21  1  0.500000  0.295434  0.235391  1
  B  B22  1  0.500000  0.705368  0.765125  1
  B  B23  1  0.500000  0.629384  0.181446  1
  B  B24  1  0.500000  0.369938  0.818372  1
  B  B25  1  0.500000  0.129871  0.317140  1
  B  B26  1  0.500000  0.871017  0.683186  1
  B  B27  1  0.500000  0.981011  0.212720  1
  B  B28  1  0.500000  0.020237  0.787370  1
  B  B29  1  0.500000  0.481716  0.285974  1
  B  B30  1  0.500000  0.519109  0.714357  1
  B  B31  1  0.500000  0.598236  0.027160  1
  B  B32  1  0.500000  0.401436  0.973480  1
  B  B33  1  0.500000  0.097479  0.473163  1
  B  B34  1  0.500000  0.901006  0.526359  1
  Rh  Rh35  1  0.000000  0.639566  0.318969  1
