# generated using pymatgen
data_Zr4GaSi
_symmetry_space_group_name_H-M   'P 1'
_cell_length_a   5.44191146
_cell_length_b   5.44191153
_cell_length_c   5.44191129
_cell_angle_alpha   104.16767673
_cell_angle_beta   104.16767456
_cell_angle_gamma   120.69574152
_symmetry_Int_Tables_number   1
_chemical_formula_structural   Zr4GaSi
_chemical_formula_sum   'Zr4 Ga1 Si1'
_cell_volume   120.43142027
_cell_formula_units_Z   1
loop_
 _symmetry_equiv_pos_site_id
 _symmetry_equiv_pos_as_xyz
  1  'x, y, z'
loop_
 _atom_site_type_symbol
 _atom_site_label
 _atom_site_symmetry_multiplicity
 _atom_site_fract_x
 _atom_site_fract_y
 _atom_site_fract_z
 _atom_site_occupancy
  Zr  Zr0  1  0.155685  0.655685  0.811370  1
  Zr  Zr1  1  0.344315  0.155685  0.500000  1
  Zr  Zr2  1  0.655685  0.844315  0.500000  1
  Zr  Zr3  1  0.844315  0.344315  0.188630  1
  Ga  Ga4  1  0.250000  0.250000  0.000000  1
  Si  Si5  1  0.750000  0.750000  0.000000  1
