# generated using pymatgen
data_Ca2NdPaN4
_symmetry_space_group_name_H-M   'P 1'
_cell_length_a   7.01818543
_cell_length_b   9.42124933
_cell_length_c   6.28530237
_cell_angle_alpha   28.94446981
_cell_angle_beta   56.06159113
_cell_angle_gamma   41.84678721
_symmetry_Int_Tables_number   1
_chemical_formula_structural   Ca2NdPaN4
_chemical_formula_sum   'Ca2 Nd1 Pa1 N4'
_cell_volume   128.42054645
_cell_formula_units_Z   1
loop_
 _symmetry_equiv_pos_site_id
 _symmetry_equiv_pos_as_xyz
  1  'x, y, z'
loop_
 _atom_site_type_symbol
 _atom_site_label
 _atom_site_symmetry_multiplicity
 _atom_site_fract_x
 _atom_site_fract_y
 _atom_site_fract_z
 _atom_site_occupancy
  Ca  Ca0  1  0.750000  0.500000  0.000000  1
  Ca  Ca1  1  0.500000  0.000000  0.000000  1
  Nd  Nd2  1  0.250000  0.500000  0.000000  1
  Pa  Pa3  1  0.000000  0.000000  0.000000  1
  N  N4  1  0.494265  0.500000  0.511470  1
  N  N5  1  0.210999  0.000000  0.578002  1
  N  N6  1  0.005735  0.500000  0.488530  1
  N  N7  1  0.789001  0.000000  0.421998  1
