# generated using pymatgen
data_Pr3HoGa18(PdRu)3
_symmetry_space_group_name_H-M   'P 1'
_cell_length_a   7.65399243
_cell_length_b   7.66150448
_cell_length_c   9.68412613
_cell_angle_alpha   89.93812956
_cell_angle_beta   89.90738474
_cell_angle_gamma   119.45174990
_symmetry_Int_Tables_number   1
_chemical_formula_structural   Pr3HoGa18(PdRu)3
_chemical_formula_sum   'Pr3 Ho1 Ga18 Pd3 Ru3'
_cell_volume   494.49789091
_cell_formula_units_Z   1
loop_
 _symmetry_equiv_pos_site_id
 _symmetry_equiv_pos_as_xyz
  1  'x, y, z'
loop_
 _atom_site_type_symbol
 _atom_site_label
 _atom_site_symmetry_multiplicity
 _atom_site_fract_x
 _atom_site_fract_y
 _atom_site_fract_z
 _atom_site_occupancy
  Pr  Pr0  1  0.995006  0.669882  0.250772  1
  Pr  Pr1  1  0.000212  0.326438  0.749175  1
  Pr  Pr2  1  0.672195  0.998337  0.250800  1
  Ho  Ho3  1  0.329243  0.003997  0.749249  1
  Ga  Ga4  1  0.136119  0.131902  0.250079  1
  Ga  Ga5  1  0.868617  0.864342  0.750018  1
  Ga  Ga6  1  0.012182  0.340694  0.078321  1
  Ga  Ga7  1  0.004380  0.667627  0.917679  1
  Ga  Ga8  1  0.000100  0.663245  0.579909  1
  Ga  Ga9  1  0.340640  0.002773  0.428411  1
  Ga  Ga10  1  0.006673  0.341005  0.422933  1
  Ga  Ga11  1  0.655224  0.995620  0.580447  1
  Ga  Ga12  1  0.656603  0.990867  0.917703  1
  Ga  Ga13  1  0.335965  0.000328  0.073775  1
  Ga  Ga14  1  0.340782  0.338403  0.562898  1
  Ga  Ga15  1  0.658052  0.658014  0.444679  1
  Ga  Ga16  1  0.657163  0.662861  0.059267  1
  Ga  Ga17  1  0.336434  0.339061  0.932272  1
  Ga  Ga18  1  0.338678  0.550342  0.250864  1
  Ga  Ga19  1  0.661222  0.452525  0.746320  1
  Ga  Ga20  1  0.542971  0.334418  0.254360  1
  Ga  Ga21  1  0.447672  0.664787  0.749113  1
  Pd  Pd22  1  0.672520  0.329182  0.999544  1
  Pd  Pd23  1  0.001297  0.999641  0.998483  1
  Pd  Pd24  1  0.000780  0.001245  0.501572  1
  Ru  Ru25  1  0.328535  0.672615  0.998775  1
  Ru  Ru26  1  0.327578  0.672386  0.501218  1
  Ru  Ru27  1  0.673155  0.327466  0.501367  1
