# generated using pymatgen
data_RbTm(CuSb)2
_symmetry_space_group_name_H-M   'P 1'
_cell_length_a   4.45042700
_cell_length_b   4.45042652
_cell_length_c   9.33768500
_cell_angle_alpha   90.00000000
_cell_angle_beta   90.00000000
_cell_angle_gamma   120.00001098
_symmetry_Int_Tables_number   1
_chemical_formula_structural   RbTm(CuSb)2
_chemical_formula_sum   'Rb1 Tm1 Cu2 Sb2'
_cell_volume   160.16702901
_cell_formula_units_Z   1
loop_
 _symmetry_equiv_pos_site_id
 _symmetry_equiv_pos_as_xyz
  1  'x, y, z'
loop_
 _atom_site_type_symbol
 _atom_site_label
 _atom_site_symmetry_multiplicity
 _atom_site_fract_x
 _atom_site_fract_y
 _atom_site_fract_z
 _atom_site_occupancy
  Rb  Rb0  1  0.000000  0.000000  0.500000  1
  Tm  Tm1  1  0.000000  0.000000  0.000000  1
  Cu  Cu2  1  0.666667  0.333333  0.171174  1
  Cu  Cu3  1  0.333333  0.666667  0.828826  1
  Sb  Sb4  1  0.333333  0.666667  0.206140  1
  Sb  Sb5  1  0.666667  0.333333  0.793860  1
