# generated using pymatgen
data_MnTl4TcBr12
_symmetry_space_group_name_H-M   'P 1'
_cell_length_a   7.55854349
_cell_length_b   7.30110160
_cell_length_c   12.68148100
_cell_angle_alpha   54.68451016
_cell_angle_beta   90.16539408
_cell_angle_gamma   89.85538215
_symmetry_Int_Tables_number   1
_chemical_formula_structural   MnTl4TcBr12
_chemical_formula_sum   'Mn1 Tl4 Tc1 Br12'
_cell_volume   571.04346638
_cell_formula_units_Z   1
loop_
 _symmetry_equiv_pos_site_id
 _symmetry_equiv_pos_as_xyz
  1  'x, y, z'
loop_
 _atom_site_type_symbol
 _atom_site_label
 _atom_site_symmetry_multiplicity
 _atom_site_fract_x
 _atom_site_fract_y
 _atom_site_fract_z
 _atom_site_occupancy
  Mn  Mn0  1  0.000000  0.000000  0.000000  1
  Tl  Tl1  1  0.428999  0.728586  0.249858  1
  Tl  Tl2  1  0.927597  0.274004  0.247757  1
  Tl  Tl3  1  0.072403  0.725996  0.752243  1
  Tl  Tl4  1  0.571001  0.271414  0.750142  1
  Tc  Tc5  1  0.500000  0.000000  0.500000  1
  Br  Br6  1  0.811499  0.307285  0.964967  1
  Br  Br7  1  0.499810  0.177599  0.259789  1
  Br  Br8  1  0.500190  0.822401  0.740211  1
  Br  Br9  1  0.268076  0.217161  0.969937  1
  Br  Br10  1  0.306040  0.689471  0.532692  1
  Br  Br11  1  0.225544  0.224293  0.470877  1
  Br  Br12  1  0.188501  0.692715  0.035033  1
  Br  Br13  1  0.774456  0.775707  0.529123  1
  Br  Br14  1  0.731924  0.782839  0.030063  1
  Br  Br15  1  0.003238  0.833575  0.232889  1
  Br  Br16  1  0.996762  0.166425  0.767111  1
  Br  Br17  1  0.693960  0.310529  0.467308  1
