# generated using pymatgen
data_Y2Sc2IrPt
_symmetry_space_group_name_H-M   'P 1'
_cell_length_a   4.44613900
_cell_length_b   7.05355200
_cell_length_c   8.60429100
_cell_angle_alpha   90.00000000
_cell_angle_beta   90.00000000
_cell_angle_gamma   90.00000000
_symmetry_Int_Tables_number   1
_chemical_formula_structural   Y2Sc2IrPt
_chemical_formula_sum   'Y4 Sc4 Ir2 Pt2'
_cell_volume   269.83979503
_cell_formula_units_Z   2
loop_
 _symmetry_equiv_pos_site_id
 _symmetry_equiv_pos_as_xyz
  1  'x, y, z'
loop_
 _atom_site_type_symbol
 _atom_site_label
 _atom_site_symmetry_multiplicity
 _atom_site_fract_x
 _atom_site_fract_y
 _atom_site_fract_z
 _atom_site_occupancy
  Y  Y0  1  0.250000  0.016554  0.674729  1
  Y  Y1  1  0.250000  0.516554  0.825271  1
  Y  Y2  1  0.750000  0.987170  0.325381  1
  Y  Y3  1  0.750000  0.487170  0.174619  1
  Sc  Sc4  1  0.250000  0.139349  0.073175  1
  Sc  Sc5  1  0.250000  0.639349  0.426825  1
  Sc  Sc6  1  0.750000  0.857446  0.933238  1
  Sc  Sc7  1  0.750000  0.357446  0.566762  1
  Ir  Ir8  1  0.250000  0.257763  0.402500  1
  Ir  Ir9  1  0.250000  0.757763  0.097500  1
  Pt  Pt10  1  0.750000  0.741718  0.602322  1
  Pt  Pt11  1  0.750000  0.241718  0.897678  1
