# generated using pymatgen
data_RbGd6Sn23Ir6
_symmetry_space_group_name_H-M   'P 1'
_cell_length_a   9.88979800
_cell_length_b   9.88979810
_cell_length_c   10.14895200
_cell_angle_alpha   90.00000000
_cell_angle_beta   90.00000000
_cell_angle_gamma   119.99999297
_symmetry_Int_Tables_number   1
_chemical_formula_structural   RbGd6Sn23Ir6
_chemical_formula_sum   'Rb1 Gd6 Sn23 Ir6'
_cell_volume   859.65997676
_cell_formula_units_Z   1
loop_
 _symmetry_equiv_pos_site_id
 _symmetry_equiv_pos_as_xyz
  1  'x, y, z'
loop_
 _atom_site_type_symbol
 _atom_site_label
 _atom_site_symmetry_multiplicity
 _atom_site_fract_x
 _atom_site_fract_y
 _atom_site_fract_z
 _atom_site_occupancy
  Rb  Rb0  1  0.000000  0.000000  0.000000  1
  Gd  Gd1  1  0.481438  0.518562  0.303760  1
  Gd  Gd2  1  0.518562  0.481438  0.696240  1
  Gd  Gd3  1  0.481438  0.962875  0.303760  1
  Gd  Gd4  1  0.518562  0.037125  0.696240  1
  Gd  Gd5  1  0.037125  0.518562  0.303760  1
  Gd  Gd6  1  0.962875  0.481438  0.696240  1
  Sn  Sn7  1  0.351281  0.000000  0.000000  1
  Sn  Sn8  1  0.648719  0.000000  0.000000  1
  Sn  Sn9  1  0.000000  0.351281  0.000000  1
  Sn  Sn10  1  0.000000  0.648719  0.000000  1
  Sn  Sn11  1  0.648719  0.648719  0.000000  1
  Sn  Sn12  1  0.351281  0.351281  0.000000  1
  Sn  Sn13  1  0.333333  0.666667  0.825981  1
  Sn  Sn14  1  0.666667  0.333333  0.174019  1
  Sn  Sn15  1  0.000000  0.000000  0.500000  1
  Sn  Sn16  1  0.777257  0.222743  0.460618  1
  Sn  Sn17  1  0.222743  0.777257  0.539382  1
  Sn  Sn18  1  0.777257  0.554514  0.460618  1
  Sn  Sn19  1  0.222743  0.445486  0.539382  1
  Sn  Sn20  1  0.445486  0.222743  0.460618  1
  Sn  Sn21  1  0.554514  0.777257  0.539382  1
  Sn  Sn22  1  0.333333  0.666667  0.118082  1
  Sn  Sn23  1  0.666667  0.333333  0.881918  1
  Sn  Sn24  1  0.117345  0.882655  0.284554  1
  Sn  Sn25  1  0.882655  0.117345  0.715446  1
  Sn  Sn26  1  0.117345  0.234690  0.284554  1
  Sn  Sn27  1  0.882655  0.765310  0.715446  1
  Sn  Sn28  1  0.765310  0.882655  0.284554  1
  Sn  Sn29  1  0.234690  0.117345  0.715446  1
  Ir  Ir30  1  0.827198  0.172802  0.205075  1
  Ir  Ir31  1  0.172802  0.827198  0.794925  1
  Ir  Ir32  1  0.827198  0.654395  0.205075  1
  Ir  Ir33  1  0.172802  0.345605  0.794925  1
  Ir  Ir34  1  0.345605  0.172802  0.205075  1
  Ir  Ir35  1  0.654395  0.827198  0.794925  1
