# generated using pymatgen
data_K6AlFeF12
_symmetry_space_group_name_H-M   'P 1'
_cell_length_a   6.29238693
_cell_length_b   6.05977273
_cell_length_c   10.53795700
_cell_angle_alpha   55.12261532
_cell_angle_beta   89.88385836
_cell_angle_gamma   90.03720596
_symmetry_Int_Tables_number   1
_chemical_formula_structural   K6AlFeF12
_chemical_formula_sum   'K6 Al1 Fe1 F12'
_cell_volume   329.64010851
_cell_formula_units_Z   1
loop_
 _symmetry_equiv_pos_site_id
 _symmetry_equiv_pos_as_xyz
  1  'x, y, z'
loop_
 _atom_site_type_symbol
 _atom_site_label
 _atom_site_symmetry_multiplicity
 _atom_site_fract_x
 _atom_site_fract_y
 _atom_site_fract_z
 _atom_site_occupancy
  K  K0  1  0.500000  0.500000  0.000000  1
  K  K1  1  0.000000  0.500000  0.500000  1
  K  K2  1  0.047882  0.739204  0.744980  1
  K  K3  1  0.952118  0.260796  0.255020  1
  K  K4  1  0.544896  0.267813  0.742164  1
  K  K5  1  0.455104  0.732187  0.257836  1
  Al  Al6  1  0.500000  0.000000  0.500000  1
  Fe  Fe7  1  0.000000  0.000000  0.000000  1
  F  F8  1  0.739155  0.786856  0.549140  1
  F  F9  1  0.260845  0.213144  0.450860  1
  F  F10  1  0.257224  0.224304  0.940492  1
  F  F11  1  0.742776  0.775696  0.059508  1
  F  F12  1  0.465990  0.875885  0.703983  1
  F  F13  1  0.534010  0.124115  0.296017  1
  F  F14  1  0.959942  0.122638  0.784563  1
  F  F15  1  0.040058  0.877362  0.215437  1
  F  F16  1  0.331458  0.721509  0.533675  1
  F  F17  1  0.668542  0.278491  0.466325  1
  F  F18  1  0.828621  0.303967  0.959276  1
  F  F19  1  0.171379  0.696033  0.040724  1
