# generated using pymatgen
data_Sc4CCl6
_symmetry_space_group_name_H-M   'P 1'
_cell_length_a   3.54440700
_cell_length_b   11.72679600
_cell_length_c   12.22926200
_cell_angle_alpha   90.00000000
_cell_angle_beta   90.00000000
_cell_angle_gamma   90.00000000
_symmetry_Int_Tables_number   1
_chemical_formula_structural   Sc4CCl6
_chemical_formula_sum   'Sc8 C2 Cl12'
_cell_volume   508.30362303
_cell_formula_units_Z   2
loop_
 _symmetry_equiv_pos_site_id
 _symmetry_equiv_pos_as_xyz
  1  'x, y, z'
loop_
 _atom_site_type_symbol
 _atom_site_label
 _atom_site_symmetry_multiplicity
 _atom_site_fract_x
 _atom_site_fract_y
 _atom_site_fract_z
 _atom_site_occupancy
  Sc  Sc0  1  0.000000  0.102625  0.078670  1
  Sc  Sc1  1  0.000000  0.897375  0.921330  1
  Sc  Sc2  1  0.000000  0.602625  0.421330  1
  Sc  Sc3  1  0.000000  0.397375  0.578670  1
  Sc  Sc4  1  0.500000  0.120577  0.855437  1
  Sc  Sc5  1  0.500000  0.879423  0.144563  1
  Sc  Sc6  1  0.500000  0.620577  0.644563  1
  Sc  Sc7  1  0.500000  0.379423  0.355437  1
  C  C8  1  0.500000  0.000000  0.000000  1
  C  C9  1  0.500000  0.500000  0.500000  1
  Cl  Cl10  1  0.500000  0.265188  0.676562  1
  Cl  Cl11  1  0.500000  0.734812  0.323438  1
  Cl  Cl12  1  0.500000  0.765188  0.823438  1
  Cl  Cl13  1  0.500000  0.234812  0.176562  1
  Cl  Cl14  1  0.000000  0.258116  0.928856  1
  Cl  Cl15  1  0.000000  0.741884  0.071144  1
  Cl  Cl16  1  0.000000  0.484501  0.242886  1
  Cl  Cl17  1  0.000000  0.515499  0.757114  1
  Cl  Cl18  1  0.000000  0.984501  0.257114  1
  Cl  Cl19  1  0.000000  0.015499  0.742886  1
  Cl  Cl20  1  0.000000  0.241884  0.428856  1
  Cl  Cl21  1  0.000000  0.758116  0.571144  1
