# generated using pymatgen
data_Dy6Zn11Ag12S
_symmetry_space_group_name_H-M   'P 1'
_cell_length_a   9.25567503
_cell_length_b   9.25567469
_cell_length_c   9.25567600
_cell_angle_alpha   60.00000247
_cell_angle_beta   60.00000367
_cell_angle_gamma   60.00000331
_symmetry_Int_Tables_number   1
_chemical_formula_structural   Dy6Zn11Ag12S
_chemical_formula_sum   'Dy6 Zn11 Ag12 S1'
_cell_volume   560.67263094
_cell_formula_units_Z   1
loop_
 _symmetry_equiv_pos_site_id
 _symmetry_equiv_pos_as_xyz
  1  'x, y, z'
loop_
 _atom_site_type_symbol
 _atom_site_label
 _atom_site_symmetry_multiplicity
 _atom_site_fract_x
 _atom_site_fract_y
 _atom_site_fract_z
 _atom_site_occupancy
  Dy  Dy0  1  0.710132  0.289868  0.289868  1
  Dy  Dy1  1  0.710132  0.289868  0.710132  1
  Dy  Dy2  1  0.710132  0.710132  0.289868  1
  Dy  Dy3  1  0.289868  0.710132  0.710132  1
  Dy  Dy4  1  0.289868  0.710132  0.289868  1
  Dy  Dy5  1  0.289868  0.289868  0.710132  1
  Zn  Zn6  1  0.503263  0.996737  0.996737  1
  Zn  Zn7  1  0.503263  0.996737  0.503263  1
  Zn  Zn8  1  0.503263  0.503263  0.996737  1
  Zn  Zn9  1  0.996737  0.503263  0.503263  1
  Zn  Zn10  1  0.996737  0.503263  0.996737  1
  Zn  Zn11  1  0.996737  0.996737  0.503263  1
  Zn  Zn12  1  0.000000  0.000000  0.000000  1
  Zn  Zn13  1  0.989610  0.670130  0.670130  1
  Zn  Zn14  1  0.670130  0.989610  0.670130  1
  Zn  Zn15  1  0.670130  0.670130  0.989610  1
  Zn  Zn16  1  0.670130  0.670130  0.670130  1
  Ag  Ag17  1  0.648566  0.117145  0.117145  1
  Ag  Ag18  1  0.117145  0.648566  0.117145  1
  Ag  Ag19  1  0.117145  0.117145  0.648566  1
  Ag  Ag20  1  0.117145  0.117145  0.117145  1
  Ag  Ag21  1  0.364284  0.878571  0.878571  1
  Ag  Ag22  1  0.878571  0.364284  0.878571  1
  Ag  Ag23  1  0.878571  0.878571  0.364284  1
  Ag  Ag24  1  0.878571  0.878571  0.878571  1
  Ag  Ag25  1  0.002851  0.332383  0.332383  1
  Ag  Ag26  1  0.332383  0.002851  0.332383  1
  Ag  Ag27  1  0.332383  0.332383  0.002851  1
  Ag  Ag28  1  0.332383  0.332383  0.332383  1
  S  S29  1  0.500000  0.500000  0.500000  1
