# generated using pymatgen
data_Cs2NdU(AgTe3)2
_symmetry_space_group_name_H-M   'P 1'
_cell_length_a   8.86904863
_cell_length_b   8.86904892
_cell_length_c   11.65958808
_cell_angle_alpha   90.27621370
_cell_angle_beta   89.72378582
_cell_angle_gamma   150.54819205
_symmetry_Int_Tables_number   1
_chemical_formula_structural   Cs2NdU(AgTe3)2
_chemical_formula_sum   'Cs2 Nd1 U1 Ag2 Te6'
_cell_volume   450.94589864
_cell_formula_units_Z   1
loop_
 _symmetry_equiv_pos_site_id
 _symmetry_equiv_pos_as_xyz
  1  'x, y, z'
loop_
 _atom_site_type_symbol
 _atom_site_label
 _atom_site_symmetry_multiplicity
 _atom_site_fract_x
 _atom_site_fract_y
 _atom_site_fract_z
 _atom_site_occupancy
  Cs  Cs0  1  0.749253  0.250749  0.246778  1
  Cs  Cs1  1  0.250749  0.749253  0.753222  1
  Nd  Nd2  1  0.000000  0.000000  0.000000  1
  U  U3  1  0.000000  0.000000  0.500000  1
  Ag  Ag4  1  0.461101  0.538901  0.247686  1
  Ag  Ag5  1  0.538901  0.461101  0.752314  1
  Te  Te6  1  0.373389  0.626613  0.047939  1
  Te  Te7  1  0.062726  0.937275  0.259650  1
  Te  Te8  1  0.381677  0.618325  0.459536  1
  Te  Te9  1  0.618325  0.381677  0.540464  1
  Te  Te10  1  0.937275  0.062726  0.740350  1
  Te  Te11  1  0.626613  0.373389  0.952061  1
