# generated using pymatgen
data_Ho12InGaNi4
_symmetry_space_group_name_H-M   'P 1'
_cell_length_a   8.34099941
_cell_length_b   8.34099935
_cell_length_c   8.34100046
_cell_angle_alpha   113.06816920
_cell_angle_beta   109.66919535
_cell_angle_gamma   105.75859675
_symmetry_Int_Tables_number   1
_chemical_formula_structural   Ho12InGaNi4
_chemical_formula_sum   'Ho12 In1 Ga1 Ni4'
_cell_volume   444.90166873
_cell_formula_units_Z   1
loop_
 _symmetry_equiv_pos_site_id
 _symmetry_equiv_pos_as_xyz
  1  'x, y, z'
loop_
 _atom_site_type_symbol
 _atom_site_label
 _atom_site_symmetry_multiplicity
 _atom_site_fract_x
 _atom_site_fract_y
 _atom_site_fract_z
 _atom_site_occupancy
  Ho  Ho0  1  0.428833  0.231656  0.197177  1
  Ho  Ho1  1  0.571167  0.768344  0.802823  1
  Ho  Ho2  1  0.034479  0.231656  0.802823  1
  Ho  Ho3  1  0.965521  0.768344  0.197177  1
  Ho  Ho4  1  0.180908  0.286271  0.467178  1
  Ho  Ho5  1  0.819092  0.713729  0.532822  1
  Ho  Ho6  1  0.180908  0.713729  0.894637  1
  Ho  Ho7  1  0.819092  0.286271  0.105363  1
  Ho  Ho8  1  0.323720  0.632888  0.309170  1
  Ho  Ho9  1  0.676280  0.367112  0.690830  1
  Ho  Ho10  1  0.323720  0.014550  0.690830  1
  Ho  Ho11  1  0.676280  0.985450  0.309170  1
  In  In12  1  0.500000  0.500000  0.000000  1
  Ga  Ga13  1  0.000000  0.000000  0.000000  1
  Ni  Ni14  1  0.350120  0.000000  0.350120  1
  Ni  Ni15  1  0.649880  0.000000  0.649880  1
  Ni  Ni16  1  0.121483  0.621483  0.500000  1
  Ni  Ni17  1  0.878517  0.378517  0.500000  1
