# generated using pymatgen
data_Li8CdSi5Pd2
_symmetry_space_group_name_H-M   'P 1'
_cell_length_a   6.02427800
_cell_length_b   6.02427800
_cell_length_c   6.09258900
_cell_angle_alpha   90.00000000
_cell_angle_beta   90.00000000
_cell_angle_gamma   90.00000000
_symmetry_Int_Tables_number   1
_chemical_formula_structural   Li8CdSi5Pd2
_chemical_formula_sum   'Li8 Cd1 Si5 Pd2'
_cell_volume   221.11178561
_cell_formula_units_Z   1
loop_
 _symmetry_equiv_pos_site_id
 _symmetry_equiv_pos_as_xyz
  1  'x, y, z'
loop_
 _atom_site_type_symbol
 _atom_site_label
 _atom_site_symmetry_multiplicity
 _atom_site_fract_x
 _atom_site_fract_y
 _atom_site_fract_z
 _atom_site_occupancy
  Li  Li0  1  0.256864  0.743136  0.238730  1
  Li  Li1  1  0.743136  0.256864  0.238730  1
  Li  Li2  1  0.256864  0.256864  0.761270  1
  Li  Li3  1  0.000000  0.000000  0.000000  1
  Li  Li4  1  0.000000  0.500000  0.500000  1
  Li  Li5  1  0.743136  0.743136  0.761270  1
  Li  Li6  1  0.500000  0.000000  0.500000  1
  Li  Li7  1  0.500000  0.500000  0.000000  1
  Cd  Cd8  1  0.000000  0.000000  0.500000  1
  Si  Si9  1  0.260874  0.260874  0.236874  1
  Si  Si10  1  0.500000  0.500000  0.500000  1
  Si  Si11  1  0.739126  0.260874  0.763126  1
  Si  Si12  1  0.739126  0.739126  0.236874  1
  Si  Si13  1  0.260874  0.739126  0.763126  1
  Pd  Pd14  1  0.000000  0.500000  0.000000  1
  Pd  Pd15  1  0.500000  0.000000  0.000000  1
