# generated using pymatgen
data_Tb2Y2Ga16FeCo2
_symmetry_space_group_name_H-M   'P 1'
_cell_length_a   6.04093300
_cell_length_b   6.04093300
_cell_length_c   11.17253300
_cell_angle_alpha   90.00000000
_cell_angle_beta   90.00000000
_cell_angle_gamma   90.00000000
_symmetry_Int_Tables_number   1
_chemical_formula_structural   Tb2Y2Ga16FeCo2
_chemical_formula_sum   'Tb2 Y2 Ga16 Fe1 Co2'
_cell_volume   407.71781122
_cell_formula_units_Z   1
loop_
 _symmetry_equiv_pos_site_id
 _symmetry_equiv_pos_as_xyz
  1  'x, y, z'
loop_
 _atom_site_type_symbol
 _atom_site_label
 _atom_site_symmetry_multiplicity
 _atom_site_fract_x
 _atom_site_fract_y
 _atom_site_fract_z
 _atom_site_occupancy
  Tb  Tb0  1  0.500000  0.000000  0.194510  1
  Tb  Tb1  1  0.000000  0.500000  0.194510  1
  Y  Y2  1  0.500000  0.000000  0.805392  1
  Y  Y3  1  0.000000  0.500000  0.805392  1
  Ga  Ga4  1  0.249710  0.249710  0.614725  1
  Ga  Ga5  1  0.750290  0.750290  0.614725  1
  Ga  Ga6  1  0.750290  0.249710  0.614725  1
  Ga  Ga7  1  0.249710  0.750290  0.614725  1
  Ga  Ga8  1  0.750238  0.750238  0.385295  1
  Ga  Ga9  1  0.249762  0.249762  0.385295  1
  Ga  Ga10  1  0.249762  0.750238  0.385295  1
  Ga  Ga11  1  0.750238  0.249762  0.385295  1
  Ga  Ga12  1  0.280347  0.280347  0.999920  1
  Ga  Ga13  1  0.719653  0.719653  0.999920  1
  Ga  Ga14  1  0.719653  0.280347  0.999920  1
  Ga  Ga15  1  0.280347  0.719653  0.999920  1
  Ga  Ga16  1  0.500000  0.500000  0.805418  1
  Ga  Ga17  1  0.500000  0.500000  0.194673  1
  Ga  Ga18  1  0.000000  0.000000  0.782245  1
  Ga  Ga19  1  0.000000  0.000000  0.217898  1
  Fe  Fe20  1  0.000000  0.000000  0.000020  1
  Co  Co21  1  0.500000  0.000000  0.500090  1
  Co  Co22  1  0.000000  0.500000  0.500090  1
