# generated using pymatgen
data_AgI3Br10
_symmetry_space_group_name_H-M   'P 1'
_cell_length_a   11.36955344
_cell_length_b   11.36955286
_cell_length_c   10.59545396
_cell_angle_alpha   78.83546249
_cell_angle_beta   78.83546109
_cell_angle_gamma   88.14995666
_symmetry_Int_Tables_number   1
_chemical_formula_structural   AgI3Br10
_chemical_formula_sum   'Ag2 I6 Br20'
_cell_volume   1318.27065631
_cell_formula_units_Z   2
loop_
 _symmetry_equiv_pos_site_id
 _symmetry_equiv_pos_as_xyz
  1  'x, y, z'
loop_
 _atom_site_type_symbol
 _atom_site_label
 _atom_site_symmetry_multiplicity
 _atom_site_fract_x
 _atom_site_fract_y
 _atom_site_fract_z
 _atom_site_occupancy
  Ag  Ag0  1  0.669979  0.330021  0.000000  1
  Ag  Ag1  1  0.330021  0.669979  0.000000  1
  I  I2  1  0.458859  0.175117  0.334414  1
  I  I3  1  0.824883  0.541141  0.665586  1
  I  I4  1  0.175117  0.458859  0.334414  1
  I  I5  1  0.541141  0.824883  0.665586  1
  I  I6  1  0.175460  0.175460  0.087883  1
  I  I7  1  0.824540  0.824540  0.912117  1
  Br  Br8  1  0.339966  0.652868  0.238175  1
  Br  Br9  1  0.001773  0.001773  0.732059  1
  Br  Br10  1  0.998227  0.998227  0.267941  1
  Br  Br11  1  0.096462  0.096462  0.885725  1
  Br  Br12  1  0.426714  0.961838  0.819322  1
  Br  Br13  1  0.980202  0.716427  0.570168  1
  Br  Br14  1  0.660034  0.347132  0.761825  1
  Br  Br15  1  0.341383  0.341383  0.489608  1
  Br  Br16  1  0.283573  0.019798  0.429832  1
  Br  Br17  1  0.573286  0.038162  0.180678  1
  Br  Br18  1  0.347132  0.660034  0.761825  1
  Br  Br19  1  0.652868  0.339966  0.238175  1
  Br  Br20  1  0.665953  0.665953  0.044461  1
  Br  Br21  1  0.961838  0.426714  0.819322  1
  Br  Br22  1  0.903538  0.903538  0.114275  1
  Br  Br23  1  0.716426  0.980202  0.570168  1
  Br  Br24  1  0.334047  0.334047  0.955539  1
  Br  Br25  1  0.038162  0.573286  0.180678  1
  Br  Br26  1  0.658617  0.658617  0.510392  1
  Br  Br27  1  0.019798  0.283574  0.429832  1
