# generated using pymatgen
data_Y3Al12CuRu3
_symmetry_space_group_name_H-M   'P 1'
_cell_length_a   8.83369846
_cell_length_b   8.83369831
_cell_length_c   9.47791800
_cell_angle_alpha   90.00000000
_cell_angle_beta   90.00000000
_cell_angle_gamma   119.54432484
_symmetry_Int_Tables_number   1
_chemical_formula_structural   Y3Al12CuRu3
_chemical_formula_sum   'Y6 Al24 Cu2 Ru6'
_cell_volume   643.43487789
_cell_formula_units_Z   2
loop_
 _symmetry_equiv_pos_site_id
 _symmetry_equiv_pos_as_xyz
  1  'x, y, z'
loop_
 _atom_site_type_symbol
 _atom_site_label
 _atom_site_symmetry_multiplicity
 _atom_site_fract_x
 _atom_site_fract_y
 _atom_site_fract_z
 _atom_site_occupancy
  Y  Y0  1  0.193513  0.806487  0.250000  1
  Y  Y1  1  0.188666  0.383624  0.250000  1
  Y  Y2  1  0.616376  0.811334  0.250000  1
  Y  Y3  1  0.806487  0.193513  0.750000  1
  Y  Y4  1  0.811334  0.616376  0.750000  1
  Y  Y5  1  0.383624  0.188666  0.750000  1
  Al  Al6  1  0.560800  0.439200  0.250000  1
  Al  Al7  1  0.560185  0.121985  0.250000  1
  Al  Al8  1  0.878015  0.439815  0.250000  1
  Al  Al9  1  0.439200  0.560800  0.750000  1
  Al  Al10  1  0.439815  0.878015  0.750000  1
  Al  Al11  1  0.121985  0.560185  0.750000  1
  Al  Al12  1  0.324007  0.157218  0.422064  1
  Al  Al13  1  0.836355  0.163645  0.423160  1
  Al  Al14  1  0.842782  0.675993  0.422064  1
  Al  Al15  1  0.675993  0.842782  0.577936  1
  Al  Al16  1  0.163645  0.836355  0.576840  1
  Al  Al17  1  0.157218  0.324007  0.577936  1
  Al  Al18  1  0.675993  0.842782  0.922064  1
  Al  Al19  1  0.163645  0.836355  0.923160  1
  Al  Al20  1  0.157218  0.324007  0.922064  1
  Al  Al21  1  0.324007  0.157218  0.077936  1
  Al  Al22  1  0.836355  0.163645  0.076840  1
  Al  Al23  1  0.842782  0.675993  0.077936  1
  Al  Al24  1  0.667997  0.332003  0.519773  1
  Al  Al25  1  0.332003  0.667997  0.480227  1
  Al  Al26  1  0.332003  0.667997  0.019773  1
  Al  Al27  1  0.667997  0.332003  0.980227  1
  Al  Al28  1  0.998155  0.001845  0.250000  1
  Al  Al29  1  0.001845  0.998155  0.750000  1
  Cu  Cu30  1  0.500000  0.500000  0.500000  1
  Cu  Cu31  1  0.500000  0.500000  0.000000  1
  Ru  Ru32  1  0.000000  0.000000  0.500000  1
  Ru  Ru33  1  0.000000  0.000000  0.000000  1
  Ru  Ru34  1  0.500000  0.000000  0.500000  1
  Ru  Ru35  1  0.000000  0.500000  0.500000  1
  Ru  Ru36  1  0.500000  0.000000  0.000000  1
  Ru  Ru37  1  0.000000  0.500000  0.000000  1
