# generated using pymatgen
data_Nd3ErMg2Ir3
_symmetry_space_group_name_H-M   'P 1'
_cell_length_a   7.56358300
_cell_length_b   7.57368420
_cell_length_c   4.17775700
_cell_angle_alpha   90.00000000
_cell_angle_beta   90.00000000
_cell_angle_gamma   119.95589496
_symmetry_Int_Tables_number   1
_chemical_formula_structural   Nd3ErMg2Ir3
_chemical_formula_sum   'Nd3 Er1 Mg2 Ir3'
_cell_volume   207.34874888
_cell_formula_units_Z   1
loop_
 _symmetry_equiv_pos_site_id
 _symmetry_equiv_pos_as_xyz
  1  'x, y, z'
loop_
 _atom_site_type_symbol
 _atom_site_label
 _atom_site_symmetry_multiplicity
 _atom_site_fract_x
 _atom_site_fract_y
 _atom_site_fract_z
 _atom_site_occupancy
  Nd  Nd0  1  0.394037  0.000000  0.500000  1
  Nd  Nd1  1  0.016300  0.431756  0.500000  1
  Nd  Nd2  1  0.584544  0.568244  0.500000  1
  Er  Er3  1  0.753827  0.000000  0.000000  1
  Mg  Mg4  1  0.243428  0.245241  0.000000  1
  Mg  Mg5  1  0.998187  0.754759  0.000000  1
  Ir  Ir6  1  0.670252  0.329038  0.000000  1
  Ir  Ir7  1  0.341215  0.670962  0.000000  1
  Ir  Ir8  1  0.998211  0.000000  0.500000  1
