# generated using pymatgen
data_Ho16Mg2In2Ir3Pt
_symmetry_space_group_name_H-M   'P 1'
_cell_length_a   9.65295644
_cell_length_b   9.66578702
_cell_length_c   9.69168700
_cell_angle_alpha   59.91132488
_cell_angle_beta   59.86718862
_cell_angle_gamma   59.73422675
_symmetry_Int_Tables_number   1
_chemical_formula_structural   Ho16Mg2In2Ir3Pt
_chemical_formula_sum   'Ho16 Mg2 In2 Ir3 Pt1'
_cell_volume   637.05339307
_cell_formula_units_Z   1
loop_
 _symmetry_equiv_pos_site_id
 _symmetry_equiv_pos_as_xyz
  1  'x, y, z'
loop_
 _atom_site_type_symbol
 _atom_site_label
 _atom_site_symmetry_multiplicity
 _atom_site_fract_x
 _atom_site_fract_y
 _atom_site_fract_z
 _atom_site_occupancy
  Ho  Ho0  1  0.437443  0.434124  0.064217  1
  Ho  Ho1  1  0.653797  0.650033  0.046923  1
  Ho  Ho2  1  0.186412  0.810515  0.193137  1
  Ho  Ho3  1  0.061962  0.438499  0.062630  1
  Ho  Ho4  1  0.186412  0.810515  0.809936  1
  Ho  Ho5  1  0.061962  0.438499  0.436910  1
  Ho  Ho6  1  0.811488  0.189182  0.189074  1
  Ho  Ho7  1  0.653797  0.650033  0.649250  1
  Ho  Ho8  1  0.811488  0.189182  0.810256  1
  Ho  Ho9  1  0.183886  0.189984  0.813065  1
  Ho  Ho10  1  0.041460  0.652492  0.653025  1
  Ho  Ho11  1  0.439035  0.062773  0.063707  1
  Ho  Ho12  1  0.061630  0.061537  0.438416  1
  Ho  Ho13  1  0.654396  0.044238  0.650683  1
  Ho  Ho14  1  0.808540  0.808309  0.191576  1
  Ho  Ho15  1  0.439035  0.062773  0.434485  1
  Mg  Mg16  1  0.422969  0.422842  0.419770  1
  Mg  Mg17  1  0.422969  0.422842  0.734419  1
  In  In18  1  0.417136  0.747063  0.417901  1
  In  In19  1  0.747292  0.416938  0.417886  1
  Ir  Ir20  1  0.857575  0.858033  0.859805  1
  Ir  Ir21  1  0.856529  0.424560  0.859455  1
  Ir  Ir22  1  0.857575  0.858033  0.424586  1
  Pt  Pt23  1  0.425216  0.857005  0.858889  1
