# generated using pymatgen
data_Tb3Ho9Fe2I17
_symmetry_space_group_name_H-M   'P 1'
_cell_length_a   9.71569918
_cell_length_b   11.66482972
_cell_length_c   11.68861749
_cell_angle_alpha   93.48681318
_cell_angle_beta   104.79262984
_cell_angle_gamma   114.07511660
_symmetry_Int_Tables_number   1
_chemical_formula_structural   Tb3Ho9Fe2I17
_chemical_formula_sum   'Tb3 Ho9 Fe2 I17'
_cell_volume   1148.77245864
_cell_formula_units_Z   1
loop_
 _symmetry_equiv_pos_site_id
 _symmetry_equiv_pos_as_xyz
  1  'x, y, z'
loop_
 _atom_site_type_symbol
 _atom_site_label
 _atom_site_symmetry_multiplicity
 _atom_site_fract_x
 _atom_site_fract_y
 _atom_site_fract_z
 _atom_site_occupancy
  Tb  Tb0  1  0.053945  0.504358  0.320410  1
  Tb  Tb1  1  0.992661  0.808466  0.589744  1
  Tb  Tb2  1  0.656545  0.241071  0.279695  1
  Ho  Ho3  1  0.007634  0.190313  0.411524  1
  Ho  Ho4  1  0.217283  0.672277  0.979773  1
  Ho  Ho5  1  0.253143  0.975440  0.887967  1
  Ho  Ho6  1  0.344688  0.758156  0.719522  1
  Ho  Ho7  1  0.949947  0.500023  0.681878  1
  Ho  Ho8  1  0.746110  0.022589  0.111119  1
  Ho  Ho9  1  0.136721  0.285795  0.154468  1
  Ho  Ho10  1  0.780873  0.328080  0.016755  1
  Ho  Ho11  1  0.858640  0.713485  0.846386  1
  Fe  Fe12  1  0.103719  0.738025  0.785712  1
  Fe  Fe13  1  0.895185  0.261811  0.214340  1
  I  I14  1  0.783974  0.527825  0.417805  1
  I  I15  1  0.645192  0.419469  0.762587  1
  I  I16  1  0.843821  0.896447  0.326437  1
  I  I17  1  0.325386  0.213708  0.367788  1
  I  I18  1  0.156713  0.104802  0.673610  1
  I  I19  1  0.586012  0.053341  0.843275  1
  I  I20  1  0.760319  0.188871  0.539117  1
  I  I21  1  0.552120  0.711571  0.954502  1
  I  I22  1  0.355038  0.578920  0.236132  1
  I  I23  1  0.215884  0.470521  0.582824  1
  I  I24  1  0.056002  0.367572  0.897865  1
  I  I25  1  0.448568  0.288635  0.044811  1
  I  I26  1  0.001085  0.001296  0.000582  1
  I  I27  1  0.243993  0.812752  0.462055  1
  I  I28  1  0.414918  0.946686  0.156261  1
  I  I29  1  0.670983  0.785915  0.632498  1
  I  I30  1  0.942902  0.631780  0.102558  1
