# generated using pymatgen
data_TbHo15CdIn3Pd4
_symmetry_space_group_name_H-M   'P 1'
_cell_length_a   9.69619390
_cell_length_b   9.70337316
_cell_length_c   9.70337404
_cell_angle_alpha   59.81328716
_cell_angle_beta   59.84102461
_cell_angle_gamma   59.84102858
_symmetry_Int_Tables_number   1
_chemical_formula_structural   TbHo15CdIn3Pd4
_chemical_formula_sum   'Tb1 Ho15 Cd1 In3 Pd4'
_cell_volume   643.08803595
_cell_formula_units_Z   1
loop_
 _symmetry_equiv_pos_site_id
 _symmetry_equiv_pos_as_xyz
  1  'x, y, z'
loop_
 _atom_site_type_symbol
 _atom_site_label
 _atom_site_symmetry_multiplicity
 _atom_site_fract_x
 _atom_site_fract_y
 _atom_site_fract_z
 _atom_site_occupancy
  Tb  Tb0  1  0.351905  0.352540  0.352540  1
  Ho  Ho1  1  0.352367  0.352969  0.941483  1
  Ho  Ho2  1  0.352367  0.941483  0.352969  1
  Ho  Ho3  1  0.941418  0.352553  0.352553  1
  Ho  Ho4  1  0.810677  0.189828  0.189828  1
  Ho  Ho5  1  0.189893  0.810535  0.810535  1
  Ho  Ho6  1  0.189281  0.811410  0.188914  1
  Ho  Ho7  1  0.809980  0.190466  0.809788  1
  Ho  Ho8  1  0.189281  0.188914  0.811410  1
  Ho  Ho9  1  0.809980  0.809788  0.190466  1
  Ho  Ho10  1  0.936062  0.565335  0.565335  1
  Ho  Ho11  1  0.564717  0.935407  0.935407  1
  Ho  Ho12  1  0.565450  0.934637  0.564753  1
  Ho  Ho13  1  0.936849  0.564267  0.934433  1
  Ho  Ho14  1  0.565450  0.564753  0.934637  1
  Ho  Ho15  1  0.936849  0.934433  0.564267  1
  Cd  Cd16  1  0.251179  0.582900  0.582900  1
  In  In17  1  0.582474  0.583441  0.583441  1
  In  In18  1  0.582139  0.583509  0.251521  1
  In  In19  1  0.582139  0.251521  0.583509  1
  Pd  Pd20  1  0.144658  0.143975  0.143975  1
  Pd  Pd21  1  0.143134  0.143274  0.568855  1
  Pd  Pd22  1  0.143134  0.568855  0.143274  1
  Pd  Pd23  1  0.568618  0.143204  0.143204  1
