# generated using pymatgen
data_Y16CdNi4Ag3
_symmetry_space_group_name_H-M   'P 1'
_cell_length_a   9.49447784
_cell_length_b   9.53342297
_cell_length_c   9.53342300
_cell_angle_alpha   59.99999642
_cell_angle_beta   59.86421455
_cell_angle_gamma   59.86421396
_symmetry_Int_Tables_number   1
_chemical_formula_structural   Y16CdNi4Ag3
_chemical_formula_sum   'Y16 Cd1 Ni4 Ag3'
_cell_volume   608.91882188
_cell_formula_units_Z   1
loop_
 _symmetry_equiv_pos_site_id
 _symmetry_equiv_pos_as_xyz
  1  'x, y, z'
loop_
 _atom_site_type_symbol
 _atom_site_label
 _atom_site_symmetry_multiplicity
 _atom_site_fract_x
 _atom_site_fract_y
 _atom_site_fract_z
 _atom_site_occupancy
  Y  Y0  1  0.600744  0.599454  0.599454  1
  Y  Y1  1  0.600744  0.599454  0.200348  1
  Y  Y2  1  0.600744  0.200348  0.599454  1
  Y  Y3  1  0.197044  0.600985  0.600985  1
  Y  Y4  1  0.060743  0.438829  0.438829  1
  Y  Y5  1  0.437995  0.061510  0.061510  1
  Y  Y6  1  0.437995  0.061510  0.438985  1
  Y  Y7  1  0.060743  0.438829  0.061598  1
  Y  Y8  1  0.437995  0.438985  0.061510  1
  Y  Y9  1  0.060743  0.061598  0.438829  1
  Y  Y10  1  0.183327  0.814660  0.814660  1
  Y  Y11  1  0.814848  0.185417  0.185417  1
  Y  Y12  1  0.814848  0.185417  0.814318  1
  Y  Y13  1  0.183327  0.814660  0.187354  1
  Y  Y14  1  0.814848  0.814318  0.185417  1
  Y  Y15  1  0.183327  0.187354  0.814660  1
  Cd  Cd16  1  0.513710  0.828763  0.828763  1
  Ni  Ni17  1  0.392445  0.392710  0.392710  1
  Ni  Ni18  1  0.392445  0.392710  0.822137  1
  Ni  Ni19  1  0.392445  0.822137  0.392710  1
  Ni  Ni20  1  0.822467  0.392511  0.392511  1
  Ag  Ag21  1  0.832158  0.832249  0.832249  1
  Ag  Ag22  1  0.832158  0.832249  0.503344  1
  Ag  Ag23  1  0.832158  0.503344  0.832249  1
