# generated using pymatgen
data_La11Pr5MgIn3Ir4
_symmetry_space_group_name_H-M   'P 1'
_cell_length_a   10.09986554
_cell_length_b   10.13009279
_cell_length_c   10.13009326
_cell_angle_alpha   60.14854090
_cell_angle_beta   60.15269387
_cell_angle_gamma   60.15268967
_symmetry_Int_Tables_number   1
_chemical_formula_structural   La11Pr5MgIn3Ir4
_chemical_formula_sum   'La11 Pr5 Mg1 In3 Ir4'
_cell_volume   735.38259905
_cell_formula_units_Z   1
loop_
 _symmetry_equiv_pos_site_id
 _symmetry_equiv_pos_as_xyz
  1  'x, y, z'
loop_
 _atom_site_type_symbol
 _atom_site_label
 _atom_site_symmetry_multiplicity
 _atom_site_fract_x
 _atom_site_fract_y
 _atom_site_fract_z
 _atom_site_occupancy
  La  La0  1  0.346939  0.345062  0.345062  1
  La  La1  1  0.349012  0.347276  0.958244  1
  La  La2  1  0.349012  0.958244  0.347276  1
  La  La3  1  0.956122  0.348251  0.348251  1
  La  La4  1  0.807400  0.193171  0.193171  1
  La  La5  1  0.189596  0.809508  0.809508  1
  La  La6  1  0.189850  0.811210  0.188895  1
  La  La7  1  0.806477  0.193057  0.806719  1
  La  La8  1  0.189850  0.188895  0.811210  1
  La  La9  1  0.806477  0.806719  0.193057  1
  La  La10  1  0.939964  0.562631  0.562631  1
  Pr  Pr11  1  0.561345  0.937827  0.937827  1
  Pr  Pr12  1  0.561486  0.940941  0.561881  1
  Pr  Pr13  1  0.935160  0.562542  0.939585  1
  Pr  Pr14  1  0.561486  0.561881  0.940941  1
  Pr  Pr15  1  0.935160  0.939585  0.562542  1
  Mg  Mg16  1  0.274578  0.574792  0.574792  1
  In  In17  1  0.580053  0.580917  0.580917  1
  In  In18  1  0.579712  0.582172  0.255920  1
  In  In19  1  0.579712  0.255920  0.582172  1
  Ir  Ir20  1  0.140761  0.139708  0.139708  1
  Ir  Ir21  1  0.141173  0.140128  0.578654  1
  Ir  Ir22  1  0.141173  0.578654  0.140128  1
  Ir  Ir23  1  0.577503  0.140911  0.140911  1
