# generated using pymatgen
data_DyTcI18
_symmetry_space_group_name_H-M   'P 1'
_cell_length_a   10.23652346
_cell_length_b   10.28077194
_cell_length_c   10.21928017
_cell_angle_alpha   93.68715249
_cell_angle_beta   93.74940081
_cell_angle_gamma   93.61799080
_symmetry_Int_Tables_number   1
_chemical_formula_structural   DyTcI18
_chemical_formula_sum   'Dy1 Tc1 I18'
_cell_volume   1068.49790034
_cell_formula_units_Z   1
loop_
 _symmetry_equiv_pos_site_id
 _symmetry_equiv_pos_as_xyz
  1  'x, y, z'
loop_
 _atom_site_type_symbol
 _atom_site_label
 _atom_site_symmetry_multiplicity
 _atom_site_fract_x
 _atom_site_fract_y
 _atom_site_fract_z
 _atom_site_occupancy
  Dy  Dy0  1  0.500000  0.500000  0.500000  1
  Tc  Tc1  1  0.000000  0.000000  0.000000  1
  I  I2  1  0.795828  0.479664  0.525061  1
  I  I3  1  0.524751  0.794401  0.479177  1
  I  I4  1  0.480044  0.525828  0.796242  1
  I  I5  1  0.204172  0.520336  0.474939  1
  I  I6  1  0.475249  0.205599  0.520823  1
  I  I7  1  0.519956  0.474172  0.203758  1
  I  I8  1  0.900846  0.362545  0.766649  1
  I  I9  1  0.766213  0.899704  0.363116  1
  I  I10  1  0.363215  0.766495  0.900876  1
  I  I11  1  0.099154  0.637455  0.233351  1
  I  I12  1  0.233787  0.100296  0.636884  1
  I  I13  1  0.636785  0.233505  0.099124  1
  I  I14  1  0.001450  0.967850  0.733219  1
  I  I15  1  0.733737  0.001759  0.966763  1
  I  I16  1  0.966752  0.734978  0.000672  1
  I  I17  1  0.998550  0.032150  0.266781  1
  I  I18  1  0.266263  0.998241  0.033237  1
  I  I19  1  0.033248  0.265022  0.999328  1
