# generated using pymatgen
data_Tb2GaSi13Ir6
_symmetry_space_group_name_H-M   'P 1'
_cell_length_a   8.07383871
_cell_length_b   8.03965010
_cell_length_c   8.02337300
_cell_angle_alpha   56.64779566
_cell_angle_beta   56.99460747
_cell_angle_gamma   56.83885126
_symmetry_Int_Tables_number   1
_chemical_formula_structural   Tb2GaSi13Ir6
_chemical_formula_sum   'Tb2 Ga1 Si13 Ir6'
_cell_volume   341.29189182
_cell_formula_units_Z   1
loop_
 _symmetry_equiv_pos_site_id
 _symmetry_equiv_pos_as_xyz
  1  'x, y, z'
loop_
 _atom_site_type_symbol
 _atom_site_label
 _atom_site_symmetry_multiplicity
 _atom_site_fract_x
 _atom_site_fract_y
 _atom_site_fract_z
 _atom_site_occupancy
  Tb  Tb0  1  0.498525  0.497019  0.500354  1
  Tb  Tb1  1  0.999143  0.000429  0.000228  1
  Ga  Ga2  1  0.354066  0.160944  0.579807  1
  Si  Si3  1  0.562567  0.351842  0.173268  1
  Si  Si4  1  0.171767  0.566785  0.350755  1
  Si  Si5  1  0.062943  0.673022  0.852265  1
  Si  Si6  1  0.852653  0.062699  0.671469  1
  Si  Si7  1  0.672258  0.852076  0.063053  1
  Si  Si8  1  0.647523  0.827775  0.435748  1
  Si  Si9  1  0.436735  0.649217  0.825283  1
  Si  Si10  1  0.829004  0.434937  0.648710  1
  Si  Si11  1  0.934899  0.330325  0.147801  1
  Si  Si12  1  0.151707  0.933218  0.324500  1
  Si  Si13  1  0.323508  0.154235  0.937818  1
  Si  Si14  1  0.250489  0.249931  0.251741  1
  Si  Si15  1  0.748959  0.753495  0.747441  1
  Ir  Ir16  1  0.928050  0.572198  0.249680  1
  Ir  Ir17  1  0.249430  0.921707  0.570330  1
  Ir  Ir18  1  0.571739  0.250531  0.927162  1
  Ir  Ir19  1  0.760115  0.069608  0.421473  1
  Ir  Ir20  1  0.430926  0.751904  0.066736  1
  Ir  Ir21  1  0.062992  0.436106  0.754377  1
