# generated using pymatgen
data_PrNd3(DySe3)4
_symmetry_space_group_name_H-M   'P 1'
_cell_length_a   4.14370400
_cell_length_b   10.97633802
_cell_length_c   11.35854902
_cell_angle_alpha   90.00637737
_cell_angle_beta   90.00000000
_cell_angle_gamma   90.00000000
_symmetry_Int_Tables_number   1
_chemical_formula_structural   PrNd3(DySe3)4
_chemical_formula_sum   'Pr1 Nd3 Dy4 Se12'
_cell_volume   516.61742589
_cell_formula_units_Z   1
loop_
 _symmetry_equiv_pos_site_id
 _symmetry_equiv_pos_as_xyz
  1  'x, y, z'
loop_
 _atom_site_type_symbol
 _atom_site_label
 _atom_site_symmetry_multiplicity
 _atom_site_fract_x
 _atom_site_fract_y
 _atom_site_fract_z
 _atom_site_occupancy
  Pr  Pr0  1  0.750000  0.499813  0.695877  1
  Nd  Nd1  1  0.750000  0.000347  0.195713  1
  Nd  Nd2  1  0.250000  0.500353  0.304253  1
  Nd  Nd3  1  0.250000  0.999705  0.804289  1
  Dy  Dy4  1  0.250000  0.187636  0.490845  1
  Dy  Dy5  1  0.250000  0.312270  0.990931  1
  Dy  Dy6  1  0.750000  0.812479  0.509045  1
  Dy  Dy7  1  0.750000  0.687740  0.009310  1
  Se  Se8  1  0.250000  0.296426  0.731331  1
  Se  Se9  1  0.250000  0.202724  0.231120  1
  Se  Se10  1  0.750000  0.702743  0.268823  1
  Se  Se11  1  0.750000  0.797378  0.768890  1
  Se  Se12  1  0.750000  0.054088  0.614874  1
  Se  Se13  1  0.750000  0.445864  0.114916  1
  Se  Se14  1  0.250000  0.945899  0.385101  1
  Se  Se15  1  0.250000  0.554314  0.885770  1
  Se  Se16  1  0.250000  0.630817  0.541665  1
  Se  Se17  1  0.250000  0.869739  0.042252  1
  Se  Se18  1  0.750000  0.369396  0.457225  1
  Se  Se19  1  0.750000  0.130268  0.957768  1
