# generated using pymatgen
data_Sc6Al6Zn3SiAu2
_symmetry_space_group_name_H-M   'P 1'
_cell_length_a   6.74188700
_cell_length_b   6.74188689
_cell_length_c   8.24805100
_cell_angle_alpha   90.00000000
_cell_angle_beta   90.00000000
_cell_angle_gamma   120.00000543
_symmetry_Int_Tables_number   1
_chemical_formula_structural   Sc6Al6Zn3SiAu2
_chemical_formula_sum   'Sc6 Al6 Zn3 Si1 Au2'
_cell_volume   324.67203036
_cell_formula_units_Z   1
loop_
 _symmetry_equiv_pos_site_id
 _symmetry_equiv_pos_as_xyz
  1  'x, y, z'
loop_
 _atom_site_type_symbol
 _atom_site_label
 _atom_site_symmetry_multiplicity
 _atom_site_fract_x
 _atom_site_fract_y
 _atom_site_fract_z
 _atom_site_occupancy
  Sc  Sc0  1  0.572949  0.001337  0.750238  1
  Sc  Sc1  1  0.998663  0.571612  0.750238  1
  Sc  Sc2  1  0.428388  0.427051  0.750238  1
  Sc  Sc3  1  0.998526  0.571573  0.249764  1
  Sc  Sc4  1  0.573047  0.001474  0.249764  1
  Sc  Sc5  1  0.428427  0.426953  0.249764  1
  Al  Al6  1  0.748968  0.752031  0.999988  1
  Al  Al7  1  0.247969  0.996937  0.999988  1
  Al  Al8  1  0.003063  0.251032  0.999988  1
  Al  Al9  1  0.751868  0.751708  0.500025  1
  Al  Al10  1  0.248292  0.000160  0.500025  1
  Al  Al11  1  0.999840  0.248132  0.500025  1
  Zn  Zn12  1  0.666667  0.333333  0.500080  1
  Zn  Zn13  1  0.333333  0.666667  0.499931  1
  Zn  Zn14  1  0.333333  0.666667  0.000055  1
  Si  Si15  1  0.666667  0.333333  0.999902  1
  Au  Au16  1  0.000000  0.000000  0.752439  1
  Au  Au17  1  0.000000  0.000000  0.247548  1
