# generated using pymatgen
data_Ac2SeO6
_symmetry_space_group_name_H-M   'P 1'
_cell_length_a   4.49525000
_cell_length_b   7.94525465
_cell_length_c   8.79951793
_cell_angle_alpha   106.21647670
_cell_angle_beta   90.00000000
_cell_angle_gamma   106.43271163
_symmetry_Int_Tables_number   1
_chemical_formula_structural   Ac2SeO6
_chemical_formula_sum   'Ac4 Se2 O12'
_cell_volume   288.38479357
_cell_formula_units_Z   2
loop_
 _symmetry_equiv_pos_site_id
 _symmetry_equiv_pos_as_xyz
  1  'x, y, z'
loop_
 _atom_site_type_symbol
 _atom_site_label
 _atom_site_symmetry_multiplicity
 _atom_site_fract_x
 _atom_site_fract_y
 _atom_site_fract_z
 _atom_site_occupancy
  Ac  Ac0  1  0.675120  0.338150  0.584282  1
  Ac  Ac1  1  0.324880  0.661850  0.415718  1
  Ac  Ac2  1  0.336971  0.661850  0.915718  1
  Ac  Ac3  1  0.663029  0.338150  0.084282  1
  Se  Se4  1  0.948703  0.000000  0.750000  1
  Se  Se5  1  0.051297  0.000000  0.250000  1
  O  O6  1  0.766241  0.504094  0.876085  1
  O  O7  1  0.233759  0.495906  0.123915  1
  O  O8  1  0.262147  0.495906  0.623915  1
  O  O9  1  0.737853  0.504094  0.376085  1
  O  O10  1  0.726765  0.997700  0.595321  1
  O  O11  1  0.273235  0.002300  0.404679  1
  O  O12  1  0.729065  0.002300  0.904679  1
  O  O13  1  0.270935  0.997700  0.095321  1
  O  O14  1  0.247770  0.192490  0.796761  1
  O  O15  1  0.752230  0.807510  0.203239  1
  O  O16  1  0.055279  0.807510  0.703239  1
  O  O17  1  0.944721  0.192490  0.296761  1
