# generated using pymatgen
data_Li2HfZr3(PO4)6
_symmetry_space_group_name_H-M   'P 1'
_cell_length_a   9.05290701
_cell_length_b   8.93839023
_cell_length_c   15.33697676
_cell_angle_alpha   55.02464117
_cell_angle_beta   90.04222679
_cell_angle_gamma   89.99648249
_symmetry_Int_Tables_number   1
_chemical_formula_structural   Li2HfZr3(PO4)6
_chemical_formula_sum   'Li4 Hf2 Zr6 P12 O48'
_cell_volume   1016.90920416
_cell_formula_units_Z   2
loop_
 _symmetry_equiv_pos_site_id
 _symmetry_equiv_pos_as_xyz
  1  'x, y, z'
loop_
 _atom_site_type_symbol
 _atom_site_label
 _atom_site_symmetry_multiplicity
 _atom_site_fract_x
 _atom_site_fract_y
 _atom_site_fract_z
 _atom_site_occupancy
  Li  Li0  1  0.224489  0.031914  0.679042  1
  Li  Li1  1  0.724354  0.968366  0.820794  1
  Li  Li2  1  0.775413  0.968369  0.320909  1
  Li  Li3  1  0.276224  0.031311  0.179602  1
  Hf  Hf4  1  0.455165  0.855891  0.390081  1
  Hf  Hf5  1  0.474683  0.630376  0.120463  1
  Zr  Zr6  1  0.974517  0.370638  0.378594  1
  Zr  Zr7  1  0.524823  0.370492  0.878730  1
  Zr  Zr8  1  0.025223  0.629425  0.621255  1
  Zr  Zr9  1  0.045096  0.855481  0.890282  1
  Zr  Zr10  1  0.545013  0.144274  0.609554  1
  Zr  Zr11  1  0.955001  0.144302  0.109957  1
  P  P12  1  0.250673  0.452847  0.012263  1
  P  P13  1  0.748587  0.548366  0.488098  1
  P  P14  1  0.250972  0.454593  0.510787  1
  P  P15  1  0.123036  0.755564  0.146432  1
  P  P16  1  0.619860  0.244950  0.352371  1
  P  P17  1  0.878555  0.244025  0.853500  1
  P  P18  1  0.379168  0.756325  0.645138  1
  P  P19  1  0.402257  0.027831  0.855643  1
  P  P20  1  0.901911  0.970573  0.645283  1
  P  P21  1  0.597230  0.968592  0.146126  1
  P  P22  1  0.099597  0.028914  0.355042  1
  P  P23  1  0.749058  0.547813  0.989049  1
  O  O24  1  0.784920  0.294298  0.332560  1
  O  O25  1  0.646914  0.561197  0.063891  1
  O  O26  1  0.149154  0.441860  0.435428  1
  O  O27  1  0.351754  0.440657  0.936547  1
  O  O28  1  0.850610  0.560956  0.563309  1
  O  O29  1  0.521647  0.406162  0.271379  1
  O  O30  1  0.022937  0.595734  0.226032  1
  O  O31  1  0.478725  0.596038  0.725351  1
  O  O32  1  0.104420  0.201625  0.353816  1
  O  O33  1  0.396559  0.200098  0.854860  1
  O  O34  1  0.896192  0.798453  0.646054  1
  O  O35  1  0.336887  0.484007  0.086535  1
  O  O36  1  0.834316  0.519721  0.412633  1
  O  O37  1  0.664067  0.518011  0.913812  1
  O  O38  1  0.165024  0.482316  0.586490  1
  O  O39  1  0.287467  0.703311  0.166170  1
  O  O40  1  0.978557  0.403851  0.774143  1
  O  O41  1  0.600340  0.796744  0.146251  1
  O  O42  1  0.714147  0.295536  0.832940  1
  O  O43  1  0.214738  0.705092  0.666303  1
  O  O44  1  0.421118  0.818211  0.530947  1
  O  O45  1  0.920841  0.181653  0.967825  1
  O  O46  1  0.577866  0.183914  0.466481  1
  O  O47  1  0.079683  0.818425  0.032223  1
  O  O48  1  0.254310  0.996621  0.322537  1
  O  O49  1  0.752173  0.998906  0.179408  1
  O  O50  1  0.748069  0.001387  0.679146  1
  O  O51  1  0.248310  0.997660  0.821440  1
  O  O52  1  0.361329  0.612653  0.443278  1
  O  O53  1  0.859850  0.390056  0.057273  1
  O  O54  1  0.444438  0.858737  0.965282  1
  O  O55  1  0.139156  0.609310  0.944227  1
  O  O56  1  0.594503  0.080458  0.344514  1
  O  O57  1  0.099897  0.918358  0.155844  1
  O  O58  1  0.402435  0.919169  0.654535  1
  O  O59  1  0.901902  0.081399  0.844134  1
  O  O60  1  0.480687  0.942634  0.229290  1
  O  O61  1  0.981777  0.054149  0.272835  1
  O  O62  1  0.520179  0.053225  0.773706  1
  O  O63  1  0.020279  0.945191  0.727061  1
  O  O64  1  0.662274  0.732822  0.419587  1
  O  O65  1  0.166038  0.267722  0.081702  1
  O  O66  1  0.335519  0.269108  0.580067  1
  O  O67  1  0.834175  0.732556  0.919789  1
  O  O68  1  0.055632  0.860511  0.464040  1
  O  O69  1  0.554204  0.138187  0.037053  1
  O  O70  1  0.944456  0.139630  0.535929  1
  O  O71  1  0.638617  0.390444  0.556348  1
