# generated using pymatgen
data_Ho4Pd15Pb
_symmetry_space_group_name_H-M   'P 1'
_cell_length_a   4.10753300
_cell_length_b   4.10753300
_cell_length_c   20.66486700
_cell_angle_alpha   90.00000000
_cell_angle_beta   90.00000000
_cell_angle_gamma   90.00000000
_symmetry_Int_Tables_number   1
_chemical_formula_structural   Ho4Pd15Pb
_chemical_formula_sum   'Ho4 Pd15 Pb1'
_cell_volume   348.65406815
_cell_formula_units_Z   1
loop_
 _symmetry_equiv_pos_site_id
 _symmetry_equiv_pos_as_xyz
  1  'x, y, z'
loop_
 _atom_site_type_symbol
 _atom_site_label
 _atom_site_symmetry_multiplicity
 _atom_site_fract_x
 _atom_site_fract_y
 _atom_site_fract_z
 _atom_site_occupancy
  Ho  Ho0  1  0.000000  0.000000  0.200468  1
  Ho  Ho1  1  0.000000  0.000000  0.399839  1
  Ho  Ho2  1  0.000000  0.000000  0.600161  1
  Ho  Ho3  1  0.000000  0.000000  0.799532  1
  Pd  Pd4  1  0.500000  0.500000  0.000000  1
  Pd  Pd5  1  0.500000  0.500000  0.198907  1
  Pd  Pd6  1  0.500000  0.500000  0.399274  1
  Pd  Pd7  1  0.500000  0.500000  0.600726  1
  Pd  Pd8  1  0.500000  0.500000  0.801093  1
  Pd  Pd9  1  0.500000  0.000000  0.099480  1
  Pd  Pd10  1  0.500000  0.000000  0.299615  1
  Pd  Pd11  1  0.500000  0.000000  0.500000  1
  Pd  Pd12  1  0.500000  0.000000  0.700385  1
  Pd  Pd13  1  0.500000  0.000000  0.900520  1
  Pd  Pd14  1  0.000000  0.500000  0.099480  1
  Pd  Pd15  1  0.000000  0.500000  0.299615  1
  Pd  Pd16  1  0.000000  0.500000  0.500000  1
  Pd  Pd17  1  0.000000  0.500000  0.700385  1
  Pd  Pd18  1  0.000000  0.500000  0.900520  1
  Pb  Pb19  1  0.000000  0.000000  0.000000  1
