# generated using pymatgen
data_Tb2SmEr17Bi12
_symmetry_space_group_name_H-M   'P 1'
_cell_length_a   8.21018028
_cell_length_b   9.46962100
_cell_length_c   11.96586600
_cell_angle_alpha   90.00000000
_cell_angle_beta   90.01499707
_cell_angle_gamma   90.00000000
_symmetry_Int_Tables_number   1
_chemical_formula_structural   Tb2SmEr17Bi12
_chemical_formula_sum   'Tb2 Sm1 Er17 Bi12'
_cell_volume   930.31368920
_cell_formula_units_Z   1
loop_
 _symmetry_equiv_pos_site_id
 _symmetry_equiv_pos_as_xyz
  1  'x, y, z'
loop_
 _atom_site_type_symbol
 _atom_site_label
 _atom_site_symmetry_multiplicity
 _atom_site_fract_x
 _atom_site_fract_y
 _atom_site_fract_z
 _atom_site_occupancy
  Tb  Tb0  1  0.686108  0.750000  0.781426  1
  Tb  Tb1  1  0.185772  0.750000  0.718439  1
  Sm  Sm2  1  0.814455  0.250000  0.281275  1
  Er  Er3  1  0.353368  0.750000  0.217175  1
  Er  Er4  1  0.853170  0.750000  0.282678  1
  Er  Er5  1  0.646577  0.250000  0.783154  1
  Er  Er6  1  0.147196  0.250000  0.717121  1
  Er  Er7  1  0.692308  0.564820  0.059468  1
  Er  Er8  1  0.191649  0.935108  0.440214  1
  Er  Er9  1  0.307821  0.064892  0.940686  1
  Er  Er10  1  0.808308  0.435010  0.559604  1
  Er  Er11  1  0.307821  0.435108  0.940686  1
  Er  Er12  1  0.808308  0.064990  0.559604  1
  Er  Er13  1  0.692308  0.935180  0.059468  1
  Er  Er14  1  0.191649  0.564892  0.440214  1
  Er  Er15  1  0.475904  0.250000  0.488373  1
  Er  Er16  1  0.976335  0.250000  0.011915  1
  Er  Er17  1  0.523693  0.750000  0.511317  1
  Er  Er18  1  0.024237  0.750000  0.988671  1
  Er  Er19  1  0.312984  0.250000  0.217622  1
  Bi  Bi20  1  0.405005  0.750000  0.959019  1
  Bi  Bi21  1  0.904741  0.750000  0.541003  1
  Bi  Bi22  1  0.593692  0.250000  0.041563  1
  Bi  Bi23  1  0.096971  0.250000  0.459145  1
  Bi  Bi24  1  0.564430  0.994359  0.326224  1
  Bi  Bi25  1  0.067585  0.505287  0.173642  1
  Bi  Bi26  1  0.434013  0.494586  0.673452  1
  Bi  Bi27  1  0.933780  0.005515  0.826758  1
  Bi  Bi28  1  0.434013  0.005414  0.673452  1
  Bi  Bi29  1  0.933780  0.494485  0.826758  1
  Bi  Bi30  1  0.564430  0.505641  0.326224  1
  Bi  Bi31  1  0.067585  0.994713  0.173642  1
