# generated using pymatgen
data_Ho4NbOs5Ru2
_symmetry_space_group_name_H-M   'P 1'
_cell_length_a   5.42658476
_cell_length_b   5.24291357
_cell_length_c   9.10307700
_cell_angle_alpha   90.00000000
_cell_angle_beta   90.00000000
_cell_angle_gamma   121.23011161
_symmetry_Int_Tables_number   1
_chemical_formula_structural   Ho4NbOs5Ru2
_chemical_formula_sum   'Ho4 Nb1 Os5 Ru2'
_cell_volume   221.46254954
_cell_formula_units_Z   1
loop_
 _symmetry_equiv_pos_site_id
 _symmetry_equiv_pos_as_xyz
  1  'x, y, z'
loop_
 _atom_site_type_symbol
 _atom_site_label
 _atom_site_symmetry_multiplicity
 _atom_site_fract_x
 _atom_site_fract_y
 _atom_site_fract_z
 _atom_site_occupancy
  Ho  Ho0  1  0.670393  0.341554  0.561322  1
  Ho  Ho1  1  0.333748  0.667807  0.430734  1
  Ho  Ho2  1  0.333748  0.667807  0.069266  1
  Ho  Ho3  1  0.670393  0.341554  0.938678  1
  Nb  Nb4  1  0.160895  0.322268  0.750000  1
  Os  Os5  1  0.173834  0.826455  0.750000  1
  Os  Os6  1  0.653673  0.826820  0.750000  1
  Os  Os7  1  0.828419  0.657120  0.250000  1
  Os  Os8  1  0.829444  0.170410  0.250000  1
  Os  Os9  1  0.341041  0.170458  0.250000  1
  Ru  Ru10  1  0.002206  0.003874  0.495213  1
  Ru  Ru11  1  0.002206  0.003874  0.004787  1
