# generated using pymatgen
data_Lu4As3S
_symmetry_space_group_name_H-M   'P 1'
_cell_length_a   3.98214243
_cell_length_b   8.90154183
_cell_length_c   10.53162200
_cell_angle_alpha   40.43179033
_cell_angle_beta   124.52480710
_cell_angle_gamma   132.15886084
_symmetry_Int_Tables_number   1
_chemical_formula_structural   Lu4As3S
_chemical_formula_sum   'Lu4 As3 S1'
_cell_volume   178.25812212
_cell_formula_units_Z   1
loop_
 _symmetry_equiv_pos_site_id
 _symmetry_equiv_pos_as_xyz
  1  'x, y, z'
loop_
 _atom_site_type_symbol
 _atom_site_label
 _atom_site_symmetry_multiplicity
 _atom_site_fract_x
 _atom_site_fract_y
 _atom_site_fract_z
 _atom_site_occupancy
  Lu  Lu0  1  0.496758  0.402258  0.275996  1
  Lu  Lu1  1  0.748390  0.654474  0.524969  1
  Lu  Lu2  1  0.245120  0.150309  0.026785  1
  Lu  Lu3  1  0.000214  0.906438  0.774228  1
  As  As4  1  0.873492  0.277056  0.652213  1
  As  As5  1  0.371752  0.779632  0.148757  1
  As  As6  1  0.622559  0.028323  0.400514  1
  S  S7  1  0.122784  0.528400  0.900499  1
