# generated using pymatgen
data_Pr4Tm16Bi7Sb5
_symmetry_space_group_name_H-M   'P 1'
_cell_length_a   8.11354271
_cell_length_b   9.34287438
_cell_length_c   11.84920800
_cell_angle_alpha   90.04893787
_cell_angle_beta   89.92631066
_cell_angle_gamma   89.96278924
_symmetry_Int_Tables_number   1
_chemical_formula_structural   Pr4Tm16Bi7Sb5
_chemical_formula_sum   'Pr4 Tm16 Bi7 Sb5'
_cell_volume   898.21385557
_cell_formula_units_Z   1
loop_
 _symmetry_equiv_pos_site_id
 _symmetry_equiv_pos_as_xyz
  1  'x, y, z'
loop_
 _atom_site_type_symbol
 _atom_site_label
 _atom_site_symmetry_multiplicity
 _atom_site_fract_x
 _atom_site_fract_y
 _atom_site_fract_z
 _atom_site_occupancy
  Pr  Pr0  1  0.320274  0.247354  0.219882  1
  Pr  Pr1  1  0.816945  0.246475  0.281105  1
  Pr  Pr2  1  0.680617  0.750054  0.780604  1
  Pr  Pr3  1  0.181112  0.749987  0.719069  1
  Tm  Tm4  1  0.354649  0.753701  0.217968  1
  Tm  Tm5  1  0.846623  0.753379  0.284135  1
  Tm  Tm6  1  0.649512  0.250183  0.782944  1
  Tm  Tm7  1  0.149715  0.249803  0.716278  1
  Tm  Tm8  1  0.687612  0.563642  0.060261  1
  Tm  Tm9  1  0.189669  0.937420  0.439655  1
  Tm  Tm10  1  0.312536  0.063329  0.940337  1
  Tm  Tm11  1  0.811675  0.436145  0.559085  1
  Tm  Tm12  1  0.312491  0.436261  0.940472  1
  Tm  Tm13  1  0.811311  0.062480  0.557541  1
  Tm  Tm14  1  0.685621  0.937144  0.062375  1
  Tm  Tm15  1  0.188750  0.563481  0.439500  1
  Tm  Tm16  1  0.475347  0.247364  0.485896  1
  Tm  Tm17  1  0.975149  0.250078  0.013219  1
  Tm  Tm18  1  0.525868  0.752374  0.510916  1
  Tm  Tm19  1  0.024668  0.749972  0.987779  1
  Bi  Bi20  1  0.065544  0.510387  0.173075  1
  Bi  Bi21  1  0.434760  0.490226  0.670380  1
  Bi  Bi22  1  0.934097  0.009966  0.828153  1
  Bi  Bi23  1  0.434401  0.009956  0.672129  1
  Bi  Bi24  1  0.934375  0.490045  0.828089  1
  Bi  Bi25  1  0.565644  0.509330  0.328172  1
  Bi  Bi26  1  0.065740  0.989604  0.171704  1
  Sb  Sb27  1  0.402621  0.749785  0.965141  1
  Sb  Sb28  1  0.904136  0.749474  0.534761  1
  Sb  Sb29  1  0.597162  0.250315  0.034739  1
  Sb  Sb30  1  0.096548  0.250222  0.464720  1
  Sb  Sb31  1  0.564828  0.990065  0.329916  1
