# generated using pymatgen
data_NdDy2Th(ReB6)2
_symmetry_space_group_name_H-M   'P 1'
_cell_length_a   3.75645500
_cell_length_b   9.26882394
_cell_length_c   11.71251301
_cell_angle_alpha   89.85008413
_cell_angle_beta   90.00000000
_cell_angle_gamma   90.00000000
_symmetry_Int_Tables_number   1
_chemical_formula_structural   NdDy2Th(ReB6)2
_chemical_formula_sum   'Nd2 Dy4 Th2 Re4 B24'
_cell_volume   407.80394553
_cell_formula_units_Z   2
loop_
 _symmetry_equiv_pos_site_id
 _symmetry_equiv_pos_as_xyz
  1  'x, y, z'
loop_
 _atom_site_type_symbol
 _atom_site_label
 _atom_site_symmetry_multiplicity
 _atom_site_fract_x
 _atom_site_fract_y
 _atom_site_fract_z
 _atom_site_occupancy
  Nd  Nd0  1  0.000000  0.323951  0.414544  1
  Nd  Nd1  1  0.000000  0.676049  0.585456  1
  Dy  Dy2  1  0.000000  0.943057  0.370904  1
  Dy  Dy3  1  0.000000  0.056943  0.629096  1
  Dy  Dy4  1  0.000000  0.443404  0.129886  1
  Dy  Dy5  1  0.000000  0.556596  0.870114  1
  Th  Th6  1  0.000000  0.821971  0.085996  1
  Th  Th7  1  0.000000  0.178029  0.914004  1
  Re  Re8  1  0.000000  0.640606  0.318626  1
  Re  Re9  1  0.000000  0.359394  0.681374  1
  Re  Re10  1  0.000000  0.137532  0.179054  1
  Re  Re11  1  0.000000  0.862468  0.820946  1
  B  B12  1  0.500000  0.555348  0.430691  1
  B  B13  1  0.500000  0.444652  0.569309  1
  B  B14  1  0.500000  0.055648  0.070136  1
  B  B15  1  0.500000  0.944352  0.929864  1
  B  B16  1  0.500000  0.749126  0.416410  1
  B  B17  1  0.500000  0.250874  0.583590  1
  B  B18  1  0.500000  0.249288  0.084230  1
  B  B19  1  0.500000  0.750712  0.915770  1
  B  B20  1  0.500000  0.790881  0.266469  1
  B  B21  1  0.500000  0.209119  0.733531  1
  B  B22  1  0.500000  0.290667  0.233606  1
  B  B23  1  0.500000  0.709333  0.766394  1
  B  B24  1  0.500000  0.630650  0.186659  1
  B  B25  1  0.500000  0.369350  0.813341  1
  B  B26  1  0.500000  0.130123  0.313692  1
  B  B27  1  0.500000  0.869877  0.686308  1
  B  B28  1  0.500000  0.985149  0.213703  1
  B  B29  1  0.500000  0.014851  0.786297  1
  B  B30  1  0.500000  0.485309  0.287039  1
  B  B31  1  0.500000  0.514691  0.712961  1
  B  B32  1  0.500000  0.600989  0.027874  1
  B  B33  1  0.500000  0.399011  0.972126  1
  B  B34  1  0.500000  0.098156  0.472714  1
  B  B35  1  0.500000  0.901844  0.527286  1
