# generated using pymatgen
data_Tb4Al18(PdRh)3
_symmetry_space_group_name_H-M   'P 1'
_cell_length_a   7.61747443
_cell_length_b   7.61747454
_cell_length_c   9.47554182
_cell_angle_alpha   89.97605202
_cell_angle_beta   89.97605030
_cell_angle_gamma   119.55568802
_symmetry_Int_Tables_number   1
_chemical_formula_structural   Tb4Al18(PdRh)3
_chemical_formula_sum   'Tb4 Al18 Pd3 Rh3'
_cell_volume   478.28152750
_cell_formula_units_Z   1
loop_
 _symmetry_equiv_pos_site_id
 _symmetry_equiv_pos_as_xyz
  1  'x, y, z'
loop_
 _atom_site_type_symbol
 _atom_site_label
 _atom_site_symmetry_multiplicity
 _atom_site_fract_x
 _atom_site_fract_y
 _atom_site_fract_z
 _atom_site_occupancy
  Tb  Tb0  1  0.994762  0.670717  0.250301  1
  Tb  Tb1  1  0.005238  0.329283  0.749699  1
  Tb  Tb2  1  0.670717  0.994762  0.250301  1
  Tb  Tb3  1  0.329283  0.005238  0.749699  1
  Al  Al4  1  0.129420  0.129420  0.254193  1
  Al  Al5  1  0.870580  0.870580  0.745807  1
  Al  Al6  1  0.001948  0.334994  0.078730  1
  Al  Al7  1  0.998052  0.665006  0.921270  1
  Al  Al8  1  0.001058  0.665139  0.573058  1
  Al  Al9  1  0.334861  0.998942  0.426942  1
  Al  Al10  1  0.998942  0.334861  0.426942  1
  Al  Al11  1  0.665139  0.001058  0.573058  1
  Al  Al12  1  0.665006  0.998052  0.921270  1
  Al  Al13  1  0.334994  0.001948  0.078730  1
  Al  Al14  1  0.331869  0.331869  0.548362  1
  Al  Al15  1  0.668131  0.668131  0.451638  1
  Al  Al16  1  0.665342  0.665342  0.057015  1
  Al  Al17  1  0.334658  0.334658  0.942985  1
  Al  Al18  1  0.340338  0.548422  0.254630  1
  Al  Al19  1  0.659662  0.451578  0.745370  1
  Al  Al20  1  0.548422  0.340338  0.254630  1
  Al  Al21  1  0.451578  0.659662  0.745370  1
  Pd  Pd22  1  0.672242  0.327758  0.000000  1
  Pd  Pd23  1  0.327758  0.672242  0.000000  1
  Pd  Pd24  1  0.000000  0.000000  0.000000  1
  Rh  Rh25  1  0.328050  0.671950  0.500000  1
  Rh  Rh26  1  0.671950  0.328050  0.500000  1
  Rh  Rh27  1  0.000000  0.000000  0.500000  1
