# generated using pymatgen
data_Pa2HgPt2
_symmetry_space_group_name_H-M   'P 1'
_cell_length_a   7.86506701
_cell_length_b   7.86506701
_cell_length_c   3.63036200
_cell_angle_alpha   90.00000000
_cell_angle_beta   90.00000000
_cell_angle_gamma   90.00434177
_symmetry_Int_Tables_number   1
_chemical_formula_structural   Pa2HgPt2
_chemical_formula_sum   'Pa4 Hg2 Pt4'
_cell_volume   224.57157520
_cell_formula_units_Z   2
loop_
 _symmetry_equiv_pos_site_id
 _symmetry_equiv_pos_as_xyz
  1  'x, y, z'
loop_
 _atom_site_type_symbol
 _atom_site_label
 _atom_site_symmetry_multiplicity
 _atom_site_fract_x
 _atom_site_fract_y
 _atom_site_fract_z
 _atom_site_occupancy
  Pa  Pa0  1  0.327387  0.172613  0.499999  1
  Pa  Pa1  1  0.827339  0.327392  0.499999  1
  Pa  Pa2  1  0.172608  0.672661  0.499999  1
  Pa  Pa3  1  0.672610  0.827390  0.499999  1
  Hg  Hg4  1  0.000021  0.999997  0.000000  1
  Hg  Hg5  1  0.500003  0.499979  0.000000  1
  Pt  Pt6  1  0.629727  0.129717  0.000000  1
  Pt  Pt7  1  0.129736  0.370264  0.000000  1
  Pt  Pt8  1  0.870286  0.629714  0.000000  1
  Pt  Pt9  1  0.370283  0.870273  0.000000  1
