# generated using pymatgen
data_EuMgV2F10
_symmetry_space_group_name_H-M   'P 1'
_cell_length_a   10.49910102
_cell_length_b   9.06756955
_cell_length_c   7.58595400
_cell_angle_alpha   77.60223536
_cell_angle_beta   57.51288109
_cell_angle_gamma   44.88488633
_symmetry_Int_Tables_number   1
_chemical_formula_structural   EuMgV2F10
_chemical_formula_sum   'Eu2 Mg2 V4 F20'
_cell_volume   412.86300919
_cell_formula_units_Z   2
loop_
 _symmetry_equiv_pos_site_id
 _symmetry_equiv_pos_as_xyz
  1  'x, y, z'
loop_
 _atom_site_type_symbol
 _atom_site_label
 _atom_site_symmetry_multiplicity
 _atom_site_fract_x
 _atom_site_fract_y
 _atom_site_fract_z
 _atom_site_occupancy
  Eu  Eu0  1  0.005841  0.994159  0.994159  1
  Eu  Eu1  1  0.255841  0.244159  0.244159  1
  Mg  Mg2  1  0.505431  0.494569  0.494569  1
  Mg  Mg3  1  0.755431  0.744569  0.744569  1
  V  V4  1  0.264751  0.251819  0.735125  1
  V  V5  1  0.748305  0.735125  0.251819  1
  V  V6  1  0.514875  0.501695  0.985249  1
  V  V7  1  0.998181  0.985249  0.501695  1
  F  F8  1  0.151282  0.130066  0.845961  1
  F  F9  1  0.872693  0.845961  0.130066  1
  F  F10  1  0.404039  0.377307  0.098718  1
  F  F11  1  0.119934  0.098718  0.377307  1
  F  F12  1  0.811351  0.193951  0.792400  1
  F  F13  1  0.202298  0.792400  0.193951  1
  F  F14  1  0.457600  0.047702  0.438649  1
  F  F15  1  0.056049  0.438649  0.047702  1
  F  F16  1  0.849347  0.640528  0.448710  1
  F  F17  1  0.061415  0.448710  0.640528  1
  F  F18  1  0.801290  0.188585  0.400653  1
  F  F19  1  0.609472  0.400653  0.188585  1
  F  F20  1  0.626606  0.620529  0.372573  1
  F  F21  1  0.380293  0.372573  0.620529  1
  F  F22  1  0.877427  0.869707  0.623394  1
  F  F23  1  0.629471  0.623394  0.869707  1
  F  F24  1  0.460458  0.049897  0.836908  1
  F  F25  1  0.652738  0.836908  0.049897  1
  F  F26  1  0.413092  0.597262  0.789542  1
  F  F27  1  0.200103  0.789542  0.597262  1
