# generated using pymatgen
data_Pr4ErCoIrO12
_symmetry_space_group_name_H-M   'P 1'
_cell_length_a   7.02567216
_cell_length_b   7.02376264
_cell_length_c   7.53790400
_cell_angle_alpha   74.12578787
_cell_angle_beta   74.15680253
_cell_angle_gamma   50.78865787
_symmetry_Int_Tables_number   1
_chemical_formula_structural   Pr4ErCoIrO12
_chemical_formula_sum   'Pr4 Er1 Co1 Ir1 O12'
_cell_volume   274.70754220
_cell_formula_units_Z   1
loop_
 _symmetry_equiv_pos_site_id
 _symmetry_equiv_pos_as_xyz
  1  'x, y, z'
loop_
 _atom_site_type_symbol
 _atom_site_label
 _atom_site_symmetry_multiplicity
 _atom_site_fract_x
 _atom_site_fract_y
 _atom_site_fract_z
 _atom_site_occupancy
  Pr  Pr0  1  0.710755  0.678691  0.639641  1
  Pr  Pr1  1  0.695955  0.689804  0.165814  1
  Pr  Pr2  1  0.310253  0.304309  0.831711  1
  Pr  Pr3  1  0.005163  0.997494  0.497682  1
  Er  Er4  1  0.323065  0.289061  0.355233  1
  Co  Co5  1  0.741700  0.255306  0.003603  1
  Ir  Ir6  1  0.232749  0.764130  0.003751  1
  O  O7  1  0.111883  0.588074  0.562301  1
  O  O8  1  0.984024  0.015105  0.165761  1
  O  O9  1  0.402646  0.908071  0.424200  1
  O  O10  1  0.494915  0.498955  0.177600  1
  O  O11  1  0.108240  0.576329  0.087580  1
  O  O12  1  0.926951  0.395007  0.416782  1
  O  O13  1  0.981108  0.013056  0.836573  1
  O  O14  1  0.594665  0.094500  0.567261  1
  O  O15  1  0.495280  0.502257  0.833336  1
  O  O16  1  0.566584  0.108805  0.089588  1
  O  O17  1  0.415658  0.896098  0.920922  1
  O  O18  1  0.898409  0.424945  0.920662  1
