# generated using pymatgen
data_Ag2GeTeO6
_symmetry_space_group_name_H-M   'P 1'
_cell_length_a   5.20939400
_cell_length_b   5.20939303
_cell_length_c   11.44803500
_cell_angle_alpha   90.00000000
_cell_angle_beta   90.00000000
_cell_angle_gamma   119.99999346
_symmetry_Int_Tables_number   1
_chemical_formula_structural   Ag2GeTeO6
_chemical_formula_sum   'Ag4 Ge2 Te2 O12'
_cell_volume   269.05182299
_cell_formula_units_Z   2
loop_
 _symmetry_equiv_pos_site_id
 _symmetry_equiv_pos_as_xyz
  1  'x, y, z'
loop_
 _atom_site_type_symbol
 _atom_site_label
 _atom_site_symmetry_multiplicity
 _atom_site_fract_x
 _atom_site_fract_y
 _atom_site_fract_z
 _atom_site_occupancy
  Ag  Ag0  1  0.666667  0.333333  0.960412  1
  Ag  Ag1  1  0.666667  0.333333  0.539588  1
  Ag  Ag2  1  0.333333  0.666667  0.460412  1
  Ag  Ag3  1  0.333333  0.666667  0.039588  1
  Ge  Ge4  1  0.333333  0.666667  0.750000  1
  Ge  Ge5  1  0.666667  0.333333  0.250000  1
  Te  Te6  1  0.000000  0.000000  0.250000  1
  Te  Te7  1  0.000000  0.000000  0.750000  1
  O  O8  1  0.944680  0.660407  0.153798  1
  O  O9  1  0.339593  0.284274  0.153798  1
  O  O10  1  0.715726  0.055320  0.153798  1
  O  O11  1  0.339593  0.055320  0.346202  1
  O  O12  1  0.715726  0.660407  0.346202  1
  O  O13  1  0.944680  0.284274  0.346202  1
  O  O14  1  0.055320  0.339593  0.846202  1
  O  O15  1  0.660407  0.715726  0.846202  1
  O  O16  1  0.055320  0.715726  0.653798  1
  O  O17  1  0.284274  0.339593  0.653798  1
  O  O18  1  0.660407  0.944680  0.653798  1
  O  O19  1  0.284274  0.944680  0.846202  1
