# generated using pymatgen
data_Pr3NdMg(FeO4)3
_symmetry_space_group_name_H-M   'P 1'
_cell_length_a   5.52333370
_cell_length_b   5.67143459
_cell_length_c   7.84613803
_cell_angle_alpha   89.76103412
_cell_angle_beta   90.17300590
_cell_angle_gamma   89.99353949
_symmetry_Int_Tables_number   1
_chemical_formula_structural   Pr3NdMg(FeO4)3
_chemical_formula_sum   'Pr3 Nd1 Mg1 Fe3 O12'
_cell_volume   245.77878546
_cell_formula_units_Z   1
loop_
 _symmetry_equiv_pos_site_id
 _symmetry_equiv_pos_as_xyz
  1  'x, y, z'
loop_
 _atom_site_type_symbol
 _atom_site_label
 _atom_site_symmetry_multiplicity
 _atom_site_fract_x
 _atom_site_fract_y
 _atom_site_fract_z
 _atom_site_occupancy
  Pr  Pr0  1  0.510595  0.549142  0.255702  1
  Pr  Pr1  1  0.489861  0.451025  0.744288  1
  Pr  Pr2  1  0.984941  0.051941  0.256343  1
  Nd  Nd3  1  0.015728  0.945582  0.743333  1
  Mg  Mg4  1  0.999960  0.499779  0.500333  1
  Fe  Fe5  1  0.500021  0.000008  0.500765  1
  Fe  Fe6  1  0.500033  0.000015  0.999308  1
  Fe  Fe7  1  0.999830  0.499969  0.999469  1
  O  O8  1  0.700658  0.291482  0.456283  1
  O  O9  1  0.209961  0.199158  0.544195  1
  O  O10  1  0.785540  0.790834  0.050522  1
  O  O11  1  0.289369  0.712931  0.950231  1
  O  O12  1  0.297964  0.709680  0.544342  1
  O  O13  1  0.788997  0.799500  0.458086  1
  O  O14  1  0.212796  0.207541  0.947848  1
  O  O15  1  0.709206  0.288434  0.048832  1
  O  O16  1  0.085331  0.476831  0.240786  1
  O  O17  1  0.592148  0.022366  0.753815  1
  O  O18  1  0.412134  0.978155  0.246305  1
  O  O19  1  0.914929  0.525627  0.759216  1
