# generated using pymatgen
data_Th2BeGaI2
_symmetry_space_group_name_H-M   'P 1'
_cell_length_a   4.10258600
_cell_length_b   4.10258540
_cell_length_c   12.72859900
_cell_angle_alpha   90.00000000
_cell_angle_beta   90.00000000
_cell_angle_gamma   120.00000487
_symmetry_Int_Tables_number   1
_chemical_formula_structural   Th2BeGaI2
_chemical_formula_sum   'Th2 Be1 Ga1 I2'
_cell_volume   185.53529477
_cell_formula_units_Z   1
loop_
 _symmetry_equiv_pos_site_id
 _symmetry_equiv_pos_as_xyz
  1  'x, y, z'
loop_
 _atom_site_type_symbol
 _atom_site_label
 _atom_site_symmetry_multiplicity
 _atom_site_fract_x
 _atom_site_fract_y
 _atom_site_fract_z
 _atom_site_occupancy
  Th  Th0  1  0.000000  0.000000  0.842433  1
  Th  Th1  1  0.000000  0.000000  0.159230  1
  Be  Be2  1  0.333333  0.666667  0.992444  1
  Ga  Ga3  1  0.666667  0.333333  0.005111  1
  I  I4  1  0.666667  0.333333  0.665123  1
  I  I5  1  0.333333  0.666667  0.335659  1
