# generated using pymatgen
data_Ho5In4PdAu
_symmetry_space_group_name_H-M   'P 1'
_cell_length_a   3.64406200
_cell_length_b   8.15491807
_cell_length_c   18.30961915
_cell_angle_alpha   90.01467249
_cell_angle_beta   90.00000000
_cell_angle_gamma   90.00000000
_symmetry_Int_Tables_number   1
_chemical_formula_structural   Ho5In4PdAu
_chemical_formula_sum   'Ho10 In8 Pd2 Au2'
_cell_volume   544.10742954
_cell_formula_units_Z   2
loop_
 _symmetry_equiv_pos_site_id
 _symmetry_equiv_pos_as_xyz
  1  'x, y, z'
loop_
 _atom_site_type_symbol
 _atom_site_label
 _atom_site_symmetry_multiplicity
 _atom_site_fract_x
 _atom_site_fract_y
 _atom_site_fract_z
 _atom_site_occupancy
  Ho  Ho0  1  0.000000  0.500000  0.500000  1
  Ho  Ho1  1  0.000000  0.000000  0.000000  1
  Ho  Ho2  1  0.000000  0.745248  0.281998  1
  Ho  Ho3  1  0.000000  0.254752  0.718002  1
  Ho  Ho4  1  0.000000  0.766645  0.779228  1
  Ho  Ho5  1  0.000000  0.233355  0.220772  1
  Ho  Ho6  1  0.000000  0.617419  0.079861  1
  Ho  Ho7  1  0.000000  0.382581  0.920139  1
  Ho  Ho8  1  0.000000  0.886127  0.582620  1
  Ho  Ho9  1  0.000000  0.113873  0.417380  1
  In  In10  1  0.500000  0.713519  0.932266  1
  In  In11  1  0.500000  0.286481  0.067734  1
  In  In12  1  0.500000  0.788543  0.431686  1
  In  In13  1  0.500000  0.211457  0.568314  1
  In  In14  1  0.500000  0.582851  0.647520  1
  In  In15  1  0.500000  0.417149  0.352480  1
  In  In16  1  0.500000  0.920971  0.148539  1
  In  In17  1  0.500000  0.079029  0.851461  1
  Pd  Pd18  1  0.500000  0.974951  0.696228  1
  Pd  Pd19  1  0.500000  0.025049  0.303772  1
  Au  Au20  1  0.500000  0.526227  0.196782  1
  Au  Au21  1  0.500000  0.473773  0.803218  1
