# generated using pymatgen
data_Rb3Y2(PS4)3
_symmetry_space_group_name_H-M   'P 1'
_cell_length_a   6.79974500
_cell_length_b   18.08120037
_cell_length_c   18.79961700
_cell_angle_alpha   81.53546847
_cell_angle_beta   90.00000000
_cell_angle_gamma   90.00000000
_symmetry_Int_Tables_number   1
_chemical_formula_structural   Rb3Y2(PS4)3
_chemical_formula_sum   'Rb12 Y8 P12 S48'
_cell_volume   2286.18956775
_cell_formula_units_Z   4
loop_
 _symmetry_equiv_pos_site_id
 _symmetry_equiv_pos_as_xyz
  1  'x, y, z'
loop_
 _atom_site_type_symbol
 _atom_site_label
 _atom_site_symmetry_multiplicity
 _atom_site_fract_x
 _atom_site_fract_y
 _atom_site_fract_z
 _atom_site_occupancy
  Rb  Rb0  1  0.728695  0.878941  0.988717  1
  Rb  Rb1  1  0.228695  0.121059  0.511283  1
  Rb  Rb2  1  0.271305  0.121059  0.011283  1
  Rb  Rb3  1  0.771305  0.878941  0.488717  1
  Rb  Rb4  1  0.756362  0.622333  0.307321  1
  Rb  Rb5  1  0.256362  0.377667  0.192679  1
  Rb  Rb6  1  0.243638  0.377667  0.692679  1
  Rb  Rb7  1  0.743638  0.622333  0.807321  1
  Rb  Rb8  1  0.276299  0.768342  0.634505  1
  Rb  Rb9  1  0.776299  0.231658  0.865495  1
  Rb  Rb10  1  0.723701  0.231658  0.365495  1
  Rb  Rb11  1  0.223701  0.768342  0.134505  1
  Y  Y12  1  0.228600  0.939312  0.787535  1
  Y  Y13  1  0.728600  0.060688  0.712465  1
  Y  Y14  1  0.771400  0.060688  0.212465  1
  Y  Y15  1  0.271400  0.939312  0.287535  1
  Y  Y16  1  0.308588  0.599662  0.509788  1
  Y  Y17  1  0.808588  0.400338  0.990212  1
  Y  Y18  1  0.691412  0.400338  0.490212  1
  Y  Y19  1  0.191412  0.599662  0.009788  1
  P  P20  1  0.781996  0.883130  0.703886  1
  P  P21  1  0.281996  0.116870  0.796114  1
  P  P22  1  0.218004  0.116870  0.296114  1
  P  P23  1  0.718004  0.883130  0.203886  1
  P  P24  1  0.258149  0.780721  0.417863  1
  P  P25  1  0.758149  0.219279  0.082137  1
  P  P26  1  0.741851  0.219279  0.582137  1
  P  P27  1  0.241851  0.780721  0.917863  1
  P  P28  1  0.758446  0.537894  0.599006  1
  P  P29  1  0.258446  0.462106  0.900994  1
  P  P30  1  0.241554  0.462106  0.400994  1
  P  P31  1  0.741554  0.537894  0.099006  1
  S  S32  1  0.826114  0.893664  0.809484  1
  S  S33  1  0.326114  0.106336  0.690516  1
  S  S34  1  0.173886  0.106336  0.190516  1
  S  S35  1  0.673886  0.893664  0.309484  1
  S  S36  1  0.787858  0.782901  0.671155  1
  S  S37  1  0.287858  0.217099  0.828845  1
  S  S38  1  0.212142  0.217099  0.328845  1
  S  S39  1  0.712142  0.782901  0.171155  1
  S  S40  1  0.229847  0.890297  0.937516  1
  S  S41  1  0.729847  0.109703  0.562484  1
  S  S42  1  0.770153  0.109703  0.062484  1
  S  S43  1  0.270153  0.890297  0.437516  1
  S  S44  1  0.001614  0.955904  0.656474  1
  S  S45  1  0.501614  0.044096  0.843526  1
  S  S46  1  0.998386  0.044096  0.343526  1
  S  S47  1  0.498386  0.955904  0.156474  1
  S  S48  1  0.516421  0.725777  0.445685  1
  S  S49  1  0.016421  0.274223  0.054315  1
  S  S50  1  0.483579  0.274223  0.554315  1
  S  S51  1  0.983579  0.725777  0.945685  1
  S  S52  1  0.187084  0.788767  0.310283  1
  S  S53  1  0.687084  0.211233  0.189717  1
  S  S54  1  0.812916  0.211233  0.689717  1
  S  S55  1  0.312916  0.788767  0.810283  1
  S  S56  1  0.518190  0.586320  0.640928  1
  S  S57  1  0.018190  0.413680  0.859072  1
  S  S58  1  0.481810  0.413680  0.359072  1
  S  S59  1  0.981810  0.586320  0.140928  1
  S  S60  1  0.253688  0.575840  0.369520  1
  S  S61  1  0.753688  0.424160  0.130480  1
  S  S62  1  0.746312  0.424160  0.630480  1
  S  S63  1  0.246312  0.575840  0.869520  1
  S  S64  1  0.050088  0.721085  0.481201  1
  S  S65  1  0.550088  0.278915  0.018799  1
  S  S66  1  0.949912  0.278915  0.518799  1
  S  S67  1  0.449912  0.721085  0.981201  1
  S  S68  1  0.720741  0.555381  0.488098  1
  S  S69  1  0.220741  0.444619  0.011902  1
  S  S70  1  0.279259  0.444619  0.511902  1
  S  S71  1  0.779259  0.555381  0.988098  1
  S  S72  1  0.022167  0.577428  0.629284  1
  S  S73  1  0.522167  0.422572  0.870716  1
  S  S74  1  0.977833  0.422572  0.370716  1
  S  S75  1  0.477833  0.577428  0.129284  1
  S  S76  1  0.518491  0.938553  0.672136  1
  S  S77  1  0.018491  0.061447  0.827864  1
  S  S78  1  0.481509  0.061447  0.327864  1
  S  S79  1  0.981509  0.938553  0.172136  1
