# generated using pymatgen
data_Eu6Zr2ReH27
_symmetry_space_group_name_H-M   'P 1'
_cell_length_a   8.82101900
_cell_length_b   8.82101878
_cell_length_c   5.12445400
_cell_angle_alpha   90.00000000
_cell_angle_beta   90.00000000
_cell_angle_gamma   120.00000457
_symmetry_Int_Tables_number   1
_chemical_formula_structural   Eu6Zr2ReH27
_chemical_formula_sum   'Eu6 Zr2 Re1 H27'
_cell_volume   345.31521554
_cell_formula_units_Z   1
loop_
 _symmetry_equiv_pos_site_id
 _symmetry_equiv_pos_as_xyz
  1  'x, y, z'
loop_
 _atom_site_type_symbol
 _atom_site_label
 _atom_site_symmetry_multiplicity
 _atom_site_fract_x
 _atom_site_fract_y
 _atom_site_fract_z
 _atom_site_occupancy
  Eu  Eu0  1  0.996273  0.256873  0.500000  1
  Eu  Eu1  1  0.743127  0.739400  0.500000  1
  Eu  Eu2  1  0.260600  0.003727  0.500000  1
  Eu  Eu3  1  0.961620  0.591424  0.000000  1
  Eu  Eu4  1  0.408576  0.370196  0.000000  1
  Eu  Eu5  1  0.629804  0.038380  0.000000  1
  Zr  Zr6  1  0.666667  0.333333  0.500000  1
  Zr  Zr7  1  0.000000  0.000000  0.000000  1
  Re  Re8  1  0.333333  0.666667  0.500000  1
  H  H9  1  0.822199  0.325457  0.774240  1
  H  H10  1  0.674543  0.496738  0.774240  1
  H  H11  1  0.503262  0.177801  0.774240  1
  H  H12  1  0.197139  0.531910  0.256534  1
  H  H13  1  0.503262  0.177801  0.225760  1
  H  H14  1  0.822199  0.325457  0.225760  1
  H  H15  1  0.674543  0.496738  0.225760  1
  H  H16  1  0.334770  0.802861  0.743466  1
  H  H17  1  0.468090  0.665230  0.743466  1
  H  H18  1  0.229886  0.002123  0.000000  1
  H  H19  1  0.772237  0.770114  0.000000  1
  H  H20  1  0.997877  0.227763  0.000000  1
  H  H21  1  0.835341  0.999655  0.264606  1
  H  H22  1  0.164313  0.164659  0.735394  1
  H  H23  1  0.000345  0.835687  0.735394  1
  H  H24  1  0.000345  0.835687  0.264606  1
  H  H25  1  0.164313  0.164659  0.264606  1
  H  H26  1  0.835341  0.999655  0.735394  1
  H  H27  1  0.142288  0.668484  0.500000  1
  H  H28  1  0.526197  0.857712  0.500000  1
  H  H29  1  0.331516  0.473803  0.500000  1
  H  H30  1  0.436201  0.321014  0.500000  1
  H  H31  1  0.884812  0.563799  0.500000  1
  H  H32  1  0.678986  0.115188  0.500000  1
  H  H33  1  0.197139  0.531910  0.743466  1
  H  H34  1  0.334770  0.802861  0.256534  1
  H  H35  1  0.468090  0.665230  0.256534  1
