# generated using pymatgen
data_Sc6Zn21Co2P
_symmetry_space_group_name_H-M   'P 1'
_cell_length_a   8.78655462
_cell_length_b   8.73508237
_cell_length_c   8.73508300
_cell_angle_alpha   59.92992475
_cell_angle_beta   59.80489074
_cell_angle_gamma   59.80488886
_symmetry_Int_Tables_number   1
_chemical_formula_structural   Sc6Zn21Co2P
_chemical_formula_sum   'Sc6 Zn21 Co2 P1'
_cell_volume   472.41252684
_cell_formula_units_Z   1
loop_
 _symmetry_equiv_pos_site_id
 _symmetry_equiv_pos_as_xyz
  1  'x, y, z'
loop_
 _atom_site_type_symbol
 _atom_site_label
 _atom_site_symmetry_multiplicity
 _atom_site_fract_x
 _atom_site_fract_y
 _atom_site_fract_z
 _atom_site_occupancy
  Sc  Sc0  1  0.711707  0.288293  0.288293  1
  Sc  Sc1  1  0.288293  0.711707  0.711707  1
  Sc  Sc2  1  0.288855  0.704488  0.295512  1
  Sc  Sc3  1  0.711145  0.295512  0.704488  1
  Sc  Sc4  1  0.288855  0.295512  0.704488  1
  Sc  Sc5  1  0.711145  0.704488  0.295512  1
  Zn  Zn6  1  0.117052  0.116864  0.116864  1
  Zn  Zn7  1  0.882948  0.883136  0.883136  1
  Zn  Zn8  1  0.112182  0.130158  0.645478  1
  Zn  Zn9  1  0.112182  0.645478  0.130158  1
  Zn  Zn10  1  0.887818  0.869842  0.354522  1
  Zn  Zn11  1  0.887818  0.354522  0.869842  1
  Zn  Zn12  1  0.649223  0.116864  0.116864  1
  Zn  Zn13  1  0.350777  0.883136  0.883136  1
  Zn  Zn14  1  0.500000  0.000000  0.000000  1
  Zn  Zn15  1  0.000000  0.500000  0.000000  1
  Zn  Zn16  1  0.500000  0.000000  0.500000  1
  Zn  Zn17  1  0.000000  0.000000  0.500000  1
  Zn  Zn18  1  0.500000  0.500000  0.000000  1
  Zn  Zn19  1  0.324505  0.336493  0.336493  1
  Zn  Zn20  1  0.675495  0.663507  0.663507  1
  Zn  Zn21  1  0.333929  0.333722  0.998419  1
  Zn  Zn22  1  0.333929  0.998419  0.333722  1
  Zn  Zn23  1  0.666071  0.666278  0.001581  1
  Zn  Zn24  1  0.666071  0.001581  0.666278  1
  Zn  Zn25  1  0.002511  0.336493  0.336493  1
  Zn  Zn26  1  0.997489  0.663507  0.663507  1
  Co  Co27  1  0.000000  0.500000  0.500000  1
  Co  Co28  1  0.000000  0.000000  0.000000  1
  P  P29  1  0.500000  0.500000  0.500000  1
