# generated using pymatgen
data_Tm2HfGaIr2
_symmetry_space_group_name_H-M   'P 1'
_cell_length_a   4.43757100
_cell_length_b   6.87174482
_cell_length_c   7.97945440
_cell_angle_alpha   88.70623573
_cell_angle_beta   90.00000000
_cell_angle_gamma   90.00000000
_symmetry_Int_Tables_number   1
_chemical_formula_structural   Tm2HfGaIr2
_chemical_formula_sum   'Tm4 Hf2 Ga2 Ir4'
_cell_volume   243.26229959
_cell_formula_units_Z   2
loop_
 _symmetry_equiv_pos_site_id
 _symmetry_equiv_pos_as_xyz
  1  'x, y, z'
loop_
 _atom_site_type_symbol
 _atom_site_label
 _atom_site_symmetry_multiplicity
 _atom_site_fract_x
 _atom_site_fract_y
 _atom_site_fract_z
 _atom_site_occupancy
  Tm  Tm0  1  0.250000  0.523037  0.164434  1
  Tm  Tm1  1  0.750000  0.476963  0.835566  1
  Tm  Tm2  1  0.750000  0.976829  0.702033  1
  Tm  Tm3  1  0.250000  0.023171  0.297967  1
  Hf  Hf4  1  0.250000  0.642212  0.576188  1
  Hf  Hf5  1  0.750000  0.357788  0.423812  1
  Ga  Ga6  1  0.750000  0.842615  0.072953  1
  Ga  Ga7  1  0.250000  0.157385  0.927047  1
  Ir  Ir8  1  0.250000  0.775415  0.888137  1
  Ir  Ir9  1  0.750000  0.224585  0.111863  1
  Ir  Ir10  1  0.750000  0.739798  0.397656  1
  Ir  Ir11  1  0.250000  0.260202  0.602344  1
