# generated using pymatgen
data_HfSc3Si6IrRh6
_symmetry_space_group_name_H-M   'P 1'
_cell_length_a   6.97472788
_cell_length_b   6.95016675
_cell_length_c   6.97472848
_cell_angle_alpha   109.39990239
_cell_angle_beta   109.54244630
_cell_angle_gamma   109.39990306
_symmetry_Int_Tables_number   1
_chemical_formula_structural   HfSc3Si6IrRh6
_chemical_formula_sum   'Hf1 Sc3 Si6 Ir1 Rh6'
_cell_volume   260.50099582
_cell_formula_units_Z   1
loop_
 _symmetry_equiv_pos_site_id
 _symmetry_equiv_pos_as_xyz
  1  'x, y, z'
loop_
 _atom_site_type_symbol
 _atom_site_label
 _atom_site_symmetry_multiplicity
 _atom_site_fract_x
 _atom_site_fract_y
 _atom_site_fract_z
 _atom_site_occupancy
  Hf  Hf0  1  0.000000  0.500000  0.000000  1
  Sc  Sc1  1  0.000000  0.000000  0.500000  1
  Sc  Sc2  1  0.500000  0.000000  0.000000  1
  Sc  Sc3  1  0.500000  0.500000  0.500000  1
  Si  Si4  1  0.680032  0.682531  0.000000  1
  Si  Si5  1  0.319968  0.002498  0.319968  1
  Si  Si6  1  0.000000  0.317469  0.319968  1
  Si  Si7  1  0.319968  0.317469  0.000000  1
  Si  Si8  1  0.680032  0.997502  0.680032  1
  Si  Si9  1  0.000000  0.682531  0.680032  1
  Ir  Ir10  1  0.000000  0.000000  0.000000  1
  Rh  Rh11  1  0.750725  0.250725  0.501451  1
  Rh  Rh12  1  0.750725  0.500000  0.249275  1
  Rh  Rh13  1  0.501451  0.250725  0.750725  1
  Rh  Rh14  1  0.249275  0.500000  0.750725  1
  Rh  Rh15  1  0.249275  0.749275  0.498549  1
  Rh  Rh16  1  0.498549  0.749275  0.249275  1
