# generated using pymatgen
data_SmZr2PdF15
_symmetry_space_group_name_H-M   'P 1'
_cell_length_a   8.25694390
_cell_length_b   8.25694385
_cell_length_c   8.22192012
_cell_angle_alpha   78.82353950
_cell_angle_beta   78.82353356
_cell_angle_gamma   98.39628484
_symmetry_Int_Tables_number   1
_chemical_formula_structural   SmZr2PdF15
_chemical_formula_sum   'Sm2 Zr4 Pd2 F30'
_cell_volume   529.58040352
_cell_formula_units_Z   2
loop_
 _symmetry_equiv_pos_site_id
 _symmetry_equiv_pos_as_xyz
  1  'x, y, z'
loop_
 _atom_site_type_symbol
 _atom_site_label
 _atom_site_symmetry_multiplicity
 _atom_site_fract_x
 _atom_site_fract_y
 _atom_site_fract_z
 _atom_site_occupancy
  Sm  Sm0  1  0.178444  0.821556  0.250000  1
  Sm  Sm1  1  0.821556  0.178444  0.750000  1
  Zr  Zr2  1  0.734046  0.680292  0.665918  1
  Zr  Zr3  1  0.319708  0.265954  0.834082  1
  Zr  Zr4  1  0.265954  0.319708  0.334082  1
  Zr  Zr5  1  0.680292  0.734046  0.165918  1
  Pd  Pd6  1  0.748689  0.251311  0.250000  1
  Pd  Pd7  1  0.251311  0.748689  0.750000  1
  F  F8  1  0.312270  0.351169  0.063402  1
  F  F9  1  0.929377  0.805906  0.156871  1
  F  F10  1  0.834728  0.466590  0.690208  1
  F  F11  1  0.466590  0.834728  0.190208  1
  F  F12  1  0.805906  0.929377  0.656871  1
  F  F13  1  0.351169  0.312270  0.563401  1
  F  F14  1  0.687730  0.648831  0.936598  1
  F  F15  1  0.070623  0.194094  0.843129  1
  F  F16  1  0.165272  0.533410  0.309792  1
  F  F17  1  0.533410  0.165272  0.809792  1
  F  F18  1  0.194094  0.070623  0.343129  1
  F  F19  1  0.648831  0.687730  0.436598  1
  F  F20  1  0.764739  0.279243  0.005952  1
  F  F21  1  0.989725  0.273044  0.207223  1
  F  F22  1  0.787097  0.501558  0.215856  1
  F  F23  1  0.501558  0.787097  0.715856  1
  F  F24  1  0.273044  0.989725  0.707223  1
  F  F25  1  0.279243  0.764739  0.505952  1
  F  F26  1  0.235261  0.720757  0.994048  1
  F  F27  1  0.010275  0.726956  0.792777  1
  F  F28  1  0.212903  0.498442  0.784144  1
  F  F29  1  0.498442  0.212903  0.284144  1
  F  F30  1  0.726956  0.010275  0.292777  1
  F  F31  1  0.720757  0.235261  0.494048  1
  F  F32  1  0.476283  0.523717  0.250000  1
  F  F33  1  0.746650  0.949234  0.976016  1
  F  F34  1  0.050766  0.253350  0.523984  1
  F  F35  1  0.253350  0.050766  0.023984  1
  F  F36  1  0.949234  0.746650  0.476016  1
  F  F37  1  0.523717  0.476283  0.750000  1
