# generated using pymatgen
data_Ce3Zn2Pt3Au
_symmetry_space_group_name_H-M   'P 1'
_cell_length_a   7.40880510
_cell_length_b   7.60451403
_cell_length_c   3.91910800
_cell_angle_alpha   90.00000000
_cell_angle_beta   90.00000000
_cell_angle_gamma   120.87773019
_symmetry_Int_Tables_number   1
_chemical_formula_structural   Ce3Zn2Pt3Au
_chemical_formula_sum   'Ce3 Zn2 Pt3 Au1'
_cell_volume   189.50819230
_cell_formula_units_Z   1
loop_
 _symmetry_equiv_pos_site_id
 _symmetry_equiv_pos_as_xyz
  1  'x, y, z'
loop_
 _atom_site_type_symbol
 _atom_site_label
 _atom_site_symmetry_multiplicity
 _atom_site_fract_x
 _atom_site_fract_y
 _atom_site_fract_z
 _atom_site_occupancy
  Ce  Ce0  1  0.000000  0.406597  0.000000  1
  Ce  Ce1  1  0.603704  0.598732  0.000000  1
  Ce  Ce2  1  0.396296  0.995028  0.000000  1
  Zn  Zn3  1  0.252107  0.252109  0.500000  1
  Zn  Zn4  1  0.747893  0.000002  0.500000  1
  Pt  Pt5  1  0.000000  0.030609  0.000000  1
  Pt  Pt6  1  0.652032  0.311621  0.500000  1
  Pt  Pt7  1  0.347968  0.659589  0.500000  1
  Au  Au8  1  0.000000  0.745713  0.500000  1
