# generated using pymatgen
data_Tb2Yb3Ru2
_symmetry_space_group_name_H-M   'P 1'
_cell_length_a   6.41129663
_cell_length_b   7.32023953
_cell_length_c   8.52161145
_cell_angle_alpha   97.09764871
_cell_angle_beta   112.09718590
_cell_angle_gamma   89.99999702
_symmetry_Int_Tables_number   1
_chemical_formula_structural   Tb2Yb3Ru2
_chemical_formula_sum   'Tb4 Yb6 Ru4'
_cell_volume   367.25179690
_cell_formula_units_Z   2
loop_
 _symmetry_equiv_pos_site_id
 _symmetry_equiv_pos_as_xyz
  1  'x, y, z'
loop_
 _atom_site_type_symbol
 _atom_site_label
 _atom_site_symmetry_multiplicity
 _atom_site_fract_x
 _atom_site_fract_y
 _atom_site_fract_z
 _atom_site_occupancy
  Tb  Tb0  1  0.370225  0.181191  0.568349  1
  Tb  Tb1  1  0.801875  0.318809  0.431651  1
  Tb  Tb2  1  0.427929  0.750000  0.000000  1
  Tb  Tb3  1  0.562320  0.250000  0.000000  1
  Yb  Yb4  1  0.974233  0.921579  0.177050  1
  Yb  Yb5  1  0.797183  0.578421  0.822950  1
  Yb  Yb6  1  0.021322  0.081128  0.820287  1
  Yb  Yb7  1  0.201036  0.418872  0.179713  1
  Yb  Yb8  1  0.644055  0.816639  0.437537  1
  Yb  Yb9  1  0.206518  0.683361  0.562463  1
  Ru  Ru10  1  0.811082  0.570496  0.214599  1
  Ru  Ru11  1  0.596482  0.929504  0.785401  1
  Ru  Ru12  1  0.176563  0.419834  0.767387  1
  Ru  Ru13  1  0.409176  0.080166  0.232613  1
