# generated using pymatgen
data_Tb12ZnIn(TcNi)2
_symmetry_space_group_name_H-M   'P 1'
_cell_length_a   8.43966202
_cell_length_b   8.43956211
_cell_length_c   8.43966311
_cell_angle_alpha   103.86987510
_cell_angle_beta   111.55816733
_cell_angle_gamma   113.13160089
_symmetry_Int_Tables_number   1
_chemical_formula_structural   Tb12ZnIn(TcNi)2
_chemical_formula_sum   'Tb12 Zn1 In1 Tc2 Ni2'
_cell_volume   459.37936975
_cell_formula_units_Z   1
loop_
 _symmetry_equiv_pos_site_id
 _symmetry_equiv_pos_as_xyz
  1  'x, y, z'
loop_
 _atom_site_type_symbol
 _atom_site_label
 _atom_site_symmetry_multiplicity
 _atom_site_fract_x
 _atom_site_fract_y
 _atom_site_fract_z
 _atom_site_occupancy
  Tb  Tb0  1  0.691416  0.261623  0.953006  1
  Tb  Tb1  1  0.308584  0.738377  0.046994  1
  Tb  Tb2  1  0.691383  0.738377  0.429795  1
  Tb  Tb3  1  0.308617  0.261623  0.570205  1
  Tb  Tb4  1  0.816294  0.147548  0.331253  1
  Tb  Tb5  1  0.816285  0.485082  0.668797  1
  Tb  Tb6  1  0.183706  0.852452  0.668747  1
  Tb  Tb7  1  0.183715  0.514918  0.331203  1
  Tb  Tb8  1  0.600142  0.780728  0.819390  1
  Tb  Tb9  1  0.961337  0.780728  0.180587  1
  Tb  Tb10  1  0.038663  0.219272  0.819413  1
  Tb  Tb11  1  0.399858  0.219272  0.180610  1
  Zn  Zn12  1  0.500000  0.500000  0.000000  1
  In  In13  1  0.500000  0.000000  0.500000  1
  Tc  Tc14  1  0.820012  0.500000  0.320012  1
  Tc  Tc15  1  0.179988  0.500000  0.679988  1
  Ni  Ni16  1  0.999998  0.115565  0.115567  1
  Ni  Ni17  1  0.000002  0.884435  0.884433  1
