# generated using pymatgen
data_Nd2ZnSi3(PRh4)3
_symmetry_space_group_name_H-M   'P 1'
_cell_length_a   9.80150900
_cell_length_b   9.80150983
_cell_length_c   3.87517100
_cell_angle_alpha   90.00000000
_cell_angle_beta   90.00000000
_cell_angle_gamma   120.00001768
_symmetry_Int_Tables_number   1
_chemical_formula_structural   Nd2ZnSi3(PRh4)3
_chemical_formula_sum   'Nd2 Zn1 Si3 P3 Rh12'
_cell_volume   322.40914270
_cell_formula_units_Z   1
loop_
 _symmetry_equiv_pos_site_id
 _symmetry_equiv_pos_as_xyz
  1  'x, y, z'
loop_
 _atom_site_type_symbol
 _atom_site_label
 _atom_site_symmetry_multiplicity
 _atom_site_fract_x
 _atom_site_fract_y
 _atom_site_fract_z
 _atom_site_occupancy
  Nd  Nd0  1  0.333333  0.666667  0.741569  1
  Nd  Nd1  1  0.666667  0.333333  0.240136  1
  Zn  Zn2  1  0.000000  0.000000  0.687708  1
  Si  Si3  1  0.890263  0.603557  0.740155  1
  Si  Si4  1  0.396443  0.286706  0.740155  1
  Si  Si5  1  0.713294  0.109737  0.740155  1
  P  P6  1  0.106485  0.396408  0.240904  1
  P  P7  1  0.603592  0.710078  0.240904  1
  P  P8  1  0.289922  0.893515  0.240904  1
  Rh  Rh9  1  0.619727  0.554433  0.740781  1
  Rh  Rh10  1  0.445567  0.065295  0.740781  1
  Rh  Rh11  1  0.934705  0.380273  0.740781  1
  Rh  Rh12  1  0.387903  0.446576  0.240861  1
  Rh  Rh13  1  0.553424  0.941326  0.240861  1
  Rh  Rh14  1  0.058674  0.612097  0.240861  1
  Rh  Rh15  1  0.133494  0.843538  0.740996  1
  Rh  Rh16  1  0.156462  0.289956  0.740996  1
  Rh  Rh17  1  0.710044  0.866506  0.740996  1
  Rh  Rh18  1  0.883891  0.142088  0.239833  1
  Rh  Rh19  1  0.857912  0.741804  0.239833  1
  Rh  Rh20  1  0.258196  0.116109  0.239833  1
