# generated using pymatgen
data_Li4LaNd3Si8
_symmetry_space_group_name_H-M   'P 1'
_cell_length_a   3.88486500
_cell_length_b   7.75385628
_cell_length_c   10.54884163
_cell_angle_alpha   89.83604198
_cell_angle_beta   90.00000000
_cell_angle_gamma   90.00000000
_symmetry_Int_Tables_number   1
_chemical_formula_structural   Li4LaNd3Si8
_chemical_formula_sum   'Li4 La1 Nd3 Si8'
_cell_volume   317.75813107
_cell_formula_units_Z   1
loop_
 _symmetry_equiv_pos_site_id
 _symmetry_equiv_pos_as_xyz
  1  'x, y, z'
loop_
 _atom_site_type_symbol
 _atom_site_label
 _atom_site_symmetry_multiplicity
 _atom_site_fract_x
 _atom_site_fract_y
 _atom_site_fract_z
 _atom_site_occupancy
  Li  Li0  1  0.250000  0.996497  0.391031  1
  Li  Li1  1  0.750000  0.006762  0.610082  1
  Li  Li2  1  0.250000  0.493144  0.109231  1
  Li  Li3  1  0.750000  0.505191  0.891354  1
  La  La4  1  0.750000  0.361197  0.363622  1
  Nd  Nd5  1  0.250000  0.135744  0.864093  1
  Nd  Nd6  1  0.750000  0.862526  0.134739  1
  Nd  Nd7  1  0.250000  0.637076  0.635626  1
  Si  Si8  1  0.750000  0.269068  0.068740  1
  Si  Si9  1  0.250000  0.726713  0.928714  1
  Si  Si10  1  0.750000  0.777373  0.428331  1
  Si  Si11  1  0.250000  0.229101  0.573406  1
  Si  Si12  1  0.750000  0.834950  0.821862  1
  Si  Si13  1  0.250000  0.162559  0.175628  1
  Si  Si14  1  0.750000  0.335028  0.680564  1
  Si  Si15  1  0.250000  0.667068  0.322978  1
