# generated using pymatgen
data_DyCo2(PRu)3
_symmetry_space_group_name_H-M   'P 1'
_cell_length_a   3.78716800
_cell_length_b   10.62768800
_cell_length_c   12.11022600
_cell_angle_alpha   90.00000000
_cell_angle_beta   90.00000000
_cell_angle_gamma   90.00000000
_symmetry_Int_Tables_number   1
_chemical_formula_structural   DyCo2(PRu)3
_chemical_formula_sum   'Dy4 Co8 P12 Ru12'
_cell_volume   487.42254752
_cell_formula_units_Z   4
loop_
 _symmetry_equiv_pos_site_id
 _symmetry_equiv_pos_as_xyz
  1  'x, y, z'
loop_
 _atom_site_type_symbol
 _atom_site_label
 _atom_site_symmetry_multiplicity
 _atom_site_fract_x
 _atom_site_fract_y
 _atom_site_fract_z
 _atom_site_occupancy
  Dy  Dy0  1  0.250000  0.584506  0.706685  1
  Dy  Dy1  1  0.250000  0.915494  0.206685  1
  Dy  Dy2  1  0.750000  0.415494  0.293315  1
  Dy  Dy3  1  0.750000  0.084506  0.793315  1
  Co  Co4  1  0.250000  0.887862  0.695933  1
  Co  Co5  1  0.250000  0.612138  0.195933  1
  Co  Co6  1  0.750000  0.112138  0.304067  1
  Co  Co7  1  0.750000  0.387862  0.804067  1
  Co  Co8  1  0.250000  0.462999  0.934930  1
  Co  Co9  1  0.250000  0.037001  0.434930  1
  Co  Co10  1  0.750000  0.537001  0.065070  1
  Co  Co11  1  0.750000  0.962999  0.565070  1
  P  P12  1  0.250000  0.425752  0.112597  1
  P  P13  1  0.250000  0.074248  0.612597  1
  P  P14  1  0.750000  0.574248  0.887403  1
  P  P15  1  0.750000  0.925752  0.387403  1
  P  P16  1  0.250000  0.271971  0.871184  1
  P  P17  1  0.250000  0.228029  0.371184  1
  P  P18  1  0.750000  0.728029  0.128816  1
  P  P19  1  0.750000  0.771971  0.628816  1
  P  P20  1  0.250000  0.601361  0.387176  1
  P  P21  1  0.250000  0.898639  0.887176  1
  P  P22  1  0.750000  0.398639  0.612824  1
  P  P23  1  0.750000  0.101361  0.112824  1
  Ru  Ru24  1  0.250000  0.706229  0.986635  1
  Ru  Ru25  1  0.250000  0.793771  0.486635  1
  Ru  Ru26  1  0.750000  0.293771  0.013365  1
  Ru  Ru27  1  0.750000  0.206229  0.513365  1
  Ru  Ru28  1  0.250000  0.405363  0.485637  1
  Ru  Ru29  1  0.250000  0.094637  0.985637  1
  Ru  Ru30  1  0.750000  0.594637  0.514363  1
  Ru  Ru31  1  0.750000  0.905363  0.014363  1
  Ru  Ru32  1  0.250000  0.223761  0.180232  1
  Ru  Ru33  1  0.250000  0.276239  0.680232  1
  Ru  Ru34  1  0.750000  0.776239  0.819768  1
  Ru  Ru35  1  0.750000  0.723761  0.319768  1
