# generated using pymatgen
data_TmTaNb4(B2Ru5)2
_symmetry_space_group_name_H-M   'P 1'
_cell_length_a   9.50994568
_cell_length_b   9.51110285
_cell_length_c   3.05289700
_cell_angle_alpha   90.00000000
_cell_angle_beta   90.00000000
_cell_angle_gamma   90.19157610
_symmetry_Int_Tables_number   1
_chemical_formula_structural   TmTaNb4(B2Ru5)2
_chemical_formula_sum   'Tm1 Ta1 Nb4 B4 Ru10'
_cell_volume   276.13320826
_cell_formula_units_Z   1
loop_
 _symmetry_equiv_pos_site_id
 _symmetry_equiv_pos_as_xyz
  1  'x, y, z'
loop_
 _atom_site_type_symbol
 _atom_site_label
 _atom_site_symmetry_multiplicity
 _atom_site_fract_x
 _atom_site_fract_y
 _atom_site_fract_z
 _atom_site_occupancy
  Tm  Tm0  1  0.824703  0.675488  0.000000  1
  Ta  Ta1  1  0.999366  0.998995  0.000000  1
  Nb  Nb2  1  0.177805  0.322028  0.000000  1
  Nb  Nb3  1  0.324248  0.823419  0.000000  1
  Nb  Nb4  1  0.676829  0.175692  0.000000  1
  Nb  Nb5  1  0.501002  0.500614  0.000000  1
  B  B6  1  0.619603  0.880335  0.000000  1
  B  B7  1  0.377559  0.122449  0.000000  1
  B  B8  1  0.122387  0.620305  0.000000  1
  B  B9  1  0.879670  0.377605  0.000000  1
  Ru  Ru10  1  0.560530  0.723802  0.500000  1
  Ru  Ru11  1  0.427105  0.282588  0.500000  1
  Ru  Ru12  1  0.080009  0.782893  0.500000  1
  Ru  Ru13  1  0.930335  0.216533  0.500000  1
  Ru  Ru14  1  0.283132  0.569723  0.500000  1
  Ru  Ru15  1  0.717536  0.419774  0.500000  1
  Ru  Ru16  1  0.217022  0.072680  0.500000  1
  Ru  Ru17  1  0.776674  0.939425  0.500000  1
  Ru  Ru18  1  0.497017  0.003083  0.500000  1
  Ru  Ru19  1  0.007470  0.492569  0.500000  1
