# generated using pymatgen
data_Dy9ErOs4
_symmetry_space_group_name_H-M   'P 1'
_cell_length_a   6.35885767
_cell_length_b   7.35479914
_cell_length_c   8.43847039
_cell_angle_alpha   96.85217598
_cell_angle_beta   112.13423357
_cell_angle_gamma   89.99999840
_symmetry_Int_Tables_number   1
_chemical_formula_structural   Dy9ErOs4
_chemical_formula_sum   'Dy9 Er1 Os4'
_cell_volume   362.52207629
_cell_formula_units_Z   1
loop_
 _symmetry_equiv_pos_site_id
 _symmetry_equiv_pos_as_xyz
  1  'x, y, z'
loop_
 _atom_site_type_symbol
 _atom_site_label
 _atom_site_symmetry_multiplicity
 _atom_site_fract_x
 _atom_site_fract_y
 _atom_site_fract_z
 _atom_site_occupancy
  Dy  Dy0  1  0.792671  0.583552  0.816436  1
  Dy  Dy1  1  0.976235  0.916448  0.183564  1
  Dy  Dy2  1  0.207040  0.415759  0.183414  1
  Dy  Dy3  1  0.023626  0.084241  0.816586  1
  Dy  Dy4  1  0.204114  0.683294  0.564674  1
  Dy  Dy5  1  0.639440  0.816706  0.435326  1
  Dy  Dy6  1  0.795775  0.316464  0.434939  1
  Dy  Dy7  1  0.360836  0.183536  0.565061  1
  Dy  Dy8  1  0.421280  0.750000  0.000000  1
  Er  Er9  1  0.577836  0.250000  0.000000  1
  Os  Os10  1  0.602964  0.923381  0.781237  1
  Os  Os11  1  0.821727  0.576619  0.218763  1
  Os  Os12  1  0.397650  0.077934  0.218843  1
  Os  Os13  1  0.178807  0.422066  0.781157  1
