# generated using pymatgen
data_Y12CdCo4Ir
_symmetry_space_group_name_H-M   'P 1'
_cell_length_a   8.35969143
_cell_length_b   8.36021578
_cell_length_c   8.35969083
_cell_angle_alpha   109.88278645
_cell_angle_beta   111.16664512
_cell_angle_gamma   107.38440687
_symmetry_Int_Tables_number   1
_chemical_formula_structural   Y12CdCo4Ir
_chemical_formula_sum   'Y12 Cd1 Co4 Ir1'
_cell_volume   449.26485094
_cell_formula_units_Z   1
loop_
 _symmetry_equiv_pos_site_id
 _symmetry_equiv_pos_as_xyz
  1  'x, y, z'
loop_
 _atom_site_type_symbol
 _atom_site_label
 _atom_site_symmetry_multiplicity
 _atom_site_fract_x
 _atom_site_fract_y
 _atom_site_fract_z
 _atom_site_occupancy
  Y  Y0  1  0.289733  0.182808  0.472508  1
  Y  Y1  1  0.710267  0.817192  0.527492  1
  Y  Y2  1  0.289698  0.817192  0.106926  1
  Y  Y3  1  0.710302  0.182808  0.893074  1
  Y  Y4  1  0.619376  0.315659  0.303710  1
  Y  Y5  1  0.380624  0.684341  0.696290  1
  Y  Y6  1  0.011949  0.315659  0.696284  1
  Y  Y7  1  0.988051  0.684341  0.303716  1
  Y  Y8  1  0.211973  0.407771  0.195799  1
  Y  Y9  1  0.788027  0.592229  0.804201  1
  Y  Y10  1  0.212053  0.016169  0.804116  1
  Y  Y11  1  0.787947  0.983831  0.195884  1
  Cd  Cd12  1  0.500000  0.500000  0.000000  1
  Co  Co13  1  0.000027  0.381897  0.381870  1
  Co  Co14  1  0.999973  0.618103  0.618130  1
  Co  Co15  1  0.388709  0.888998  0.500289  1
  Co  Co16  1  0.611291  0.111002  0.499711  1
  Ir  Ir17  1  0.000000  0.000000  0.000000  1
