# generated using pymatgen
data_DyY2FeB7
_symmetry_space_group_name_H-M   'P 1'
_cell_length_a   8.03145511
_cell_length_b   8.03145492
_cell_length_c   9.30927505
_cell_angle_alpha   90.01161189
_cell_angle_beta   89.98838927
_cell_angle_gamma   155.39198339
_symmetry_Int_Tables_number   1
_chemical_formula_structural   DyY2FeB7
_chemical_formula_sum   'Dy2 Y4 Fe2 B14'
_cell_volume   250.04799973
_cell_formula_units_Z   2
loop_
 _symmetry_equiv_pos_site_id
 _symmetry_equiv_pos_as_xyz
  1  'x, y, z'
loop_
 _atom_site_type_symbol
 _atom_site_label
 _atom_site_symmetry_multiplicity
 _atom_site_fract_x
 _atom_site_fract_y
 _atom_site_fract_z
 _atom_site_occupancy
  Dy  Dy0  1  0.895101  0.104899  0.059732  1
  Dy  Dy1  1  0.104899  0.895101  0.940268  1
  Y  Y2  1  0.894991  0.105009  0.439943  1
  Y  Y3  1  0.105009  0.894991  0.560057  1
  Y  Y4  1  0.243148  0.756852  0.249907  1
  Y  Y5  1  0.756852  0.243148  0.750093  1
  Fe  Fe6  1  0.054404  0.945596  0.249805  1
  Fe  Fe7  1  0.945596  0.054404  0.750195  1
  B  B8  1  0.727579  0.272421  0.466745  1
  B  B9  1  0.272421  0.727579  0.533255  1
  B  B10  1  0.727590  0.272410  0.033153  1
  B  B11  1  0.272410  0.727590  0.966847  1
  B  B12  1  0.629743  0.370257  0.152862  1
  B  B13  1  0.370257  0.629743  0.847138  1
  B  B14  1  0.629702  0.370298  0.346895  1
  B  B15  1  0.370298  0.629702  0.653105  1
  B  B16  1  0.521884  0.478116  0.098972  1
  B  B17  1  0.478116  0.521884  0.901028  1
  B  B18  1  0.521867  0.478133  0.400871  1
  B  B19  1  0.478133  0.521867  0.599129  1
  B  B20  1  0.460120  0.539880  0.249879  1
  B  B21  1  0.539880  0.460120  0.750121  1
