# generated using pymatgen
data_HoEr3BCl6
_symmetry_space_group_name_H-M   'P 1'
_cell_length_a   3.82314200
_cell_length_b   12.54998036
_cell_length_c   13.01279641
_cell_angle_alpha   90.05341660
_cell_angle_beta   90.00000000
_cell_angle_gamma   90.00000000
_symmetry_Int_Tables_number   1
_chemical_formula_structural   HoEr3BCl6
_chemical_formula_sum   'Ho2 Er6 B2 Cl12'
_cell_volume   624.35834651
_cell_formula_units_Z   2
loop_
 _symmetry_equiv_pos_site_id
 _symmetry_equiv_pos_as_xyz
  1  'x, y, z'
loop_
 _atom_site_type_symbol
 _atom_site_label
 _atom_site_symmetry_multiplicity
 _atom_site_fract_x
 _atom_site_fract_y
 _atom_site_fract_z
 _atom_site_occupancy
  Ho  Ho0  1  0.500000  0.126085  0.851678  1
  Ho  Ho1  1  0.500000  0.873915  0.148322  1
  Er  Er2  1  0.000000  0.105590  0.083686  1
  Er  Er3  1  0.000000  0.894410  0.916314  1
  Er  Er4  1  0.000000  0.605552  0.416365  1
  Er  Er5  1  0.000000  0.394448  0.583635  1
  Er  Er6  1  0.500000  0.625850  0.648046  1
  Er  Er7  1  0.500000  0.374150  0.351954  1
  B  B8  1  0.500000  0.000000  0.000000  1
  B  B9  1  0.500000  0.500000  0.500000  1
  Cl  Cl10  1  0.500000  0.268314  0.682025  1
  Cl  Cl11  1  0.500000  0.731686  0.317975  1
  Cl  Cl12  1  0.500000  0.767959  0.817570  1
  Cl  Cl13  1  0.500000  0.232041  0.182430  1
  Cl  Cl14  1  0.000000  0.256857  0.930075  1
  Cl  Cl15  1  0.000000  0.743143  0.069925  1
  Cl  Cl16  1  0.000000  0.478433  0.243697  1
  Cl  Cl17  1  0.000000  0.521567  0.756303  1
  Cl  Cl18  1  0.000000  0.978982  0.256735  1
  Cl  Cl19  1  0.000000  0.021018  0.743265  1
  Cl  Cl20  1  0.000000  0.243681  0.429626  1
  Cl  Cl21  1  0.000000  0.756319  0.570374  1
