# generated using pymatgen
data_Ho6LuCrO12
_symmetry_space_group_name_H-M   'P 1'
_cell_length_a   6.57131971
_cell_length_b   6.57132113
_cell_length_c   6.57132092
_cell_angle_alpha   93.00506714
_cell_angle_beta   93.00507362
_cell_angle_gamma   93.00507545
_symmetry_Int_Tables_number   1
_chemical_formula_structural   Ho6LuCrO12
_chemical_formula_sum   'Ho6 Lu1 Cr1 O12'
_cell_volume   282.55114764
_cell_formula_units_Z   1
loop_
 _symmetry_equiv_pos_site_id
 _symmetry_equiv_pos_as_xyz
  1  'x, y, z'
loop_
 _atom_site_type_symbol
 _atom_site_label
 _atom_site_symmetry_multiplicity
 _atom_site_fract_x
 _atom_site_fract_y
 _atom_site_fract_z
 _atom_site_occupancy
  Ho  Ho0  1  0.740489  0.925516  0.436457  1
  Ho  Ho1  1  0.925516  0.436457  0.740489  1
  Ho  Ho2  1  0.436457  0.740489  0.925516  1
  Ho  Ho3  1  0.259511  0.074484  0.563543  1
  Ho  Ho4  1  0.074484  0.563543  0.259511  1
  Ho  Ho5  1  0.563543  0.259511  0.074484  1
  Lu  Lu6  1  0.000000  0.000000  0.000000  1
  Cr  Cr7  1  0.500000  0.500000  0.500000  1
  O  O8  1  0.588841  0.462046  0.799271  1
  O  O9  1  0.462046  0.799271  0.588841  1
  O  O10  1  0.799271  0.588841  0.462046  1
  O  O11  1  0.411159  0.537954  0.200729  1
  O  O12  1  0.537954  0.200729  0.411159  1
  O  O13  1  0.200729  0.411159  0.537954  1
  O  O14  1  0.068598  0.909719  0.314991  1
  O  O15  1  0.909719  0.314991  0.068598  1
  O  O16  1  0.685009  0.931402  0.090281  1
  O  O17  1  0.090281  0.685009  0.931402  1
  O  O18  1  0.931402  0.090281  0.685009  1
  O  O19  1  0.314991  0.068598  0.909719  1
