# generated using pymatgen
data_HoTm5Co16(MoP6)2
_symmetry_space_group_name_H-M   'P 1'
_cell_length_a   3.69594400
_cell_length_b   10.51204900
_cell_length_c   12.17967900
_cell_angle_alpha   90.00000000
_cell_angle_beta   90.00000000
_cell_angle_gamma   90.00000000
_symmetry_Int_Tables_number   1
_chemical_formula_structural   HoTm5Co16(MoP6)2
_chemical_formula_sum   'Ho1 Tm5 Co16 Mo2 P12'
_cell_volume   473.20421167
_cell_formula_units_Z   1
loop_
 _symmetry_equiv_pos_site_id
 _symmetry_equiv_pos_as_xyz
  1  'x, y, z'
loop_
 _atom_site_type_symbol
 _atom_site_label
 _atom_site_symmetry_multiplicity
 _atom_site_fract_x
 _atom_site_fract_y
 _atom_site_fract_z
 _atom_site_occupancy
  Ho  Ho0  1  0.500000  0.000000  0.475337  1
  Tm  Tm1  1  0.000000  0.500000  0.524830  1
  Tm  Tm2  1  0.500000  0.819186  0.204791  1
  Tm  Tm3  1  0.500000  0.180814  0.204791  1
  Tm  Tm4  1  0.000000  0.680630  0.794977  1
  Tm  Tm5  1  0.000000  0.319370  0.794977  1
  Co  Co6  1  0.000000  0.500000  0.986080  1
  Co  Co7  1  0.500000  0.000000  0.013842  1
  Co  Co8  1  0.500000  0.296484  0.431618  1
  Co  Co9  1  0.500000  0.703516  0.431618  1
  Co  Co10  1  0.000000  0.204453  0.568557  1
  Co  Co11  1  0.000000  0.795547  0.568557  1
  Co  Co12  1  0.500000  0.877300  0.706624  1
  Co  Co13  1  0.500000  0.122700  0.706624  1
  Co  Co14  1  0.000000  0.622465  0.293527  1
  Co  Co15  1  0.000000  0.377535  0.293527  1
  Co  Co16  1  0.500000  0.332543  0.989822  1
  Co  Co17  1  0.500000  0.667457  0.989822  1
  Co  Co18  1  0.000000  0.167653  0.010148  1
  Co  Co19  1  0.000000  0.832347  0.010148  1
  Co  Co20  1  0.500000  0.500000  0.701171  1
  Co  Co21  1  0.000000  0.000000  0.298303  1
  Mo  Mo22  1  0.500000  0.500000  0.156957  1
  Mo  Mo23  1  0.000000  0.000000  0.843259  1
  P  P24  1  0.500000  0.312491  0.616373  1
  P  P25  1  0.500000  0.687509  0.616373  1
  P  P26  1  0.000000  0.188248  0.383374  1
  P  P27  1  0.000000  0.811752  0.383374  1
  P  P28  1  0.500000  0.500000  0.879893  1
  P  P29  1  0.000000  0.000000  0.119868  1
  P  P30  1  0.500000  0.843949  0.892293  1
  P  P31  1  0.500000  0.156051  0.892293  1
  P  P32  1  0.000000  0.655875  0.107778  1
  P  P33  1  0.000000  0.344125  0.107778  1
  P  P34  1  0.500000  0.500000  0.350833  1
  P  P35  1  0.000000  0.000000  0.649864  1
