# generated using pymatgen
data_Sc6Zn17Pd6Se
_symmetry_space_group_name_H-M   'P 1'
_cell_length_a   8.81973203
_cell_length_b   8.81973189
_cell_length_c   8.81973200
_cell_angle_alpha   59.99999958
_cell_angle_beta   60.00000011
_cell_angle_gamma   60.00000171
_symmetry_Int_Tables_number   1
_chemical_formula_structural   Sc6Zn17Pd6Se
_chemical_formula_sum   'Sc6 Zn17 Pd6 Se1'
_cell_volume   485.12222192
_cell_formula_units_Z   1
loop_
 _symmetry_equiv_pos_site_id
 _symmetry_equiv_pos_as_xyz
  1  'x, y, z'
loop_
 _atom_site_type_symbol
 _atom_site_label
 _atom_site_symmetry_multiplicity
 _atom_site_fract_x
 _atom_site_fract_y
 _atom_site_fract_z
 _atom_site_occupancy
  Sc  Sc0  1  0.717197  0.282803  0.282803  1
  Sc  Sc1  1  0.717197  0.282803  0.717197  1
  Sc  Sc2  1  0.717197  0.717197  0.282803  1
  Sc  Sc3  1  0.282803  0.717197  0.717197  1
  Sc  Sc4  1  0.282803  0.717197  0.282803  1
  Sc  Sc5  1  0.282803  0.282803  0.717197  1
  Zn  Zn6  1  0.634582  0.121807  0.121807  1
  Zn  Zn7  1  0.121807  0.634582  0.121807  1
  Zn  Zn8  1  0.121807  0.121807  0.634582  1
  Zn  Zn9  1  0.121807  0.121807  0.121807  1
  Zn  Zn10  1  0.365418  0.878193  0.878193  1
  Zn  Zn11  1  0.878193  0.365418  0.878193  1
  Zn  Zn12  1  0.878193  0.878193  0.365418  1
  Zn  Zn13  1  0.878193  0.878193  0.878193  1
  Zn  Zn14  1  0.000000  0.000000  0.000000  1
  Zn  Zn15  1  0.998372  0.333875  0.333875  1
  Zn  Zn16  1  0.333875  0.998372  0.333875  1
  Zn  Zn17  1  0.333875  0.333875  0.998372  1
  Zn  Zn18  1  0.333875  0.333875  0.333875  1
  Zn  Zn19  1  0.001628  0.666125  0.666125  1
  Zn  Zn20  1  0.666125  0.001628  0.666125  1
  Zn  Zn21  1  0.666125  0.666125  0.001628  1
  Zn  Zn22  1  0.666125  0.666125  0.666125  1
  Pd  Pd23  1  0.500000  0.000000  0.000000  1
  Pd  Pd24  1  0.500000  0.000000  0.500000  1
  Pd  Pd25  1  0.500000  0.500000  0.000000  1
  Pd  Pd26  1  0.000000  0.500000  0.500000  1
  Pd  Pd27  1  0.000000  0.500000  0.000000  1
  Pd  Pd28  1  0.000000  0.000000  0.500000  1
  Se  Se29  1  0.500000  0.500000  0.500000  1
