# generated using pymatgen
data_Nd5ScRuO12
_symmetry_space_group_name_H-M   'P 1'
_cell_length_a   7.11148761
_cell_length_b   7.11148774
_cell_length_c   7.62846853
_cell_angle_alpha   74.48293832
_cell_angle_beta   74.48293777
_cell_angle_gamma   50.72332017
_symmetry_Int_Tables_number   1
_chemical_formula_structural   Nd5ScRuO12
_chemical_formula_sum   'Nd5 Sc1 Ru1 O12'
_cell_volume   285.25596331
_cell_formula_units_Z   1
loop_
 _symmetry_equiv_pos_site_id
 _symmetry_equiv_pos_as_xyz
  1  'x, y, z'
loop_
 _atom_site_type_symbol
 _atom_site_label
 _atom_site_symmetry_multiplicity
 _atom_site_fract_x
 _atom_site_fract_y
 _atom_site_fract_z
 _atom_site_occupancy
  Nd  Nd0  1  0.309268  0.298355  0.358890  1
  Nd  Nd1  1  0.701645  0.690732  0.641110  1
  Nd  Nd2  1  0.689280  0.696567  0.166911  1
  Nd  Nd3  1  0.303433  0.310720  0.833089  1
  Nd  Nd4  1  0.009636  0.990364  0.500000  1
  Sc  Sc5  1  0.754915  0.245085  0.000000  1
  Ru  Ru6  1  0.241864  0.758136  0.000000  1
  O  O7  1  0.097967  0.596193  0.572573  1
  O  O8  1  0.018069  0.980919  0.180206  1
  O  O9  1  0.403807  0.902033  0.427427  1
  O  O10  1  0.484593  0.517234  0.179739  1
  O  O11  1  0.102021  0.586069  0.079746  1
  O  O12  1  0.907671  0.401881  0.421323  1
  O  O13  1  0.019081  0.981931  0.819794  1
  O  O14  1  0.598119  0.092328  0.578677  1
  O  O15  1  0.482766  0.515407  0.820261  1
  O  O16  1  0.563125  0.101191  0.081985  1
  O  O17  1  0.413931  0.897979  0.920254  1
  O  O18  1  0.898809  0.436875  0.918015  1
