# generated using pymatgen
data_Dy4HoZr3(P3Ir4)4
_symmetry_space_group_name_H-M   'P 1'
_cell_length_a   12.87909202
_cell_length_b   12.88024579
_cell_length_c   3.98266400
_cell_angle_alpha   90.00000000
_cell_angle_beta   90.00000000
_cell_angle_gamma   120.00296340
_symmetry_Int_Tables_number   1
_chemical_formula_structural   Dy4HoZr3(P3Ir4)4
_chemical_formula_sum   'Dy4 Ho1 Zr3 P12 Ir16'
_cell_volume   572.13791305
_cell_formula_units_Z   1
loop_
 _symmetry_equiv_pos_site_id
 _symmetry_equiv_pos_as_xyz
  1  'x, y, z'
loop_
 _atom_site_type_symbol
 _atom_site_label
 _atom_site_symmetry_multiplicity
 _atom_site_fract_x
 _atom_site_fract_y
 _atom_site_fract_z
 _atom_site_occupancy
  Dy  Dy0  1  0.333335  0.666666  0.500000  1
  Dy  Dy1  1  0.666665  0.333331  0.500000  1
  Dy  Dy2  1  0.184965  0.184969  0.000000  1
  Dy  Dy3  1  0.815035  0.000004  0.000000  1
  Ho  Ho4  1  0.000000  0.814981  0.000000  1
  Zr  Zr5  1  0.000000  0.449284  0.500000  1
  Zr  Zr6  1  0.550731  0.550739  0.500000  1
  Zr  Zr7  1  0.449269  0.000009  0.500000  1
  P  P8  1  0.000000  0.649486  0.500000  1
  P  P9  1  0.350702  0.350704  0.500000  1
  P  P10  1  0.649298  0.000001  0.500000  1
  P  P11  1  0.517128  0.686492  0.000000  1
  P  P12  1  0.313533  0.830632  0.000000  1
  P  P13  1  0.169354  0.482877  0.000000  1
  P  P14  1  0.482872  0.169363  0.000000  1
  P  P15  1  0.686467  0.517099  0.000000  1
  P  P16  1  0.830646  0.313523  0.000000  1
  P  P17  1  0.000000  0.176087  0.500000  1
  P  P18  1  0.824048  0.823952  0.500000  1
  P  P19  1  0.175952  0.999904  0.500000  1
  Ir  Ir20  1  0.507678  0.863926  0.000000  1
  Ir  Ir21  1  0.136088  0.643770  0.000000  1
  Ir  Ir22  1  0.356256  0.492324  0.000000  1
  Ir  Ir23  1  0.492322  0.356248  0.000000  1
  Ir  Ir24  1  0.863912  0.507681  0.000000  1
  Ir  Ir25  1  0.643744  0.136067  0.000000  1
  Ir  Ir26  1  0.000000  0.278730  0.000000  1
  Ir  Ir27  1  0.721404  0.721307  0.000000  1
  Ir  Ir28  1  0.278596  0.999903  0.000000  1
  Ir  Ir29  1  0.628981  0.807119  0.500000  1
  Ir  Ir30  1  0.192649  0.821854  0.500000  1
  Ir  Ir31  1  0.178142  0.371020  0.500000  1
  Ir  Ir32  1  0.371019  0.178139  0.500000  1
  Ir  Ir33  1  0.807351  0.629205  0.500000  1
  Ir  Ir34  1  0.821858  0.192878  0.500000  1
  Ir  Ir35  1  0.000000  0.999726  0.500000  1
