# generated using pymatgen
data_Ba4Al8Si7Ge
_symmetry_space_group_name_H-M   'P 1'
_cell_length_a   4.28567000
_cell_length_b   10.13307075
_cell_length_c   10.93711481
_cell_angle_alpha   89.95597043
_cell_angle_beta   90.00000000
_cell_angle_gamma   90.00000000
_symmetry_Int_Tables_number   1
_chemical_formula_structural   Ba4Al8Si7Ge
_chemical_formula_sum   'Ba4 Al8 Si7 Ge1'
_cell_volume   474.96591510
_cell_formula_units_Z   1
loop_
 _symmetry_equiv_pos_site_id
 _symmetry_equiv_pos_as_xyz
  1  'x, y, z'
loop_
 _atom_site_type_symbol
 _atom_site_label
 _atom_site_symmetry_multiplicity
 _atom_site_fract_x
 _atom_site_fract_y
 _atom_site_fract_z
 _atom_site_occupancy
  Ba  Ba0  1  0.250000  0.248102  0.174131  1
  Ba  Ba1  1  0.750000  0.751414  0.826317  1
  Ba  Ba2  1  0.250000  0.747204  0.325353  1
  Ba  Ba3  1  0.750000  0.253441  0.674348  1
  Al  Al4  1  0.250000  0.599938  0.047391  1
  Al  Al5  1  0.750000  0.399952  0.952724  1
  Al  Al6  1  0.250000  0.101584  0.450962  1
  Al  Al7  1  0.750000  0.898073  0.544995  1
  Al  Al8  1  0.250000  0.541943  0.618722  1
  Al  Al9  1  0.750000  0.458007  0.381239  1
  Al  Al10  1  0.250000  0.042824  0.884321  1
  Al  Al11  1  0.750000  0.958077  0.118748  1
  Si  Si12  1  0.750000  0.024280  0.343976  1
  Si  Si13  1  0.250000  0.475658  0.844554  1
  Si  Si14  1  0.750000  0.524350  0.155409  1
  Si  Si15  1  0.250000  0.355648  0.458126  1
  Si  Si16  1  0.750000  0.644233  0.541350  1
  Si  Si17  1  0.250000  0.854972  0.041750  1
  Si  Si18  1  0.750000  0.145440  0.958825  1
  Ge  Ge19  1  0.250000  0.974859  0.656760  1
