# generated using pymatgen
data_La3Nd3ThPt3
_symmetry_space_group_name_H-M   'P 1'
_cell_length_a   6.56419100
_cell_length_b   10.28122533
_cell_length_c   10.28122601
_cell_angle_alpha   120.09592968
_cell_angle_beta   90.00000000
_cell_angle_gamma   90.00000000
_symmetry_Int_Tables_number   1
_chemical_formula_structural   La3Nd3ThPt3
_chemical_formula_sum   'La6 Nd6 Th2 Pt6'
_cell_volume   600.31749636
_cell_formula_units_Z   2
loop_
 _symmetry_equiv_pos_site_id
 _symmetry_equiv_pos_as_xyz
  1  'x, y, z'
loop_
 _atom_site_type_symbol
 _atom_site_label
 _atom_site_symmetry_multiplicity
 _atom_site_fract_x
 _atom_site_fract_y
 _atom_site_fract_z
 _atom_site_occupancy
  La  La0  1  0.247817  0.128429  0.871571  1
  La  La1  1  0.248208  0.742831  0.871391  1
  La  La2  1  0.248208  0.128609  0.257169  1
  La  La3  1  0.747817  0.871571  0.128429  1
  La  La4  1  0.748208  0.257169  0.128609  1
  La  La5  1  0.748208  0.871391  0.742831  1
  Nd  Nd6  1  0.445338  0.538296  0.461704  1
  Nd  Nd7  1  0.445714  0.923628  0.461750  1
  Nd  Nd8  1  0.445714  0.538250  0.076372  1
  Nd  Nd9  1  0.945338  0.461704  0.538296  1
  Nd  Nd10  1  0.945714  0.076372  0.538250  1
  Nd  Nd11  1  0.945714  0.461750  0.923628  1
  Th  Th12  1  0.465031  0.333222  0.666778  1
  Th  Th13  1  0.965031  0.666778  0.333222  1
  Pt  Pt14  1  0.182199  0.808116  0.191884  1
  Pt  Pt15  1  0.182386  0.383931  0.191851  1
  Pt  Pt16  1  0.182386  0.808149  0.616069  1
  Pt  Pt17  1  0.682199  0.191884  0.808116  1
  Pt  Pt18  1  0.682386  0.616069  0.808149  1
  Pt  Pt19  1  0.682386  0.191851  0.383931  1
