# generated using pymatgen
data_Nd7Sn23Ru6
_symmetry_space_group_name_H-M   'P 1'
_cell_length_a   10.00079500
_cell_length_b   10.00079529
_cell_length_c   10.23401500
_cell_angle_alpha   90.00000000
_cell_angle_beta   90.00000000
_cell_angle_gamma   120.00000895
_symmetry_Int_Tables_number   1
_chemical_formula_structural   Nd7Sn23Ru6
_chemical_formula_sum   'Nd7 Sn23 Ru6'
_cell_volume   886.43256921
_cell_formula_units_Z   1
loop_
 _symmetry_equiv_pos_site_id
 _symmetry_equiv_pos_as_xyz
  1  'x, y, z'
loop_
 _atom_site_type_symbol
 _atom_site_label
 _atom_site_symmetry_multiplicity
 _atom_site_fract_x
 _atom_site_fract_y
 _atom_site_fract_z
 _atom_site_occupancy
  Nd  Nd0  1  0.000000  0.000000  0.000000  1
  Nd  Nd1  1  0.481202  0.518798  0.302471  1
  Nd  Nd2  1  0.518798  0.481202  0.697529  1
  Nd  Nd3  1  0.481202  0.962403  0.302471  1
  Nd  Nd4  1  0.518798  0.037597  0.697529  1
  Nd  Nd5  1  0.037597  0.518798  0.302471  1
  Nd  Nd6  1  0.962403  0.481202  0.697529  1
  Sn  Sn7  1  0.347941  0.000000  0.000000  1
  Sn  Sn8  1  0.652059  0.000000  0.000000  1
  Sn  Sn9  1  0.000000  0.347941  0.000000  1
  Sn  Sn10  1  0.000000  0.652059  0.000000  1
  Sn  Sn11  1  0.652059  0.652059  0.000000  1
  Sn  Sn12  1  0.347941  0.347941  0.000000  1
  Sn  Sn13  1  0.333333  0.666667  0.819435  1
  Sn  Sn14  1  0.666667  0.333333  0.180565  1
  Sn  Sn15  1  0.000000  0.000000  0.500000  1
  Sn  Sn16  1  0.781548  0.218452  0.457129  1
  Sn  Sn17  1  0.218452  0.781548  0.542871  1
  Sn  Sn18  1  0.781548  0.563096  0.457129  1
  Sn  Sn19  1  0.218452  0.436904  0.542871  1
  Sn  Sn20  1  0.436904  0.218452  0.457129  1
  Sn  Sn21  1  0.563096  0.781548  0.542871  1
  Sn  Sn22  1  0.333333  0.666667  0.114844  1
  Sn  Sn23  1  0.666667  0.333333  0.885156  1
  Sn  Sn24  1  0.116120  0.883880  0.274141  1
  Sn  Sn25  1  0.883880  0.116120  0.725859  1
  Sn  Sn26  1  0.116120  0.232240  0.274141  1
  Sn  Sn27  1  0.883880  0.767760  0.725859  1
  Sn  Sn28  1  0.767760  0.883880  0.274141  1
  Sn  Sn29  1  0.232240  0.116120  0.725859  1
  Ru  Ru30  1  0.831553  0.168447  0.200010  1
  Ru  Ru31  1  0.168447  0.831553  0.799990  1
  Ru  Ru32  1  0.831553  0.663106  0.200010  1
  Ru  Ru33  1  0.168447  0.336894  0.799990  1
  Ru  Ru34  1  0.336894  0.168447  0.200010  1
  Ru  Ru35  1  0.663106  0.831553  0.799990  1
