# generated using pymatgen
data_DyZn5Au3
_symmetry_space_group_name_H-M   'P 1'
_cell_length_a   4.29030900
_cell_length_b   11.73510000
_cell_length_c   12.90428500
_cell_angle_alpha   90.00000000
_cell_angle_beta   90.00000000
_cell_angle_gamma   90.00000000
_symmetry_Int_Tables_number   1
_chemical_formula_structural   DyZn5Au3
_chemical_formula_sum   'Dy4 Zn20 Au12'
_cell_volume   649.69468416
_cell_formula_units_Z   4
loop_
 _symmetry_equiv_pos_site_id
 _symmetry_equiv_pos_as_xyz
  1  'x, y, z'
loop_
 _atom_site_type_symbol
 _atom_site_label
 _atom_site_symmetry_multiplicity
 _atom_site_fract_x
 _atom_site_fract_y
 _atom_site_fract_z
 _atom_site_occupancy
  Dy  Dy0  1  0.250000  0.884685  0.298457  1
  Dy  Dy1  1  0.750000  0.115315  0.701543  1
  Dy  Dy2  1  0.750000  0.384685  0.201543  1
  Dy  Dy3  1  0.250000  0.615315  0.798457  1
  Zn  Zn4  1  0.250000  0.420475  0.985656  1
  Zn  Zn5  1  0.750000  0.579525  0.014344  1
  Zn  Zn6  1  0.750000  0.920475  0.514344  1
  Zn  Zn7  1  0.250000  0.079525  0.485656  1
  Zn  Zn8  1  0.250000  0.608437  0.340487  1
  Zn  Zn9  1  0.750000  0.391563  0.659513  1
  Zn  Zn10  1  0.750000  0.108437  0.159513  1
  Zn  Zn11  1  0.250000  0.891563  0.840487  1
  Zn  Zn12  1  0.250000  0.002240  0.065022  1
  Zn  Zn13  1  0.750000  0.997760  0.934978  1
  Zn  Zn14  1  0.750000  0.502240  0.434978  1
  Zn  Zn15  1  0.250000  0.497760  0.565022  1
  Zn  Zn16  1  0.250000  0.767471  0.038766  1
  Zn  Zn17  1  0.750000  0.232529  0.961234  1
  Zn  Zn18  1  0.750000  0.267471  0.461234  1
  Zn  Zn19  1  0.250000  0.732529  0.538766  1
  Zn  Zn20  1  0.250000  0.179319  0.290288  1
  Zn  Zn21  1  0.750000  0.820681  0.709712  1
  Zn  Zn22  1  0.750000  0.679319  0.209712  1
  Zn  Zn23  1  0.250000  0.320681  0.790288  1
  Au  Au24  1  0.250000  0.567823  0.139248  1
  Au  Au25  1  0.750000  0.432177  0.860752  1
  Au  Au26  1  0.750000  0.067823  0.360752  1
  Au  Au27  1  0.250000  0.932177  0.639248  1
  Au  Au28  1  0.250000  0.231471  0.092221  1
  Au  Au29  1  0.750000  0.768529  0.907779  1
  Au  Au30  1  0.750000  0.731471  0.407779  1
  Au  Au31  1  0.250000  0.268529  0.592221  1
  Au  Au32  1  0.250000  0.382519  0.372862  1
  Au  Au33  1  0.750000  0.617481  0.627138  1
  Au  Au34  1  0.750000  0.882519  0.127138  1
  Au  Au35  1  0.250000  0.117481  0.872862  1
