# generated using pymatgen
data_Pr4HgIr
_symmetry_space_group_name_H-M   'P 1'
_cell_length_a   10.01007900
_cell_length_b   10.01007855
_cell_length_c   10.01007800
_cell_angle_alpha   60.00000182
_cell_angle_beta   60.00000331
_cell_angle_gamma   60.00000072
_symmetry_Int_Tables_number   1
_chemical_formula_structural   Pr4HgIr
_chemical_formula_sum   'Pr16 Hg4 Ir4'
_cell_volume   709.24694455
_cell_formula_units_Z   4
loop_
 _symmetry_equiv_pos_site_id
 _symmetry_equiv_pos_as_xyz
  1  'x, y, z'
loop_
 _atom_site_type_symbol
 _atom_site_label
 _atom_site_symmetry_multiplicity
 _atom_site_fract_x
 _atom_site_fract_y
 _atom_site_fract_z
 _atom_site_occupancy
  Pr  Pr0  1  0.349523  0.349523  0.349523  1
  Pr  Pr1  1  0.349523  0.349523  0.951429  1
  Pr  Pr2  1  0.349523  0.951429  0.349523  1
  Pr  Pr3  1  0.951429  0.349523  0.349523  1
  Pr  Pr4  1  0.808720  0.191280  0.191280  1
  Pr  Pr5  1  0.191280  0.808720  0.808720  1
  Pr  Pr6  1  0.191280  0.808720  0.191280  1
  Pr  Pr7  1  0.808720  0.191280  0.808720  1
  Pr  Pr8  1  0.191280  0.191280  0.808720  1
  Pr  Pr9  1  0.808720  0.808720  0.191280  1
  Pr  Pr10  1  0.939287  0.560713  0.560713  1
  Pr  Pr11  1  0.560713  0.939287  0.939287  1
  Pr  Pr12  1  0.560713  0.939287  0.560713  1
  Pr  Pr13  1  0.939287  0.560713  0.939287  1
  Pr  Pr14  1  0.560713  0.560713  0.939287  1
  Pr  Pr15  1  0.939287  0.939287  0.560713  1
  Hg  Hg16  1  0.583693  0.583693  0.583693  1
  Hg  Hg17  1  0.583693  0.583693  0.248920  1
  Hg  Hg18  1  0.583693  0.248920  0.583693  1
  Hg  Hg19  1  0.248920  0.583693  0.583693  1
  Ir  Ir20  1  0.141747  0.141747  0.141747  1
  Ir  Ir21  1  0.141747  0.141747  0.574758  1
  Ir  Ir22  1  0.141747  0.574758  0.141747  1
  Ir  Ir23  1  0.574758  0.141747  0.141747  1
