# generated using pymatgen
data_Ti5Ga6Fe12Re
_symmetry_space_group_name_H-M   'P 1'
_cell_length_a   4.12280800
_cell_length_b   5.83585000
_cell_length_c   12.35548900
_cell_angle_alpha   90.00000000
_cell_angle_beta   89.99922597
_cell_angle_gamma   90.00000000
_symmetry_Int_Tables_number   1
_chemical_formula_structural   Ti5Ga6Fe12Re
_chemical_formula_sum   'Ti5 Ga6 Fe12 Re1'
_cell_volume   297.27416579
_cell_formula_units_Z   1
loop_
 _symmetry_equiv_pos_site_id
 _symmetry_equiv_pos_as_xyz
  1  'x, y, z'
loop_
 _atom_site_type_symbol
 _atom_site_label
 _atom_site_symmetry_multiplicity
 _atom_site_fract_x
 _atom_site_fract_y
 _atom_site_fract_z
 _atom_site_occupancy
  Ti  Ti0  1  0.499997  0.999943  0.168347  1
  Ti  Ti1  1  0.999995  0.499730  0.333944  1
  Ti  Ti2  1  0.500000  0.000590  0.500000  1
  Ti  Ti3  1  0.000005  0.499730  0.666055  1
  Ti  Ti4  1  0.500004  0.999943  0.831654  1
  Ga  Ga5  1  0.000000  0.000007  0.000000  1
  Ga  Ga6  1  0.499996  0.500028  0.169935  1
  Ga  Ga7  1  0.999996  0.000083  0.332158  1
  Ga  Ga8  1  0.500000  0.499748  0.500000  1
  Ga  Ga9  1  0.000004  0.000083  0.667842  1
  Ga  Ga10  1  0.500005  0.500028  0.830065  1
  Fe  Fe11  1  0.500000  0.257607  0.000000  1
  Fe  Fe12  1  0.500000  0.742360  0.000000  1
  Fe  Fe13  1  0.999996  0.253451  0.163110  1
  Fe  Fe14  1  0.999990  0.746556  0.163176  1
  Fe  Fe15  1  0.500004  0.249357  0.333369  1
  Fe  Fe16  1  0.500002  0.750595  0.333616  1
  Fe  Fe17  1  0.000000  0.249819  0.500000  1
  Fe  Fe18  1  0.000000  0.750213  0.500000  1
  Fe  Fe19  1  0.499997  0.249357  0.666631  1
  Fe  Fe20  1  0.499999  0.750595  0.666384  1
  Fe  Fe21  1  0.000004  0.253451  0.836890  1
  Fe  Fe22  1  0.000010  0.746556  0.836824  1
  Re  Re23  1  0.000000  0.500167  0.000000  1
