# generated using pymatgen
data_Pu3Th(CoB10)2
_symmetry_space_group_name_H-M   'P 1'
_cell_length_a   4.15689100
_cell_length_b   5.58657150
_cell_length_c   11.11444786
_cell_angle_alpha   90.13367724
_cell_angle_beta   90.00000000
_cell_angle_gamma   90.00000000
_symmetry_Int_Tables_number   1
_chemical_formula_structural   Pu3Th(CoB10)2
_chemical_formula_sum   'Pu3 Th1 Co2 B20'
_cell_volume   258.10755052
_cell_formula_units_Z   1
loop_
 _symmetry_equiv_pos_site_id
 _symmetry_equiv_pos_as_xyz
  1  'x, y, z'
loop_
 _atom_site_type_symbol
 _atom_site_label
 _atom_site_symmetry_multiplicity
 _atom_site_fract_x
 _atom_site_fract_y
 _atom_site_fract_z
 _atom_site_occupancy
  Pu  Pu0  1  0.500000  0.307002  0.863365  1
  Pu  Pu1  1  0.500000  0.695200  0.133704  1
  Pu  Pu2  1  0.500000  0.806529  0.638361  1
  Th  Th3  1  0.500000  0.197299  0.365953  1
  Co  Co4  1  0.000000  0.497230  0.499627  1
  Co  Co5  1  0.000000  0.998876  0.999957  1
  B  B6  1  0.000000  0.124873  0.541530  1
  B  B7  1  0.000000  0.869775  0.462020  1
  B  B8  1  0.000000  0.627844  0.960396  1
  B  B9  1  0.000000  0.371848  0.037980  1
  B  B10  1  0.000000  0.156249  0.698846  1
  B  B11  1  0.000000  0.844569  0.302338  1
  B  B12  1  0.300497  0.199732  0.110855  1
  B  B13  1  0.300890  0.799651  0.887515  1
  B  B14  1  0.699758  0.699924  0.387127  1
  B  B15  1  0.699106  0.298416  0.614162  1
  B  B16  1  0.699110  0.799651  0.887515  1
  B  B17  1  0.699503  0.199732  0.110855  1
  B  B18  1  0.300894  0.298416  0.614162  1
  B  B19  1  0.300242  0.699924  0.387127  1
  B  B20  1  0.000000  0.031844  0.186252  1
  B  B21  1  0.000000  0.969881  0.814342  1
  B  B22  1  0.000000  0.533940  0.311651  1
  B  B23  1  0.000000  0.470107  0.686084  1
  B  B24  1  0.000000  0.344900  0.195881  1
  B  B25  1  0.000000  0.656589  0.802394  1
