# generated using pymatgen
data_Ta3Ni2GeC
_symmetry_space_group_name_H-M   'P 1'
_cell_length_a   8.09174473
_cell_length_b   8.08830691
_cell_length_c   8.09369106
_cell_angle_alpha   59.99219204
_cell_angle_beta   59.99737357
_cell_angle_gamma   60.00016427
_symmetry_Int_Tables_number   1
_chemical_formula_structural   Ta3Ni2GeC
_chemical_formula_sum   'Ta12 Ni8 Ge4 C4'
_cell_volume   374.53956904
_cell_formula_units_Z   4
loop_
 _symmetry_equiv_pos_site_id
 _symmetry_equiv_pos_as_xyz
  1  'x, y, z'
loop_
 _atom_site_type_symbol
 _atom_site_label
 _atom_site_symmetry_multiplicity
 _atom_site_fract_x
 _atom_site_fract_y
 _atom_site_fract_z
 _atom_site_occupancy
  Ta  Ta0  1  0.442691  0.057656  0.057243  1
  Ta  Ta1  1  0.057647  0.442535  0.442528  1
  Ta  Ta2  1  0.057709  0.442677  0.057245  1
  Ta  Ta3  1  0.057409  0.057367  0.442784  1
  Ta  Ta4  1  0.442514  0.057595  0.442596  1
  Ta  Ta5  1  0.442472  0.442528  0.057442  1
  Ta  Ta6  1  0.192291  0.807323  0.192755  1
  Ta  Ta7  1  0.807486  0.192405  0.807404  1
  Ta  Ta8  1  0.807309  0.192344  0.192757  1
  Ta  Ta9  1  0.192591  0.192633  0.807216  1
  Ta  Ta10  1  0.192353  0.807465  0.807472  1
  Ta  Ta11  1  0.807528  0.807472  0.192558  1
  Ni  Ni12  1  0.833748  0.833702  0.833765  1
  Ni  Ni13  1  0.833672  0.833633  0.499190  1
  Ni  Ni14  1  0.498358  0.833906  0.833930  1
  Ni  Ni15  1  0.833762  0.498813  0.833775  1
  Ni  Ni16  1  0.416252  0.416298  0.416235  1
  Ni  Ni17  1  0.416328  0.416367  0.750810  1
  Ni  Ni18  1  0.416238  0.751187  0.416225  1
  Ni  Ni19  1  0.751642  0.416094  0.416070  1
  Ge  Ge20  1  0.625000  0.625000  0.625000  1
  Ge  Ge21  1  0.625000  0.625000  0.125000  1
  Ge  Ge22  1  0.125000  0.625000  0.625000  1
  Ge  Ge23  1  0.625000  0.125000  0.625000  1
  C  C24  1  0.125000  0.125000  0.125000  1
  C  C25  1  0.125000  0.125000  0.625000  1
  C  C26  1  0.625000  0.125000  0.125000  1
  C  C27  1  0.125000  0.625000  0.125000  1
