# generated using pymatgen
data_La6Tb3Y(Sn5Ir2)4
_symmetry_space_group_name_H-M   'P 1'
_cell_length_a   14.19248100
_cell_length_b   14.19248100
_cell_length_c   4.66235600
_cell_angle_alpha   90.00000000
_cell_angle_beta   90.00000000
_cell_angle_gamma   89.99794110
_symmetry_Int_Tables_number   1
_chemical_formula_structural   La6Tb3Y(Sn5Ir2)4
_chemical_formula_sum   'La6 Tb3 Y1 Sn20 Ir8'
_cell_volume   939.12212949
_cell_formula_units_Z   1
loop_
 _symmetry_equiv_pos_site_id
 _symmetry_equiv_pos_as_xyz
  1  'x, y, z'
loop_
 _atom_site_type_symbol
 _atom_site_label
 _atom_site_symmetry_multiplicity
 _atom_site_fract_x
 _atom_site_fract_y
 _atom_site_fract_z
 _atom_site_occupancy
  La  La0  1  0.499966  0.500001  0.000000  1
  La  La1  1  0.999999  0.000034  0.000000  1
  La  La2  1  0.887025  0.387003  0.500000  1
  La  La3  1  0.112997  0.612975  0.500000  1
  La  La4  1  0.387021  0.112979  0.500000  1
  La  La5  1  0.612965  0.887035  0.500000  1
  Tb  Tb6  1  0.675669  0.175719  0.500000  1
  Tb  Tb7  1  0.324281  0.824331  0.500000  1
  Tb  Tb8  1  0.175702  0.324298  0.500000  1
  Y  Y9  1  0.824318  0.675682  0.500000  1
  Sn  Sn10  1  0.570036  0.070027  0.000000  1
  Sn  Sn11  1  0.429973  0.929964  0.000000  1
  Sn  Sn12  1  0.070037  0.429963  0.000000  1
  Sn  Sn13  1  0.929916  0.570084  0.000000  1
  Sn  Sn14  1  0.655490  0.698222  0.000000  1
  Sn  Sn15  1  0.344534  0.301749  0.000000  1
  Sn  Sn16  1  0.155476  0.801717  0.000000  1
  Sn  Sn17  1  0.844551  0.198256  0.000000  1
  Sn  Sn18  1  0.301744  0.655449  0.000000  1
  Sn  Sn19  1  0.698283  0.344524  0.000000  1
  Sn  Sn20  1  0.198251  0.155466  0.000000  1
  Sn  Sn21  1  0.801778  0.844510  0.000000  1
  Sn  Sn22  1  0.663489  0.506099  0.500000  1
  Sn  Sn23  1  0.336522  0.493941  0.500000  1
  Sn  Sn24  1  0.163517  0.993980  0.500000  1
  Sn  Sn25  1  0.836535  0.006077  0.500000  1
  Sn  Sn26  1  0.493923  0.663465  0.500000  1
  Sn  Sn27  1  0.506020  0.336483  0.500000  1
  Sn  Sn28  1  0.006059  0.163478  0.500000  1
  Sn  Sn29  1  0.993901  0.836511  0.500000  1
  Ir  Ir30  1  0.747237  0.529361  0.000000  1
  Ir  Ir31  1  0.252784  0.470695  0.000000  1
  Ir  Ir32  1  0.247206  0.970634  0.000000  1
  Ir  Ir33  1  0.752789  0.029304  0.000000  1
  Ir  Ir34  1  0.470696  0.747211  0.000000  1
  Ir  Ir35  1  0.529366  0.252794  0.000000  1
  Ir  Ir36  1  0.029305  0.247216  0.000000  1
  Ir  Ir37  1  0.970639  0.752763  0.000000  1
