# generated using pymatgen
data_Y3Ta2B4Ru10W
_symmetry_space_group_name_H-M   'P 1'
_cell_length_a   9.60267905
_cell_length_b   9.59227658
_cell_length_c   3.10653900
_cell_angle_alpha   90.00000000
_cell_angle_beta   90.00000000
_cell_angle_gamma   90.33681345
_symmetry_Int_Tables_number   1
_chemical_formula_structural   Y3Ta2B4Ru10W
_chemical_formula_sum   'Y3 Ta2 B4 Ru10 W1'
_cell_volume   286.14318859
_cell_formula_units_Z   1
loop_
 _symmetry_equiv_pos_site_id
 _symmetry_equiv_pos_as_xyz
  1  'x, y, z'
loop_
 _atom_site_type_symbol
 _atom_site_label
 _atom_site_symmetry_multiplicity
 _atom_site_fract_x
 _atom_site_fract_y
 _atom_site_fract_z
 _atom_site_occupancy
  Y  Y0  1  0.823946  0.675357  0.000000  1
  Y  Y1  1  0.175430  0.323421  0.000000  1
  Y  Y2  1  0.325216  0.825707  0.000000  1
  Ta  Ta3  1  0.676890  0.175629  0.000000  1
  Ta  Ta4  1  0.002506  0.998258  0.000000  1
  B  B5  1  0.623890  0.882308  0.000000  1
  B  B6  1  0.380578  0.122490  0.000000  1
  B  B7  1  0.117066  0.619052  0.000000  1
  B  B8  1  0.877301  0.376398  0.000000  1
  Ru  Ru9  1  0.569117  0.718844  0.500000  1
  Ru  Ru10  1  0.442879  0.283173  0.500000  1
  Ru  Ru11  1  0.070102  0.780012  0.500000  1
  Ru  Ru12  1  0.914102  0.213742  0.500000  1
  Ru  Ru13  1  0.283871  0.566985  0.500000  1
  Ru  Ru14  1  0.710921  0.417868  0.500000  1
  Ru  Ru15  1  0.222349  0.071054  0.500000  1
  Ru  Ru16  1  0.779958  0.940849  0.500000  1
  Ru  Ru17  1  0.509950  0.010408  0.500000  1
  Ru  Ru18  1  0.996332  0.495605  0.500000  1
  W  W19  1  0.497598  0.502840  0.000000  1
