# generated using pymatgen
data_NaZrTa2Ni10P7
_symmetry_space_group_name_H-M   'P 1'
_cell_length_a   9.20901728
_cell_length_b   9.16773462
_cell_length_c   3.64975400
_cell_angle_alpha   90.00000000
_cell_angle_beta   90.00000000
_cell_angle_gamma   120.45087491
_symmetry_Int_Tables_number   1
_chemical_formula_structural   NaZrTa2Ni10P7
_chemical_formula_sum   'Na1 Zr1 Ta2 Ni10 P7'
_cell_volume   265.63079726
_cell_formula_units_Z   1
loop_
 _symmetry_equiv_pos_site_id
 _symmetry_equiv_pos_as_xyz
  1  'x, y, z'
loop_
 _atom_site_type_symbol
 _atom_site_label
 _atom_site_symmetry_multiplicity
 _atom_site_fract_x
 _atom_site_fract_y
 _atom_site_fract_z
 _atom_site_occupancy
  Na  Na0  1  0.995093  0.001523  0.000000  1
  Zr  Zr1  1  0.333804  0.665494  0.500000  1
  Ta  Ta2  1  0.888805  0.455307  0.500000  1
  Ta  Ta3  1  0.543524  0.430716  0.500000  1
  Ni  Ni4  1  0.296931  0.395686  0.000000  1
  Ni  Ni5  1  0.102764  0.704412  0.000000  1
  Ni  Ni6  1  0.381472  0.166830  0.000000  1
  Ni  Ni7  1  0.794857  0.623520  0.000000  1
  Ni  Ni8  1  0.823437  0.208998  0.000000  1
  Ni  Ni9  1  0.236221  0.943818  0.500000  1
  Ni  Ni10  1  0.054484  0.280972  0.500000  1
  Ni  Ni11  1  0.716557  0.777650  0.500000  1
  Ni  Ni12  1  0.569835  0.108478  0.500000  1
  Ni  Ni13  1  0.598436  0.898990  0.000000  1
  P  P14  1  0.662748  0.326706  0.000000  1
  P  P15  1  0.088494  0.450664  0.000000  1
  P  P16  1  0.248380  0.205313  0.500000  1
  P  P17  1  0.781749  0.046811  0.500000  1
  P  P18  1  0.958846  0.752778  0.500000  1
  P  P19  1  0.552236  0.637008  0.000000  1
  P  P20  1  0.371328  0.918327  0.000000  1
