# generated using pymatgen
data_Tm5Mn(InRh2)6
_symmetry_space_group_name_H-M   'P 1'
_cell_length_a   4.66646900
_cell_length_b   6.51468300
_cell_length_c   13.91065100
_cell_angle_alpha   90.00000000
_cell_angle_beta   90.00106084
_cell_angle_gamma   90.00000000
_symmetry_Int_Tables_number   1
_chemical_formula_structural   Tm5Mn(InRh2)6
_chemical_formula_sum   'Tm5 Mn1 In6 Rh12'
_cell_volume   422.89166784
_cell_formula_units_Z   1
loop_
 _symmetry_equiv_pos_site_id
 _symmetry_equiv_pos_as_xyz
  1  'x, y, z'
loop_
 _atom_site_type_symbol
 _atom_site_label
 _atom_site_symmetry_multiplicity
 _atom_site_fract_x
 _atom_site_fract_y
 _atom_site_fract_z
 _atom_site_occupancy
  Tm  Tm0  1  0.999966  0.000000  0.996520  1
  Tm  Tm1  1  0.500034  0.500001  0.164648  1
  Tm  Tm2  1  0.000038  0.000000  0.333285  1
  Tm  Tm3  1  0.500086  0.500001  0.502007  1
  Tm  Tm4  1  0.999955  0.000000  0.670152  1
  Mn  Mn5  1  0.500038  0.500001  0.833437  1
  In  In6  1  0.999815  0.500001  0.997872  1
  In  In7  1  0.499785  0.000000  0.161722  1
  In  In8  1  0.000298  0.500001  0.333446  1
  In  In9  1  0.499862  0.000000  0.504977  1
  In  In10  1  0.000018  0.500001  0.668702  1
  In  In11  1  0.499986  0.000000  0.833343  1
  Rh  Rh12  1  0.499949  0.258056  0.993135  1
  Rh  Rh13  1  0.499949  0.741945  0.993135  1
  Rh  Rh14  1  0.999940  0.249470  0.165708  1
  Rh  Rh15  1  0.999940  0.750529  0.165708  1
  Rh  Rh16  1  0.500208  0.249316  0.333297  1
  Rh  Rh17  1  0.500208  0.750683  0.333297  1
  Rh  Rh18  1  0.999982  0.249278  0.500957  1
  Rh  Rh19  1  0.999982  0.750721  0.500957  1
  Rh  Rh20  1  0.499998  0.258277  0.673544  1
  Rh  Rh21  1  0.499998  0.741722  0.673544  1
  Rh  Rh22  1  0.999987  0.262159  0.833303  1
  Rh  Rh23  1  0.999987  0.737840  0.833303  1
