# generated using pymatgen
data_Nd5Ge12Rh19
_symmetry_space_group_name_H-M   'P 1'
_cell_length_a   13.19887500
_cell_length_b   13.19887384
_cell_length_c   4.07823300
_cell_angle_alpha   90.00000000
_cell_angle_beta   90.00000000
_cell_angle_gamma   120.00000040
_symmetry_Int_Tables_number   1
_chemical_formula_structural   Nd5Ge12Rh19
_chemical_formula_sum   'Nd5 Ge12 Rh19'
_cell_volume   615.28518486
_cell_formula_units_Z   1
loop_
 _symmetry_equiv_pos_site_id
 _symmetry_equiv_pos_as_xyz
  1  'x, y, z'
loop_
 _atom_site_type_symbol
 _atom_site_label
 _atom_site_symmetry_multiplicity
 _atom_site_fract_x
 _atom_site_fract_y
 _atom_site_fract_z
 _atom_site_occupancy
  Nd  Nd0  1  0.000000  0.190421  0.500000  1
  Nd  Nd1  1  0.809579  0.809579  0.500000  1
  Nd  Nd2  1  0.190421  0.000000  0.500000  1
  Nd  Nd3  1  0.666667  0.333333  0.000000  1
  Nd  Nd4  1  0.333333  0.666667  0.000000  1
  Ge  Ge5  1  0.478460  0.315404  0.500000  1
  Ge  Ge6  1  0.816944  0.000000  0.000000  1
  Ge  Ge7  1  0.183056  0.183056  0.000000  1
  Ge  Ge8  1  0.000000  0.816944  0.000000  1
  Ge  Ge9  1  0.372947  0.000000  0.000000  1
  Ge  Ge10  1  0.684596  0.163056  0.500000  1
  Ge  Ge11  1  0.836944  0.521540  0.500000  1
  Ge  Ge12  1  0.521540  0.836944  0.500000  1
  Ge  Ge13  1  0.163056  0.684596  0.500000  1
  Ge  Ge14  1  0.315404  0.478460  0.500000  1
  Ge  Ge15  1  0.000000  0.372947  0.000000  1
  Ge  Ge16  1  0.627053  0.627053  0.000000  1
  Rh  Rh17  1  0.807174  0.183242  0.000000  1
  Rh  Rh18  1  0.376068  0.192826  0.000000  1
  Rh  Rh19  1  0.641368  0.515339  0.500000  1
  Rh  Rh20  1  0.873970  0.358632  0.500000  1
  Rh  Rh21  1  0.358632  0.873970  0.500000  1
  Rh  Rh22  1  0.515339  0.641368  0.500000  1
  Rh  Rh23  1  0.126030  0.484661  0.500000  1
  Rh  Rh24  1  0.816758  0.623932  0.000000  1
  Rh  Rh25  1  0.623932  0.816758  0.000000  1
  Rh  Rh26  1  0.183242  0.807174  0.000000  1
  Rh  Rh27  1  0.192826  0.376068  0.000000  1
  Rh  Rh28  1  0.000000  0.719805  0.500000  1
  Rh  Rh29  1  0.280195  0.280195  0.500000  1
  Rh  Rh30  1  0.719805  0.000000  0.500000  1
  Rh  Rh31  1  0.000000  0.557566  0.000000  1
  Rh  Rh32  1  0.442434  0.442434  0.000000  1
  Rh  Rh33  1  0.557566  0.000000  0.000000  1
  Rh  Rh34  1  0.000000  0.000000  0.000000  1
  Rh  Rh35  1  0.484661  0.126030  0.500000  1
