# generated using pymatgen
data_Ho3Tm(Si5Pt3)2
_symmetry_space_group_name_H-M   'P 1'
_cell_length_a   8.13942522
_cell_length_b   8.13705131
_cell_length_c   8.13705162
_cell_angle_alpha   136.32061477
_cell_angle_beta   104.36669284
_cell_angle_gamma   91.63755045
_symmetry_Int_Tables_number   1
_chemical_formula_structural   Ho3Tm(Si5Pt3)2
_chemical_formula_sum   'Ho3 Tm1 Si10 Pt6'
_cell_volume   342.68110086
_cell_formula_units_Z   1
loop_
 _symmetry_equiv_pos_site_id
 _symmetry_equiv_pos_as_xyz
  1  'x, y, z'
loop_
 _atom_site_type_symbol
 _atom_site_label
 _atom_site_symmetry_multiplicity
 _atom_site_fract_x
 _atom_site_fract_y
 _atom_site_fract_z
 _atom_site_occupancy
  Ho  Ho0  1  0.641682  0.370350  0.271332  1
  Ho  Ho1  1  0.358252  0.629619  0.728634  1
  Ho  Ho2  1  0.098989  0.870336  0.228652  1
  Tm  Tm3  1  0.901185  0.129769  0.771416  1
  Si  Si4  1  0.271495  0.521511  0.249468  1
  Si  Si5  1  0.728100  0.478224  0.750164  1
  Si  Si6  1  0.728100  0.977936  0.249876  1
  Si  Si7  1  0.271495  0.022027  0.749984  1
  Si  Si8  1  0.460522  0.112039  0.348482  1
  Si  Si9  1  0.539980  0.888347  0.651634  1
  Si  Si10  1  0.763522  0.612063  0.151459  1
  Si  Si11  1  0.236281  0.387699  0.848582  1
  Si  Si12  1  0.000040  0.250083  0.249952  1
  Si  Si13  1  0.000040  0.750088  0.749957  1
  Pt  Pt14  1  0.250837  0.137583  0.113254  1
  Pt  Pt15  1  0.749494  0.862738  0.886756  1
  Pt  Pt16  1  0.024246  0.637640  0.386606  1
  Pt  Pt17  1  0.975255  0.361877  0.613378  1
  Pt  Pt18  1  0.500242  0.249832  0.750006  1
  Pt  Pt19  1  0.500242  0.750237  0.250411  1
