# generated using pymatgen
data_Ce(PuH4)3
_symmetry_space_group_name_H-M   'P 1'
_cell_length_a   6.68437400
_cell_length_b   6.68437400
_cell_length_c   6.68437400
_cell_angle_alpha   90.00000000
_cell_angle_beta   90.00000000
_cell_angle_gamma   90.00000000
_symmetry_Int_Tables_number   1
_chemical_formula_structural   Ce(PuH4)3
_chemical_formula_sum   'Ce2 Pu6 H24'
_cell_volume   298.66355062
_cell_formula_units_Z   2
loop_
 _symmetry_equiv_pos_site_id
 _symmetry_equiv_pos_as_xyz
  1  'x, y, z'
loop_
 _atom_site_type_symbol
 _atom_site_label
 _atom_site_symmetry_multiplicity
 _atom_site_fract_x
 _atom_site_fract_y
 _atom_site_fract_z
 _atom_site_occupancy
  Ce  Ce0  1  0.000000  0.000000  0.000000  1
  Ce  Ce1  1  0.500000  0.500000  0.500000  1
  Pu  Pu2  1  0.250000  0.000000  0.500000  1
  Pu  Pu3  1  0.750000  0.000000  0.500000  1
  Pu  Pu4  1  0.000000  0.500000  0.250000  1
  Pu  Pu5  1  0.000000  0.500000  0.750000  1
  Pu  Pu6  1  0.500000  0.750000  0.000000  1
  Pu  Pu7  1  0.500000  0.250000  0.000000  1
  H  H8  1  0.000000  0.156286  0.307709  1
  H  H9  1  0.500000  0.192291  0.656286  1
  H  H10  1  0.500000  0.807709  0.343714  1
  H  H11  1  0.807709  0.656286  0.500000  1
  H  H12  1  0.192291  0.656286  0.500000  1
  H  H13  1  0.343714  0.500000  0.807709  1
  H  H14  1  0.656286  0.500000  0.807709  1
  H  H15  1  0.307709  0.000000  0.156286  1
  H  H16  1  0.156286  0.307709  0.000000  1
  H  H17  1  0.843714  0.692291  0.000000  1
  H  H18  1  0.307709  0.000000  0.843714  1
  H  H19  1  0.843714  0.307709  0.000000  1
  H  H20  1  0.692291  0.000000  0.156286  1
  H  H21  1  0.692291  0.000000  0.843714  1
  H  H22  1  0.156286  0.692291  0.000000  1
  H  H23  1  0.000000  0.843714  0.692291  1
  H  H24  1  0.000000  0.156286  0.692291  1
  H  H25  1  0.000000  0.843714  0.307709  1
  H  H26  1  0.656286  0.500000  0.192291  1
  H  H27  1  0.343714  0.500000  0.192291  1
  H  H28  1  0.807709  0.343714  0.500000  1
  H  H29  1  0.192291  0.343714  0.500000  1
  H  H30  1  0.500000  0.807709  0.656286  1
  H  H31  1  0.500000  0.192291  0.343714  1
