# generated using pymatgen
data_Gd3ErMn4O14
_symmetry_space_group_name_H-M   'P 1'
_cell_length_a   7.08398027
_cell_length_b   7.08398068
_cell_length_c   7.08398045
_cell_angle_alpha   60.25069418
_cell_angle_beta   60.25069438
_cell_angle_gamma   60.25068790
_symmetry_Int_Tables_number   1
_chemical_formula_structural   Gd3ErMn4O14
_chemical_formula_sum   'Gd3 Er1 Mn4 O14'
_cell_volume   252.79857382
_cell_formula_units_Z   1
loop_
 _symmetry_equiv_pos_site_id
 _symmetry_equiv_pos_as_xyz
  1  'x, y, z'
loop_
 _atom_site_type_symbol
 _atom_site_label
 _atom_site_symmetry_multiplicity
 _atom_site_fract_x
 _atom_site_fract_y
 _atom_site_fract_z
 _atom_site_occupancy
  Gd  Gd0  1  0.500000  0.000000  0.500000  1
  Gd  Gd1  1  0.000000  0.500000  0.500001  1
  Gd  Gd2  1  0.500000  0.500000  0.000000  1
  Er  Er3  1  0.500000  0.500000  0.500000  1
  Mn  Mn4  1  0.000000  0.500000  0.000001  1
  Mn  Mn5  1  0.500000  0.000000  0.000000  1
  Mn  Mn6  1  0.000000  0.000000  0.500000  1
  Mn  Mn7  1  0.000000  0.000000  0.000000  1
  O  O8  1  0.326952  0.923126  0.923125  1
  O  O9  1  0.082154  0.671895  0.671894  1
  O  O10  1  0.923124  0.326953  0.923125  1
  O  O11  1  0.923124  0.923126  0.326953  1
  O  O12  1  0.328105  0.328106  0.917846  1
  O  O13  1  0.328105  0.917847  0.328106  1
  O  O14  1  0.076875  0.673048  0.076875  1
  O  O15  1  0.671894  0.082154  0.671894  1
  O  O16  1  0.376856  0.376857  0.376856  1
  O  O17  1  0.623143  0.623144  0.623144  1
  O  O18  1  0.917845  0.328106  0.328106  1
  O  O19  1  0.673047  0.076875  0.076875  1
  O  O20  1  0.076875  0.076875  0.673047  1
  O  O21  1  0.671894  0.671895  0.082154  1
