# generated using pymatgen
data_Ce5P12Os17Rh2
_symmetry_space_group_name_H-M   'P 1'
_cell_length_a   12.64664689
_cell_length_b   12.70365393
_cell_length_c   4.02035600
_cell_angle_alpha   90.00000000
_cell_angle_beta   90.00000000
_cell_angle_gamma   120.14922182
_symmetry_Int_Tables_number   1
_chemical_formula_structural   Ce5P12Os17Rh2
_chemical_formula_sum   'Ce5 P12 Os17 Rh2'
_cell_volume   558.52702737
_cell_formula_units_Z   1
loop_
 _symmetry_equiv_pos_site_id
 _symmetry_equiv_pos_as_xyz
  1  'x, y, z'
loop_
 _atom_site_type_symbol
 _atom_site_label
 _atom_site_symmetry_multiplicity
 _atom_site_fract_x
 _atom_site_fract_y
 _atom_site_fract_z
 _atom_site_occupancy
  Ce  Ce0  1  0.183974  0.184334  0.500000  1
  Ce  Ce1  1  0.816026  0.000360  0.500000  1
  Ce  Ce2  1  0.000000  0.814714  0.500000  1
  Ce  Ce3  1  0.331590  0.665695  0.000000  1
  Ce  Ce4  1  0.668410  0.334105  0.000000  1
  P  P5  1  0.814049  0.814226  0.000000  1
  P  P6  1  0.185951  0.000176  0.000000  1
  P  P7  1  0.000000  0.184275  0.000000  1
  P  P8  1  0.175370  0.478365  0.500000  1
  P  P9  1  0.519924  0.698568  0.500000  1
  P  P10  1  0.301274  0.822676  0.500000  1
  P  P11  1  0.698726  0.521403  0.500000  1
  P  P12  1  0.824630  0.302995  0.500000  1
  P  P13  1  0.480076  0.178644  0.500000  1
  P  P14  1  0.370487  0.369983  0.000000  1
  P  P15  1  0.629513  0.999496  0.000000  1
  P  P16  1  0.000000  0.628191  0.000000  1
  Os  Os17  1  0.000000  0.447760  0.000000  1
  Os  Os18  1  0.711137  0.711450  0.500000  1
  Os  Os19  1  0.288863  0.000313  0.500000  1
  Os  Os20  1  0.000000  0.288229  0.500000  1
  Os  Os21  1  0.184859  0.377733  0.000000  1
  Os  Os22  1  0.621285  0.806632  0.000000  1
  Os  Os23  1  0.191845  0.815226  0.000000  1
  Os  Os24  1  0.808155  0.623381  0.000000  1
  Os  Os25  1  0.815141  0.192874  0.000000  1
  Os  Os26  1  0.378715  0.185347  0.000000  1
  Os  Os27  1  0.369011  0.494712  0.500000  1
  Os  Os28  1  0.506151  0.875883  0.500000  1
  Os  Os29  1  0.125822  0.630195  0.500000  1
  Os  Os30  1  0.874178  0.504373  0.500000  1
  Os  Os31  1  0.630989  0.125700  0.500000  1
  Os  Os32  1  0.493849  0.369733  0.500000  1
  Os  Os33  1  0.000000  0.999536  0.000000  1
  Rh  Rh34  1  0.552745  0.552730  0.000000  1
  Rh  Rh35  1  0.447255  0.999986  0.000000  1
