# generated using pymatgen
data_Yb2PO4F
_symmetry_space_group_name_H-M   'P 1'
_cell_length_a   7.87944425
_cell_length_b   7.87942821
_cell_length_c   10.44047818
_cell_angle_alpha   61.10498446
_cell_angle_beta   61.10489741
_cell_angle_gamma   50.65786770
_symmetry_Int_Tables_number   1
_chemical_formula_structural   Yb2PO4F
_chemical_formula_sum   'Yb8 P4 O16 F4'
_cell_volume   423.65393827
_cell_formula_units_Z   4
loop_
 _symmetry_equiv_pos_site_id
 _symmetry_equiv_pos_as_xyz
  1  'x, y, z'
loop_
 _atom_site_type_symbol
 _atom_site_label
 _atom_site_symmetry_multiplicity
 _atom_site_fract_x
 _atom_site_fract_y
 _atom_site_fract_z
 _atom_site_occupancy
  Yb  Yb0  1  0.213956  0.703802  0.963305  1
  Yb  Yb1  1  0.296199  0.786043  0.536695  1
  Yb  Yb2  1  0.786044  0.296198  0.036695  1
  Yb  Yb3  1  0.703801  0.213957  0.463305  1
  Yb  Yb4  1  0.035437  0.263564  0.664535  1
  Yb  Yb5  1  0.736437  0.964561  0.835467  1
  Yb  Yb6  1  0.964563  0.736436  0.335465  1
  Yb  Yb7  1  0.263563  0.035439  0.164533  1
  P  P8  1  0.239818  0.405409  0.806321  1
  P  P9  1  0.594590  0.760179  0.693681  1
  P  P10  1  0.760182  0.594591  0.193679  1
  P  P11  1  0.405410  0.239821  0.306319  1
  O  O12  1  0.754313  0.628156  0.569410  1
  O  O13  1  0.371841  0.245690  0.930589  1
  O  O14  1  0.245687  0.371844  0.430590  1
  O  O15  1  0.628159  0.754310  0.069411  1
  O  O16  1  0.920310  0.663076  0.170133  1
  O  O17  1  0.336923  0.079689  0.329868  1
  O  O18  1  0.079690  0.336924  0.829867  1
  O  O19  1  0.663077  0.920311  0.670132  1
  O  O20  1  0.588999  0.600971  0.352393  1
  O  O21  1  0.399029  0.410999  0.147608  1
  O  O22  1  0.411001  0.399029  0.647607  1
  O  O23  1  0.600971  0.589001  0.852392  1
  O  O24  1  0.896201  0.343572  0.185839  1
  O  O25  1  0.656426  0.103800  0.314161  1
  O  O26  1  0.103799  0.656428  0.814161  1
  O  O27  1  0.343574  0.896200  0.685839  1
  F  F28  1  0.071287  0.894252  0.396123  1
  F  F29  1  0.105749  0.928714  0.103876  1
  F  F30  1  0.928713  0.105748  0.603877  1
  F  F31  1  0.894251  0.071286  0.896124  1
