# generated using pymatgen
data_SmBiRh2O7
_symmetry_space_group_name_H-M   'P 1'
_cell_length_a   7.33102428
_cell_length_b   7.33102484
_cell_length_c   7.29587700
_cell_angle_alpha   60.15847552
_cell_angle_beta   60.15847304
_cell_angle_gamma   60.40414332
_symmetry_Int_Tables_number   1
_chemical_formula_structural   SmBiRh2O7
_chemical_formula_sum   'Sm2 Bi2 Rh4 O14'
_cell_volume   278.76824202
_cell_formula_units_Z   2
loop_
 _symmetry_equiv_pos_site_id
 _symmetry_equiv_pos_as_xyz
  1  'x, y, z'
loop_
 _atom_site_type_symbol
 _atom_site_label
 _atom_site_symmetry_multiplicity
 _atom_site_fract_x
 _atom_site_fract_y
 _atom_site_fract_z
 _atom_site_occupancy
  Sm  Sm0  1  0.125000  0.125000  0.125000  1
  Sm  Sm1  1  0.125000  0.125000  0.625000  1
  Bi  Bi2  1  0.125000  0.625000  0.125000  1
  Bi  Bi3  1  0.625000  0.125000  0.125000  1
  Rh  Rh4  1  0.625000  0.625000  0.625000  1
  Rh  Rh5  1  0.625000  0.625000  0.125000  1
  Rh  Rh6  1  0.125000  0.625000  0.625000  1
  Rh  Rh7  1  0.625000  0.125000  0.625000  1
  O  O8  1  0.251404  0.251404  0.248596  1
  O  O9  1  0.291417  0.711201  0.290202  1
  O  O10  1  0.959739  0.959739  0.540261  1
  O  O11  1  0.538799  0.958583  0.542820  1
  O  O12  1  0.705870  0.705870  0.294130  1
  O  O13  1  0.958583  0.538799  0.542820  1
  O  O14  1  0.711201  0.291417  0.707180  1
  O  O15  1  0.290261  0.290261  0.709739  1
  O  O16  1  0.711201  0.291417  0.290202  1
  O  O17  1  0.291417  0.711201  0.707180  1
  O  O18  1  0.958583  0.538799  0.959798  1
  O  O19  1  0.544130  0.544130  0.955870  1
  O  O20  1  0.998596  0.998596  0.001404  1
  O  O21  1  0.538799  0.958583  0.959798  1
