# generated using pymatgen
data_Cs3LuI6
_symmetry_space_group_name_H-M   'P 1'
_cell_length_a   10.62738000
_cell_length_b   10.62738000
_cell_length_c   8.81061800
_cell_angle_alpha   90.00000000
_cell_angle_beta   90.00000000
_cell_angle_gamma   90.00000000
_symmetry_Int_Tables_number   1
_chemical_formula_structural   Cs3LuI6
_chemical_formula_sum   'Cs6 Lu2 I12'
_cell_volume   995.08181957
_cell_formula_units_Z   2
loop_
 _symmetry_equiv_pos_site_id
 _symmetry_equiv_pos_as_xyz
  1  'x, y, z'
loop_
 _atom_site_type_symbol
 _atom_site_label
 _atom_site_symmetry_multiplicity
 _atom_site_fract_x
 _atom_site_fract_y
 _atom_site_fract_z
 _atom_site_occupancy
  Cs  Cs0  1  0.000000  0.000000  0.500000  1
  Cs  Cs1  1  0.000000  0.000000  0.000000  1
  Cs  Cs2  1  0.232474  0.586975  0.500000  1
  Cs  Cs3  1  0.767526  0.413025  0.500000  1
  Cs  Cs4  1  0.413025  0.232474  0.000000  1
  Cs  Cs5  1  0.586975  0.767526  0.000000  1
  Lu  Lu6  1  0.500000  0.000000  0.500000  1
  Lu  Lu7  1  0.000000  0.500000  0.000000  1
  I  I8  1  0.692155  0.058604  0.741295  1
  I  I9  1  0.307845  0.941396  0.741295  1
  I  I10  1  0.941396  0.692155  0.241295  1
  I  I11  1  0.058604  0.307845  0.241295  1
  I  I12  1  0.307845  0.941396  0.258705  1
  I  I13  1  0.692155  0.058604  0.258705  1
  I  I14  1  0.058604  0.307845  0.758705  1
  I  I15  1  0.941396  0.692155  0.758705  1
  I  I16  1  0.571187  0.729242  0.500000  1
  I  I17  1  0.428813  0.270758  0.500000  1
  I  I18  1  0.270758  0.571187  0.000000  1
  I  I19  1  0.729242  0.428813  0.000000  1
