# generated using pymatgen
data_La12CdNi6
_symmetry_space_group_name_H-M   'P 1'
_cell_length_a   8.84483800
_cell_length_b   8.84483970
_cell_length_c   8.84483800
_cell_angle_alpha   109.47122132
_cell_angle_beta   109.47122522
_cell_angle_gamma   109.47122187
_symmetry_Int_Tables_number   1
_chemical_formula_structural   La12CdNi6
_chemical_formula_sum   'La12 Cd1 Ni6'
_cell_volume   532.65720575
_cell_formula_units_Z   1
loop_
 _symmetry_equiv_pos_site_id
 _symmetry_equiv_pos_as_xyz
  1  'x, y, z'
loop_
 _atom_site_type_symbol
 _atom_site_label
 _atom_site_symmetry_multiplicity
 _atom_site_fract_x
 _atom_site_fract_y
 _atom_site_fract_z
 _atom_site_occupancy
  La  La0  1  0.690571  0.183363  0.873933  1
  La  La1  1  0.816637  0.507208  0.690571  1
  La  La2  1  0.492792  0.309429  0.183363  1
  La  La3  1  0.816637  0.126067  0.309429  1
  La  La4  1  0.507208  0.690571  0.816637  1
  La  La5  1  0.183363  0.492792  0.309429  1
  La  La6  1  0.126067  0.309429  0.816637  1
  La  La7  1  0.873933  0.690571  0.183363  1
  La  La8  1  0.183363  0.873933  0.690571  1
  La  La9  1  0.690571  0.816637  0.507208  1
  La  La10  1  0.309429  0.183363  0.492792  1
  La  La11  1  0.309429  0.816637  0.126067  1
  Cd  Cd12  1  0.000000  0.000000  0.000000  1
  Ni  Ni13  1  0.624895  0.124895  0.500000  1
  Ni  Ni14  1  0.875105  0.500000  0.375105  1
  Ni  Ni15  1  0.500000  0.375105  0.875105  1
  Ni  Ni16  1  0.124895  0.500000  0.624895  1
  Ni  Ni17  1  0.500000  0.624895  0.124895  1
  Ni  Ni18  1  0.375105  0.875105  0.500000  1
