# generated using pymatgen
data_Eu2TcH7
_symmetry_space_group_name_H-M   'P 1'
_cell_length_a   5.37615361
_cell_length_b   5.56611308
_cell_length_c   7.67318347
_cell_angle_alpha   46.29013944
_cell_angle_beta   44.82211423
_cell_angle_gamma   60.72501427
_symmetry_Int_Tables_number   1
_chemical_formula_structural   Eu2TcH7
_chemical_formula_sum   'Eu2 Tc1 H7'
_cell_volume   116.99782605
_cell_formula_units_Z   1
loop_
 _symmetry_equiv_pos_site_id
 _symmetry_equiv_pos_as_xyz
  1  'x, y, z'
loop_
 _atom_site_type_symbol
 _atom_site_label
 _atom_site_symmetry_multiplicity
 _atom_site_fract_x
 _atom_site_fract_y
 _atom_site_fract_z
 _atom_site_occupancy
  Eu  Eu0  1  0.902142  0.051220  0.620394  1
  Eu  Eu1  1  0.901651  0.041920  0.125859  1
  Tc  Tc2  1  0.403277  0.551844  0.870972  1
  H  H3  1  0.321055  0.551579  0.685638  1
  H  H4  1  0.383040  0.105520  0.105714  1
  H  H5  1  0.803162  0.540300  0.577492  1
  H  H6  1  0.762153  0.544783  0.824323  1
  H  H7  1  0.287984  0.553464  0.147460  1
  H  H8  1  0.934986  0.574186  0.086482  1
  H  H9  1  0.422240  0.997503  0.636336  1
