# generated using pymatgen
data_Lu8Re9Si16Mo3
_symmetry_space_group_name_H-M   'P 1'
_cell_length_a   6.74036490
_cell_length_b   6.74036490
_cell_length_c   12.71497868
_cell_angle_alpha   90.08305324
_cell_angle_beta   90.08305324
_cell_angle_gamma   90.02203691
_symmetry_Int_Tables_number   1
_chemical_formula_structural   Lu8Re9Si16Mo3
_chemical_formula_sum   'Lu8 Re9 Si16 Mo3'
_cell_volume   577.67225255
_cell_formula_units_Z   1
loop_
 _symmetry_equiv_pos_site_id
 _symmetry_equiv_pos_as_xyz
  1  'x, y, z'
loop_
 _atom_site_type_symbol
 _atom_site_label
 _atom_site_symmetry_multiplicity
 _atom_site_fract_x
 _atom_site_fract_y
 _atom_site_fract_z
 _atom_site_occupancy
  Lu  Lu0  1  0.006843  0.660920  0.029922  1
  Lu  Lu1  1  0.992623  0.339003  0.530236  1
  Lu  Lu2  1  0.339080  0.993157  0.470078  1
  Lu  Lu3  1  0.160414  0.492260  0.780154  1
  Lu  Lu4  1  0.839103  0.506571  0.279854  1
  Lu  Lu5  1  0.493429  0.160897  0.220146  1
  Lu  Lu6  1  0.507740  0.839586  0.719846  1
  Lu  Lu7  1  0.660997  0.007377  0.969764  1
  Re  Re8  1  0.015516  0.812268  0.632762  1
  Re  Re9  1  0.985211  0.184962  0.130978  1
  Re  Re10  1  0.815038  0.014789  0.369022  1
  Re  Re11  1  0.313654  0.485816  0.381934  1
  Re  Re12  1  0.686029  0.518048  0.881448  1
  Re  Re13  1  0.481952  0.313971  0.618552  1
  Re  Re14  1  0.514184  0.686346  0.118066  1
  Re  Re15  1  0.187732  0.984484  0.867238  1
  Re  Re16  1  0.834558  0.165442  0.750000  1
  Si  Si17  1  0.022894  0.722713  0.438649  1
  Si  Si18  1  0.618598  0.303177  0.432196  1
  Si  Si19  1  0.381465  0.696940  0.931618  1
  Si  Si20  1  0.195246  0.116800  0.681770  1
  Si  Si21  1  0.303060  0.618535  0.568382  1
  Si  Si22  1  0.696823  0.381402  0.067804  1
  Si  Si23  1  0.803101  0.880927  0.181770  1
  Si  Si24  1  0.119073  0.196899  0.318230  1
  Si  Si25  1  0.976510  0.276617  0.937065  1
  Si  Si26  1  0.723383  0.023490  0.562935  1
  Si  Si27  1  0.222985  0.476567  0.187986  1
  Si  Si28  1  0.775147  0.520806  0.688810  1
  Si  Si29  1  0.479194  0.224853  0.811190  1
  Si  Si30  1  0.523433  0.777015  0.312014  1
  Si  Si31  1  0.277287  0.977106  0.061351  1
  Si  Si32  1  0.883200  0.804754  0.818230  1
  Mo  Mo33  1  0.664693  0.665015  0.500276  1
  Mo  Mo34  1  0.164818  0.835182  0.250000  1
  Mo  Mo35  1  0.334985  0.335307  0.999724  1
