# generated using pymatgen
data_Nd4Y3Ho3Pb8
_symmetry_space_group_name_H-M   'P 1'
_cell_length_a   8.27228400
_cell_length_b   8.38874204
_cell_length_c   15.83042815
_cell_angle_alpha   89.99751931
_cell_angle_beta   90.00000000
_cell_angle_gamma   90.00000000
_symmetry_Int_Tables_number   1
_chemical_formula_structural   Nd4Y3Ho3Pb8
_chemical_formula_sum   'Nd8 Y6 Ho6 Pb16'
_cell_volume   1098.53762474
_cell_formula_units_Z   2
loop_
 _symmetry_equiv_pos_site_id
 _symmetry_equiv_pos_as_xyz
  1  'x, y, z'
loop_
 _atom_site_type_symbol
 _atom_site_label
 _atom_site_symmetry_multiplicity
 _atom_site_fract_x
 _atom_site_fract_y
 _atom_site_fract_z
 _atom_site_occupancy
  Nd  Nd0  1  0.471810  0.677279  0.598560  1
  Nd  Nd1  1  0.971810  0.822721  0.901440  1
  Nd  Nd2  1  0.528248  0.322495  0.098360  1
  Nd  Nd3  1  0.028248  0.177505  0.401640  1
  Nd  Nd4  1  0.527162  0.321694  0.401902  1
  Nd  Nd5  1  0.027162  0.178306  0.098098  1
  Nd  Nd6  1  0.472640  0.677335  0.901302  1
  Nd  Nd7  1  0.972640  0.822665  0.598698  1
  Y  Y8  1  0.369076  0.841542  0.121305  1
  Y  Y9  1  0.869076  0.658458  0.378695  1
  Y  Y10  1  0.370313  0.840906  0.378176  1
  Y  Y11  1  0.870313  0.659094  0.121824  1
  Y  Y12  1  0.629883  0.158604  0.878382  1
  Y  Y13  1  0.129883  0.341396  0.621618  1
  Ho  Ho14  1  0.630663  0.158425  0.622344  1
  Ho  Ho15  1  0.130663  0.341575  0.877656  1
  Ho  Ho16  1  0.795998  0.495050  0.750163  1
  Ho  Ho17  1  0.295998  0.004950  0.749837  1
  Ho  Ho18  1  0.204006  0.504812  0.249784  1
  Ho  Ho19  1  0.704006  0.995188  0.250216  1
  Pb  Pb20  1  0.710181  0.963003  0.457063  1
  Pb  Pb21  1  0.210181  0.536997  0.042937  1
  Pb  Pb22  1  0.288754  0.038756  0.956056  1
  Pb  Pb23  1  0.788754  0.461244  0.543944  1
  Pb  Pb24  1  0.291571  0.037955  0.543812  1
  Pb  Pb25  1  0.791571  0.462045  0.956188  1
  Pb  Pb26  1  0.709881  0.962380  0.043871  1
  Pb  Pb27  1  0.209881  0.537620  0.456129  1
  Pb  Pb28  1  0.433478  0.371238  0.749595  1
  Pb  Pb29  1  0.933478  0.128762  0.750405  1
  Pb  Pb30  1  0.566449  0.627821  0.249416  1
  Pb  Pb31  1  0.066449  0.872179  0.250584  1
  Pb  Pb32  1  0.660419  0.849827  0.749770  1
  Pb  Pb33  1  0.160419  0.650173  0.750230  1
  Pb  Pb34  1  0.339468  0.150149  0.249811  1
  Pb  Pb35  1  0.839468  0.349851  0.250189  1
