# generated using pymatgen
data_Zr8V12Si15Ni
_symmetry_space_group_name_H-M   'P 1'
_cell_length_a   6.64658471
_cell_length_b   6.65087654
_cell_length_c   12.31642500
_cell_angle_alpha   89.88357129
_cell_angle_beta   90.04110176
_cell_angle_gamma   90.06897585
_symmetry_Int_Tables_number   1
_chemical_formula_structural   Zr8V12Si15Ni
_chemical_formula_sum   'Zr8 V12 Si15 Ni1'
_cell_volume   544.45347554
_cell_formula_units_Z   1
loop_
 _symmetry_equiv_pos_site_id
 _symmetry_equiv_pos_as_xyz
  1  'x, y, z'
loop_
 _atom_site_type_symbol
 _atom_site_label
 _atom_site_symmetry_multiplicity
 _atom_site_fract_x
 _atom_site_fract_y
 _atom_site_fract_z
 _atom_site_occupancy
  Zr  Zr0  1  0.002985  0.660465  0.030145  1
  Zr  Zr1  1  0.838243  0.503219  0.280552  1
  Zr  Zr2  1  0.162517  0.497548  0.781312  1
  Zr  Zr3  1  0.503779  0.837687  0.719850  1
  Zr  Zr4  1  0.495507  0.162196  0.218415  1
  Zr  Zr5  1  0.997308  0.337367  0.529758  1
  Zr  Zr6  1  0.661115  0.003787  0.970886  1
  Zr  Zr7  1  0.337950  0.996781  0.469962  1
  V  V8  1  0.333898  0.334817  0.998902  1
  V  V9  1  0.166312  0.833412  0.249868  1
  V  V10  1  0.833546  0.166639  0.750619  1
  V  V11  1  0.666966  0.667736  0.499287  1
  V  V12  1  0.008423  0.159241  0.127569  1
  V  V13  1  0.340685  0.505577  0.377301  1
  V  V14  1  0.657816  0.496166  0.876344  1
  V  V15  1  0.505624  0.339997  0.623450  1
  V  V16  1  0.494385  0.657632  0.124200  1
  V  V17  1  0.994280  0.839892  0.626174  1
  V  V18  1  0.161140  0.005824  0.871515  1
  V  V19  1  0.839707  0.994450  0.373396  1
  Si  Si20  1  0.538839  0.791672  0.312812  1
  Si  Si21  1  0.460986  0.208599  0.814973  1
  Si  Si22  1  0.790894  0.538921  0.685878  1
  Si  Si23  1  0.210096  0.461012  0.185280  1
  Si  Si24  1  0.709545  0.040088  0.564410  1
  Si  Si25  1  0.961536  0.287077  0.937067  1
  Si  Si26  1  0.040021  0.710214  0.435218  1
  Si  Si27  1  0.704478  0.373352  0.071117  1
  Si  Si28  1  0.126130  0.205074  0.320794  1
  Si  Si29  1  0.874197  0.794860  0.821667  1
  Si  Si30  1  0.204954  0.126136  0.679274  1
  Si  Si31  1  0.795238  0.874531  0.177843  1
  Si  Si32  1  0.294472  0.625863  0.571378  1
  Si  Si33  1  0.372081  0.709757  0.932677  1
  Si  Si34  1  0.625276  0.294262  0.428385  1
  Ni  Ni35  1  0.289070  0.958148  0.061722  1
