# generated using pymatgen
data_Dy6Al24Os3Ru3Rh2
_symmetry_space_group_name_H-M   'P 1'
_cell_length_a   8.83998789
_cell_length_b   8.80898938
_cell_length_c   9.56594909
_cell_angle_alpha   90.00000307
_cell_angle_beta   90.14408300
_cell_angle_gamma   119.88407078
_symmetry_Int_Tables_number   1
_chemical_formula_structural   Dy6Al24Os3Ru3Rh2
_chemical_formula_sum   'Dy6 Al24 Os3 Ru3 Rh2'
_cell_volume   645.86355166
_cell_formula_units_Z   1
loop_
 _symmetry_equiv_pos_site_id
 _symmetry_equiv_pos_as_xyz
  1  'x, y, z'
loop_
 _atom_site_type_symbol
 _atom_site_label
 _atom_site_symmetry_multiplicity
 _atom_site_fract_x
 _atom_site_fract_y
 _atom_site_fract_z
 _atom_site_occupancy
  Dy  Dy0  1  0.191999  0.804679  0.254417  1
  Dy  Dy1  1  0.191999  0.387320  0.254417  1
  Dy  Dy2  1  0.613175  0.806588  0.254665  1
  Dy  Dy3  1  0.808001  0.195321  0.745583  1
  Dy  Dy4  1  0.808001  0.612680  0.745583  1
  Dy  Dy5  1  0.386825  0.193412  0.745335  1
  Al  Al6  1  0.560255  0.437985  0.249091  1
  Al  Al7  1  0.560255  0.122270  0.249091  1
  Al  Al8  1  0.876963  0.438482  0.248132  1
  Al  Al9  1  0.439745  0.562015  0.750909  1
  Al  Al10  1  0.439745  0.877730  0.750909  1
  Al  Al11  1  0.123037  0.561518  0.751868  1
  Al  Al12  1  0.324807  0.162403  0.421873  1
  Al  Al13  1  0.836368  0.162340  0.422429  1
  Al  Al14  1  0.836368  0.674028  0.422429  1
  Al  Al15  1  0.675193  0.837597  0.578127  1
  Al  Al16  1  0.163632  0.837660  0.577571  1
  Al  Al17  1  0.163632  0.325972  0.577571  1
  Al  Al18  1  0.677056  0.838528  0.921969  1
  Al  Al19  1  0.160810  0.836537  0.922544  1
  Al  Al20  1  0.160810  0.324274  0.922544  1
  Al  Al21  1  0.322944  0.161472  0.078031  1
  Al  Al22  1  0.839190  0.163463  0.077456  1
  Al  Al23  1  0.839190  0.675726  0.077456  1
  Al  Al24  1  0.666649  0.333325  0.516801  1
  Al  Al25  1  0.333351  0.666675  0.483199  1
  Al  Al26  1  0.331123  0.665561  0.021904  1
  Al  Al27  1  0.668877  0.334439  0.978096  1
  Al  Al28  1  0.998934  0.999467  0.250221  1
  Al  Al29  1  0.001066  0.000533  0.749779  1
  Os  Os30  1  0.500000  0.500000  0.500000  1
  Os  Os31  1  0.500000  0.000000  0.500000  1
  Os  Os32  1  0.000000  0.500000  0.500000  1
  Ru  Ru33  1  0.000000  0.000000  0.500000  1
  Ru  Ru34  1  0.000000  0.000000  0.000000  1
  Ru  Ru35  1  0.000000  0.500000  0.000000  1
  Rh  Rh36  1  0.500000  0.500000  0.000000  1
  Rh  Rh37  1  0.500000  0.000000  0.000000  1
