# generated using pymatgen
data_MnFe2(AsO4)2
_symmetry_space_group_name_H-M   'P 1'
_cell_length_a   8.75014400
_cell_length_b   5.48367516
_cell_length_c   9.27469743
_cell_angle_alpha   59.93250004
_cell_angle_beta   90.00000000
_cell_angle_gamma   90.00000000
_symmetry_Int_Tables_number   1
_chemical_formula_structural   MnFe2(AsO4)2
_chemical_formula_sum   'Mn2 Fe4 As4 O16'
_cell_volume   385.14255317
_cell_formula_units_Z   2
loop_
 _symmetry_equiv_pos_site_id
 _symmetry_equiv_pos_as_xyz
  1  'x, y, z'
loop_
 _atom_site_type_symbol
 _atom_site_label
 _atom_site_symmetry_multiplicity
 _atom_site_fract_x
 _atom_site_fract_y
 _atom_site_fract_z
 _atom_site_occupancy
  Mn  Mn0  1  0.000000  0.000000  0.000000  1
  Mn  Mn1  1  0.500000  0.000000  0.500000  1
  Fe  Fe2  1  0.354916  0.986377  0.109065  1
  Fe  Fe3  1  0.645084  0.013623  0.890935  1
  Fe  Fe4  1  0.854916  0.013623  0.390935  1
  Fe  Fe5  1  0.145084  0.986377  0.609065  1
  As  As6  1  0.694477  0.655133  0.301250  1
  As  As7  1  0.305523  0.344867  0.698750  1
  As  As8  1  0.194477  0.344867  0.198750  1
  As  As9  1  0.805523  0.655133  0.801250  1
  O  O10  1  0.646484  0.730898  0.454728  1
  O  O11  1  0.353516  0.269102  0.545272  1
  O  O12  1  0.146484  0.269102  0.045272  1
  O  O13  1  0.853516  0.730898  0.954728  1
  O  O14  1  0.567009  0.799282  0.137002  1
  O  O15  1  0.432991  0.200718  0.862998  1
  O  O16  1  0.067009  0.200718  0.362998  1
  O  O17  1  0.932991  0.799282  0.637002  1
  O  O18  1  0.870618  0.824046  0.242245  1
  O  O19  1  0.129382  0.175954  0.757755  1
  O  O20  1  0.370618  0.175954  0.257755  1
  O  O21  1  0.629382  0.824046  0.742245  1
  O  O22  1  0.699406  0.297007  0.378958  1
  O  O23  1  0.300594  0.702993  0.621042  1
  O  O24  1  0.199406  0.702993  0.121042  1
  O  O25  1  0.800594  0.297007  0.878958  1
