# generated using pymatgen
data_Yb(NbS2)3
_symmetry_space_group_name_H-M   'P 1'
_cell_length_a   5.83504900
_cell_length_b   5.83505004
_cell_length_c   14.25706600
_cell_angle_alpha   90.00000000
_cell_angle_beta   90.00000000
_cell_angle_gamma   120.00001112
_symmetry_Int_Tables_number   1
_chemical_formula_structural   Yb(NbS2)3
_chemical_formula_sum   'Yb2 Nb6 S12'
_cell_volume   420.38753990
_cell_formula_units_Z   2
loop_
 _symmetry_equiv_pos_site_id
 _symmetry_equiv_pos_as_xyz
  1  'x, y, z'
loop_
 _atom_site_type_symbol
 _atom_site_label
 _atom_site_symmetry_multiplicity
 _atom_site_fract_x
 _atom_site_fract_y
 _atom_site_fract_z
 _atom_site_occupancy
  Yb  Yb0  1  0.000000  0.000000  0.000000  1
  Yb  Yb1  1  0.000000  0.000000  0.500000  1
  Nb  Nb2  1  0.333333  0.666667  0.250000  1
  Nb  Nb3  1  0.000000  0.000000  0.250000  1
  Nb  Nb4  1  0.000000  0.000000  0.750000  1
  Nb  Nb5  1  0.333333  0.666667  0.750000  1
  Nb  Nb6  1  0.666667  0.333333  0.750000  1
  Nb  Nb7  1  0.666667  0.333333  0.250000  1
  S  S8  1  0.000000  0.664708  0.639880  1
  S  S9  1  0.000000  0.664708  0.860120  1
  S  S10  1  0.000000  0.335292  0.139880  1
  S  S11  1  0.000000  0.335292  0.360120  1
  S  S12  1  0.335292  0.335292  0.639880  1
  S  S13  1  0.335292  0.335292  0.860120  1
  S  S14  1  0.664708  0.664708  0.139880  1
  S  S15  1  0.664708  0.664708  0.360120  1
  S  S16  1  0.335292  0.000000  0.139880  1
  S  S17  1  0.335292  0.000000  0.360120  1
  S  S18  1  0.664708  0.000000  0.639880  1
  S  S19  1  0.664708  0.000000  0.860120  1
