# generated using pymatgen
data_NaTl2Zn(NO3)8
_symmetry_space_group_name_H-M   'P 1'
_cell_length_a   7.93023662
_cell_length_b   8.17211682
_cell_length_c   8.07054699
_cell_angle_alpha   90.45426364
_cell_angle_beta   87.66381386
_cell_angle_gamma   88.50153358
_symmetry_Int_Tables_number   1
_chemical_formula_structural   NaTl2Zn(NO3)8
_chemical_formula_sum   'Na1 Tl2 Zn1 N8 O24'
_cell_volume   522.39187880
_cell_formula_units_Z   1
loop_
 _symmetry_equiv_pos_site_id
 _symmetry_equiv_pos_as_xyz
  1  'x, y, z'
loop_
 _atom_site_type_symbol
 _atom_site_label
 _atom_site_symmetry_multiplicity
 _atom_site_fract_x
 _atom_site_fract_y
 _atom_site_fract_z
 _atom_site_occupancy
  Na  Na0  1  0.000000  0.500000  0.000000  1
  Tl  Tl1  1  0.500000  0.500000  0.500000  1
  Tl  Tl2  1  0.500000  0.000000  0.000000  1
  Zn  Zn3  1  0.000000  0.000000  0.500000  1
  N  N4  1  0.682854  0.137590  0.315401  1
  N  N5  1  0.672280  0.317037  0.853176  1
  N  N6  1  0.840942  0.837037  0.809669  1
  N  N7  1  0.840695  0.694201  0.358572  1
  N  N8  1  0.159058  0.162963  0.190331  1
  N  N9  1  0.159305  0.305799  0.641428  1
  N  N10  1  0.327720  0.682963  0.146824  1
  N  N11  1  0.317146  0.862410  0.684599  1
  O  O12  1  0.548653  0.219717  0.825212  1
  O  O13  1  0.568447  0.243163  0.293317  1
  O  O14  1  0.689460  0.437196  0.757587  1
  O  O15  1  0.703177  0.016595  0.213344  1
  O  O16  1  0.728402  0.716895  0.475203  1
  O  O17  1  0.725826  0.819181  0.926718  1
  O  O18  1  0.767617  0.292002  0.968968  1
  O  O19  1  0.778353  0.148088  0.436050  1
  O  O20  1  0.830293  0.959795  0.715466  1
  O  O21  1  0.830061  0.582461  0.254520  1
  O  O22  1  0.955920  0.731782  0.796083  1
  O  O23  1  0.965580  0.790271  0.351821  1
  O  O24  1  0.034420  0.209729  0.648179  1
  O  O25  1  0.044080  0.268218  0.203917  1
  O  O26  1  0.169939  0.417539  0.745480  1
  O  O27  1  0.169707  0.040205  0.284534  1
  O  O28  1  0.232383  0.707998  0.031032  1
  O  O29  1  0.221647  0.851912  0.563950  1
  O  O30  1  0.274174  0.180819  0.073282  1
  O  O31  1  0.271598  0.283105  0.524797  1
  O  O32  1  0.310540  0.562804  0.242413  1
  O  O33  1  0.296823  0.983405  0.786656  1
  O  O34  1  0.431553  0.756837  0.706683  1
  O  O35  1  0.451347  0.780283  0.174788  1
