# generated using pymatgen
data_Tb2Ho2Al15(ZnPd2)3
_symmetry_space_group_name_H-M   'P 1'
_cell_length_a   7.58606956
_cell_length_b   7.59833426
_cell_length_c   9.49236900
_cell_angle_alpha   90.00000000
_cell_angle_beta   90.00000000
_cell_angle_gamma   119.11566741
_symmetry_Int_Tables_number   1
_chemical_formula_structural   Tb2Ho2Al15(ZnPd2)3
_chemical_formula_sum   'Tb2 Ho2 Al15 Zn3 Pd6'
_cell_volume   478.01545854
_cell_formula_units_Z   1
loop_
 _symmetry_equiv_pos_site_id
 _symmetry_equiv_pos_as_xyz
  1  'x, y, z'
loop_
 _atom_site_type_symbol
 _atom_site_label
 _atom_site_symmetry_multiplicity
 _atom_site_fract_x
 _atom_site_fract_y
 _atom_site_fract_z
 _atom_site_occupancy
  Tb  Tb0  1  0.995977  0.674162  0.250000  1
  Tb  Tb1  1  0.005333  0.326700  0.750000  1
  Ho  Ho2  1  0.672954  0.994226  0.250000  1
  Ho  Ho3  1  0.326461  0.005182  0.750000  1
  Al  Al4  1  0.006185  0.335724  0.081662  1
  Al  Al5  1  0.996498  0.666582  0.920683  1
  Al  Al6  1  0.996498  0.666582  0.579317  1
  Al  Al7  1  0.334211  0.002179  0.421027  1
  Al  Al8  1  0.006185  0.335724  0.418338  1
  Al  Al9  1  0.666058  0.997465  0.579043  1
  Al  Al10  1  0.666058  0.997465  0.920957  1
  Al  Al11  1  0.334211  0.002179  0.078973  1
  Al  Al12  1  0.332661  0.332594  0.553185  1
  Al  Al13  1  0.663524  0.666037  0.444716  1
  Al  Al14  1  0.663524  0.666037  0.055284  1
  Al  Al15  1  0.332661  0.332594  0.946815  1
  Al  Al16  1  0.658873  0.451573  0.750000  1
  Al  Al17  1  0.545509  0.341737  0.250000  1
  Al  Al18  1  0.453916  0.659195  0.750000  1
  Zn  Zn19  1  0.142124  0.140867  0.250000  1
  Zn  Zn20  1  0.860327  0.859778  0.750000  1
  Zn  Zn21  1  0.343682  0.544816  0.250000  1
  Pd  Pd22  1  0.673483  0.326683  0.000126  1
  Pd  Pd23  1  0.325806  0.674482  0.994859  1
  Pd  Pd24  1  0.325806  0.674482  0.505141  1
  Pd  Pd25  1  0.673483  0.326683  0.499874  1
  Pd  Pd26  1  0.998997  0.999136  0.000525  1
  Pd  Pd27  1  0.998997  0.999136  0.499475  1
