# generated using pymatgen
data_Fe5Co3P4
_symmetry_space_group_name_H-M   'P 1'
_cell_length_a   3.54578900
_cell_length_b   5.61661547
_cell_length_c   6.54136796
_cell_angle_alpha   90.17637053
_cell_angle_beta   90.00000000
_cell_angle_gamma   90.00000000
_symmetry_Int_Tables_number   1
_chemical_formula_structural   Fe5Co3P4
_chemical_formula_sum   'Fe5 Co3 P4'
_cell_volume   130.27290635
_cell_formula_units_Z   1
loop_
 _symmetry_equiv_pos_site_id
 _symmetry_equiv_pos_as_xyz
  1  'x, y, z'
loop_
 _atom_site_type_symbol
 _atom_site_label
 _atom_site_symmetry_multiplicity
 _atom_site_fract_x
 _atom_site_fract_y
 _atom_site_fract_z
 _atom_site_occupancy
  Fe  Fe0  1  0.750000  0.026955  0.666656  1
  Fe  Fe1  1  0.250000  0.969247  0.333766  1
  Fe  Fe2  1  0.750000  0.530634  0.833829  1
  Fe  Fe3  1  0.250000  0.469936  0.165878  1
  Fe  Fe4  1  0.250000  0.358946  0.565890  1
  Co  Co5  1  0.750000  0.643187  0.432157  1
  Co  Co6  1  0.250000  0.859229  0.934454  1
  Co  Co7  1  0.750000  0.141979  0.066916  1
  P  P8  1  0.250000  0.745508  0.619052  1
  P  P9  1  0.750000  0.253802  0.383451  1
  P  P10  1  0.250000  0.246392  0.879447  1
  P  P11  1  0.750000  0.754183  0.118501  1
