# generated using pymatgen
data_Dy2Ho10Ga2Co3Ni
_symmetry_space_group_name_H-M   'P 1'
_cell_length_a   8.24550556
_cell_length_b   8.23259758
_cell_length_c   8.23259835
_cell_angle_alpha   112.42349433
_cell_angle_beta   109.40739477
_cell_angle_gamma   106.57674081
_symmetry_Int_Tables_number   1
_chemical_formula_structural   Dy2Ho10Ga2Co3Ni
_chemical_formula_sum   'Dy2 Ho10 Ga2 Co3 Ni1'
_cell_volume   429.38978962
_cell_formula_units_Z   1
loop_
 _symmetry_equiv_pos_site_id
 _symmetry_equiv_pos_as_xyz
  1  'x, y, z'
loop_
 _atom_site_type_symbol
 _atom_site_label
 _atom_site_symmetry_multiplicity
 _atom_site_fract_x
 _atom_site_fract_y
 _atom_site_fract_z
 _atom_site_occupancy
  Dy  Dy0  1  0.435764  0.239116  0.196649  1
  Dy  Dy1  1  0.564879  0.761948  0.802930  1
  Ho  Ho2  1  0.042313  0.239194  0.803119  1
  Ho  Ho3  1  0.959219  0.761903  0.197315  1
  Ho  Ho4  1  0.181991  0.280918  0.460254  1
  Ho  Ho5  1  0.821382  0.722447  0.539760  1
  Ho  Ho6  1  0.181991  0.721735  0.901073  1
  Ho  Ho7  1  0.821382  0.281624  0.098935  1
  Ho  Ho8  1  0.325332  0.637400  0.311155  1
  Ho  Ho9  1  0.669743  0.359492  0.690661  1
  Ho  Ho10  1  0.325332  0.014177  0.687933  1
  Ho  Ho11  1  0.669743  0.979083  0.310252  1
  Ga  Ga12  1  0.500760  0.500785  0.999975  1
  Ga  Ga13  1  0.000622  0.000605  0.000017  1
  Co  Co14  1  0.339353  0.001136  0.338217  1
  Co  Co15  1  0.663512  0.001730  0.661782  1
  Co  Co16  1  0.115294  0.615785  0.499508  1
  Ni  Ni17  1  0.881385  0.380922  0.500463  1
