# generated using pymatgen
data_Tm8Si16(Mo3W)3
_symmetry_space_group_name_H-M   'P 1'
_cell_length_a   6.71717000
_cell_length_b   6.91530416
_cell_length_c   12.84390500
_cell_angle_alpha   90.00000000
_cell_angle_beta   90.00000000
_cell_angle_gamma   89.98897644
_symmetry_Int_Tables_number   1
_chemical_formula_structural   Tm8Si16(Mo3W)3
_chemical_formula_sum   'Tm8 Si16 Mo9 W3'
_cell_volume   596.61573494
_cell_formula_units_Z   1
loop_
 _symmetry_equiv_pos_site_id
 _symmetry_equiv_pos_as_xyz
  1  'x, y, z'
loop_
 _atom_site_type_symbol
 _atom_site_label
 _atom_site_symmetry_multiplicity
 _atom_site_fract_x
 _atom_site_fract_y
 _atom_site_fract_z
 _atom_site_occupancy
  Tm  Tm0  1  0.496422  0.331409  0.093557  1
  Tm  Tm1  1  0.996798  0.168332  0.406376  1
  Tm  Tm2  1  0.503248  0.668437  0.593738  1
  Tm  Tm3  1  0.003467  0.831492  0.906223  1
  Tm  Tm4  1  0.503248  0.668437  0.906262  1
  Tm  Tm5  1  0.003467  0.831492  0.593777  1
  Tm  Tm6  1  0.496422  0.331409  0.406443  1
  Tm  Tm7  1  0.996798  0.168332  0.093624  1
  Si  Si8  1  0.661025  0.040056  0.546936  1
  Si  Si9  1  0.160943  0.459771  0.953108  1
  Si  Si10  1  0.339000  0.959931  0.046847  1
  Si  Si11  1  0.839310  0.540556  0.453000  1
  Si  Si12  1  0.339000  0.959931  0.453153  1
  Si  Si13  1  0.839310  0.540556  0.047000  1
  Si  Si14  1  0.661025  0.040056  0.953064  1
  Si  Si15  1  0.160943  0.459771  0.546892  1
  Si  Si16  1  0.534234  0.369754  0.750000  1
  Si  Si17  1  0.034027  0.130175  0.750000  1
  Si  Si18  1  0.466174  0.630492  0.250000  1
  Si  Si19  1  0.965577  0.869097  0.250000  1
  Si  Si20  1  0.801409  0.633145  0.750000  1
  Si  Si21  1  0.301401  0.866909  0.750000  1
  Si  Si22  1  0.198393  0.367568  0.250000  1
  Si  Si23  1  0.698629  0.132696  0.250000  1
  Mo  Mo24  1  0.830260  0.334559  0.625137  1
  Mo  Mo25  1  0.330397  0.165638  0.874724  1
  Mo  Mo26  1  0.170086  0.665767  0.125088  1
  Mo  Mo27  1  0.669317  0.834394  0.374861  1
  Mo  Mo28  1  0.170086  0.665767  0.374912  1
  Mo  Mo29  1  0.669317  0.834394  0.125139  1
  Mo  Mo30  1  0.830260  0.334559  0.874863  1
  Mo  Mo31  1  0.330397  0.165638  0.625276  1
  Mo  Mo32  1  0.834424  0.496584  0.250000  1
  W  W33  1  0.665415  0.996940  0.750000  1
  W  W34  1  0.165283  0.502860  0.750000  1
  W  W35  1  0.334488  0.003095  0.250000  1
