# generated using pymatgen
data_Dy2YAl3Ge2Ru
_symmetry_space_group_name_H-M   'P 1'
_cell_length_a   6.96516900
_cell_length_b   6.96036051
_cell_length_c   4.27113700
_cell_angle_alpha   90.00000000
_cell_angle_beta   90.00000000
_cell_angle_gamma   120.02286017
_symmetry_Int_Tables_number   1
_chemical_formula_structural   Dy2YAl3Ge2Ru
_chemical_formula_sum   'Dy2 Y1 Al3 Ge2 Ru1'
_cell_volume   179.28230976
_cell_formula_units_Z   1
loop_
 _symmetry_equiv_pos_site_id
 _symmetry_equiv_pos_as_xyz
  1  'x, y, z'
loop_
 _atom_site_type_symbol
 _atom_site_label
 _atom_site_symmetry_multiplicity
 _atom_site_fract_x
 _atom_site_fract_y
 _atom_site_fract_z
 _atom_site_occupancy
  Dy  Dy0  1  0.000078  0.415688  0.000000  1
  Dy  Dy1  1  0.584388  0.584310  0.000000  1
  Y  Y2  1  0.416260  0.000000  0.000000  1
  Al  Al3  1  0.773145  0.000000  0.500001  1
  Al  Al4  1  0.226834  0.226804  0.500001  1
  Al  Al5  1  0.000031  0.773195  0.500001  1
  Ge  Ge6  1  0.666966  0.333707  0.500001  1
  Ge  Ge7  1  0.333259  0.666293  0.500001  1
  Ru  Ru8  1  0.999036  0.000000  0.000000  1
