# generated using pymatgen
data_K3Pr3(PS4)4
_symmetry_space_group_name_H-M   'P 1'
_cell_length_a   9.29834267
_cell_length_b   16.33360200
_cell_length_c   18.58064500
_cell_angle_alpha   90.00000000
_cell_angle_beta   95.28439694
_cell_angle_gamma   90.00000000
_symmetry_Int_Tables_number   1
_chemical_formula_structural   K3Pr3(PS4)4
_chemical_formula_sum   'K12 Pr12 P16 S64'
_cell_volume   2809.94964030
_cell_formula_units_Z   4
loop_
 _symmetry_equiv_pos_site_id
 _symmetry_equiv_pos_as_xyz
  1  'x, y, z'
loop_
 _atom_site_type_symbol
 _atom_site_label
 _atom_site_symmetry_multiplicity
 _atom_site_fract_x
 _atom_site_fract_y
 _atom_site_fract_z
 _atom_site_occupancy
  K  K0  1  0.119723  0.031666  0.259802  1
  K  K1  1  0.785598  0.894997  0.069629  1
  K  K2  1  0.202835  0.484549  0.902207  1
  K  K3  1  0.714402  0.394997  0.430371  1
  K  K4  1  0.880272  0.968339  0.740203  1
  K  K5  1  0.214395  0.105004  0.930379  1
  K  K6  1  0.619728  0.468339  0.759797  1
  K  K7  1  0.285605  0.605004  0.569621  1
  K  K8  1  0.380277  0.531666  0.240198  1
  K  K9  1  0.702825  0.015445  0.402217  1
  K  K10  1  0.797175  0.515445  0.097783  1
  K  K11  1  0.297165  0.984549  0.597793  1
  Pr  Pr12  1  0.305476  0.758378  0.816392  1
  Pr  Pr13  1  0.285072  0.773983  0.339019  1
  Pr  Pr14  1  0.802213  0.727696  0.574596  1
  Pr  Pr15  1  0.805475  0.741620  0.316395  1
  Pr  Pr16  1  0.197787  0.272304  0.425413  1
  Pr  Pr17  1  0.194524  0.258378  0.683608  1
  Pr  Pr18  1  0.785080  0.726015  0.839020  1
  Pr  Pr19  1  0.694525  0.241620  0.183605  1
  Pr  Pr20  1  0.697787  0.227696  0.925404  1
  Pr  Pr21  1  0.214928  0.273983  0.160981  1
  Pr  Pr22  1  0.302213  0.772304  0.074587  1
  Pr  Pr23  1  0.714920  0.226015  0.660980  1
  P  P24  1  0.424874  0.367876  0.578462  1
  P  P25  1  0.936451  0.176193  0.532085  1
  P  P26  1  0.575124  0.632122  0.421537  1
  P  P27  1  0.075126  0.867876  0.921538  1
  P  P28  1  0.063549  0.823804  0.467911  1
  P  P29  1  0.033612  0.699433  0.186951  1
  P  P30  1  0.466388  0.199433  0.313049  1
  P  P31  1  0.436451  0.323804  0.032089  1
  P  P32  1  0.533616  0.800567  0.686951  1
  P  P33  1  0.019447  0.620147  0.728749  1
  P  P34  1  0.924876  0.132122  0.078463  1
  P  P35  1  0.563549  0.676193  0.967915  1
  P  P36  1  0.519444  0.879854  0.228750  1
  P  P37  1  0.966384  0.300567  0.813049  1
  P  P38  1  0.980556  0.379854  0.271250  1
  P  P39  1  0.480553  0.120147  0.771251  1
  S  S40  1  0.995244  0.748385  0.729588  1
  S  S41  1  0.815868  0.704515  0.165492  1
  S  S42  1  0.781783  0.670233  0.985933  1
  S  S43  1  0.359377  0.612998  0.395345  1
  S  S44  1  0.105974  0.740792  0.928931  1
  S  S45  1  0.547920  0.381724  0.957996  1
  S  S46  1  0.145350  0.916734  0.018595  1
  S  S47  1  0.877649  0.184110  0.807663  1
  S  S48  1  0.140623  0.112998  0.104655  1
  S  S49  1  0.952080  0.881724  0.542004  1
  S  S50  1  0.363844  0.132842  0.385874  1
  S  S51  1  0.354650  0.416734  0.481405  1
  S  S52  1  0.047920  0.118273  0.457993  1
  S  S53  1  0.605974  0.759209  0.428935  1
  S  S54  1  0.622351  0.684110  0.692337  1
  S  S55  1  0.122350  0.815886  0.192338  1
  S  S56  1  0.452080  0.618273  0.042007  1
  S  S57  1  0.767280  0.403380  0.242390  1
  S  S58  1  0.687319  0.582521  0.342172  1
  S  S59  1  0.003817  0.297253  0.539796  1
  S  S60  1  0.017126  0.869714  0.364132  1
  S  S61  1  0.636155  0.867158  0.614126  1
  S  S62  1  0.931638  0.349993  0.710991  1
  S  S63  1  0.068359  0.650004  0.289010  1
  S  S64  1  0.718217  0.170233  0.514067  1
  S  S65  1  0.406323  0.929546  0.308117  1
  S  S66  1  0.496183  0.797253  0.960204  1
  S  S67  1  0.431641  0.150004  0.210990  1
  S  S68  1  0.645347  0.583265  0.518599  1
  S  S69  1  0.004754  0.251620  0.270413  1
  S  S70  1  0.394026  0.240792  0.571069  1
  S  S71  1  0.568362  0.849993  0.789009  1
  S  S72  1  0.377650  0.315886  0.307662  1
  S  S73  1  0.267277  0.096622  0.742393  1
  S  S74  1  0.863845  0.367158  0.885874  1
  S  S75  1  0.281780  0.829766  0.485930  1
  S  S76  1  0.503823  0.202746  0.039796  1
  S  S77  1  0.732720  0.903380  0.257610  1
  S  S78  1  0.218220  0.329766  0.014070  1
  S  S79  1  0.950414  0.579236  0.628674  1
  S  S80  1  0.315872  0.795488  0.665490  1
  S  S81  1  0.517131  0.630286  0.864133  1
  S  S82  1  0.854653  0.083265  0.981401  1
  S  S83  1  0.593670  0.070455  0.691883  1
  S  S84  1  0.996177  0.702746  0.460204  1
  S  S85  1  0.982869  0.130286  0.635867  1
  S  S86  1  0.049589  0.420769  0.371325  1
  S  S87  1  0.504756  0.248385  0.770412  1
  S  S88  1  0.549586  0.079236  0.871326  1
  S  S89  1  0.906330  0.570455  0.808117  1
  S  S90  1  0.812681  0.082521  0.157828  1
  S  S91  1  0.450411  0.920769  0.128675  1
  S  S92  1  0.859379  0.887004  0.895345  1
  S  S93  1  0.187320  0.917479  0.842171  1
  S  S94  1  0.093677  0.429546  0.191883  1
  S  S95  1  0.232723  0.596622  0.757607  1
  S  S96  1  0.136156  0.632842  0.114126  1
  S  S97  1  0.640621  0.387004  0.604655  1
  S  S98  1  0.894026  0.259209  0.071065  1
  S  S99  1  0.482874  0.369714  0.135868  1
  S  S100  1  0.184128  0.295488  0.834510  1
  S  S101  1  0.495246  0.751620  0.229587  1
  S  S102  1  0.684132  0.204515  0.334508  1
  S  S103  1  0.312680  0.417479  0.657829  1
