# generated using pymatgen
data_Tb3ZnCo3
_symmetry_space_group_name_H-M   'P 1'
_cell_length_a   5.34916222
_cell_length_b   5.34916270
_cell_length_c   13.02519600
_cell_angle_alpha   90.00000000
_cell_angle_beta   90.00000000
_cell_angle_gamma   134.70382323
_symmetry_Int_Tables_number   1
_chemical_formula_structural   Tb3ZnCo3
_chemical_formula_sum   'Tb6 Zn2 Co6'
_cell_volume   264.89530498
_cell_formula_units_Z   2
loop_
 _symmetry_equiv_pos_site_id
 _symmetry_equiv_pos_as_xyz
  1  'x, y, z'
loop_
 _atom_site_type_symbol
 _atom_site_label
 _atom_site_symmetry_multiplicity
 _atom_site_fract_x
 _atom_site_fract_y
 _atom_site_fract_z
 _atom_site_occupancy
  Tb  Tb0  1  0.796415  0.203585  0.397564  1
  Tb  Tb1  1  0.203585  0.796415  0.602436  1
  Tb  Tb2  1  0.796415  0.203585  0.102436  1
  Tb  Tb3  1  0.203585  0.796415  0.897564  1
  Tb  Tb4  1  0.507169  0.492831  0.250000  1
  Tb  Tb5  1  0.492831  0.507169  0.750000  1
  Zn  Zn6  1  0.500000  0.500000  0.500000  1
  Zn  Zn7  1  0.500000  0.500000  0.000000  1
  Co  Co8  1  0.087318  0.912682  0.403209  1
  Co  Co9  1  0.912682  0.087318  0.596791  1
  Co  Co10  1  0.087318  0.912682  0.096791  1
  Co  Co11  1  0.912682  0.087318  0.903209  1
  Co  Co12  1  0.206604  0.793396  0.250000  1
  Co  Co13  1  0.793396  0.206604  0.750000  1
