# generated using pymatgen
data_TlSb4
_symmetry_space_group_name_H-M   'P 1'
_cell_length_a   12.18109007
_cell_length_b   12.18109123
_cell_length_c   12.18109000
_cell_angle_alpha   164.23299161
_cell_angle_beta   115.22068156
_cell_angle_gamma   67.14001344
_symmetry_Int_Tables_number   1
_chemical_formula_structural   TlSb4
_chemical_formula_sum   'Tl3 Sb12'
_cell_volume   442.58812491
_cell_formula_units_Z   3
loop_
 _symmetry_equiv_pos_site_id
 _symmetry_equiv_pos_as_xyz
  1  'x, y, z'
loop_
 _atom_site_type_symbol
 _atom_site_label
 _atom_site_symmetry_multiplicity
 _atom_site_fract_x
 _atom_site_fract_y
 _atom_site_fract_z
 _atom_site_occupancy
  Tl  Tl0  1  0.000765  0.000765  0.000000  1
  Tl  Tl1  1  0.333674  0.000583  0.333091  1
  Tl  Tl2  1  0.667493  0.000583  0.666910  1
  Sb  Sb3  1  0.399833  0.399833  0.000000  1
  Sb  Sb4  1  0.601670  0.601670  0.000000  1
  Sb  Sb5  1  0.866499  0.699880  0.166618  1
  Sb  Sb6  1  0.468312  0.301691  0.166621  1
  Sb  Sb7  1  0.935018  0.601776  0.333242  1
  Sb  Sb8  1  0.733166  0.399718  0.333448  1
  Sb  Sb9  1  0.801578  0.301577  0.500000  1
  Sb  Sb10  1  0.199857  0.699857  0.500000  1
  Sb  Sb11  1  0.066269  0.399718  0.666551  1
  Sb  Sb12  1  0.268535  0.601775  0.666757  1
  Sb  Sb13  1  0.135072  0.301691  0.833378  1
  Sb  Sb14  1  0.533263  0.699880  0.833382  1
