# generated using pymatgen
data_Ta3Ti3Pt2
_symmetry_space_group_name_H-M   'P 1'
_cell_length_a   5.11759003
_cell_length_b   5.11758936
_cell_length_c   5.11758869
_cell_angle_alpha   89.89105073
_cell_angle_beta   89.89104531
_cell_angle_gamma   89.89106032
_symmetry_Int_Tables_number   1
_chemical_formula_structural   Ta3Ti3Pt2
_chemical_formula_sum   'Ta3 Ti3 Pt2'
_cell_volume   134.02751088
_cell_formula_units_Z   1
loop_
 _symmetry_equiv_pos_site_id
 _symmetry_equiv_pos_as_xyz
  1  'x, y, z'
loop_
 _atom_site_type_symbol
 _atom_site_label
 _atom_site_symmetry_multiplicity
 _atom_site_fract_x
 _atom_site_fract_y
 _atom_site_fract_z
 _atom_site_occupancy
  Ta  Ta0  1  0.500000  0.752317  0.247683  1
  Ta  Ta1  1  0.752317  0.247683  0.500000  1
  Ta  Ta2  1  0.247683  0.500000  0.752317  1
  Ti  Ti3  1  0.000000  0.752991  0.247009  1
  Ti  Ti4  1  0.752991  0.247009  0.000000  1
  Ti  Ti5  1  0.247009  0.000000  0.752991  1
  Pt  Pt6  1  0.249883  0.249883  0.249883  1
  Pt  Pt7  1  0.750117  0.750117  0.750117  1
