# generated using pymatgen
data_Li4DyEr3SnSb3
_symmetry_space_group_name_H-M   'P 1'
_cell_length_a   9.45625400
_cell_length_b   9.45625470
_cell_length_c   6.93977800
_cell_angle_alpha   90.00000000
_cell_angle_beta   90.00000000
_cell_angle_gamma   119.99999754
_symmetry_Int_Tables_number   1
_chemical_formula_structural   Li4DyEr3SnSb3
_chemical_formula_sum   'Li8 Dy2 Er6 Sn2 Sb6'
_cell_volume   537.42084901
_cell_formula_units_Z   2
loop_
 _symmetry_equiv_pos_site_id
 _symmetry_equiv_pos_as_xyz
  1  'x, y, z'
loop_
 _atom_site_type_symbol
 _atom_site_label
 _atom_site_symmetry_multiplicity
 _atom_site_fract_x
 _atom_site_fract_y
 _atom_site_fract_z
 _atom_site_occupancy
  Li  Li0  1  0.167114  0.334228  0.274452  1
  Li  Li1  1  0.167114  0.832886  0.274452  1
  Li  Li2  1  0.665772  0.832886  0.274452  1
  Li  Li3  1  0.832886  0.665772  0.774452  1
  Li  Li4  1  0.832886  0.167114  0.774452  1
  Li  Li5  1  0.334228  0.167114  0.774452  1
  Li  Li6  1  0.333333  0.666667  0.692919  1
  Li  Li7  1  0.666667  0.333333  0.192919  1
  Dy  Dy8  1  0.000000  0.000000  0.501200  1
  Dy  Dy9  1  0.000000  0.000000  0.001200  1
  Er  Er10  1  0.508238  0.016476  0.494086  1
  Er  Er11  1  0.508238  0.491762  0.494086  1
  Er  Er12  1  0.983524  0.491762  0.494086  1
  Er  Er13  1  0.491762  0.983524  0.994086  1
  Er  Er14  1  0.491762  0.508238  0.994086  1
  Er  Er15  1  0.016476  0.508238  0.994086  1
  Sn  Sn16  1  0.333333  0.666667  0.258740  1
  Sn  Sn17  1  0.666667  0.333333  0.758740  1
  Sb  Sb18  1  0.166807  0.333614  0.737508  1
  Sb  Sb19  1  0.166807  0.833193  0.737508  1
  Sb  Sb20  1  0.666386  0.833193  0.737508  1
  Sb  Sb21  1  0.833193  0.666386  0.237508  1
  Sb  Sb22  1  0.833193  0.166807  0.237508  1
  Sb  Sb23  1  0.333614  0.166807  0.237508  1
