# generated using pymatgen
data_CaTmZr2(Ga3Rh)6
_symmetry_space_group_name_H-M   'P 1'
_cell_length_a   7.53091531
_cell_length_b   7.51353387
_cell_length_c   9.43286300
_cell_angle_alpha   90.00000000
_cell_angle_beta   90.00000000
_cell_angle_gamma   119.95214453
_symmetry_Int_Tables_number   1
_chemical_formula_structural   CaTmZr2(Ga3Rh)6
_chemical_formula_sum   'Ca1 Tm1 Zr2 Ga18 Rh6'
_cell_volume   462.46130011
_cell_formula_units_Z   1
loop_
 _symmetry_equiv_pos_site_id
 _symmetry_equiv_pos_as_xyz
  1  'x, y, z'
loop_
 _atom_site_type_symbol
 _atom_site_label
 _atom_site_symmetry_multiplicity
 _atom_site_fract_x
 _atom_site_fract_y
 _atom_site_fract_z
 _atom_site_occupancy
  Ca  Ca0  1  0.668656  0.996024  0.250000  1
  Tm  Tm1  1  0.331558  0.003860  0.750000  1
  Zr  Zr2  1  0.995654  0.668660  0.250000  1
  Zr  Zr3  1  0.003735  0.330578  0.750000  1
  Ga  Ga4  1  0.124433  0.123332  0.250000  1
  Ga  Ga5  1  0.875904  0.876547  0.750000  1
  Ga  Ga6  1  0.998748  0.336831  0.079550  1
  Ga  Ga7  1  0.001601  0.663505  0.920189  1
  Ga  Ga8  1  0.001601  0.663505  0.579811  1
  Ga  Ga9  1  0.331501  0.996953  0.418122  1
  Ga  Ga10  1  0.998748  0.336831  0.420450  1
  Ga  Ga11  1  0.668243  0.002900  0.582175  1
  Ga  Ga12  1  0.668243  0.002900  0.917825  1
  Ga  Ga13  1  0.331501  0.996953  0.081878  1
  Ga  Ga14  1  0.330349  0.332400  0.568362  1
  Ga  Ga15  1  0.669507  0.667515  0.432023  1
  Ga  Ga16  1  0.669507  0.667515  0.067977  1
  Ga  Ga17  1  0.330349  0.332400  0.931638  1
  Ga  Ga18  1  0.335549  0.547354  0.250000  1
  Ga  Ga19  1  0.663880  0.452219  0.750000  1
  Ga  Ga20  1  0.552036  0.340992  0.250000  1
  Ga  Ga21  1  0.448260  0.659868  0.750000  1
  Rh  Rh22  1  0.672070  0.328799  0.998518  1
  Rh  Rh23  1  0.327352  0.671262  0.999655  1
  Rh  Rh24  1  0.327352  0.671262  0.500345  1
  Rh  Rh25  1  0.672070  0.328799  0.501482  1
  Rh  Rh26  1  0.000796  0.000118  0.999170  1
  Rh  Rh27  1  0.000796  0.000118  0.500830  1
