# generated using pymatgen
data_Er8Zn2CoSi12Rh
_symmetry_space_group_name_H-M   'P 1'
_cell_length_a   8.05447400
_cell_length_b   8.05447392
_cell_length_c   7.97943500
_cell_angle_alpha   90.00000000
_cell_angle_beta   90.00000000
_cell_angle_gamma   120.00000035
_symmetry_Int_Tables_number   1
_chemical_formula_structural   Er8Zn2CoSi12Rh
_chemical_formula_sum   'Er8 Zn2 Co1 Si12 Rh1'
_cell_volume   448.30866679
_cell_formula_units_Z   1
loop_
 _symmetry_equiv_pos_site_id
 _symmetry_equiv_pos_as_xyz
  1  'x, y, z'
loop_
 _atom_site_type_symbol
 _atom_site_label
 _atom_site_symmetry_multiplicity
 _atom_site_fract_x
 _atom_site_fract_y
 _atom_site_fract_z
 _atom_site_occupancy
  Er  Er0  1  0.006795  0.503397  0.248038  1
  Er  Er1  1  0.496603  0.503397  0.248038  1
  Er  Er2  1  0.492696  0.985391  0.751304  1
  Er  Er3  1  0.014609  0.507304  0.751304  1
  Er  Er4  1  0.492696  0.507304  0.751304  1
  Er  Er5  1  0.496603  0.993205  0.248038  1
  Er  Er6  1  0.000000  0.000000  0.751348  1
  Er  Er7  1  0.000000  0.000000  0.250529  1
  Zn  Zn8  1  0.666667  0.333333  0.988181  1
  Zn  Zn9  1  0.666667  0.333333  0.505876  1
  Co  Co10  1  0.333333  0.666667  0.006113  1
  Si  Si11  1  0.168422  0.831578  0.498735  1
  Si  Si12  1  0.168422  0.336842  0.498735  1
  Si  Si13  1  0.663158  0.831578  0.498735  1
  Si  Si14  1  0.326953  0.163478  0.001619  1
  Si  Si15  1  0.835884  0.671769  0.501620  1
  Si  Si16  1  0.836522  0.163478  0.001619  1
  Si  Si17  1  0.836522  0.673047  0.001619  1
  Si  Si18  1  0.174281  0.348563  0.999913  1
  Si  Si19  1  0.651437  0.825719  0.999913  1
  Si  Si20  1  0.328231  0.164116  0.501620  1
  Si  Si21  1  0.835884  0.164116  0.501620  1
  Si  Si22  1  0.174281  0.825719  0.999913  1
  Rh  Rh23  1  0.333333  0.666667  0.494261  1
