# generated using pymatgen
data_Ca12Tm3Ge12Mo5O48
_symmetry_space_group_name_H-M   'P 1'
_cell_length_a   11.07490805
_cell_length_b   11.07362096
_cell_length_c   11.07334812
_cell_angle_alpha   109.46942018
_cell_angle_beta   109.48370136
_cell_angle_gamma   109.46641950
_symmetry_Int_Tables_number   1
_chemical_formula_structural   Ca12Tm3Ge12Mo5O48
_chemical_formula_sum   'Ca12 Tm3 Ge12 Mo5 O48'
_cell_volume   1045.33459319
_cell_formula_units_Z   1
loop_
 _symmetry_equiv_pos_site_id
 _symmetry_equiv_pos_as_xyz
  1  'x, y, z'
loop_
 _atom_site_type_symbol
 _atom_site_label
 _atom_site_symmetry_multiplicity
 _atom_site_fract_x
 _atom_site_fract_y
 _atom_site_fract_z
 _atom_site_occupancy
  Ca  Ca0  1  0.250395  0.877482  0.622818  1
  Ca  Ca1  1  0.752303  0.626203  0.877108  1
  Ca  Ca2  1  0.625846  0.876225  0.749887  1
  Ca  Ca3  1  0.873435  0.625721  0.248310  1
  Ca  Ca4  1  0.626871  0.252491  0.874618  1
  Ca  Ca5  1  0.877686  0.754873  0.627272  1
  Ca  Ca6  1  0.749605  0.122518  0.377182  1
  Ca  Ca7  1  0.247697  0.373797  0.122892  1
  Ca  Ca8  1  0.374154  0.123775  0.250113  1
  Ca  Ca9  1  0.126565  0.374279  0.751690  1
  Ca  Ca10  1  0.373129  0.747509  0.125382  1
  Ca  Ca11  1  0.122314  0.245127  0.372728  1
  Tm  Tm12  1  0.500000  0.500000  0.500000  1
  Tm  Tm13  1  0.000000  0.500000  0.500000  1
  Tm  Tm14  1  0.500000  0.000000  0.000000  1
  Ge  Ge15  1  0.123572  0.751294  0.877709  1
  Ge  Ge16  1  0.876428  0.248706  0.122291  1
  Ge  Ge17  1  0.623171  0.375814  0.248663  1
  Ge  Ge18  1  0.751432  0.874327  0.126757  1
  Ge  Ge19  1  0.874911  0.124954  0.749860  1
  Ge  Ge20  1  0.248816  0.626406  0.372466  1
  Ge  Ge21  1  0.751184  0.373594  0.627534  1
  Ge  Ge22  1  0.248568  0.125673  0.873243  1
  Ge  Ge23  1  0.125089  0.875046  0.250140  1
  Ge  Ge24  1  0.376829  0.624186  0.751337  1
  Ge  Ge25  1  0.626940  0.752686  0.375434  1
  Ge  Ge26  1  0.373060  0.247314  0.624566  1
  Mo  Mo27  1  0.500000  0.000000  0.500000  1
  Mo  Mo28  1  0.500000  0.500000  0.000000  1
  Mo  Mo29  1  0.000000  0.000000  0.500000  1
  Mo  Mo30  1  0.000000  0.500000  0.000000  1
  Mo  Mo31  1  0.000000  0.000000  0.000000  1
  O  O32  1  0.409311  0.804555  0.785444  1
  O  O33  1  0.879173  0.397337  0.089394  1
  O  O34  1  0.101736  0.980421  0.690721  1
  O  O35  1  0.522881  0.625075  0.716096  1
  O  O36  1  0.691756  0.088115  0.709792  1
  O  O37  1  0.625272  0.714806  0.519699  1
  O  O38  1  0.622437  0.410768  0.101418  1
  O  O39  1  0.714163  0.517805  0.624243  1
  O  O40  1  0.805036  0.520724  0.394844  1
  O  O41  1  0.978143  0.788563  0.877777  1
  O  O42  1  0.790565  0.878593  0.983212  1
  O  O43  1  0.711870  0.690369  0.087995  1
  O  O44  1  0.412092  0.102318  0.623391  1
  O  O45  1  0.397178  0.808225  0.518125  1
  O  O46  1  0.089457  0.714392  0.696188  1
  O  O47  1  0.104194  0.626160  0.410230  1
  O  O48  1  0.517241  0.395309  0.807205  1
  O  O49  1  0.088122  0.878268  0.396512  1
  O  O50  1  0.981342  0.691748  0.103594  1
  O  O51  1  0.194964  0.479276  0.605156  1
  O  O52  1  0.693886  0.104016  0.977838  1
  O  O53  1  0.787980  0.410755  0.810382  1
  O  O54  1  0.394514  0.089891  0.875454  1
  O  O55  1  0.877606  0.981399  0.789900  1
  O  O56  1  0.590689  0.195445  0.214556  1
  O  O57  1  0.120827  0.602663  0.910606  1
  O  O58  1  0.898264  0.019579  0.309279  1
  O  O59  1  0.477119  0.374925  0.283904  1
  O  O60  1  0.308244  0.911885  0.290208  1
  O  O61  1  0.374728  0.285194  0.480301  1
  O  O62  1  0.377563  0.589232  0.898582  1
  O  O63  1  0.285837  0.482195  0.375757  1
  O  O64  1  0.122394  0.018601  0.210100  1
  O  O65  1  0.605486  0.910109  0.124546  1
  O  O66  1  0.212020  0.589245  0.189618  1
  O  O67  1  0.190993  0.209988  0.589410  1
  O  O68  1  0.306114  0.895984  0.022162  1
  O  O69  1  0.018658  0.308252  0.896406  1
  O  O70  1  0.911878  0.121732  0.603488  1
  O  O71  1  0.482759  0.604691  0.192795  1
  O  O72  1  0.895806  0.373840  0.589770  1
  O  O73  1  0.910543  0.285608  0.303812  1
  O  O74  1  0.602822  0.191775  0.481875  1
  O  O75  1  0.587908  0.897682  0.376609  1
  O  O76  1  0.288130  0.309631  0.912005  1
  O  O77  1  0.209435  0.121407  0.016788  1
  O  O78  1  0.021857  0.211437  0.122223  1
  O  O79  1  0.809007  0.790012  0.410590  1
