# generated using pymatgen
data_Dy18Ho2IrRh11
_symmetry_space_group_name_H-M   'P 1'
_cell_length_a   10.90031003
_cell_length_b   10.90030951
_cell_length_c   6.35613100
_cell_angle_alpha   90.00044193
_cell_angle_beta   90.00044925
_cell_angle_gamma   90.07143369
_symmetry_Int_Tables_number   1
_chemical_formula_structural   Dy18Ho2IrRh11
_chemical_formula_sum   'Dy18 Ho2 Ir1 Rh11'
_cell_volume   755.21426150
_cell_formula_units_Z   1
loop_
 _symmetry_equiv_pos_site_id
 _symmetry_equiv_pos_as_xyz
  1  'x, y, z'
loop_
 _atom_site_type_symbol
 _atom_site_label
 _atom_site_symmetry_multiplicity
 _atom_site_fract_x
 _atom_site_fract_y
 _atom_site_fract_z
 _atom_site_occupancy
  Dy  Dy0  1  0.290719  0.088550  0.378315  1
  Dy  Dy1  1  0.291064  0.909998  0.878240  1
  Dy  Dy2  1  0.709169  0.088381  0.878222  1
  Dy  Dy3  1  0.709045  0.911329  0.378084  1
  Dy  Dy4  1  0.587091  0.790142  0.877908  1
  Dy  Dy5  1  0.588620  0.209301  0.378623  1
  Dy  Dy6  1  0.411026  0.790134  0.379215  1
  Dy  Dy7  1  0.411317  0.209079  0.878051  1
  Dy  Dy8  1  0.209858  0.412909  0.622092  1
  Dy  Dy9  1  0.209866  0.588974  0.120785  1
  Dy  Dy10  1  0.790699  0.411380  0.121377  1
  Dy  Dy11  1  0.790921  0.588683  0.621949  1
  Dy  Dy12  1  0.911450  0.709281  0.121685  1
  Dy  Dy13  1  0.911619  0.290831  0.621778  1
  Dy  Dy14  1  0.090002  0.708936  0.621760  1
  Dy  Dy15  1  0.088671  0.290955  0.121916  1
  Dy  Dy16  1  0.999794  0.999893  0.500108  1
  Dy  Dy17  1  0.000107  0.000206  0.999892  1
  Ho  Ho18  1  0.499723  0.500013  0.000101  1
  Ho  Ho19  1  0.499987  0.500277  0.499899  1
  Ir  Ir20  1  0.346263  0.653737  0.750000  1
  Rh  Rh21  1  0.845844  0.154156  0.250000  1
  Rh  Rh22  1  0.845679  0.845989  0.750201  1
  Rh  Rh23  1  0.154011  0.154321  0.749799  1
  Rh  Rh24  1  0.153519  0.846481  0.250000  1
  Rh  Rh25  1  0.653963  0.346037  0.750000  1
  Rh  Rh26  1  0.654661  0.654049  0.250107  1
  Rh  Rh27  1  0.345951  0.345339  0.249893  1
  Rh  Rh28  1  0.500202  0.000461  0.123190  1
  Rh  Rh29  1  0.500290  0.000668  0.622624  1
  Rh  Rh30  1  0.999332  0.499710  0.877376  1
  Rh  Rh31  1  0.999539  0.499798  0.376810  1
