# generated using pymatgen
data_LaSm5Co2(P3Ru4)4
_symmetry_space_group_name_H-M   'P 1'
_cell_length_a   3.95103000
_cell_length_b   11.20451700
_cell_length_c   12.68422300
_cell_angle_alpha   90.00000000
_cell_angle_beta   90.00000000
_cell_angle_gamma   90.00000000
_symmetry_Int_Tables_number   1
_chemical_formula_structural   LaSm5Co2(P3Ru4)4
_chemical_formula_sum   'La1 Sm5 Co2 P12 Ru16'
_cell_volume   561.52272354
_cell_formula_units_Z   1
loop_
 _symmetry_equiv_pos_site_id
 _symmetry_equiv_pos_as_xyz
  1  'x, y, z'
loop_
 _atom_site_type_symbol
 _atom_site_label
 _atom_site_symmetry_multiplicity
 _atom_site_fract_x
 _atom_site_fract_y
 _atom_site_fract_z
 _atom_site_occupancy
  La  La0  1  0.000000  0.500000  0.527777  1
  Sm  Sm1  1  0.500000  0.000000  0.474436  1
  Sm  Sm2  1  0.500000  0.819841  0.204120  1
  Sm  Sm3  1  0.500000  0.180159  0.204120  1
  Sm  Sm4  1  0.000000  0.680468  0.795987  1
  Sm  Sm5  1  0.000000  0.319532  0.795987  1
  Co  Co6  1  0.000000  0.500000  0.988156  1
  Co  Co7  1  0.500000  0.000000  0.012024  1
  P  P8  1  0.500000  0.500000  0.885378  1
  P  P9  1  0.000000  0.000000  0.115113  1
  P  P10  1  0.500000  0.500000  0.334504  1
  P  P11  1  0.000000  0.000000  0.663838  1
  P  P12  1  0.500000  0.298444  0.617746  1
  P  P13  1  0.500000  0.701556  0.617746  1
  P  P14  1  0.000000  0.199544  0.382525  1
  P  P15  1  0.000000  0.800456  0.382525  1
  P  P16  1  0.500000  0.849764  0.899199  1
  P  P17  1  0.500000  0.150236  0.899199  1
  P  P18  1  0.000000  0.650359  0.100502  1
  P  P19  1  0.000000  0.349641  0.100502  1
  Ru  Ru20  1  0.500000  0.500000  0.152879  1
  Ru  Ru21  1  0.000000  0.000000  0.846327  1
  Ru  Ru22  1  0.500000  0.500000  0.696963  1
  Ru  Ru23  1  0.000000  0.000000  0.304896  1
  Ru  Ru24  1  0.500000  0.334357  0.991192  1
  Ru  Ru25  1  0.500000  0.665643  0.991192  1
  Ru  Ru26  1  0.000000  0.165375  0.008734  1
  Ru  Ru27  1  0.000000  0.834625  0.008734  1
  Ru  Ru28  1  0.500000  0.300656  0.429444  1
  Ru  Ru29  1  0.500000  0.699344  0.429444  1
  Ru  Ru30  1  0.000000  0.196482  0.569818  1
  Ru  Ru31  1  0.000000  0.803518  0.569818  1
  Ru  Ru32  1  0.500000  0.879720  0.716543  1
  Ru  Ru33  1  0.500000  0.120280  0.716543  1
  Ru  Ru34  1  0.000000  0.620973  0.283044  1
  Ru  Ru35  1  0.000000  0.379027  0.283044  1
