# generated using pymatgen
data_Zr3Nb2Al2SiN
_symmetry_space_group_name_H-M   'P 1'
_cell_length_a   7.97631800
_cell_length_b   8.01143359
_cell_length_c   5.47339000
_cell_angle_alpha   90.00000000
_cell_angle_beta   90.00000000
_cell_angle_gamma   119.85510281
_symmetry_Int_Tables_number   1
_chemical_formula_structural   Zr3Nb2Al2SiN
_chemical_formula_sum   'Zr6 Nb4 Al4 Si2 N2'
_cell_volume   303.34160334
_cell_formula_units_Z   2
loop_
 _symmetry_equiv_pos_site_id
 _symmetry_equiv_pos_as_xyz
  1  'x, y, z'
loop_
 _atom_site_type_symbol
 _atom_site_label
 _atom_site_symmetry_multiplicity
 _atom_site_fract_x
 _atom_site_fract_y
 _atom_site_fract_z
 _atom_site_occupancy
  Zr  Zr0  1  0.236213  0.000000  0.250000  1
  Zr  Zr1  1  0.763787  0.000000  0.750000  1
  Zr  Zr2  1  0.995668  0.227712  0.250000  1
  Zr  Zr3  1  0.004332  0.772288  0.750000  1
  Zr  Zr4  1  0.767956  0.772288  0.250000  1
  Zr  Zr5  1  0.232044  0.227712  0.750000  1
  Nb  Nb6  1  0.339087  0.678176  0.000000  1
  Nb  Nb7  1  0.660913  0.321824  0.000000  1
  Nb  Nb8  1  0.660913  0.321824  0.500000  1
  Nb  Nb9  1  0.339087  0.678176  0.500000  1
  Al  Al10  1  0.997310  0.584905  0.250000  1
  Al  Al11  1  0.002690  0.415095  0.750000  1
  Al  Al12  1  0.412405  0.415095  0.250000  1
  Al  Al13  1  0.587595  0.584905  0.750000  1
  Si  Si14  1  0.591647  0.000000  0.250000  1
  Si  Si15  1  0.408353  0.000000  0.750000  1
  N  N16  1  0.000000  0.000000  0.000000  1
  N  N17  1  0.000000  0.000000  0.500000  1
