# generated using pymatgen
data_ZrScMn3Re
_symmetry_space_group_name_H-M   'P 1'
_cell_length_a   5.00601106
_cell_length_b   5.00601125
_cell_length_c   5.00601135
_cell_angle_alpha   61.39659247
_cell_angle_beta   61.39659351
_cell_angle_gamma   61.39658663
_symmetry_Int_Tables_number   1
_chemical_formula_structural   ZrScMn3Re
_chemical_formula_sum   'Zr1 Sc1 Mn3 Re1'
_cell_volume   91.49050347
_cell_formula_units_Z   1
loop_
 _symmetry_equiv_pos_site_id
 _symmetry_equiv_pos_as_xyz
  1  'x, y, z'
loop_
 _atom_site_type_symbol
 _atom_site_label
 _atom_site_symmetry_multiplicity
 _atom_site_fract_x
 _atom_site_fract_y
 _atom_site_fract_z
 _atom_site_occupancy
  Zr  Zr0  1  0.374754  0.374754  0.374754  1
  Sc  Sc1  1  0.625215  0.625215  0.625215  1
  Mn  Mn2  1  0.999702  0.500573  0.999702  1
  Mn  Mn3  1  0.500573  0.999702  0.999702  1
  Mn  Mn4  1  0.999702  0.999702  0.500573  1
  Re  Re5  1  0.000054  0.000054  0.000054  1
