# generated using pymatgen
data_RbLuMgFeH8
_symmetry_space_group_name_H-M   'P 1'
_cell_length_a   4.53740300
_cell_length_b   4.53740475
_cell_length_c   8.45301300
_cell_angle_alpha   90.00000000
_cell_angle_beta   90.00000000
_cell_angle_gamma   119.99999451
_symmetry_Int_Tables_number   1
_chemical_formula_structural   RbLuMgFeH8
_chemical_formula_sum   'Rb1 Lu1 Mg1 Fe1 H8'
_cell_volume   150.71520480
_cell_formula_units_Z   1
loop_
 _symmetry_equiv_pos_site_id
 _symmetry_equiv_pos_as_xyz
  1  'x, y, z'
loop_
 _atom_site_type_symbol
 _atom_site_label
 _atom_site_symmetry_multiplicity
 _atom_site_fract_x
 _atom_site_fract_y
 _atom_site_fract_z
 _atom_site_occupancy
  Rb  Rb0  1  0.000000  0.000000  0.514570  1
  Lu  Lu1  1  0.333333  0.666667  0.107761  1
  Mg  Mg2  1  0.666667  0.333333  0.869790  1
  Fe  Fe3  1  0.000000  0.000000  0.001129  1
  H  H4  1  0.323900  0.161950  0.111468  1
  H  H5  1  0.838050  0.676100  0.111468  1
  H  H6  1  0.838050  0.161950  0.111468  1
  H  H7  1  0.677287  0.838644  0.888925  1
  H  H8  1  0.161356  0.322713  0.888925  1
  H  H9  1  0.161356  0.838644  0.888925  1
  H  H10  1  0.666667  0.333333  0.655843  1
  H  H11  1  0.333333  0.666667  0.349729  1
