# generated using pymatgen
data_Eu2VTcF14
_symmetry_space_group_name_H-M   'P 1'
_cell_length_a   5.76488300
_cell_length_b   9.29223278
_cell_length_c   12.39642000
_cell_angle_alpha   62.50595442
_cell_angle_beta   90.00000000
_cell_angle_gamma   90.00000000
_symmetry_Int_Tables_number   1
_chemical_formula_structural   Eu2VTcF14
_chemical_formula_sum   'Eu4 V2 Tc2 F28'
_cell_volume   589.05965197
_cell_formula_units_Z   2
loop_
 _symmetry_equiv_pos_site_id
 _symmetry_equiv_pos_as_xyz
  1  'x, y, z'
loop_
 _atom_site_type_symbol
 _atom_site_label
 _atom_site_symmetry_multiplicity
 _atom_site_fract_x
 _atom_site_fract_y
 _atom_site_fract_z
 _atom_site_occupancy
  Eu  Eu0  1  0.756164  0.812550  0.276620  1
  Eu  Eu1  1  0.256164  0.187450  0.223380  1
  Eu  Eu2  1  0.240237  0.189198  0.739396  1
  Eu  Eu3  1  0.740237  0.810802  0.760604  1
  V  V4  1  0.242871  0.724864  0.545439  1
  V  V5  1  0.742871  0.275136  0.954561  1
  Tc  Tc6  1  0.755933  0.276594  0.452145  1
  Tc  Tc7  1  0.255933  0.723406  0.047855  1
  F  F8  1  0.980518  0.711368  0.454659  1
  F  F9  1  0.480518  0.288632  0.045341  1
  F  F10  1  0.024078  0.288126  0.543332  1
  F  F11  1  0.524078  0.711874  0.956668  1
  F  F12  1  0.048824  0.703693  0.933073  1
  F  F13  1  0.548824  0.296307  0.566927  1
  F  F14  1  0.953182  0.289533  0.068232  1
  F  F15  1  0.453182  0.710467  0.431768  1
  F  F16  1  0.738449  0.498790  0.866106  1
  F  F17  1  0.238449  0.501210  0.633894  1
  F  F18  1  0.262613  0.490169  0.142564  1
  F  F19  1  0.762613  0.509831  0.357436  1
  F  F20  1  0.736508  0.054048  0.045454  1
  F  F21  1  0.236508  0.945952  0.454546  1
  F  F22  1  0.254615  0.955655  0.956206  1
  F  F23  1  0.754615  0.044345  0.543794  1
  F  F24  1  0.035188  0.743649  0.659853  1
  F  F25  1  0.535188  0.256351  0.840147  1
  F  F26  1  0.963504  0.257382  0.335203  1
  F  F27  1  0.463504  0.742618  0.164797  1
  F  F28  1  0.995964  0.263253  0.859621  1
  F  F29  1  0.495964  0.736747  0.640379  1
  F  F30  1  0.991951  0.732551  0.141612  1
  F  F31  1  0.491951  0.267449  0.358388  1
  F  F32  1  0.075568  0.971385  0.231035  1
  F  F33  1  0.575568  0.028615  0.268965  1
  F  F34  1  0.943834  0.017118  0.762132  1
  F  F35  1  0.443834  0.982882  0.737868  1
