# generated using pymatgen
data_Nd3ErPa2(Co3P2)6
_symmetry_space_group_name_H-M   'P 1'
_cell_length_a   3.73518900
_cell_length_b   10.55697105
_cell_length_c   12.21603907
_cell_angle_alpha   90.01174206
_cell_angle_beta   90.00000000
_cell_angle_gamma   90.00000000
_symmetry_Int_Tables_number   1
_chemical_formula_structural   Nd3ErPa2(Co3P2)6
_chemical_formula_sum   'Nd3 Er1 Pa2 Co18 P12'
_cell_volume   481.70628913
_cell_formula_units_Z   1
loop_
 _symmetry_equiv_pos_site_id
 _symmetry_equiv_pos_as_xyz
  1  'x, y, z'
loop_
 _atom_site_type_symbol
 _atom_site_label
 _atom_site_symmetry_multiplicity
 _atom_site_fract_x
 _atom_site_fract_y
 _atom_site_fract_z
 _atom_site_occupancy
  Nd  Nd0  1  0.250000  0.935784  0.795084  1
  Nd  Nd1  1  0.250000  0.563612  0.793360  1
  Nd  Nd2  1  0.750000  0.065189  0.206182  1
  Er  Er3  1  0.750000  0.436176  0.205654  1
  Pa  Pa4  1  0.750000  0.251871  0.471392  1
  Pa  Pa5  1  0.250000  0.750064  0.527042  1
  Co  Co6  1  0.250000  0.251176  0.841618  1
  Co  Co7  1  0.750000  0.748397  0.158800  1
  Co  Co8  1  0.250000  0.252156  0.305207  1
  Co  Co9  1  0.750000  0.749558  0.692811  1
  Co  Co10  1  0.750000  0.252139  0.017863  1
  Co  Co11  1  0.250000  0.748036  0.986507  1
  Co  Co12  1  0.250000  0.415935  0.007790  1
  Co  Co13  1  0.250000  0.086116  0.006418  1
  Co  Co14  1  0.750000  0.582407  0.996591  1
  Co  Co15  1  0.750000  0.915425  0.995695  1
  Co  Co16  1  0.250000  0.447362  0.565519  1
  Co  Co17  1  0.250000  0.052813  0.568297  1
  Co  Co18  1  0.750000  0.551799  0.428435  1
  Co  Co19  1  0.750000  0.947982  0.431713  1
  Co  Co20  1  0.250000  0.866713  0.291442  1
  Co  Co21  1  0.250000  0.629256  0.287954  1
  Co  Co22  1  0.750000  0.132458  0.709757  1
  Co  Co23  1  0.750000  0.367531  0.708162  1
  P  P24  1  0.250000  0.253511  0.121640  1
  P  P25  1  0.750000  0.748871  0.882409  1
  P  P26  1  0.250000  0.250030  0.656626  1
  P  P27  1  0.750000  0.749867  0.342650  1
  P  P28  1  0.250000  0.443978  0.381385  1
  P  P29  1  0.250000  0.056940  0.386335  1
  P  P30  1  0.750000  0.555241  0.611629  1
  P  P31  1  0.750000  0.944453  0.613907  1
  P  P32  1  0.250000  0.900398  0.104291  1
  P  P33  1  0.250000  0.595987  0.106250  1
  P  P34  1  0.750000  0.101026  0.897576  1
  P  P35  1  0.750000  0.399743  0.896011  1
