# generated using pymatgen
data_LiLa16Cd3Os4
_symmetry_space_group_name_H-M   'P 1'
_cell_length_a   10.09829459
_cell_length_b   10.10382478
_cell_length_c   10.10382500
_cell_angle_alpha   59.99999599
_cell_angle_beta   59.98187871
_cell_angle_gamma   59.98187923
_symmetry_Int_Tables_number   1
_chemical_formula_structural   LiLa16Cd3Os4
_chemical_formula_sum   'Li1 La16 Cd3 Os4'
_cell_volume   728.76186617
_cell_formula_units_Z   1
loop_
 _symmetry_equiv_pos_site_id
 _symmetry_equiv_pos_as_xyz
  1  'x, y, z'
loop_
 _atom_site_type_symbol
 _atom_site_label
 _atom_site_symmetry_multiplicity
 _atom_site_fract_x
 _atom_site_fract_y
 _atom_site_fract_z
 _atom_site_occupancy
  Li  Li0  1  0.206560  0.931147  0.931147  1
  La  La1  1  0.942908  0.943845  0.556624  1
  La  La2  1  0.560121  0.943664  0.552550  1
  La  La3  1  0.560121  0.943664  0.943664  1
  La  La4  1  0.689111  0.690200  0.310344  1
  La  La5  1  0.154333  0.155276  0.535115  1
  La  La6  1  0.311678  0.687088  0.687088  1
  La  La7  1  0.154333  0.155276  0.155276  1
  La  La8  1  0.539306  0.153565  0.153565  1
  La  La9  1  0.311678  0.687088  0.314145  1
  La  La10  1  0.311678  0.314145  0.687088  1
  La  La11  1  0.689111  0.310344  0.690200  1
  La  La12  1  0.942908  0.556624  0.556624  1
  La  La13  1  0.560121  0.552550  0.943664  1
  La  La14  1  0.154333  0.535115  0.155276  1
  La  La15  1  0.689111  0.310344  0.310344  1
  La  La16  1  0.942908  0.556624  0.943845  1
  Cd  Cd17  1  0.923296  0.919515  0.919515  1
  Cd  Cd18  1  0.923296  0.919515  0.237674  1
  Cd  Cd19  1  0.923296  0.237674  0.919515  1
  Os  Os20  1  0.916188  0.361271  0.361271  1
  Os  Os21  1  0.364535  0.360666  0.914133  1
  Os  Os22  1  0.364535  0.914133  0.360666  1
  Os  Os23  1  0.364535  0.360666  0.360666  1
