# generated using pymatgen
data_Ac11Th(Si7I3)2
_symmetry_space_group_name_H-M   'P 1'
_cell_length_a   4.28318800
_cell_length_b   12.73732100
_cell_length_c   17.70656600
_cell_angle_alpha   90.00000000
_cell_angle_beta   90.00000000
_cell_angle_gamma   90.00000000
_symmetry_Int_Tables_number   1
_chemical_formula_structural   Ac11Th(Si7I3)2
_chemical_formula_sum   'Ac11 Th1 Si14 I6'
_cell_volume   966.00544306
_cell_formula_units_Z   1
loop_
 _symmetry_equiv_pos_site_id
 _symmetry_equiv_pos_as_xyz
  1  'x, y, z'
loop_
 _atom_site_type_symbol
 _atom_site_label
 _atom_site_symmetry_multiplicity
 _atom_site_fract_x
 _atom_site_fract_y
 _atom_site_fract_z
 _atom_site_occupancy
  Ac  Ac0  1  0.500000  0.354639  0.500000  1
  Ac  Ac1  1  0.000000  0.644819  0.000000  1
  Ac  Ac2  1  0.500000  0.366814  0.753328  1
  Ac  Ac3  1  0.000000  0.634434  0.741014  1
  Ac  Ac4  1  0.500000  0.366814  0.246672  1
  Ac  Ac5  1  0.000000  0.634434  0.258986  1
  Ac  Ac6  1  0.500000  0.079298  0.882442  1
  Ac  Ac7  1  0.000000  0.918519  0.616640  1
  Ac  Ac8  1  0.500000  0.079298  0.117558  1
  Ac  Ac9  1  0.000000  0.918519  0.383360  1
  Ac  Ac10  1  0.500000  0.363485  0.000000  1
  Th  Th11  1  0.000000  0.638383  0.500000  1
  Si  Si12  1  0.000000  0.168162  0.000000  1
  Si  Si13  1  0.500000  0.829002  0.500000  1
  Si  Si14  1  0.500000  0.558500  0.876556  1
  Si  Si15  1  0.000000  0.446311  0.618625  1
  Si  Si16  1  0.500000  0.558500  0.123444  1
  Si  Si17  1  0.000000  0.446311  0.381375  1
  Si  Si18  1  0.000000  0.264188  0.877392  1
  Si  Si19  1  0.500000  0.733267  0.618788  1
  Si  Si20  1  0.000000  0.264188  0.122608  1
  Si  Si21  1  0.500000  0.733267  0.381212  1
  Si  Si22  1  0.000000  0.457348  0.875046  1
  Si  Si23  1  0.500000  0.544161  0.619028  1
  Si  Si24  1  0.500000  0.544161  0.380972  1
  Si  Si25  1  0.000000  0.457348  0.124954  1
  I  I26  1  0.500000  0.111386  0.689655  1
  I  I27  1  0.000000  0.887340  0.809212  1
  I  I28  1  0.000000  0.136137  0.500000  1
  I  I29  1  0.500000  0.862238  0.000000  1
  I  I30  1  0.500000  0.111386  0.310345  1
  I  I31  1  0.000000  0.887340  0.190788  1
