# generated using pymatgen
data_Eu2Ho3Co16(TcP4)3
_symmetry_space_group_name_H-M   'P 1'
_cell_length_a   12.07299800
_cell_length_b   12.07299803
_cell_length_c   3.70952200
_cell_angle_alpha   90.00000000
_cell_angle_beta   90.00000000
_cell_angle_gamma   119.99999992
_symmetry_Int_Tables_number   1
_chemical_formula_structural   Eu2Ho3Co16(TcP4)3
_chemical_formula_sum   'Eu2 Ho3 Co16 Tc3 P12'
_cell_volume   468.25113797
_cell_formula_units_Z   1
loop_
 _symmetry_equiv_pos_site_id
 _symmetry_equiv_pos_as_xyz
  1  'x, y, z'
loop_
 _atom_site_type_symbol
 _atom_site_label
 _atom_site_symmetry_multiplicity
 _atom_site_fract_x
 _atom_site_fract_y
 _atom_site_fract_z
 _atom_site_occupancy
  Eu  Eu0  1  0.666667  0.333333  0.000000  1
  Eu  Eu1  1  0.333333  0.666667  0.000000  1
  Ho  Ho2  1  0.815591  0.815591  0.500000  1
  Ho  Ho3  1  0.184409  0.000000  0.500000  1
  Ho  Ho4  1  0.000000  0.184409  0.500000  1
  Co  Co5  1  0.876323  0.354692  0.500000  1
  Co  Co6  1  0.645308  0.521632  0.500000  1
  Co  Co7  1  0.478368  0.123677  0.500000  1
  Co  Co8  1  0.354692  0.876323  0.500000  1
  Co  Co9  1  0.521632  0.645308  0.500000  1
  Co  Co10  1  0.123677  0.478368  0.500000  1
  Co  Co11  1  0.803987  0.176520  0.000000  1
  Co  Co12  1  0.823480  0.627466  0.000000  1
  Co  Co13  1  0.372534  0.196013  0.000000  1
  Co  Co14  1  0.176520  0.803987  0.000000  1
  Co  Co15  1  0.627466  0.823480  0.000000  1
  Co  Co16  1  0.196013  0.372534  0.000000  1
  Co  Co17  1  0.281156  0.281156  0.500000  1
  Co  Co18  1  0.718844  0.000000  0.500000  1
  Co  Co19  1  0.000000  0.718844  0.500000  1
  Co  Co20  1  0.000000  0.000000  0.000000  1
  Tc  Tc21  1  0.445980  0.445980  0.000000  1
  Tc  Tc22  1  0.554020  0.000000  0.000000  1
  Tc  Tc23  1  0.000000  0.554020  0.000000  1
  P  P24  1  0.684970  0.163216  0.500000  1
  P  P25  1  0.836784  0.521754  0.500000  1
  P  P26  1  0.478246  0.315030  0.500000  1
  P  P27  1  0.163216  0.684970  0.500000  1
  P  P28  1  0.521754  0.836784  0.500000  1
  P  P29  1  0.315030  0.478246  0.500000  1
  P  P30  1  0.177940  0.177940  0.000000  1
  P  P31  1  0.822060  0.000000  0.000000  1
  P  P32  1  0.000000  0.822060  0.000000  1
  P  P33  1  0.637545  0.637545  0.000000  1
  P  P34  1  0.362455  0.000000  0.000000  1
  P  P35  1  0.000000  0.362455  0.000000  1
