# generated using pymatgen
data_Sr2Al9PtRh2
_symmetry_space_group_name_H-M   'P 1'
_cell_length_a   7.64716000
_cell_length_b   7.64716231
_cell_length_c   9.84836600
_cell_angle_alpha   90.00000000
_cell_angle_beta   90.00000000
_cell_angle_gamma   118.87806052
_symmetry_Int_Tables_number   1
_chemical_formula_structural   Sr2Al9PtRh2
_chemical_formula_sum   'Sr4 Al18 Pt2 Rh4'
_cell_volume   504.30697951
_cell_formula_units_Z   2
loop_
 _symmetry_equiv_pos_site_id
 _symmetry_equiv_pos_as_xyz
  1  'x, y, z'
loop_
 _atom_site_type_symbol
 _atom_site_label
 _atom_site_symmetry_multiplicity
 _atom_site_fract_x
 _atom_site_fract_y
 _atom_site_fract_z
 _atom_site_occupancy
  Sr  Sr0  1  0.994604  0.675010  0.250000  1
  Sr  Sr1  1  0.005396  0.324990  0.750000  1
  Sr  Sr2  1  0.675010  0.994604  0.250000  1
  Sr  Sr3  1  0.324990  0.005396  0.750000  1
  Al  Al4  1  0.140635  0.140635  0.250000  1
  Al  Al5  1  0.859365  0.859365  0.750000  1
  Al  Al6  1  0.005432  0.340019  0.069744  1
  Al  Al7  1  0.994568  0.659981  0.930256  1
  Al  Al8  1  0.994568  0.659981  0.569744  1
  Al  Al9  1  0.340019  0.005432  0.430256  1
  Al  Al10  1  0.005432  0.340019  0.430256  1
  Al  Al11  1  0.659981  0.994568  0.569744  1
  Al  Al12  1  0.659981  0.994568  0.930256  1
  Al  Al13  1  0.340019  0.005432  0.069744  1
  Al  Al14  1  0.339028  0.339028  0.543596  1
  Al  Al15  1  0.660972  0.660972  0.456404  1
  Al  Al16  1  0.660972  0.660972  0.043596  1
  Al  Al17  1  0.339028  0.339028  0.956404  1
  Al  Al18  1  0.337762  0.545071  0.250000  1
  Al  Al19  1  0.662238  0.454929  0.750000  1
  Al  Al20  1  0.545071  0.337762  0.250000  1
  Al  Al21  1  0.454929  0.662238  0.750000  1
  Pt  Pt22  1  0.000000  0.000000  0.000000  1
  Pt  Pt23  1  0.000000  0.000000  0.500000  1
  Rh  Rh24  1  0.670534  0.329466  0.000000  1
  Rh  Rh25  1  0.329466  0.670534  0.000000  1
  Rh  Rh26  1  0.329466  0.670534  0.500000  1
  Rh  Rh27  1  0.670534  0.329466  0.500000  1
