# generated using pymatgen
data_ErNiP4Ru5
_symmetry_space_group_name_H-M   'P 1'
_cell_length_a   6.82268500
_cell_length_b   6.89451512
_cell_length_c   3.73155800
_cell_angle_alpha   90.00000000
_cell_angle_beta   90.00000000
_cell_angle_gamma   119.65595973
_symmetry_Int_Tables_number   1
_chemical_formula_structural   ErNiP4Ru5
_chemical_formula_sum   'Er1 Ni1 P4 Ru5'
_cell_volume   152.53695206
_cell_formula_units_Z   1
loop_
 _symmetry_equiv_pos_site_id
 _symmetry_equiv_pos_as_xyz
  1  'x, y, z'
loop_
 _atom_site_type_symbol
 _atom_site_label
 _atom_site_symmetry_multiplicity
 _atom_site_fract_x
 _atom_site_fract_y
 _atom_site_fract_z
 _atom_site_occupancy
  Er  Er0  1  0.995379  0.990759  0.000000  1
  Ni  Ni1  1  0.802246  0.604492  0.500000  1
  P  P2  1  0.191926  0.383852  0.500000  1
  P  P3  1  0.620071  0.809370  0.500000  1
  P  P4  1  0.189299  0.809370  0.500000  1
  P  P5  1  0.663738  0.327474  0.000000  1
  Ru  Ru6  1  0.396717  0.199050  0.500000  1
  Ru  Ru7  1  0.802333  0.199050  0.500000  1
  Ru  Ru8  1  0.465723  0.931446  0.000000  1
  Ru  Ru9  1  0.063775  0.539234  0.000000  1
  Ru  Ru10  1  0.475460  0.539234  0.000000  1
