# generated using pymatgen
data_Ac2Ga2Te
_symmetry_space_group_name_H-M   'P 1'
_cell_length_a   4.48148800
_cell_length_b   4.48148897
_cell_length_c   18.03385700
_cell_angle_alpha   90.00000000
_cell_angle_beta   90.00000000
_cell_angle_gamma   120.00000759
_symmetry_Int_Tables_number   1
_chemical_formula_structural   Ac2Ga2Te
_chemical_formula_sum   'Ac4 Ga4 Te2'
_cell_volume   313.66335976
_cell_formula_units_Z   2
loop_
 _symmetry_equiv_pos_site_id
 _symmetry_equiv_pos_as_xyz
  1  'x, y, z'
loop_
 _atom_site_type_symbol
 _atom_site_label
 _atom_site_symmetry_multiplicity
 _atom_site_fract_x
 _atom_site_fract_y
 _atom_site_fract_z
 _atom_site_occupancy
  Ac  Ac0  1  0.000000  0.000000  0.124469  1
  Ac  Ac1  1  0.000000  0.000000  0.375531  1
  Ac  Ac2  1  0.000000  0.000000  0.624469  1
  Ac  Ac3  1  0.000000  0.000000  0.875531  1
  Ga  Ga4  1  0.333333  0.666665  0.017360  1
  Ga  Ga5  1  0.333333  0.666665  0.482640  1
  Ga  Ga6  1  0.666666  0.333333  0.517360  1
  Ga  Ga7  1  0.666666  0.333333  0.982640  1
  Te  Te8  1  0.666666  0.333333  0.250000  1
  Te  Te9  1  0.333333  0.666665  0.750000  1
