# generated using pymatgen
data_Mg3ScFe4(Co4P3)4
_symmetry_space_group_name_H-M   'P 1'
_cell_length_a   3.57290500
_cell_length_b   10.13686747
_cell_length_c   11.64860700
_cell_angle_alpha   89.90510226
_cell_angle_beta   90.00000000
_cell_angle_gamma   90.00000000
_symmetry_Int_Tables_number   1
_chemical_formula_structural   Mg3ScFe4(Co4P3)4
_chemical_formula_sum   'Mg3 Sc1 Fe4 Co16 P12'
_cell_volume   421.88942066
_cell_formula_units_Z   1
loop_
 _symmetry_equiv_pos_site_id
 _symmetry_equiv_pos_as_xyz
  1  'x, y, z'
loop_
 _atom_site_type_symbol
 _atom_site_label
 _atom_site_symmetry_multiplicity
 _atom_site_fract_x
 _atom_site_fract_y
 _atom_site_fract_z
 _atom_site_occupancy
  Mg  Mg0  1  0.250000  0.579085  0.704565  1
  Mg  Mg1  1  0.250000  0.920405  0.203696  1
  Mg  Mg2  1  0.750000  0.420697  0.295877  1
  Sc  Sc3  1  0.750000  0.081607  0.795179  1
  Fe  Fe4  1  0.250000  0.712593  0.988493  1
  Fe  Fe5  1  0.250000  0.787683  0.488565  1
  Fe  Fe6  1  0.750000  0.287557  0.011021  1
  Fe  Fe7  1  0.750000  0.211643  0.512451  1
  Co  Co8  1  0.250000  0.406801  0.483584  1
  Co  Co9  1  0.250000  0.093557  0.983849  1
  Co  Co10  1  0.750000  0.592295  0.517449  1
  Co  Co11  1  0.750000  0.908105  0.016698  1
  Co  Co12  1  0.250000  0.220536  0.176354  1
  Co  Co13  1  0.250000  0.278082  0.676175  1
  Co  Co14  1  0.750000  0.780546  0.823965  1
  Co  Co15  1  0.750000  0.720065  0.323786  1
  Co  Co16  1  0.250000  0.882594  0.699621  1
  Co  Co17  1  0.250000  0.616424  0.200834  1
  Co  Co18  1  0.750000  0.116916  0.299296  1
  Co  Co19  1  0.750000  0.383799  0.799344  1
  Co  Co20  1  0.250000  0.466299  0.931513  1
  Co  Co21  1  0.250000  0.034009  0.431038  1
  Co  Co22  1  0.750000  0.534383  0.068486  1
  Co  Co23  1  0.750000  0.964267  0.567616  1
  P  P24  1  0.250000  0.418082  0.114486  1
  P  P25  1  0.250000  0.080465  0.614457  1
  P  P26  1  0.750000  0.582549  0.885103  1
  P  P27  1  0.750000  0.918060  0.384380  1
  P  P28  1  0.250000  0.265537  0.867084  1
  P  P29  1  0.250000  0.235911  0.367022  1
  P  P30  1  0.750000  0.736106  0.133319  1
  P  P31  1  0.750000  0.763193  0.633843  1
  P  P32  1  0.250000  0.598776  0.391143  1
  P  P33  1  0.250000  0.901509  0.890495  1
  P  P34  1  0.750000  0.400699  0.609789  1
  P  P35  1  0.750000  0.099166  0.109424  1
