# generated using pymatgen
data_Pr2Tm4TcBi2
_symmetry_space_group_name_H-M   'P 1'
_cell_length_a   8.32254089
_cell_length_b   8.32254209
_cell_length_c   4.35533700
_cell_angle_alpha   90.00000000
_cell_angle_beta   90.00000000
_cell_angle_gamma   119.31226511
_symmetry_Int_Tables_number   1
_chemical_formula_structural   Pr2Tm4TcBi2
_chemical_formula_sum   'Pr2 Tm4 Tc1 Bi2'
_cell_volume   263.04648499
_cell_formula_units_Z   1
loop_
 _symmetry_equiv_pos_site_id
 _symmetry_equiv_pos_as_xyz
  1  'x, y, z'
loop_
 _atom_site_type_symbol
 _atom_site_label
 _atom_site_symmetry_multiplicity
 _atom_site_fract_x
 _atom_site_fract_y
 _atom_site_fract_z
 _atom_site_occupancy
  Pr  Pr0  1  0.600795  0.995947  0.000000  1
  Pr  Pr1  1  0.995947  0.600795  0.000000  1
  Tm  Tm2  1  0.231605  0.999795  0.500000  1
  Tm  Tm3  1  0.999795  0.231605  0.500000  1
  Tm  Tm4  1  0.779563  0.779563  0.500000  1
  Tm  Tm5  1  0.385006  0.385006  0.000000  1
  Tc  Tc6  1  0.014915  0.014915  0.000000  1
  Bi  Bi7  1  0.335868  0.656505  0.500000  1
  Bi  Bi8  1  0.656505  0.335868  0.500000  1
