# generated using pymatgen
data_TbGdTa6O18
_symmetry_space_group_name_H-M   'P 1'
_cell_length_a   7.55282500
_cell_length_b   5.34434237
_cell_length_c   8.31966811
_cell_angle_alpha   87.52195444
_cell_angle_beta   90.00007235
_cell_angle_gamma   90.00021496
_symmetry_Int_Tables_number   1
_chemical_formula_structural   TbGdTa6O18
_chemical_formula_sum   'Tb1 Gd1 Ta6 O18'
_cell_volume   335.50838701
_cell_formula_units_Z   1
loop_
 _symmetry_equiv_pos_site_id
 _symmetry_equiv_pos_as_xyz
  1  'x, y, z'
loop_
 _atom_site_type_symbol
 _atom_site_label
 _atom_site_symmetry_multiplicity
 _atom_site_fract_x
 _atom_site_fract_y
 _atom_site_fract_z
 _atom_site_occupancy
  Tb  Tb0  1  0.250000  0.963973  0.434993  1
  Gd  Gd1  1  0.750000  0.034202  0.564408  1
  Ta  Ta2  1  0.000045  0.999750  0.000151  1
  Ta  Ta3  1  0.499955  0.999749  0.000151  1
  Ta  Ta4  1  0.007386  0.527706  0.696675  1
  Ta  Ta5  1  0.492614  0.527706  0.696675  1
  Ta  Ta6  1  0.993806  0.471644  0.302956  1
  Ta  Ta7  1  0.506193  0.471644  0.302957  1
  O  O8  1  0.250000  0.909579  0.979411  1
  O  O9  1  0.938486  0.848160  0.786516  1
  O  O10  1  0.561515  0.848160  0.786516  1
  O  O11  1  0.960296  0.740396  0.467288  1
  O  O12  1  0.539705  0.740396  0.467288  1
  O  O13  1  0.250000  0.660268  0.655866  1
  O  O14  1  0.949632  0.676861  0.121525  1
  O  O15  1  0.550368  0.676861  0.121525  1
  O  O16  1  0.250000  0.574892  0.314324  1
  O  O17  1  0.750000  0.429378  0.684641  1
  O  O18  1  0.050639  0.322780  0.878440  1
  O  O19  1  0.449362  0.322780  0.878440  1
  O  O20  1  0.750000  0.343538  0.343163  1
  O  O21  1  0.042735  0.259187  0.532472  1
  O  O22  1  0.457265  0.259187  0.532472  1
  O  O23  1  0.063115  0.150139  0.215102  1
  O  O24  1  0.436884  0.150139  0.215103  1
  O  O25  1  0.750000  0.090924  0.020939  1
