# generated using pymatgen
data_CeCdPt2F14
_symmetry_space_group_name_H-M   'P 1'
_cell_length_a   5.53626064
_cell_length_b   8.93920831
_cell_length_c   11.94072500
_cell_angle_alpha   61.86562888
_cell_angle_beta   90.25917550
_cell_angle_gamma   89.73998444
_symmetry_Int_Tables_number   1
_chemical_formula_structural   CeCdPt2F14
_chemical_formula_sum   'Ce2 Cd2 Pt4 F28'
_cell_volume   521.10021300
_cell_formula_units_Z   2
loop_
 _symmetry_equiv_pos_site_id
 _symmetry_equiv_pos_as_xyz
  1  'x, y, z'
loop_
 _atom_site_type_symbol
 _atom_site_label
 _atom_site_symmetry_multiplicity
 _atom_site_fract_x
 _atom_site_fract_y
 _atom_site_fract_z
 _atom_site_occupancy
  Ce  Ce0  1  0.763358  0.184879  0.235502  1
  Ce  Ce1  1  0.236642  0.815121  0.764498  1
  Cd  Cd2  1  0.263303  0.811544  0.262994  1
  Cd  Cd3  1  0.736697  0.188456  0.737006  1
  Pt  Pt4  1  0.758214  0.727352  0.045557  1
  Pt  Pt5  1  0.241786  0.272648  0.954443  1
  Pt  Pt6  1  0.260764  0.275127  0.457227  1
  Pt  Pt7  1  0.739236  0.724873  0.542773  1
  F  F8  1  0.924306  0.702859  0.413910  1
  F  F9  1  0.075694  0.297141  0.586090  1
  F  F10  1  0.430332  0.296063  0.086663  1
  F  F11  1  0.569668  0.703937  0.913337  1
  F  F12  1  0.457628  0.722320  0.130338  1
  F  F13  1  0.542372  0.277680  0.869662  1
  F  F14  1  0.959728  0.275085  0.367186  1
  F  F15  1  0.040272  0.724915  0.632814  1
  F  F16  1  0.935579  0.738827  0.182133  1
  F  F17  1  0.064421  0.261173  0.817867  1
  F  F18  1  0.444041  0.257211  0.321626  1
  F  F19  1  0.555959  0.742789  0.678374  1
  F  F20  1  0.773275  0.476537  0.140703  1
  F  F21  1  0.226725  0.523463  0.859297  1
  F  F22  1  0.272030  0.519787  0.357163  1
  F  F23  1  0.727970  0.480213  0.642837  1
  F  F24  1  0.934395  0.279768  0.036840  1
  F  F25  1  0.065605  0.720232  0.963160  1
  F  F26  1  0.435229  0.719296  0.461859  1
  F  F27  1  0.564771  0.280704  0.538141  1
  F  F28  1  0.739282  0.975872  0.450014  1
  F  F29  1  0.260718  0.024128  0.549986  1
  F  F30  1  0.244750  0.026476  0.045094  1
  F  F31  1  0.755250  0.973524  0.954906  1
  F  F32  1  0.603867  0.975200  0.227755  1
  F  F33  1  0.396133  0.024800  0.772245  1
  F  F34  1  0.094719  0.043644  0.269635  1
  F  F35  1  0.905281  0.956356  0.730365  1
