# generated using pymatgen
data_Sm(AlB14)2
_symmetry_space_group_name_H-M   'P 1'
_cell_length_a   7.24691300
_cell_length_b   7.24691191
_cell_length_c   5.82764712
_cell_angle_alpha   66.51273081
_cell_angle_beta   66.51272473
_cell_angle_gamma   92.36346699
_symmetry_Int_Tables_number   1
_chemical_formula_structural   Sm(AlB14)2
_chemical_formula_sum   'Sm1 Al2 B28'
_cell_volume   250.05301004
_cell_formula_units_Z   1
loop_
 _symmetry_equiv_pos_site_id
 _symmetry_equiv_pos_as_xyz
  1  'x, y, z'
loop_
 _atom_site_type_symbol
 _atom_site_label
 _atom_site_symmetry_multiplicity
 _atom_site_fract_x
 _atom_site_fract_y
 _atom_site_fract_z
 _atom_site_occupancy
  Sm  Sm0  1  0.891999  0.891999  0.356744  1
  Al  Al1  1  0.496886  0.496886  0.507868  1
  Al  Al2  1  0.160489  0.160489  0.498854  1
  B  B3  1  0.417640  0.737131  0.171184  1
  B  B4  1  0.582601  0.257141  0.835261  1
  B  B5  1  0.257141  0.582601  0.835261  1
  B  B6  1  0.737131  0.417640  0.171184  1
  B  B7  1  0.694601  0.861337  0.972551  1
  B  B8  1  0.305891  0.135053  0.034585  1
  B  B9  1  0.135053  0.305891  0.034585  1
  B  B10  1  0.861337  0.694601  0.972551  1
  B  B11  1  0.533211  0.872441  0.299570  1
  B  B12  1  0.469809  0.124037  0.205464  1
  B  B13  1  0.124037  0.469809  0.205464  1
  B  B14  1  0.872441  0.533211  0.299570  1
  B  B15  1  0.462490  0.121241  0.711278  1
  B  B16  1  0.531216  0.870334  0.801333  1
  B  B17  1  0.870334  0.531216  0.801333  1
  B  B18  1  0.121241  0.462490  0.711278  1
  B  B19  1  0.722272  0.100899  0.999237  1
  B  B20  1  0.281067  0.893263  0.325727  1
  B  B21  1  0.893263  0.281067  0.325727  1
  B  B22  1  0.100899  0.722272  0.999237  1
  B  B23  1  0.278482  0.895546  0.006948  1
  B  B24  1  0.719092  0.101490  0.685028  1
  B  B25  1  0.101490  0.719092  0.685028  1
  B  B26  1  0.895546  0.278482  0.006948  1
  B  B27  1  0.272412  0.474650  0.378150  1
  B  B28  1  0.716091  0.519189  0.641953  1
  B  B29  1  0.519189  0.716091  0.641953  1
  B  B30  1  0.474650  0.272412  0.378150  1
