# generated using pymatgen
data_Lu8Cu3Si12Rh
_symmetry_space_group_name_H-M   'P 1'
_cell_length_a   7.98244500
_cell_length_b   7.98244548
_cell_length_c   7.87357900
_cell_angle_alpha   90.00000000
_cell_angle_beta   90.00000000
_cell_angle_gamma   119.99999386
_symmetry_Int_Tables_number   1
_chemical_formula_structural   Lu8Cu3Si12Rh
_chemical_formula_sum   'Lu8 Cu3 Si12 Rh1'
_cell_volume   434.48495631
_cell_formula_units_Z   1
loop_
 _symmetry_equiv_pos_site_id
 _symmetry_equiv_pos_as_xyz
  1  'x, y, z'
loop_
 _atom_site_type_symbol
 _atom_site_label
 _atom_site_symmetry_multiplicity
 _atom_site_fract_x
 _atom_site_fract_y
 _atom_site_fract_z
 _atom_site_occupancy
  Lu  Lu0  1  0.000000  0.000000  0.249834  1
  Lu  Lu1  1  0.000000  0.000000  0.750140  1
  Lu  Lu2  1  0.998452  0.499226  0.252053  1
  Lu  Lu3  1  0.500774  0.499226  0.252053  1
  Lu  Lu4  1  0.501268  0.002536  0.748123  1
  Lu  Lu5  1  0.500774  0.001548  0.252053  1
  Lu  Lu6  1  0.501268  0.498732  0.748123  1
  Lu  Lu7  1  0.997464  0.498732  0.748123  1
  Cu  Cu8  1  0.333333  0.666667  0.999200  1
  Cu  Cu9  1  0.333333  0.666667  0.499723  1
  Cu  Cu10  1  0.666667  0.333333  0.001077  1
  Si  Si11  1  0.168910  0.337819  0.000017  1
  Si  Si12  1  0.662181  0.831090  0.000017  1
  Si  Si13  1  0.168113  0.336225  0.500224  1
  Si  Si14  1  0.337642  0.168821  0.999891  1
  Si  Si15  1  0.168910  0.831090  0.000017  1
  Si  Si16  1  0.663775  0.831887  0.500224  1
  Si  Si17  1  0.831179  0.662358  0.999891  1
  Si  Si18  1  0.334679  0.167340  0.499891  1
  Si  Si19  1  0.168113  0.831887  0.500224  1
  Si  Si20  1  0.832660  0.665321  0.499891  1
  Si  Si21  1  0.831179  0.168821  0.999891  1
  Si  Si22  1  0.832660  0.167340  0.499891  1
  Rh  Rh23  1  0.666667  0.333333  0.499421  1
