# generated using pymatgen
data_TbNd4US10
_symmetry_space_group_name_H-M   'P 1'
_cell_length_a   7.55200500
_cell_length_b   8.11430700
_cell_length_c   11.89917500
_cell_angle_alpha   90.00000000
_cell_angle_beta   90.00000000
_cell_angle_gamma   90.00000000
_symmetry_Int_Tables_number   1
_chemical_formula_structural   TbNd4US10
_chemical_formula_sum   'Tb2 Nd8 U2 S20'
_cell_volume   729.17296031
_cell_formula_units_Z   2
loop_
 _symmetry_equiv_pos_site_id
 _symmetry_equiv_pos_as_xyz
  1  'x, y, z'
loop_
 _atom_site_type_symbol
 _atom_site_label
 _atom_site_symmetry_multiplicity
 _atom_site_fract_x
 _atom_site_fract_y
 _atom_site_fract_z
 _atom_site_occupancy
  Tb  Tb0  1  0.073424  0.750000  0.492498  1
  Tb  Tb1  1  0.426576  0.750000  0.992498  1
  Nd  Nd2  1  0.530119  0.501973  0.323389  1
  Nd  Nd3  1  0.969881  0.998027  0.823389  1
  Nd  Nd4  1  0.474824  0.997685  0.676950  1
  Nd  Nd5  1  0.025176  0.502315  0.176950  1
  Nd  Nd6  1  0.474824  0.502315  0.676950  1
  Nd  Nd7  1  0.025176  0.997685  0.176950  1
  Nd  Nd8  1  0.530119  0.998027  0.323389  1
  Nd  Nd9  1  0.969881  0.501973  0.823389  1
  U  U10  1  0.941683  0.250000  0.506535  1
  U  U11  1  0.558317  0.250000  0.006535  1
  S  S12  1  0.834084  0.969298  0.594021  1
  S  S13  1  0.665916  0.530702  0.094021  1
  S  S14  1  0.164070  0.452794  0.406737  1
  S  S15  1  0.335930  0.047206  0.906737  1
  S  S16  1  0.164070  0.047206  0.406737  1
  S  S17  1  0.335930  0.452794  0.906737  1
  S  S18  1  0.834084  0.530702  0.594021  1
  S  S19  1  0.665916  0.969298  0.094021  1
  S  S20  1  0.832395  0.750000  0.310274  1
  S  S21  1  0.667605  0.750000  0.810274  1
  S  S22  1  0.163324  0.250000  0.685340  1
  S  S23  1  0.336676  0.250000  0.185340  1
  S  S24  1  0.455643  0.750000  0.498087  1
  S  S25  1  0.044357  0.750000  0.998087  1
  S  S26  1  0.549478  0.250000  0.499757  1
  S  S27  1  0.950522  0.250000  0.999757  1
  S  S28  1  0.191418  0.750000  0.715371  1
  S  S29  1  0.308582  0.750000  0.215371  1
  S  S30  1  0.811434  0.250000  0.289943  1
  S  S31  1  0.688566  0.250000  0.789943  1
