# generated using pymatgen
data_Y7Er3Si16Pd
_symmetry_space_group_name_H-M   'P 1'
_cell_length_a   11.05322291
_cell_length_b   11.06320109
_cell_length_c   11.05258600
_cell_angle_alpha   144.77330397
_cell_angle_beta   136.44453167
_cell_angle_gamma   57.17596054
_symmetry_Int_Tables_number   1
_chemical_formula_structural   Y7Er3Si16Pd
_chemical_formula_sum   'Y7 Er3 Si16 Pd1'
_cell_volume   532.92797398
_cell_formula_units_Z   1
loop_
 _symmetry_equiv_pos_site_id
 _symmetry_equiv_pos_as_xyz
  1  'x, y, z'
loop_
 _atom_site_type_symbol
 _atom_site_label
 _atom_site_symmetry_multiplicity
 _atom_site_fract_x
 _atom_site_fract_y
 _atom_site_fract_z
 _atom_site_occupancy
  Y  Y0  1  0.451466  0.963419  0.014755  1
  Y  Y1  1  0.645671  0.165985  0.013720  1
  Y  Y2  1  0.948611  0.962999  0.511798  1
  Y  Y3  1  0.849390  0.371130  0.018829  1
  Y  Y4  1  0.547881  0.564098  0.512172  1
  Y  Y5  1  0.249792  0.764188  0.012263  1
  Y  Y6  1  0.751855  0.763665  0.514336  1
  Er  Er7  1  0.051647  0.563610  0.016015  1
  Er  Er8  1  0.351890  0.371348  0.521453  1
  Er  Er9  1  0.151666  0.166335  0.520336  1
  Si  Si10  1  0.118637  0.078356  0.961637  1
  Si  Si11  1  0.799471  0.183836  0.386613  1
  Si  Si12  1  0.298885  0.899129  0.597106  1
  Si  Si13  1  0.398119  0.500662  0.099249  1
  Si  Si14  1  0.886772  0.847899  0.965243  1
  Si  Si15  1  0.104804  0.708166  0.604761  1
  Si  Si16  1  0.200635  0.584603  0.384118  1
  Si  Si17  1  0.698058  0.294120  0.595768  1
  Si  Si18  1  0.001021  0.433034  0.434619  1
  Si  Si19  1  0.714504  0.666549  0.953064  1
  Si  Si20  1  0.599728  0.701572  0.100079  1
  Si  Si21  1  0.001460  0.085843  0.086640  1
  Si  Si22  1  0.498731  0.391506  0.888301  1
  Si  Si23  1  0.284389  0.241555  0.954044  1
  Si  Si24  1  0.582377  0.041583  0.457179  1
  Si  Si25  1  0.413338  0.871168  0.455226  1
  Pd  Pd26  1  0.899201  0.502562  0.609591  1
