# generated using pymatgen
data_Mg2SiPd5
_symmetry_space_group_name_H-M   'P 1'
_cell_length_a   4.10326800
_cell_length_b   5.52819500
_cell_length_c   10.67830600
_cell_angle_alpha   90.00000000
_cell_angle_beta   90.00000000
_cell_angle_gamma   90.00000000
_symmetry_Int_Tables_number   1
_chemical_formula_structural   Mg2SiPd5
_chemical_formula_sum   'Mg4 Si2 Pd10'
_cell_volume   242.22312292
_cell_formula_units_Z   2
loop_
 _symmetry_equiv_pos_site_id
 _symmetry_equiv_pos_as_xyz
  1  'x, y, z'
loop_
 _atom_site_type_symbol
 _atom_site_label
 _atom_site_symmetry_multiplicity
 _atom_site_fract_x
 _atom_site_fract_y
 _atom_site_fract_z
 _atom_site_occupancy
  Mg  Mg0  1  0.500000  0.155536  0.143888  1
  Mg  Mg1  1  0.500000  0.844464  0.856112  1
  Mg  Mg2  1  0.500000  0.344464  0.643888  1
  Mg  Mg3  1  0.500000  0.655536  0.356112  1
  Si  Si4  1  0.000000  0.000000  0.500000  1
  Si  Si5  1  0.000000  0.500000  0.000000  1
  Pd  Pd6  1  0.500000  0.174638  0.399714  1
  Pd  Pd7  1  0.500000  0.825362  0.600286  1
  Pd  Pd8  1  0.500000  0.325362  0.899714  1
  Pd  Pd9  1  0.500000  0.674638  0.100286  1
  Pd  Pd10  1  0.000000  0.413770  0.230565  1
  Pd  Pd11  1  0.000000  0.586230  0.769435  1
  Pd  Pd12  1  0.000000  0.086230  0.730565  1
  Pd  Pd13  1  0.000000  0.913770  0.269435  1
  Pd  Pd14  1  0.000000  0.000000  0.000000  1
  Pd  Pd15  1  0.000000  0.500000  0.500000  1
