# generated using pymatgen
data_GdDyIrOs3
_symmetry_space_group_name_H-M   'P 1'
_cell_length_a   5.27483500
_cell_length_b   5.27483602
_cell_length_c   8.97625800
_cell_angle_alpha   90.00000000
_cell_angle_beta   90.00000000
_cell_angle_gamma   119.99999987
_symmetry_Int_Tables_number   1
_chemical_formula_structural   GdDyIrOs3
_chemical_formula_sum   'Gd2 Dy2 Ir2 Os6'
_cell_volume   216.29366589
_cell_formula_units_Z   2
loop_
 _symmetry_equiv_pos_site_id
 _symmetry_equiv_pos_as_xyz
  1  'x, y, z'
loop_
 _atom_site_type_symbol
 _atom_site_label
 _atom_site_symmetry_multiplicity
 _atom_site_fract_x
 _atom_site_fract_y
 _atom_site_fract_z
 _atom_site_occupancy
  Gd  Gd0  1  0.666667  0.333333  0.932843  1
  Gd  Gd1  1  0.333333  0.666667  0.067157  1
  Dy  Dy2  1  0.333333  0.666667  0.431206  1
  Dy  Dy3  1  0.666667  0.333333  0.568794  1
  Ir  Ir4  1  0.000000  0.000000  0.500000  1
  Ir  Ir5  1  0.000000  0.000000  0.000000  1
  Os  Os6  1  0.828996  0.171004  0.251547  1
  Os  Os7  1  0.828996  0.657993  0.251547  1
  Os  Os8  1  0.342007  0.171004  0.251547  1
  Os  Os9  1  0.171004  0.828996  0.748453  1
  Os  Os10  1  0.171004  0.342007  0.748453  1
  Os  Os11  1  0.657993  0.828996  0.748453  1
