# generated using pymatgen
data_AgHgTeBr
_symmetry_space_group_name_H-M   'P 1'
_cell_length_a   5.06200600
_cell_length_b   10.14080700
_cell_length_c   10.89222200
_cell_angle_alpha   90.00000000
_cell_angle_beta   90.00000000
_cell_angle_gamma   90.00000000
_symmetry_Int_Tables_number   1
_chemical_formula_structural   AgHgTeBr
_chemical_formula_sum   'Ag4 Hg4 Te4 Br4'
_cell_volume   559.12853536
_cell_formula_units_Z   4
loop_
 _symmetry_equiv_pos_site_id
 _symmetry_equiv_pos_as_xyz
  1  'x, y, z'
loop_
 _atom_site_type_symbol
 _atom_site_label
 _atom_site_symmetry_multiplicity
 _atom_site_fract_x
 _atom_site_fract_y
 _atom_site_fract_z
 _atom_site_occupancy
  Ag  Ag0  1  0.000000  0.213019  0.394324  1
  Ag  Ag1  1  0.000000  0.786981  0.605676  1
  Ag  Ag2  1  0.000000  0.213019  0.105676  1
  Ag  Ag3  1  0.000000  0.786981  0.894324  1
  Hg  Hg4  1  0.500000  0.210486  0.750000  1
  Hg  Hg5  1  0.500000  0.789514  0.250000  1
  Hg  Hg6  1  0.500000  0.500000  0.000000  1
  Hg  Hg7  1  0.500000  0.500000  0.500000  1
  Te  Te8  1  0.500000  0.233746  0.998637  1
  Te  Te9  1  0.500000  0.766254  0.001363  1
  Te  Te10  1  0.500000  0.766254  0.498637  1
  Te  Te11  1  0.500000  0.233746  0.501363  1
  Br  Br12  1  0.000000  0.012026  0.750000  1
  Br  Br13  1  0.000000  0.555221  0.750000  1
  Br  Br14  1  0.000000  0.444779  0.250000  1
  Br  Br15  1  0.000000  0.987974  0.250000  1
