# generated using pymatgen
data_La2Pr6Re3TcC8
_symmetry_space_group_name_H-M   'P 1'
_cell_length_a   5.41831800
_cell_length_b   6.75610147
_cell_length_c   10.30483000
_cell_angle_alpha   90.02187803
_cell_angle_beta   90.00000000
_cell_angle_gamma   90.00000000
_symmetry_Int_Tables_number   1
_chemical_formula_structural   La2Pr6Re3TcC8
_chemical_formula_sum   'La2 Pr6 Re3 Tc1 C8'
_cell_volume   377.22585655
_cell_formula_units_Z   1
loop_
 _symmetry_equiv_pos_site_id
 _symmetry_equiv_pos_as_xyz
  1  'x, y, z'
loop_
 _atom_site_type_symbol
 _atom_site_label
 _atom_site_symmetry_multiplicity
 _atom_site_fract_x
 _atom_site_fract_y
 _atom_site_fract_z
 _atom_site_occupancy
  La  La0  1  0.750000  0.524382  0.787527  1
  La  La1  1  0.250000  0.974769  0.286887  1
  Pr  Pr2  1  0.750000  0.688543  0.449601  1
  Pr  Pr3  1  0.250000  0.812817  0.949741  1
  Pr  Pr4  1  0.750000  0.188702  0.050628  1
  Pr  Pr5  1  0.250000  0.310537  0.550955  1
  Pr  Pr6  1  0.250000  0.473411  0.213371  1
  Pr  Pr7  1  0.750000  0.025684  0.713876  1
  Re  Re8  1  0.250000  0.768853  0.643779  1
  Re  Re9  1  0.750000  0.231181  0.355912  1
  Re  Re10  1  0.750000  0.731471  0.144056  1
  Tc  Tc11  1  0.250000  0.268934  0.855807  1
  C  C12  1  0.250000  0.688098  0.465314  1
  C  C13  1  0.250000  0.533406  0.756625  1
  C  C14  1  0.750000  0.468211  0.242225  1
  C  C15  1  0.750000  0.811808  0.965476  1
  C  C16  1  0.250000  0.031425  0.741564  1
  C  C17  1  0.250000  0.188407  0.033762  1
  C  C18  1  0.750000  0.311352  0.535011  1
  C  C19  1  0.750000  0.968009  0.257885  1
