# generated using pymatgen
data_Sr2In2PtAu
_symmetry_space_group_name_H-M   'P 1'
_cell_length_a   4.60996500
_cell_length_b   7.81139800
_cell_length_c   8.72582200
_cell_angle_alpha   90.00000000
_cell_angle_beta   90.00000000
_cell_angle_gamma   90.00000000
_symmetry_Int_Tables_number   1
_chemical_formula_structural   Sr2In2PtAu
_chemical_formula_sum   'Sr4 In4 Pt2 Au2'
_cell_volume   314.21921824
_cell_formula_units_Z   2
loop_
 _symmetry_equiv_pos_site_id
 _symmetry_equiv_pos_as_xyz
  1  'x, y, z'
loop_
 _atom_site_type_symbol
 _atom_site_label
 _atom_site_symmetry_multiplicity
 _atom_site_fract_x
 _atom_site_fract_y
 _atom_site_fract_z
 _atom_site_occupancy
  Sr  Sr0  1  0.750000  0.968061  0.677421  1
  Sr  Sr1  1  0.250000  0.027968  0.318153  1
  Sr  Sr2  1  0.750000  0.468061  0.822579  1
  Sr  Sr3  1  0.250000  0.527968  0.181847  1
  In  In4  1  0.750000  0.355523  0.427984  1
  In  In5  1  0.250000  0.151183  0.941076  1
  In  In6  1  0.250000  0.651183  0.558924  1
  In  In7  1  0.750000  0.855523  0.072016  1
  Pt  Pt8  1  0.750000  0.722355  0.378778  1
  Pt  Pt9  1  0.750000  0.222355  0.121222  1
  Au  Au10  1  0.250000  0.774909  0.876971  1
  Au  Au11  1  0.250000  0.274909  0.623029  1
