# generated using pymatgen
data_Tb2Tm8Tl7InPt4
_symmetry_space_group_name_H-M   'P 1'
_cell_length_a   3.57702500
_cell_length_b   8.21646188
_cell_length_c   18.33451752
_cell_angle_alpha   89.90374577
_cell_angle_beta   90.00000000
_cell_angle_gamma   90.00000000
_symmetry_Int_Tables_number   1
_chemical_formula_structural   Tb2Tm8Tl7InPt4
_chemical_formula_sum   'Tb2 Tm8 Tl7 In1 Pt4'
_cell_volume   538.85968499
_cell_formula_units_Z   1
loop_
 _symmetry_equiv_pos_site_id
 _symmetry_equiv_pos_as_xyz
  1  'x, y, z'
loop_
 _atom_site_type_symbol
 _atom_site_label
 _atom_site_symmetry_multiplicity
 _atom_site_fract_x
 _atom_site_fract_y
 _atom_site_fract_z
 _atom_site_occupancy
  Tb  Tb0  1  0.000000  0.999844  0.000102  1
  Tb  Tb1  1  0.000000  0.502137  0.499728  1
  Tm  Tm2  1  0.000000  0.115929  0.412587  1
  Tm  Tm3  1  0.000000  0.883698  0.586805  1
  Tm  Tm4  1  0.000000  0.384324  0.912060  1
  Tm  Tm5  1  0.000000  0.615721  0.087969  1
  Tm  Tm6  1  0.000000  0.243699  0.220827  1
  Tm  Tm7  1  0.000000  0.756496  0.779598  1
  Tm  Tm8  1  0.000000  0.255471  0.720200  1
  Tm  Tm9  1  0.000000  0.743491  0.279884  1
  Tl  Tl10  1  0.500000  0.422921  0.352461  1
  Tl  Tl11  1  0.500000  0.579837  0.647929  1
  Tl  Tl12  1  0.500000  0.079282  0.851967  1
  Tl  Tl13  1  0.500000  0.921000  0.148320  1
  Tl  Tl14  1  0.500000  0.295415  0.064812  1
  Tl  Tl15  1  0.500000  0.704309  0.935259  1
  Tl  Tl16  1  0.500000  0.204464  0.564569  1
  In  In17  1  0.500000  0.797133  0.433942  1
  Pt  Pt18  1  0.500000  0.023347  0.304212  1
  Pt  Pt19  1  0.500000  0.972641  0.696934  1
  Pt  Pt20  1  0.500000  0.472741  0.802566  1
  Pt  Pt21  1  0.500000  0.526099  0.197267  1
