# generated using pymatgen
data_Eu6NbWO14
_symmetry_space_group_name_H-M   'P 1'
_cell_length_a   6.61239239
_cell_length_b   6.61239270
_cell_length_c   7.73086522
_cell_angle_alpha   90.26800458
_cell_angle_beta   89.73199682
_cell_angle_gamma   110.10439547
_symmetry_Int_Tables_number   1
_chemical_formula_structural   Eu6NbWO14
_chemical_formula_sum   'Eu6 Nb1 W1 O14'
_cell_volume   317.42072090
_cell_formula_units_Z   1
loop_
 _symmetry_equiv_pos_site_id
 _symmetry_equiv_pos_as_xyz
  1  'x, y, z'
loop_
 _atom_site_type_symbol
 _atom_site_label
 _atom_site_symmetry_multiplicity
 _atom_site_fract_x
 _atom_site_fract_y
 _atom_site_fract_z
 _atom_site_occupancy
  Eu  Eu0  1  0.500000  0.500000  0.500000  1
  Eu  Eu1  1  0.500000  0.500000  0.000000  1
  Eu  Eu2  1  0.530252  0.997521  0.753627  1
  Eu  Eu3  1  0.997521  0.530252  0.246373  1
  Eu  Eu4  1  0.469748  0.002479  0.246373  1
  Eu  Eu5  1  0.002479  0.469748  0.753627  1
  Nb  Nb6  1  0.000000  0.000000  0.000000  1
  W  W7  1  0.000000  0.000000  0.500000  1
  O  O8  1  0.692764  0.935553  0.467702  1
  O  O9  1  0.935553  0.692764  0.532298  1
  O  O10  1  0.682845  0.930669  0.027553  1
  O  O11  1  0.930669  0.682845  0.972447  1
  O  O12  1  0.307236  0.064447  0.532298  1
  O  O13  1  0.064447  0.307236  0.467702  1
  O  O14  1  0.317155  0.069331  0.972447  1
  O  O15  1  0.069331  0.317155  0.027553  1
  O  O16  1  0.946935  0.053065  0.744666  1
  O  O17  1  0.053065  0.946935  0.255334  1
  O  O18  1  0.370972  0.629028  0.748551  1
  O  O19  1  0.629028  0.370972  0.251449  1
  O  O20  1  0.638253  0.361747  0.747553  1
  O  O21  1  0.361747  0.638253  0.252447  1
