# generated using pymatgen
data_La5Th(GePd)6
_symmetry_space_group_name_H-M   'P 1'
_cell_length_a   4.56680600
_cell_length_b   7.76908380
_cell_length_c   22.35330781
_cell_angle_alpha   89.91308392
_cell_angle_beta   90.00000000
_cell_angle_gamma   90.00000000
_symmetry_Int_Tables_number   1
_chemical_formula_structural   La5Th(GePd)6
_chemical_formula_sum   'La10 Th2 Ge12 Pd12'
_cell_volume   793.09218016
_cell_formula_units_Z   2
loop_
 _symmetry_equiv_pos_site_id
 _symmetry_equiv_pos_as_xyz
  1  'x, y, z'
loop_
 _atom_site_type_symbol
 _atom_site_label
 _atom_site_symmetry_multiplicity
 _atom_site_fract_x
 _atom_site_fract_y
 _atom_site_fract_z
 _atom_site_occupancy
  La  La0  1  0.250000  0.709551  0.331724  1
  La  La1  1  0.750000  0.290449  0.668276  1
  La  La2  1  0.750000  0.208639  0.166570  1
  La  La3  1  0.250000  0.791361  0.833430  1
  La  La4  1  0.250000  0.789704  0.165805  1
  La  La5  1  0.750000  0.210296  0.834195  1
  La  La6  1  0.750000  0.290520  0.333078  1
  La  La7  1  0.250000  0.709480  0.666922  1
  La  La8  1  0.250000  0.716294  0.002304  1
  La  La9  1  0.750000  0.283706  0.997696  1
  Th  Th10  1  0.750000  0.222098  0.497868  1
  Th  Th11  1  0.250000  0.777902  0.502132  1
  Ge  Ge12  1  0.250000  0.088875  0.071463  1
  Ge  Ge13  1  0.750000  0.911125  0.928537  1
  Ge  Ge14  1  0.750000  0.590937  0.430354  1
  Ge  Ge15  1  0.250000  0.409063  0.569646  1
  Ge  Ge16  1  0.250000  0.083537  0.270290  1
  Ge  Ge17  1  0.750000  0.916463  0.729710  1
  Ge  Ge18  1  0.750000  0.583683  0.229776  1
  Ge  Ge19  1  0.250000  0.416317  0.770224  1
  Ge  Ge20  1  0.250000  0.085649  0.398753  1
  Ge  Ge21  1  0.750000  0.914351  0.601247  1
  Ge  Ge22  1  0.750000  0.583912  0.104285  1
  Ge  Ge23  1  0.250000  0.416088  0.895715  1
  Pd  Pd24  1  0.250000  0.417416  0.239004  1
  Pd  Pd25  1  0.750000  0.582584  0.760996  1
  Pd  Pd26  1  0.750000  0.917503  0.262395  1
  Pd  Pd27  1  0.250000  0.082497  0.737605  1
  Pd  Pd28  1  0.250000  0.413007  0.436426  1
  Pd  Pd29  1  0.750000  0.586993  0.563574  1
  Pd  Pd30  1  0.750000  0.916126  0.066012  1
  Pd  Pd31  1  0.250000  0.083874  0.933988  1
  Pd  Pd32  1  0.250000  0.420318  0.093207  1
  Pd  Pd33  1  0.750000  0.579682  0.906793  1
  Pd  Pd34  1  0.750000  0.924620  0.410767  1
  Pd  Pd35  1  0.250000  0.075380  0.589233  1
