# generated using pymatgen
data_YLu19Cd3Ag3Ru2
_symmetry_space_group_name_H-M   'P 1'
_cell_length_a   9.36656534
_cell_length_b   9.36220134
_cell_length_c   9.51308000
_cell_angle_alpha   90.00000000
_cell_angle_beta   90.00000000
_cell_angle_gamma   119.98459349
_symmetry_Int_Tables_number   1
_chemical_formula_structural   YLu19Cd3Ag3Ru2
_chemical_formula_sum   'Y1 Lu19 Cd3 Ag3 Ru2'
_cell_volume   722.56600589
_cell_formula_units_Z   1
loop_
 _symmetry_equiv_pos_site_id
 _symmetry_equiv_pos_as_xyz
  1  'x, y, z'
loop_
 _atom_site_type_symbol
 _atom_site_label
 _atom_site_symmetry_multiplicity
 _atom_site_fract_x
 _atom_site_fract_y
 _atom_site_fract_z
 _atom_site_occupancy
  Y  Y0  1  0.082480  0.541239  0.750000  1
  Lu  Lu1  1  0.999890  0.999945  0.476458  1
  Lu  Lu2  1  0.999890  0.999945  0.023542  1
  Lu  Lu3  1  0.210905  0.790899  0.441457  1
  Lu  Lu4  1  0.210905  0.420007  0.441457  1
  Lu  Lu5  1  0.579435  0.789718  0.442403  1
  Lu  Lu6  1  0.789574  0.208059  0.556785  1
  Lu  Lu7  1  0.789574  0.581515  0.556785  1
  Lu  Lu8  1  0.418119  0.209059  0.557241  1
  Lu  Lu9  1  0.789574  0.208059  0.943215  1
  Lu  Lu10  1  0.789574  0.581515  0.943215  1
  Lu  Lu11  1  0.418119  0.209059  0.942759  1
  Lu  Lu12  1  0.210905  0.790899  0.058543  1
  Lu  Lu13  1  0.210905  0.420007  0.058543  1
  Lu  Lu14  1  0.579435  0.789718  0.057597  1
  Lu  Lu15  1  0.540198  0.459751  0.250000  1
  Lu  Lu16  1  0.540198  0.080446  0.250000  1
  Lu  Lu17  1  0.919687  0.459844  0.250000  1
  Lu  Lu18  1  0.460436  0.540623  0.750000  1
  Lu  Lu19  1  0.460436  0.919812  0.750000  1
  Cd  Cd20  1  0.112124  0.889713  0.750000  1
  Cd  Cd21  1  0.112124  0.222410  0.750000  1
  Cd  Cd22  1  0.776560  0.888280  0.750000  1
  Ag  Ag23  1  0.876751  0.123218  0.250000  1
  Ag  Ag24  1  0.876751  0.753535  0.250000  1
  Ag  Ag25  1  0.246426  0.123214  0.250000  1
  Ru  Ru26  1  0.333366  0.666684  0.250000  1
  Ru  Ru27  1  0.665656  0.332827  0.750000  1
