# generated using pymatgen
data_Zr6Ti4Al12CoIr6
_symmetry_space_group_name_H-M   'P 1'
_cell_length_a   8.75432589
_cell_length_b   8.75432623
_cell_length_c   8.75432500
_cell_angle_alpha   59.99999331
_cell_angle_beta   59.99999201
_cell_angle_gamma   59.99999597
_symmetry_Int_Tables_number   1
_chemical_formula_structural   Zr6Ti4Al12CoIr6
_chemical_formula_sum   'Zr6 Ti4 Al12 Co1 Ir6'
_cell_volume   474.40913431
_cell_formula_units_Z   1
loop_
 _symmetry_equiv_pos_site_id
 _symmetry_equiv_pos_as_xyz
  1  'x, y, z'
loop_
 _atom_site_type_symbol
 _atom_site_label
 _atom_site_symmetry_multiplicity
 _atom_site_fract_x
 _atom_site_fract_y
 _atom_site_fract_z
 _atom_site_occupancy
  Zr  Zr0  1  0.690933  0.690933  0.309067  1
  Zr  Zr1  1  0.309067  0.690933  0.309067  1
  Zr  Zr2  1  0.690933  0.309067  0.309067  1
  Zr  Zr3  1  0.309067  0.309067  0.690933  1
  Zr  Zr4  1  0.690933  0.309067  0.690933  1
  Zr  Zr5  1  0.309067  0.690933  0.690933  1
  Ti  Ti6  1  0.882649  0.882649  0.352055  1
  Ti  Ti7  1  0.882649  0.352055  0.882649  1
  Ti  Ti8  1  0.352055  0.882649  0.882649  1
  Ti  Ti9  1  0.882649  0.882649  0.882649  1
  Al  Al10  1  0.118059  0.118059  0.645821  1
  Al  Al11  1  0.118059  0.645821  0.118059  1
  Al  Al12  1  0.645821  0.118059  0.118059  1
  Al  Al13  1  0.118059  0.118059  0.118059  1
  Al  Al14  1  0.663696  0.663696  0.008912  1
  Al  Al15  1  0.663696  0.008912  0.663696  1
  Al  Al16  1  0.008912  0.663696  0.663696  1
  Al  Al17  1  0.663696  0.663696  0.663696  1
  Al  Al18  1  0.335927  0.335927  0.992221  1
  Al  Al19  1  0.335927  0.992221  0.335927  1
  Al  Al20  1  0.992221  0.335927  0.335927  1
  Al  Al21  1  0.335927  0.335927  0.335927  1
  Co  Co22  1  0.000000  0.000000  0.000000  1
  Ir  Ir23  1  0.998529  0.998529  0.501471  1
  Ir  Ir24  1  0.501471  0.998529  0.501471  1
  Ir  Ir25  1  0.998529  0.501471  0.501471  1
  Ir  Ir26  1  0.501471  0.501471  0.998529  1
  Ir  Ir27  1  0.998529  0.501471  0.998529  1
  Ir  Ir28  1  0.501471  0.998529  0.998529  1
