# generated using pymatgen
data_Tb6P12Ru11Rh7
_symmetry_space_group_name_H-M   'P 1'
_cell_length_a   3.95198900
_cell_length_b   11.28510444
_cell_length_c   12.57691113
_cell_angle_alpha   90.17393437
_cell_angle_beta   90.00000000
_cell_angle_gamma   90.00000000
_symmetry_Int_Tables_number   1
_chemical_formula_structural   Tb6P12Ru11Rh7
_chemical_formula_sum   'Tb6 P12 Ru11 Rh7'
_cell_volume   560.91015225
_cell_formula_units_Z   1
loop_
 _symmetry_equiv_pos_site_id
 _symmetry_equiv_pos_as_xyz
  1  'x, y, z'
loop_
 _atom_site_type_symbol
 _atom_site_label
 _atom_site_symmetry_multiplicity
 _atom_site_fract_x
 _atom_site_fract_y
 _atom_site_fract_z
 _atom_site_occupancy
  Tb  Tb0  1  0.000000  0.500985  0.522205  1
  Tb  Tb1  1  0.500000  0.997090  0.477677  1
  Tb  Tb2  1  0.500000  0.820477  0.202860  1
  Tb  Tb3  1  0.500000  0.180495  0.203736  1
  Tb  Tb4  1  0.000000  0.679773  0.797067  1
  Tb  Tb5  1  0.000000  0.319645  0.796844  1
  P  P6  1  0.500000  0.499380  0.882771  1
  P  P7  1  0.000000  0.000290  0.117321  1
  P  P8  1  0.500000  0.499447  0.344926  1
  P  P9  1  0.000000  0.006394  0.655707  1
  P  P10  1  0.500000  0.306689  0.615371  1
  P  P11  1  0.500000  0.689013  0.615805  1
  P  P12  1  0.000000  0.193823  0.384570  1
  P  P13  1  0.000000  0.807944  0.382381  1
  P  P14  1  0.500000  0.843258  0.896354  1
  P  P15  1  0.500000  0.155777  0.897274  1
  P  P16  1  0.000000  0.656290  0.103219  1
  P  P17  1  0.000000  0.344284  0.103367  1
  Ru  Ru18  1  0.500000  0.500254  0.158788  1
  Ru  Ru19  1  0.000000  0.999763  0.840917  1
  Ru  Ru20  1  0.000000  0.499780  0.988770  1
  Ru  Ru21  1  0.500000  0.999676  0.010962  1
  Ru  Ru22  1  0.500000  0.332577  0.990793  1
  Ru  Ru23  1  0.500000  0.667068  0.990759  1
  Ru  Ru24  1  0.000000  0.167148  0.009579  1
  Ru  Ru25  1  0.000000  0.832718  0.008787  1
  Ru  Ru26  1  0.500000  0.296836  0.428320  1
  Ru  Ru27  1  0.500000  0.704961  0.428908  1
  Ru  Ru28  1  0.000000  0.204180  0.571920  1
  Rh  Rh29  1  0.500000  0.498878  0.696332  1
  Rh  Rh30  1  0.000000  0.000932  0.304100  1
  Rh  Rh31  1  0.000000  0.795183  0.572250  1
  Rh  Rh32  1  0.500000  0.874279  0.713768  1
  Rh  Rh33  1  0.500000  0.122580  0.714710  1
  Rh  Rh34  1  0.000000  0.625166  0.285438  1
  Rh  Rh35  1  0.000000  0.376967  0.285446  1
