# generated using pymatgen
data_TiGaSiRh5
_symmetry_space_group_name_H-M   'P 1'
_cell_length_a   4.06686800
_cell_length_b   5.35932407
_cell_length_c   10.31307076
_cell_angle_alpha   87.49674305
_cell_angle_beta   90.00000000
_cell_angle_gamma   90.00000000
_symmetry_Int_Tables_number   1
_chemical_formula_structural   TiGaSiRh5
_chemical_formula_sum   'Ti2 Ga2 Si2 Rh10'
_cell_volume   224.56572177
_cell_formula_units_Z   2
loop_
 _symmetry_equiv_pos_site_id
 _symmetry_equiv_pos_as_xyz
  1  'x, y, z'
loop_
 _atom_site_type_symbol
 _atom_site_label
 _atom_site_symmetry_multiplicity
 _atom_site_fract_x
 _atom_site_fract_y
 _atom_site_fract_z
 _atom_site_occupancy
  Ti  Ti0  1  0.500000  0.150105  0.643127  1
  Ti  Ti1  1  0.500000  0.849895  0.356873  1
  Ga  Ga2  1  0.500000  0.640402  0.855813  1
  Ga  Ga3  1  0.500000  0.359598  0.144187  1
  Si  Si4  1  0.000000  0.500000  0.500000  1
  Si  Si5  1  0.000000  0.000000  0.000000  1
  Rh  Rh6  1  0.500000  0.328075  0.396970  1
  Rh  Rh7  1  0.500000  0.671925  0.603030  1
  Rh  Rh8  1  0.500000  0.828517  0.105166  1
  Rh  Rh9  1  0.500000  0.171483  0.894834  1
  Rh  Rh10  1  0.000000  0.387358  0.730828  1
  Rh  Rh11  1  0.000000  0.612642  0.269172  1
  Rh  Rh12  1  0.000000  0.888649  0.773509  1
  Rh  Rh13  1  0.000000  0.111351  0.226491  1
  Rh  Rh14  1  0.000000  0.500000  0.000000  1
  Rh  Rh15  1  0.000000  0.000000  0.500000  1
