# generated using pymatgen
data_Pr6Al24Ir3Os5
_symmetry_space_group_name_H-M   'P 1'
_cell_length_a   8.93252664
_cell_length_b   8.92409479
_cell_length_c   9.68092736
_cell_angle_alpha   90.19507425
_cell_angle_beta   89.99713083
_cell_angle_gamma   119.88133710
_symmetry_Int_Tables_number   1
_chemical_formula_structural   Pr6Al24Ir3Os5
_chemical_formula_sum   'Pr6 Al24 Ir3 Os5'
_cell_volume   669.11512140
_cell_formula_units_Z   1
loop_
 _symmetry_equiv_pos_site_id
 _symmetry_equiv_pos_as_xyz
  1  'x, y, z'
loop_
 _atom_site_type_symbol
 _atom_site_label
 _atom_site_symmetry_multiplicity
 _atom_site_fract_x
 _atom_site_fract_y
 _atom_site_fract_z
 _atom_site_occupancy
  Pr  Pr0  1  0.190234  0.384433  0.250018  1
  Pr  Pr1  1  0.809766  0.615567  0.749982  1
  Pr  Pr2  1  0.616355  0.809221  0.250421  1
  Pr  Pr3  1  0.383645  0.190779  0.749579  1
  Pr  Pr4  1  0.191822  0.806614  0.250382  1
  Pr  Pr5  1  0.808178  0.193386  0.749618  1
  Al  Al6  1  0.331773  0.665819  0.010630  1
  Al  Al7  1  0.668227  0.334181  0.989370  1
  Al  Al8  1  0.667495  0.332533  0.510156  1
  Al  Al9  1  0.332505  0.667467  0.489844  1
  Al  Al10  1  0.161885  0.325933  0.574596  1
  Al  Al11  1  0.838115  0.674067  0.425404  1
  Al  Al12  1  0.674194  0.838001  0.575024  1
  Al  Al13  1  0.838056  0.674092  0.074559  1
  Al  Al14  1  0.325806  0.161999  0.424976  1
  Al  Al15  1  0.161944  0.325908  0.925441  1
  Al  Al16  1  0.162931  0.836585  0.574305  1
  Al  Al17  1  0.325279  0.162789  0.075024  1
  Al  Al18  1  0.837069  0.163415  0.425695  1
  Al  Al19  1  0.674721  0.837211  0.924976  1
  Al  Al20  1  0.838122  0.164088  0.074085  1
  Al  Al21  1  0.161878  0.835912  0.925915  1
  Al  Al22  1  0.562392  0.125220  0.250854  1
  Al  Al23  1  0.437608  0.874780  0.749146  1
  Al  Al24  1  0.874807  0.437472  0.249568  1
  Al  Al25  1  0.125193  0.562528  0.750432  1
  Al  Al26  1  0.562439  0.437279  0.249422  1
  Al  Al27  1  0.437561  0.562721  0.750578  1
  Al  Al28  1  0.999901  0.999987  0.250062  1
  Al  Al29  1  0.000099  0.000013  0.749938  1
  Ir  Ir30  1  0.500000  0.000000  0.000000  1
  Ir  Ir31  1  0.500000  0.500000  0.000000  1
  Ir  Ir32  1  0.500000  0.500000  0.500000  1
  Os  Os33  1  0.000000  0.500000  0.000000  1
  Os  Os34  1  0.500000  0.000000  0.500000  1
  Os  Os35  1  0.000000  0.500000  0.500000  1
  Os  Os36  1  0.000000  0.000000  0.000000  1
  Os  Os37  1  0.000000  0.000000  0.500000  1
