# generated using pymatgen
data_La8Ho12Si15Hg
_symmetry_space_group_name_H-M   'P 1'
_cell_length_a   7.59359849
_cell_length_b   7.85068390
_cell_length_c   14.95304124
_cell_angle_alpha   90.06148852
_cell_angle_beta   89.59537663
_cell_angle_gamma   90.23664821
_symmetry_Int_Tables_number   1
_chemical_formula_structural   La8Ho12Si15Hg
_chemical_formula_sum   'La8 Ho12 Si15 Hg1'
_cell_volume   891.39435873
_cell_formula_units_Z   1
loop_
 _symmetry_equiv_pos_site_id
 _symmetry_equiv_pos_as_xyz
  1  'x, y, z'
loop_
 _atom_site_type_symbol
 _atom_site_label
 _atom_site_symmetry_multiplicity
 _atom_site_fract_x
 _atom_site_fract_y
 _atom_site_fract_z
 _atom_site_occupancy
  La  La0  1  0.980038  0.825157  0.101645  1
  La  La1  1  0.476241  0.678614  0.401516  1
  La  La2  1  0.515593  0.317543  0.899117  1
  La  La3  1  0.024463  0.177543  0.598148  1
  La  La4  1  0.025269  0.172877  0.899904  1
  La  La5  1  0.523669  0.321073  0.598359  1
  La  La6  1  0.476945  0.677817  0.101684  1
  La  La7  1  0.975526  0.821286  0.400888  1
  Ho  Ho8  1  0.649792  0.992842  0.250742  1
  Ho  Ho9  1  0.152002  0.508321  0.249652  1
  Ho  Ho10  1  0.849060  0.492785  0.746551  1
  Ho  Ho11  1  0.347746  0.009177  0.748858  1
  Ho  Ho12  1  0.673586  0.829893  0.873339  1
  Ho  Ho13  1  0.181442  0.678233  0.622371  1
  Ho  Ho14  1  0.821075  0.321536  0.126373  1
  Ho  Ho15  1  0.318622  0.176977  0.377168  1
  Ho  Ho16  1  0.321865  0.175648  0.124726  1
  Ho  Ho17  1  0.818593  0.322745  0.376859  1
  Ho  Ho18  1  0.184920  0.675467  0.876333  1
  Ho  Ho19  1  0.682066  0.824525  0.622826  1
  Si  Si20  1  0.771587  0.620848  0.251095  1
  Si  Si21  1  0.271856  0.880079  0.251681  1
  Si  Si22  1  0.730471  0.121020  0.749117  1
  Si  Si23  1  0.226323  0.381071  0.748311  1
  Si  Si24  1  0.024385  0.115530  0.251253  1
  Si  Si25  1  0.524823  0.383251  0.251376  1
  Si  Si26  1  0.475114  0.615773  0.748196  1
  Si  Si27  1  0.976322  0.881203  0.748337  1
  Si  Si28  1  0.357742  0.968850  0.539920  1
  Si  Si29  1  0.644728  0.032540  0.040353  1
  Si  Si30  1  0.142690  0.468449  0.460313  1
  Si  Si31  1  0.156192  0.464079  0.043257  1
  Si  Si32  1  0.642754  0.031298  0.459829  1
  Si  Si33  1  0.356379  0.966301  0.961454  1
  Si  Si34  1  0.857339  0.531781  0.538972  1
  Hg  Hg35  1  0.842781  0.537869  0.959477  1
