# generated using pymatgen
data_Ce2PrGa3Sn2
_symmetry_space_group_name_H-M   'P 1'
_cell_length_a   6.35985000
_cell_length_b   6.35984952
_cell_length_c   9.92819200
_cell_angle_alpha   90.00000000
_cell_angle_beta   90.00000000
_cell_angle_gamma   102.83756584
_symmetry_Int_Tables_number   1
_chemical_formula_structural   Ce2PrGa3Sn2
_chemical_formula_sum   'Ce4 Pr2 Ga6 Sn4'
_cell_volume   391.53467224
_cell_formula_units_Z   2
loop_
 _symmetry_equiv_pos_site_id
 _symmetry_equiv_pos_as_xyz
  1  'x, y, z'
loop_
 _atom_site_type_symbol
 _atom_site_label
 _atom_site_symmetry_multiplicity
 _atom_site_fract_x
 _atom_site_fract_y
 _atom_site_fract_z
 _atom_site_occupancy
  Ce  Ce0  1  0.198558  0.801442  0.500000  1
  Ce  Ce1  1  0.198558  0.801442  0.000000  1
  Ce  Ce2  1  0.801442  0.198558  0.500000  1
  Ce  Ce3  1  0.801442  0.198558  0.000000  1
  Pr  Pr4  1  0.643613  0.643613  0.250000  1
  Pr  Pr5  1  0.356387  0.356387  0.750000  1
  Ga  Ga6  1  0.029328  0.029328  0.250000  1
  Ga  Ga7  1  0.970672  0.970672  0.750000  1
  Ga  Ga8  1  0.306937  0.306937  0.046601  1
  Ga  Ga9  1  0.693063  0.693063  0.953399  1
  Ga  Ga10  1  0.306937  0.306937  0.453399  1
  Ga  Ga11  1  0.693063  0.693063  0.546601  1
  Sn  Sn12  1  0.487802  0.087192  0.250000  1
  Sn  Sn13  1  0.912808  0.512198  0.750000  1
  Sn  Sn14  1  0.512198  0.912808  0.750000  1
  Sn  Sn15  1  0.087192  0.487802  0.250000  1
