# generated using pymatgen
data_NdTh(NiPt)5
_symmetry_space_group_name_H-M   'P 1'
_cell_length_a   4.08523100
_cell_length_b   5.37309700
_cell_length_c   8.95942900
_cell_angle_alpha   90.00000000
_cell_angle_beta   90.00000000
_cell_angle_gamma   90.00000000
_symmetry_Int_Tables_number   1
_chemical_formula_structural   NdTh(NiPt)5
_chemical_formula_sum   'Nd1 Th1 Ni5 Pt5'
_cell_volume   196.66253453
_cell_formula_units_Z   1
loop_
 _symmetry_equiv_pos_site_id
 _symmetry_equiv_pos_as_xyz
  1  'x, y, z'
loop_
 _atom_site_type_symbol
 _atom_site_label
 _atom_site_symmetry_multiplicity
 _atom_site_fract_x
 _atom_site_fract_y
 _atom_site_fract_z
 _atom_site_occupancy
  Nd  Nd0  1  0.000000  0.500000  0.500000  1
  Th  Th1  1  0.000000  0.000000  0.000000  1
  Ni  Ni2  1  0.000000  0.000000  0.330682  1
  Ni  Ni3  1  0.000000  0.500000  0.850908  1
  Ni  Ni4  1  0.000000  0.500000  0.149092  1
  Ni  Ni5  1  0.000000  0.000000  0.669318  1
  Ni  Ni6  1  0.500000  0.500000  0.000000  1
  Pt  Pt7  1  0.500000  0.000000  0.500000  1
  Pt  Pt8  1  0.500000  0.250690  0.239118  1
  Pt  Pt9  1  0.500000  0.749310  0.760882  1
  Pt  Pt10  1  0.500000  0.749310  0.239118  1
  Pt  Pt11  1  0.500000  0.250690  0.760882  1
