# generated using pymatgen
data_SmHo19(SnPb)8
_symmetry_space_group_name_H-M   'P 1'
_cell_length_a   8.08933978
_cell_length_b   8.20663150
_cell_length_c   15.52387513
_cell_angle_alpha   89.98482612
_cell_angle_beta   89.68724624
_cell_angle_gamma   89.91808841
_symmetry_Int_Tables_number   1
_chemical_formula_structural   SmHo19(SnPb)8
_chemical_formula_sum   'Sm1 Ho19 Sn8 Pb8'
_cell_volume   1030.55511411
_cell_formula_units_Z   1
loop_
 _symmetry_equiv_pos_site_id
 _symmetry_equiv_pos_as_xyz
  1  'x, y, z'
loop_
 _atom_site_type_symbol
 _atom_site_label
 _atom_site_symmetry_multiplicity
 _atom_site_fract_x
 _atom_site_fract_y
 _atom_site_fract_z
 _atom_site_occupancy
  Sm  Sm0  1  0.022092  0.178398  0.900603  1
  Ho  Ho1  1  0.368371  0.838205  0.875380  1
  Ho  Ho2  1  0.870133  0.661375  0.622999  1
  Ho  Ho3  1  0.629594  0.161168  0.375822  1
  Ho  Ho4  1  0.132265  0.339094  0.124581  1
  Ho  Ho5  1  0.631907  0.161382  0.124878  1
  Ho  Ho6  1  0.129648  0.339091  0.376243  1
  Ho  Ho7  1  0.370886  0.838614  0.623771  1
  Ho  Ho8  1  0.868819  0.661011  0.875861  1
  Ho  Ho9  1  0.525493  0.323524  0.898831  1
  Ho  Ho10  1  0.027580  0.177057  0.601921  1
  Ho  Ho11  1  0.472912  0.676958  0.398077  1
  Ho  Ho12  1  0.975316  0.821746  0.101443  1
  Ho  Ho13  1  0.474753  0.676968  0.101536  1
  Ho  Ho14  1  0.973088  0.823117  0.398321  1
  Ho  Ho15  1  0.526570  0.323068  0.600888  1
  Ho  Ho16  1  0.200509  0.503114  0.749369  1
  Ho  Ho17  1  0.700146  0.996661  0.749161  1
  Ho  Ho18  1  0.799874  0.497021  0.250289  1
  Ho  Ho19  1  0.300068  0.002977  0.250713  1
  Sn  Sn20  1  0.565578  0.620803  0.749655  1
  Sn  Sn21  1  0.065048  0.878776  0.749385  1
  Sn  Sn22  1  0.434587  0.379850  0.250112  1
  Sn  Sn23  1  0.935397  0.120301  0.250061  1
  Sn  Sn24  1  0.334736  0.149351  0.749819  1
  Sn  Sn25  1  0.831655  0.352289  0.748714  1
  Sn  Sn26  1  0.667107  0.850439  0.249816  1
  Sn  Sn27  1  0.166641  0.649939  0.249732  1
  Pb  Pb28  1  0.292080  0.035458  0.042677  1
  Pb  Pb29  1  0.788007  0.463659  0.458450  1
  Pb  Pb30  1  0.711905  0.964744  0.540912  1
  Pb  Pb31  1  0.211332  0.538454  0.959179  1
  Pb  Pb32  1  0.705953  0.959862  0.959653  1
  Pb  Pb33  1  0.211609  0.536727  0.540910  1
  Pb  Pb34  1  0.288488  0.036237  0.458855  1
  Pb  Pb35  1  0.789854  0.462562  0.041384  1
