# generated using pymatgen
data_Dy5Mo3P12Ir13Ru3
_symmetry_space_group_name_H-M   'P 1'
_cell_length_a   12.67482700
_cell_length_b   12.67482710
_cell_length_c   3.98763800
_cell_angle_alpha   90.00000000
_cell_angle_beta   90.00000000
_cell_angle_gamma   120.00000234
_symmetry_Int_Tables_number   1
_chemical_formula_structural   Dy5Mo3P12Ir13Ru3
_chemical_formula_sum   'Dy5 Mo3 P12 Ir13 Ru3'
_cell_volume   554.79230852
_cell_formula_units_Z   1
loop_
 _symmetry_equiv_pos_site_id
 _symmetry_equiv_pos_as_xyz
  1  'x, y, z'
loop_
 _atom_site_type_symbol
 _atom_site_label
 _atom_site_symmetry_multiplicity
 _atom_site_fract_x
 _atom_site_fract_y
 _atom_site_fract_z
 _atom_site_occupancy
  Dy  Dy0  1  0.333333  0.666667  0.500000  1
  Dy  Dy1  1  0.666667  0.333333  0.500000  1
  Dy  Dy2  1  0.000497  0.812625  0.000000  1
  Dy  Dy3  1  0.187375  0.187873  0.000000  1
  Dy  Dy4  1  0.812127  0.999503  0.000000  1
  Mo  Mo5  1  0.997027  0.450296  0.500000  1
  Mo  Mo6  1  0.549704  0.546731  0.500000  1
  Mo  Mo7  1  0.453269  0.002973  0.500000  1
  P  P8  1  0.005012  0.640159  0.500000  1
  P  P9  1  0.359841  0.364854  0.500000  1
  P  P10  1  0.635146  0.994988  0.500000  1
  P  P11  1  0.520005  0.688351  0.000000  1
  P  P12  1  0.311649  0.831654  0.000000  1
  P  P13  1  0.168346  0.479995  0.000000  1
  P  P14  1  0.482232  0.167290  0.000000  1
  P  P15  1  0.685058  0.517768  0.000000  1
  P  P16  1  0.832710  0.314942  0.000000  1
  P  P17  1  0.002787  0.180747  0.500000  1
  P  P18  1  0.819253  0.822040  0.500000  1
  P  P19  1  0.177960  0.997213  0.500000  1
  Ir  Ir20  1  0.508602  0.869092  0.000000  1
  Ir  Ir21  1  0.130908  0.639511  0.000000  1
  Ir  Ir22  1  0.360489  0.491398  0.000000  1
  Ir  Ir23  1  0.492653  0.357525  0.000000  1
  Ir  Ir24  1  0.864873  0.507347  0.000000  1
  Ir  Ir25  1  0.642475  0.135127  0.000000  1
  Ir  Ir26  1  0.997875  0.281740  0.000000  1
  Ir  Ir27  1  0.718260  0.716135  0.000000  1
  Ir  Ir28  1  0.283865  0.002125  0.000000  1
  Ir  Ir29  1  0.373739  0.181546  0.500000  1
  Ir  Ir30  1  0.807807  0.626261  0.500000  1
  Ir  Ir31  1  0.818454  0.192193  0.500000  1
  Ir  Ir32  1  0.000000  0.000000  0.500000  1
  Ru  Ru33  1  0.623393  0.801492  0.500000  1
  Ru  Ru34  1  0.198508  0.821901  0.500000  1
  Ru  Ru35  1  0.178099  0.376607  0.500000  1
