# generated using pymatgen
data_Sc7Cd(Co3Sn11)2
_symmetry_space_group_name_H-M   'P 1'
_cell_length_a   9.48736000
_cell_length_b   9.48736019
_cell_length_c   9.84403100
_cell_angle_alpha   90.00000000
_cell_angle_beta   90.00000000
_cell_angle_gamma   119.99999932
_symmetry_Int_Tables_number   1
_chemical_formula_structural   Sc7Cd(Co3Sn11)2
_chemical_formula_sum   'Sc7 Cd1 Co6 Sn22'
_cell_volume   767.35155382
_cell_formula_units_Z   1
loop_
 _symmetry_equiv_pos_site_id
 _symmetry_equiv_pos_as_xyz
  1  'x, y, z'
loop_
 _atom_site_type_symbol
 _atom_site_label
 _atom_site_symmetry_multiplicity
 _atom_site_fract_x
 _atom_site_fract_y
 _atom_site_fract_z
 _atom_site_occupancy
  Sc  Sc0  1  0.000000  0.000000  0.000000  1
  Sc  Sc1  1  0.481750  0.518250  0.308232  1
  Sc  Sc2  1  0.518250  0.481750  0.691768  1
  Sc  Sc3  1  0.481750  0.963500  0.308232  1
  Sc  Sc4  1  0.518250  0.036500  0.691768  1
  Sc  Sc5  1  0.036500  0.518250  0.308232  1
  Sc  Sc6  1  0.963500  0.481750  0.691768  1
  Cd  Cd7  1  0.000000  0.000000  0.500000  1
  Co  Co8  1  0.830095  0.169905  0.199586  1
  Co  Co9  1  0.169905  0.830095  0.800414  1
  Co  Co10  1  0.830095  0.660188  0.199586  1
  Co  Co11  1  0.169905  0.339812  0.800414  1
  Co  Co12  1  0.339812  0.169905  0.199586  1
  Co  Co13  1  0.660188  0.830095  0.800414  1
  Sn  Sn14  1  0.345804  0.000000  0.000000  1
  Sn  Sn15  1  0.654196  0.000000  0.000000  1
  Sn  Sn16  1  0.000000  0.345804  0.000000  1
  Sn  Sn17  1  0.000000  0.654196  0.000000  1
  Sn  Sn18  1  0.654196  0.654196  0.000000  1
  Sn  Sn19  1  0.345804  0.345804  0.000000  1
  Sn  Sn20  1  0.333333  0.666667  0.819673  1
  Sn  Sn21  1  0.666667  0.333333  0.180327  1
  Sn  Sn22  1  0.780898  0.219102  0.456140  1
  Sn  Sn23  1  0.219102  0.780898  0.543860  1
  Sn  Sn24  1  0.780898  0.561795  0.456140  1
  Sn  Sn25  1  0.219102  0.438205  0.543860  1
  Sn  Sn26  1  0.438205  0.219102  0.456140  1
  Sn  Sn27  1  0.561795  0.780898  0.543860  1
  Sn  Sn28  1  0.333333  0.666667  0.135394  1
  Sn  Sn29  1  0.666667  0.333333  0.864606  1
  Sn  Sn30  1  0.119339  0.880661  0.270501  1
  Sn  Sn31  1  0.880661  0.119339  0.729499  1
  Sn  Sn32  1  0.119339  0.238678  0.270501  1
  Sn  Sn33  1  0.880661  0.761322  0.729499  1
  Sn  Sn34  1  0.761322  0.880661  0.270501  1
  Sn  Sn35  1  0.238678  0.119339  0.729499  1
