# generated using pymatgen
data_Hf8Ti8Nb4Si11Ge5
_symmetry_space_group_name_H-M   'P 1'
_cell_length_a   6.69421410
_cell_length_b   6.83216804
_cell_length_c   13.03821912
_cell_angle_alpha   89.99203425
_cell_angle_beta   90.06499815
_cell_angle_gamma   89.99053929
_symmetry_Int_Tables_number   1
_chemical_formula_structural   Hf8Ti8Nb4Si11Ge5
_chemical_formula_sum   'Hf8 Ti8 Nb4 Si11 Ge5'
_cell_volume   596.31553541
_cell_formula_units_Z   1
loop_
 _symmetry_equiv_pos_site_id
 _symmetry_equiv_pos_as_xyz
  1  'x, y, z'
loop_
 _atom_site_type_symbol
 _atom_site_label
 _atom_site_symmetry_multiplicity
 _atom_site_fract_x
 _atom_site_fract_y
 _atom_site_fract_z
 _atom_site_occupancy
  Hf  Hf0  1  0.494395  0.677683  0.597552  1
  Hf  Hf1  1  0.998756  0.825571  0.904290  1
  Hf  Hf2  1  0.501487  0.325522  0.096318  1
  Hf  Hf3  1  0.003784  0.172907  0.402651  1
  Hf  Hf4  1  0.507913  0.321866  0.401428  1
  Hf  Hf5  1  0.010287  0.175523  0.096420  1
  Hf  Hf6  1  0.489634  0.675455  0.903557  1
  Hf  Hf7  1  0.990298  0.826620  0.596882  1
  Ti  Ti8  1  0.659777  0.167748  0.625786  1
  Ti  Ti9  1  0.162372  0.328367  0.875898  1
  Ti  Ti10  1  0.338015  0.827948  0.124048  1
  Ti  Ti11  1  0.840298  0.673633  0.374367  1
  Ti  Ti12  1  0.344891  0.829430  0.373358  1
  Ti  Ti13  1  0.845160  0.671819  0.126177  1
  Ti  Ti14  1  0.655138  0.171572  0.873975  1
  Ti  Ti15  1  0.156758  0.328809  0.626487  1
  Nb  Nb16  1  0.829406  0.495555  0.750174  1
  Nb  Nb17  1  0.329558  0.003930  0.751790  1
  Nb  Nb18  1  0.170754  0.503872  0.248104  1
  Nb  Nb19  1  0.670873  0.995929  0.251461  1
  Si  Si20  1  0.678929  0.959650  0.462920  1
  Si  Si21  1  0.178059  0.539865  0.037243  1
  Si  Si22  1  0.322071  0.040149  0.962933  1
  Si  Si23  1  0.453996  0.382525  0.749210  1
  Si  Si24  1  0.954130  0.118292  0.751326  1
  Si  Si25  1  0.546417  0.618117  0.248796  1
  Si  Si26  1  0.046692  0.882158  0.250352  1
  Si  Si27  1  0.699201  0.865236  0.751147  1
  Si  Si28  1  0.197441  0.634019  0.749918  1
  Si  Si29  1  0.301335  0.133260  0.249422  1
  Si  Si30  1  0.801765  0.366122  0.249450  1
  Ge  Ge31  1  0.816625  0.459300  0.536999  1
  Ge  Ge32  1  0.320284  0.040189  0.536835  1
  Ge  Ge33  1  0.821179  0.460578  0.963087  1
  Ge  Ge34  1  0.678960  0.960713  0.037295  1
  Ge  Ge35  1  0.183365  0.540067  0.462342  1
