# generated using pymatgen
data_Ho10Th2Os3Pd
_symmetry_space_group_name_H-M   'P 1'
_cell_length_a   6.36748642
_cell_length_b   7.30464197
_cell_length_c   9.30513500
_cell_angle_alpha   90.00000000
_cell_angle_beta   90.00000000
_cell_angle_gamma   90.21905115
_symmetry_Int_Tables_number   1
_chemical_formula_structural   Ho10Th2Os3Pd
_chemical_formula_sum   'Ho10 Th2 Os3 Pd1'
_cell_volume   432.79921658
_cell_formula_units_Z   1
loop_
 _symmetry_equiv_pos_site_id
 _symmetry_equiv_pos_as_xyz
  1  'x, y, z'
loop_
 _atom_site_type_symbol
 _atom_site_label
 _atom_site_symmetry_multiplicity
 _atom_site_fract_x
 _atom_site_fract_y
 _atom_site_fract_z
 _atom_site_occupancy
  Ho  Ho0  1  0.337790  0.670712  0.062868  1
  Ho  Ho1  1  0.172978  0.183689  0.437201  1
  Ho  Ho2  1  0.663130  0.322317  0.561601  1
  Ho  Ho3  1  0.832153  0.823441  0.933348  1
  Ho  Ho4  1  0.663130  0.322317  0.938399  1
  Ho  Ho5  1  0.832153  0.823441  0.566652  1
  Ho  Ho6  1  0.337790  0.670712  0.437132  1
  Ho  Ho7  1  0.172978  0.183689  0.062799  1
  Ho  Ho8  1  0.865231  0.529649  0.250000  1
  Ho  Ho9  1  0.626318  0.039462  0.250000  1
  Th  Th10  1  0.140322  0.456213  0.750000  1
  Th  Th11  1  0.354457  0.957277  0.750000  1
  Os  Os12  1  0.456988  0.381419  0.250000  1
  Os  Os13  1  0.956747  0.125403  0.750000  1
  Os  Os14  1  0.539037  0.625825  0.750000  1
  Pd  Pd15  1  0.048798  0.884431  0.250000  1
