# generated using pymatgen
data_NdHo2Ga2Co9B4
_symmetry_space_group_name_H-M   'P 1'
_cell_length_a   5.15990548
_cell_length_b   5.15497459
_cell_length_c   9.55328900
_cell_angle_alpha   89.99995321
_cell_angle_beta   90.00016835
_cell_angle_gamma   119.97440317
_symmetry_Int_Tables_number   1
_chemical_formula_structural   NdHo2Ga2Co9B4
_chemical_formula_sum   'Nd1 Ho2 Ga2 Co9 B4'
_cell_volume   220.12216852
_cell_formula_units_Z   1
loop_
 _symmetry_equiv_pos_site_id
 _symmetry_equiv_pos_as_xyz
  1  'x, y, z'
loop_
 _atom_site_type_symbol
 _atom_site_label
 _atom_site_symmetry_multiplicity
 _atom_site_fract_x
 _atom_site_fract_y
 _atom_site_fract_z
 _atom_site_occupancy
  Nd  Nd0  1  0.999986  0.000000  0.999919  1
  Ho  Ho1  1  0.999994  0.999999  0.341612  1
  Ho  Ho2  1  0.000000  0.000000  0.658438  1
  Ga  Ga3  1  0.333494  0.666765  0.999926  1
  Ga  Ga4  1  0.666488  0.333236  0.999926  1
  Co  Co5  1  0.499997  0.000000  0.500027  1
  Co  Co6  1  0.499996  0.500000  0.500022  1
  Co  Co7  1  0.999996  0.499999  0.500023  1
  Co  Co8  1  0.499992  0.000000  0.209226  1
  Co  Co9  1  0.499991  0.499999  0.209217  1
  Co  Co10  1  0.999992  0.500000  0.209180  1
  Co  Co11  1  0.499999  0.000000  0.790768  1
  Co  Co12  1  0.499999  0.500002  0.790783  1
  Co  Co13  1  0.999997  0.499999  0.790819  1
  B  B14  1  0.333398  0.666701  0.350081  1
  B  B15  1  0.666587  0.333298  0.350080  1
  B  B16  1  0.666631  0.333326  0.649976  1
  B  B17  1  0.333361  0.666674  0.649977  1
