# generated using pymatgen
data_LiCa2AgRh
_symmetry_space_group_name_H-M   'P 1'
_cell_length_a   5.75387839
_cell_length_b   5.75387875
_cell_length_c   5.75387947
_cell_angle_alpha   136.16658156
_cell_angle_beta   118.74981947
_cell_angle_gamma   78.32603699
_symmetry_Int_Tables_number   1
_chemical_formula_structural   LiCa2AgRh
_chemical_formula_sum   'Li1 Ca2 Ag1 Rh1'
_cell_volume   112.33763321
_cell_formula_units_Z   1
loop_
 _symmetry_equiv_pos_site_id
 _symmetry_equiv_pos_as_xyz
  1  'x, y, z'
loop_
 _atom_site_type_symbol
 _atom_site_label
 _atom_site_symmetry_multiplicity
 _atom_site_fract_x
 _atom_site_fract_y
 _atom_site_fract_z
 _atom_site_occupancy
  Li  Li0  1  0.977974  0.000000  0.977974  1
  Ca  Ca1  1  0.711329  0.197504  0.513825  1
  Ca  Ca2  1  0.316320  0.802496  0.513825  1
  Ag  Ag3  1  0.256978  0.500000  0.756978  1
  Rh  Rh4  1  0.737399  0.500000  0.237399  1
