# generated using pymatgen
data_Tb2Al16RePt8
_symmetry_space_group_name_H-M   'P 1'
_cell_length_a   11.15765443
_cell_length_b   11.15765507
_cell_length_c   11.15765429
_cell_angle_alpha   158.48367072
_cell_angle_beta   116.86527336
_cell_angle_gamma   67.52953708
_symmetry_Int_Tables_number   1
_chemical_formula_structural   Tb2Al16RePt8
_chemical_formula_sum   'Tb2 Al16 Re1 Pt8'
_cell_volume   451.36530526
_cell_formula_units_Z   1
loop_
 _symmetry_equiv_pos_site_id
 _symmetry_equiv_pos_as_xyz
  1  'x, y, z'
loop_
 _atom_site_type_symbol
 _atom_site_label
 _atom_site_symmetry_multiplicity
 _atom_site_fract_x
 _atom_site_fract_y
 _atom_site_fract_z
 _atom_site_occupancy
  Tb  Tb0  1  0.231279  0.231253  0.000026  1
  Tb  Tb1  1  0.768772  0.768747  0.000026  1
  Al  Al2  1  0.273287  0.391237  0.882049  1
  Al  Al3  1  0.088773  0.923323  0.165449  1
  Al  Al4  1  0.506053  0.201043  0.305012  1
  Al  Al5  1  0.242126  0.076677  0.165449  1
  Al  Al6  1  0.907918  0.415561  0.492357  1
  Al  Al7  1  0.724911  0.599811  0.125100  1
  Al  Al8  1  0.899909  0.208720  0.691190  1
  Al  Al9  1  0.482472  0.791280  0.691190  1
  Al  Al10  1  0.388667  0.000000  0.388667  1
  Al  Al11  1  0.628750  0.000000  0.628750  1
  Al  Al12  1  0.490812  0.608763  0.882049  1
  Al  Al13  1  0.103969  0.798957  0.305012  1
  Al  Al14  1  0.909593  0.087297  0.822295  1
  Al  Al15  1  0.734998  0.912703  0.822295  1
  Al  Al16  1  0.525289  0.400189  0.125100  1
  Al  Al17  1  0.076797  0.584439  0.492357  1
  Re  Re18  1  0.785191  0.500000  0.285191  1
  Pt  Pt19  1  0.022536  0.342705  0.679830  1
  Pt  Pt20  1  0.628402  0.125860  0.502541  1
  Pt  Pt21  1  0.252252  0.500000  0.752252  1
  Pt  Pt22  1  0.376681  0.874140  0.502541  1
  Pt  Pt23  1  0.984991  0.000000  0.984991  1
  Pt  Pt24  1  0.648777  0.334554  0.314223  1
  Pt  Pt25  1  0.337126  0.657295  0.679830  1
  Pt  Pt26  1  0.979669  0.665446  0.314223  1
