# generated using pymatgen
data_Tb4Y16(Ir3Ru)3
_symmetry_space_group_name_H-M   'P 1'
_cell_length_a   10.90040400
_cell_length_b   10.90040400
_cell_length_c   6.45359300
_cell_angle_alpha   90.00000000
_cell_angle_beta   90.00000000
_cell_angle_gamma   90.00000000
_symmetry_Int_Tables_number   1
_chemical_formula_structural   Tb4Y16(Ir3Ru)3
_chemical_formula_sum   'Tb4 Y16 Ir9 Ru3'
_cell_volume   766.80822347
_cell_formula_units_Z   1
loop_
 _symmetry_equiv_pos_site_id
 _symmetry_equiv_pos_as_xyz
  1  'x, y, z'
loop_
 _atom_site_type_symbol
 _atom_site_label
 _atom_site_symmetry_multiplicity
 _atom_site_fract_x
 _atom_site_fract_y
 _atom_site_fract_z
 _atom_site_occupancy
  Tb  Tb0  1  0.000000  0.000000  0.499224  1
  Tb  Tb1  1  0.000000  0.000000  0.999288  1
  Tb  Tb2  1  0.500000  0.500000  0.999288  1
  Tb  Tb3  1  0.500000  0.500000  0.499224  1
  Y  Y4  1  0.293873  0.086956  0.378741  1
  Y  Y5  1  0.293865  0.913361  0.879067  1
  Y  Y6  1  0.706135  0.086639  0.879067  1
  Y  Y7  1  0.706127  0.913044  0.378741  1
  Y  Y8  1  0.586639  0.793865  0.879067  1
  Y  Y9  1  0.586956  0.206127  0.378741  1
  Y  Y10  1  0.413044  0.793873  0.378741  1
  Y  Y11  1  0.413361  0.206135  0.879067  1
  Y  Y12  1  0.207762  0.412339  0.622755  1
  Y  Y13  1  0.207471  0.587731  0.119903  1
  Y  Y14  1  0.792529  0.412269  0.119903  1
  Y  Y15  1  0.792238  0.587661  0.622755  1
  Y  Y16  1  0.912269  0.707471  0.119903  1
  Y  Y17  1  0.912339  0.292238  0.622755  1
  Y  Y18  1  0.087661  0.707762  0.622755  1
  Y  Y19  1  0.087731  0.292529  0.119903  1
  Ir  Ir20  1  0.848065  0.152685  0.249890  1
  Ir  Ir21  1  0.847699  0.847395  0.749573  1
  Ir  Ir22  1  0.152301  0.152605  0.749573  1
  Ir  Ir23  1  0.151935  0.847315  0.249890  1
  Ir  Ir24  1  0.652605  0.347699  0.749573  1
  Ir  Ir25  1  0.652685  0.651935  0.249890  1
  Ir  Ir26  1  0.347315  0.348065  0.249890  1
  Ir  Ir27  1  0.347395  0.652301  0.749573  1
  Ir  Ir28  1  0.000000  0.500000  0.377547  1
  Ru  Ru29  1  0.500000  0.000000  0.124133  1
  Ru  Ru30  1  0.500000  0.000000  0.624094  1
  Ru  Ru31  1  0.000000  0.500000  0.877481  1
