# generated using pymatgen
data_Y6Ho2CdHgIr2
_symmetry_space_group_name_H-M   'P 1'
_cell_length_a   9.64455863
_cell_length_b   9.64455815
_cell_length_c   9.65077500
_cell_angle_alpha   59.97867117
_cell_angle_beta   59.97867284
_cell_angle_gamma   59.98357994
_symmetry_Int_Tables_number   1
_chemical_formula_structural   Y6Ho2CdHgIr2
_chemical_formula_sum   'Y12 Ho4 Cd2 Hg2 Ir4'
_cell_volume   634.47997289
_cell_formula_units_Z   2
loop_
 _symmetry_equiv_pos_site_id
 _symmetry_equiv_pos_as_xyz
  1  'x, y, z'
loop_
 _atom_site_type_symbol
 _atom_site_label
 _atom_site_symmetry_multiplicity
 _atom_site_fract_x
 _atom_site_fract_y
 _atom_site_fract_z
 _atom_site_occupancy
  Y  Y0  1  0.809466  0.189202  0.191270  1
  Y  Y1  1  0.189202  0.809466  0.810063  1
  Y  Y2  1  0.189202  0.809466  0.191270  1
  Y  Y3  1  0.809466  0.189202  0.810063  1
  Y  Y4  1  0.189589  0.189589  0.810411  1
  Y  Y5  1  0.808911  0.808911  0.191089  1
  Y  Y6  1  0.937657  0.561304  0.562254  1
  Y  Y7  1  0.561304  0.937657  0.938785  1
  Y  Y8  1  0.561304  0.937657  0.562254  1
  Y  Y9  1  0.937657  0.561304  0.938785  1
  Y  Y10  1  0.561487  0.561487  0.938513  1
  Y  Y11  1  0.938044  0.938044  0.561956  1
  Ho  Ho12  1  0.349301  0.349301  0.348124  1
  Ho  Ho13  1  0.349301  0.349301  0.953275  1
  Ho  Ho14  1  0.350682  0.950533  0.349393  1
  Ho  Ho15  1  0.950533  0.350682  0.349393  1
  Cd  Cd16  1  0.579793  0.259111  0.580549  1
  Cd  Cd17  1  0.259111  0.579793  0.580549  1
  Hg  Hg18  1  0.583523  0.583523  0.585569  1
  Hg  Hg19  1  0.583523  0.583523  0.247385  1
  Ir  Ir20  1  0.142911  0.142911  0.142500  1
  Ir  Ir21  1  0.142911  0.142911  0.571678  1
  Ir  Ir22  1  0.142818  0.572308  0.142437  1
  Ir  Ir23  1  0.572308  0.142818  0.142437  1
