# generated using pymatgen
data_Li4Ca12Si3(GeN4)5
_symmetry_space_group_name_H-M   'P 1'
_cell_length_a   5.22367662
_cell_length_b   10.54531290
_cell_length_c   10.81308943
_cell_angle_alpha   89.68377899
_cell_angle_beta   76.05822166
_cell_angle_gamma   88.72767587
_symmetry_Int_Tables_number   1
_chemical_formula_structural   Li4Ca12Si3(GeN4)5
_chemical_formula_sum   'Li4 Ca12 Si3 Ge5 N20'
_cell_volume   577.95279278
_cell_formula_units_Z   1
loop_
 _symmetry_equiv_pos_site_id
 _symmetry_equiv_pos_as_xyz
  1  'x, y, z'
loop_
 _atom_site_type_symbol
 _atom_site_label
 _atom_site_symmetry_multiplicity
 _atom_site_fract_x
 _atom_site_fract_y
 _atom_site_fract_z
 _atom_site_occupancy
  Li  Li0  1  0.829374  0.752790  0.313520  1
  Li  Li1  1  0.159794  0.249285  0.681195  1
  Li  Li2  1  0.370403  0.745620  0.264144  1
  Li  Li3  1  0.630662  0.252497  0.732662  1
  Ca  Ca4  1  0.462778  0.853693  0.575877  1
  Ca  Ca5  1  0.964221  0.645222  0.573500  1
  Ca  Ca6  1  0.540284  0.147413  0.428094  1
  Ca  Ca7  1  0.035449  0.355735  0.427000  1
  Ca  Ca8  1  0.343488  0.643083  0.818281  1
  Ca  Ca9  1  0.840272  0.856530  0.817419  1
  Ca  Ca10  1  0.655398  0.356975  0.181444  1
  Ca  Ca11  1  0.162520  0.143438  0.178554  1
  Ca  Ca12  1  0.732885  0.633549  0.035187  1
  Ca  Ca13  1  0.238259  0.864029  0.032882  1
  Ca  Ca14  1  0.268004  0.366479  0.963621  1
  Ca  Ca15  1  0.764540  0.135768  0.963306  1
  Si  Si16  1  0.488577  0.549242  0.396063  1
  Si  Si17  1  0.879979  0.051151  0.608941  1
  Si  Si18  1  0.510815  0.451254  0.603924  1
  Ge  Ge19  1  0.303936  0.041246  0.794276  1
  Ge  Ge20  1  0.900119  0.459484  0.792687  1
  Ge  Ge21  1  0.695792  0.959322  0.202763  1
  Ge  Ge22  1  0.098741  0.540175  0.207336  1
  Ge  Ge23  1  0.119473  0.947795  0.395609  1
  N  N24  1  0.495205  0.614266  0.549510  1
  N  N25  1  0.946598  0.885223  0.561726  1
  N  N26  1  0.504239  0.386198  0.450511  1
  N  N27  1  0.042948  0.120840  0.458783  1
  N  N28  1  0.974971  0.086232  0.747260  1
  N  N29  1  0.277367  0.415680  0.743078  1
  N  N30  1  0.028977  0.913531  0.245367  1
  N  N31  1  0.721491  0.583770  0.256239  1
  N  N32  1  0.709797  0.874715  0.050763  1
  N  N33  1  0.237691  0.623225  0.053602  1
  N  N34  1  0.289676  0.125487  0.947099  1
  N  N35  1  0.762251  0.375819  0.946209  1
  N  N36  1  0.335392  0.863461  0.803748  1
  N  N37  1  0.859855  0.636698  0.803844  1
  N  N38  1  0.658294  0.136406  0.197172  1
  N  N39  1  0.139063  0.362643  0.196252  1
  N  N40  1  0.477106  0.899422  0.360658  1
  N  N41  1  0.186169  0.591994  0.362098  1
  N  N42  1  0.544146  0.093970  0.639904  1
  N  N43  1  0.813000  0.408644  0.637891  1
