# generated using pymatgen
data_Ca2La8Ga5Sb
_symmetry_space_group_name_H-M   'P 1'
_cell_length_a   9.31721230
_cell_length_b   9.31721186
_cell_length_c   9.31721100
_cell_angle_alpha   127.60187244
_cell_angle_beta   127.60186261
_cell_angle_gamma   77.27087676
_symmetry_Int_Tables_number   1
_chemical_formula_structural   Ca2La8Ga5Sb
_chemical_formula_sum   'Ca2 La8 Ga5 Sb1'
_cell_volume   492.59254421
_cell_formula_units_Z   1
loop_
 _symmetry_equiv_pos_site_id
 _symmetry_equiv_pos_as_xyz
  1  'x, y, z'
loop_
 _atom_site_type_symbol
 _atom_site_label
 _atom_site_symmetry_multiplicity
 _atom_site_fract_x
 _atom_site_fract_y
 _atom_site_fract_z
 _atom_site_occupancy
  Ca  Ca0  1  0.500170  0.500170  0.000000  1
  Ca  Ca1  1  0.999830  0.999830  0.000000  1
  La  La2  1  0.528001  0.019294  0.841483  1
  La  La3  1  0.177810  0.686517  0.158517  1
  La  La4  1  0.019294  0.177810  0.491292  1
  La  La5  1  0.686517  0.528001  0.508708  1
  La  La6  1  0.480706  0.971999  0.158517  1
  La  La7  1  0.813483  0.322190  0.841483  1
  La  La8  1  0.971999  0.813483  0.491292  1
  La  La9  1  0.322190  0.480706  0.508708  1
  Ga  Ga10  1  0.750000  0.750000  0.000000  1
  Ga  Ga11  1  0.881786  0.381786  0.263571  1
  Ga  Ga12  1  0.118214  0.618214  0.736429  1
  Ga  Ga13  1  0.381786  0.118214  0.500000  1
  Ga  Ga14  1  0.618214  0.881786  0.500000  1
  Sb  Sb15  1  0.250000  0.250000  0.000000  1
