# generated using pymatgen
data_Tb9Ho11(SnBi)8
_symmetry_space_group_name_H-M   'P 1'
_cell_length_a   8.17963431
_cell_length_b   8.20597429
_cell_length_c   15.63714613
_cell_angle_alpha   90.00831122
_cell_angle_beta   90.01245872
_cell_angle_gamma   90.02903620
_symmetry_Int_Tables_number   1
_chemical_formula_structural   Tb9Ho11(SnBi)8
_chemical_formula_sum   'Tb9 Ho11 Sn8 Bi8'
_cell_volume   1049.59430079
_cell_formula_units_Z   1
loop_
 _symmetry_equiv_pos_site_id
 _symmetry_equiv_pos_as_xyz
  1  'x, y, z'
loop_
 _atom_site_type_symbol
 _atom_site_label
 _atom_site_symmetry_multiplicity
 _atom_site_fract_x
 _atom_site_fract_y
 _atom_site_fract_z
 _atom_site_occupancy
  Tb  Tb0  1  0.886707  0.662049  0.876610  1
  Tb  Tb1  1  0.553062  0.327526  0.890043  1
  Tb  Tb2  1  0.053268  0.172318  0.609923  1
  Tb  Tb3  1  0.446759  0.672299  0.389949  1
  Tb  Tb4  1  0.946754  0.827775  0.110146  1
  Tb  Tb5  1  0.446804  0.672220  0.109997  1
  Tb  Tb6  1  0.946776  0.827702  0.389929  1
  Tb  Tb7  1  0.553103  0.327606  0.609976  1
  Tb  Tb8  1  0.053208  0.172291  0.889964  1
  Ho  Ho9  1  0.386241  0.838238  0.876012  1
  Ho  Ho10  1  0.886223  0.661697  0.623880  1
  Ho  Ho11  1  0.613750  0.161715  0.376036  1
  Ho  Ho12  1  0.113687  0.338354  0.123880  1
  Ho  Ho13  1  0.613676  0.161692  0.124019  1
  Ho  Ho14  1  0.113751  0.338308  0.376052  1
  Ho  Ho15  1  0.386301  0.838389  0.623814  1
  Ho  Ho16  1  0.217884  0.498459  0.749840  1
  Ho  Ho17  1  0.717503  0.001465  0.749882  1
  Ho  Ho18  1  0.782342  0.501311  0.250053  1
  Ho  Ho19  1  0.282368  0.998688  0.249994  1
  Sn  Sn20  1  0.582269  0.627107  0.749812  1
  Sn  Sn21  1  0.083090  0.873160  0.749638  1
  Sn  Sn22  1  0.417342  0.372694  0.250028  1
  Sn  Sn23  1  0.917363  0.127322  0.250001  1
  Sn  Sn24  1  0.356983  0.143275  0.749975  1
  Sn  Sn25  1  0.856839  0.356303  0.749814  1
  Sn  Sn26  1  0.643003  0.856654  0.249993  1
  Sn  Sn27  1  0.142984  0.643306  0.249993  1
  Bi  Bi28  1  0.271650  0.021650  0.044419  1
  Bi  Bi29  1  0.771676  0.478348  0.455579  1
  Bi  Bi30  1  0.728305  0.978295  0.544356  1
  Bi  Bi31  1  0.229262  0.521199  0.955704  1
  Bi  Bi32  1  0.727784  0.979449  0.955782  1
  Bi  Bi33  1  0.228233  0.521668  0.544366  1
  Bi  Bi34  1  0.271738  0.021673  0.455576  1
  Bi  Bi35  1  0.771309  0.477796  0.044964  1
