# generated using pymatgen
data_YbSb12OsRu3
_symmetry_space_group_name_H-M   'P 1'
_cell_length_a   8.14769974
_cell_length_b   8.14770016
_cell_length_c   8.14770045
_cell_angle_alpha   109.51002840
_cell_angle_beta   109.51003123
_cell_angle_gamma   109.51002947
_symmetry_Int_Tables_number   1
_chemical_formula_structural   YbSb12OsRu3
_chemical_formula_sum   'Yb1 Sb12 Os1 Ru3'
_cell_volume   415.77428071
_cell_formula_units_Z   1
loop_
 _symmetry_equiv_pos_site_id
 _symmetry_equiv_pos_as_xyz
  1  'x, y, z'
loop_
 _atom_site_type_symbol
 _atom_site_label
 _atom_site_symmetry_multiplicity
 _atom_site_fract_x
 _atom_site_fract_y
 _atom_site_fract_z
 _atom_site_occupancy
  Yb  Yb0  1  0.000000  0.000000  0.000000  1
  Sb  Sb1  1  0.338442  0.181469  0.843091  1
  Sb  Sb2  1  0.661558  0.818531  0.156909  1
  Sb  Sb3  1  0.662025  0.504605  0.843693  1
  Sb  Sb4  1  0.337975  0.495395  0.156307  1
  Sb  Sb5  1  0.181469  0.843091  0.338442  1
  Sb  Sb6  1  0.818531  0.156909  0.661558  1
  Sb  Sb7  1  0.504605  0.843693  0.662025  1
  Sb  Sb8  1  0.495395  0.156307  0.337975  1
  Sb  Sb9  1  0.843091  0.338442  0.181469  1
  Sb  Sb10  1  0.156909  0.661558  0.818531  1
  Sb  Sb11  1  0.843693  0.662025  0.504605  1
  Sb  Sb12  1  0.156307  0.337975  0.495395  1
  Os  Os13  1  0.500000  0.500000  0.500000  1
  Ru  Ru14  1  0.000000  0.000000  0.500000  1
  Ru  Ru15  1  0.500000  0.000000  0.000000  1
  Ru  Ru16  1  0.000000  0.500000  0.000000  1
