# generated using pymatgen
data_YFe3P3Rh2
_symmetry_space_group_name_H-M   'P 1'
_cell_length_a   3.77012300
_cell_length_b   10.35129000
_cell_length_c   12.18781300
_cell_angle_alpha   90.00000000
_cell_angle_beta   90.00000000
_cell_angle_gamma   90.00000000
_symmetry_Int_Tables_number   1
_chemical_formula_structural   YFe3P3Rh2
_chemical_formula_sum   'Y4 Fe12 P12 Rh8'
_cell_volume   475.63715997
_cell_formula_units_Z   4
loop_
 _symmetry_equiv_pos_site_id
 _symmetry_equiv_pos_as_xyz
  1  'x, y, z'
loop_
 _atom_site_type_symbol
 _atom_site_label
 _atom_site_symmetry_multiplicity
 _atom_site_fract_x
 _atom_site_fract_y
 _atom_site_fract_z
 _atom_site_occupancy
  Y  Y0  1  0.250000  0.580994  0.710854  1
  Y  Y1  1  0.250000  0.919006  0.210854  1
  Y  Y2  1  0.750000  0.419006  0.289146  1
  Y  Y3  1  0.750000  0.080994  0.789146  1
  Fe  Fe4  1  0.250000  0.224284  0.170991  1
  Fe  Fe5  1  0.250000  0.275716  0.670991  1
  Fe  Fe6  1  0.750000  0.775716  0.829009  1
  Fe  Fe7  1  0.750000  0.724284  0.329009  1
  Fe  Fe8  1  0.250000  0.877791  0.697219  1
  Fe  Fe9  1  0.250000  0.622209  0.197219  1
  Fe  Fe10  1  0.750000  0.122209  0.302781  1
  Fe  Fe11  1  0.750000  0.377791  0.802781  1
  Fe  Fe12  1  0.250000  0.459309  0.935274  1
  Fe  Fe13  1  0.250000  0.040691  0.435274  1
  Fe  Fe14  1  0.750000  0.540691  0.064726  1
  Fe  Fe15  1  0.750000  0.959309  0.564726  1
  P  P16  1  0.250000  0.429559  0.112569  1
  P  P17  1  0.250000  0.070441  0.612569  1
  P  P18  1  0.750000  0.570441  0.887431  1
  P  P19  1  0.750000  0.929559  0.387431  1
  P  P20  1  0.250000  0.274191  0.853110  1
  P  P21  1  0.250000  0.225809  0.353110  1
  P  P22  1  0.750000  0.725809  0.146890  1
  P  P23  1  0.750000  0.774191  0.646890  1
  P  P24  1  0.250000  0.606483  0.377989  1
  P  P25  1  0.250000  0.893517  0.877989  1
  P  P26  1  0.750000  0.393517  0.622011  1
  P  P27  1  0.750000  0.106483  0.122011  1
  Rh  Rh28  1  0.250000  0.707337  0.985277  1
  Rh  Rh29  1  0.250000  0.792663  0.485277  1
  Rh  Rh30  1  0.750000  0.292663  0.014723  1
  Rh  Rh31  1  0.750000  0.207337  0.514723  1
  Rh  Rh32  1  0.250000  0.404840  0.479490  1
  Rh  Rh33  1  0.250000  0.095160  0.979490  1
  Rh  Rh34  1  0.750000  0.595160  0.520510  1
  Rh  Rh35  1  0.750000  0.904840  0.020510  1
