# generated using pymatgen
data_Tm10Ga3Bi2Pd
_symmetry_space_group_name_H-M   'P 1'
_cell_length_a   8.52201934
_cell_length_b   8.52201887
_cell_length_c   8.64102260
_cell_angle_alpha   124.31694191
_cell_angle_beta   124.31694012
_cell_angle_gamma   81.76197589
_symmetry_Int_Tables_number   1
_chemical_formula_structural   Tm10Ga3Bi2Pd
_chemical_formula_sum   'Tm10 Ga3 Bi2 Pd1'
_cell_volume   413.84149886
_cell_formula_units_Z   1
loop_
 _symmetry_equiv_pos_site_id
 _symmetry_equiv_pos_as_xyz
  1  'x, y, z'
loop_
 _atom_site_type_symbol
 _atom_site_label
 _atom_site_symmetry_multiplicity
 _atom_site_fract_x
 _atom_site_fract_y
 _atom_site_fract_z
 _atom_site_occupancy
  Tm  Tm0  1  0.997746  0.999500  0.997246  1
  Tm  Tm1  1  0.500500  0.502254  0.002754  1
  Tm  Tm2  1  0.787007  0.294669  0.798042  1
  Tm  Tm3  1  0.205331  0.712993  0.201958  1
  Tm  Tm4  1  0.488965  0.996627  0.201958  1
  Tm  Tm5  1  0.295571  0.474170  0.500000  1
  Tm  Tm6  1  0.025830  0.204429  0.500000  1
  Tm  Tm7  1  0.503373  0.011035  0.798042  1
  Tm  Tm8  1  0.704580  0.512496  0.500000  1
  Tm  Tm9  1  0.987504  0.795420  0.500000  1
  Ga  Ga10  1  0.145845  0.647740  0.793587  1
  Ga  Ga11  1  0.852260  0.354155  0.206413  1
  Ga  Ga12  1  0.640366  0.859634  0.500000  1
  Bi  Bi13  1  0.247105  0.252895  0.000000  1
  Bi  Bi14  1  0.747105  0.752895  0.000000  1
  Pd  Pd15  1  0.370911  0.129089  0.500000  1
