# generated using pymatgen
data_TaTi7Nb4(BOs)12
_symmetry_space_group_name_H-M   'P 1'
_cell_length_a   3.09506500
_cell_length_b   9.00846400
_cell_length_c   15.54019300
_cell_angle_alpha   89.99840592
_cell_angle_beta   90.00000000
_cell_angle_gamma   90.00000000
_symmetry_Int_Tables_number   1
_chemical_formula_structural   TaTi7Nb4(BOs)12
_chemical_formula_sum   'Ta1 Ti7 Nb4 B12 Os12'
_cell_volume   433.28826763
_cell_formula_units_Z   1
loop_
 _symmetry_equiv_pos_site_id
 _symmetry_equiv_pos_as_xyz
  1  'x, y, z'
loop_
 _atom_site_type_symbol
 _atom_site_label
 _atom_site_symmetry_multiplicity
 _atom_site_fract_x
 _atom_site_fract_y
 _atom_site_fract_z
 _atom_site_occupancy
  Ta  Ta0  1  0.000000  0.798518  0.495837  1
  Ti  Ti1  1  0.000000  0.200889  0.505098  1
  Ti  Ti2  1  0.000000  0.300498  0.004879  1
  Ti  Ti3  1  0.000000  0.699444  0.994908  1
  Ti  Ti4  1  0.000000  0.514160  0.594459  1
  Ti  Ti5  1  0.000000  0.483215  0.405710  1
  Ti  Ti6  1  0.000000  0.015167  0.905865  1
  Ti  Ti7  1  0.000000  0.984851  0.094002  1
  Nb  Nb8  1  0.000000  0.684632  0.202702  1
  Nb  Nb9  1  0.000000  0.315715  0.796425  1
  Nb  Nb10  1  0.000000  0.185899  0.294726  1
  Nb  Nb11  1  0.000000  0.816193  0.705245  1
  B  B12  1  0.500000  0.600370  0.495998  1
  B  B13  1  0.500000  0.395826  0.504279  1
  B  B14  1  0.500000  0.103650  0.004423  1
  B  B15  1  0.500000  0.896464  0.995451  1
  B  B16  1  0.000000  0.610714  0.834785  1
  B  B17  1  0.000000  0.389257  0.164986  1
  B  B18  1  0.000000  0.113607  0.667376  1
  B  B19  1  0.000000  0.890255  0.332771  1
  B  B20  1  0.500000  0.709388  0.600152  1
  B  B21  1  0.500000  0.287861  0.401885  1
  B  B22  1  0.500000  0.212176  0.902114  1
  B  B23  1  0.500000  0.788156  0.097555  1
  Os  Os24  1  0.500000  0.715644  0.358080  1
  Os  Os25  1  0.500000  0.283839  0.640368  1
  Os  Os26  1  0.500000  0.216391  0.140201  1
  Os  Os27  1  0.500000  0.783605  0.859754  1
  Os  Os28  1  0.500000  0.519563  0.092747  1
  Os  Os29  1  0.500000  0.480382  0.906996  1
  Os  Os30  1  0.500000  0.020552  0.406303  1
  Os  Os31  1  0.500000  0.982774  0.594205  1
  Os  Os32  1  0.500000  0.566184  0.731548  1
  Os  Os33  1  0.500000  0.433794  0.268368  1
  Os  Os34  1  0.500000  0.066599  0.768763  1
  Os  Os35  1  0.500000  0.933768  0.231034  1
