# generated using pymatgen
data_Zr24Si7As
_symmetry_space_group_name_H-M   'P 1'
_cell_length_a   11.03136934
_cell_length_b   11.05626706
_cell_length_c   5.45346697
_cell_angle_alpha   89.90436707
_cell_angle_beta   90.01733026
_cell_angle_gamma   90.02281384
_symmetry_Int_Tables_number   1
_chemical_formula_structural   Zr24Si7As
_chemical_formula_sum   'Zr24 Si7 As1'
_cell_volume   665.13526364
_cell_formula_units_Z   1
loop_
 _symmetry_equiv_pos_site_id
 _symmetry_equiv_pos_as_xyz
  1  'x, y, z'
loop_
 _atom_site_type_symbol
 _atom_site_label
 _atom_site_symmetry_multiplicity
 _atom_site_fract_x
 _atom_site_fract_y
 _atom_site_fract_z
 _atom_site_occupancy
  Zr  Zr0  1  0.918259  0.607791  0.532813  1
  Zr  Zr1  1  0.081876  0.392051  0.532611  1
  Zr  Zr2  1  0.891460  0.417593  0.032504  1
  Zr  Zr3  1  0.108048  0.582544  0.033247  1
  Zr  Zr4  1  0.580419  0.891473  0.961980  1
  Zr  Zr5  1  0.418229  0.108064  0.968351  1
  Zr  Zr6  1  0.606542  0.083588  0.472277  1
  Zr  Zr7  1  0.392113  0.917709  0.467141  1
  Zr  Zr8  1  0.862855  0.974010  0.721306  1
  Zr  Zr9  1  0.138135  0.026850  0.721797  1
  Zr  Zr10  1  0.526994  0.361237  0.221651  1
  Zr  Zr11  1  0.473412  0.638710  0.221213  1
  Zr  Zr12  1  0.638423  0.526076  0.778808  1
  Zr  Zr13  1  0.361455  0.473307  0.778441  1
  Zr  Zr14  1  0.974976  0.140012  0.279167  1
  Zr  Zr15  1  0.028785  0.860981  0.278224  1
  Zr  Zr16  1  0.820065  0.714617  0.006885  1
  Zr  Zr17  1  0.179715  0.283760  0.008900  1
  Zr  Zr18  1  0.783794  0.320792  0.509513  1
  Zr  Zr19  1  0.216412  0.679275  0.509559  1
  Zr  Zr20  1  0.680080  0.781903  0.493298  1
  Zr  Zr21  1  0.320170  0.216412  0.490814  1
  Zr  Zr22  1  0.715532  0.180115  0.987891  1
  Zr  Zr23  1  0.284206  0.820457  0.990637  1
  Si  Si24  1  0.205929  0.041723  0.212495  1
  Si  Si25  1  0.540777  0.295122  0.713060  1
  Si  Si26  1  0.457981  0.705026  0.712127  1
  Si  Si27  1  0.705452  0.541594  0.287861  1
  Si  Si28  1  0.294490  0.458313  0.287338  1
  Si  Si29  1  0.958282  0.205817  0.787389  1
  Si  Si30  1  0.041636  0.794496  0.787084  1
  As  As31  1  0.793497  0.958584  0.213619  1
