# generated using pymatgen
data_Dy2Ni7P4
_symmetry_space_group_name_H-M   'P 1'
_cell_length_a   3.68089700
_cell_length_b   9.13470800
_cell_length_c   10.22814900
_cell_angle_alpha   90.00000000
_cell_angle_beta   90.00000000
_cell_angle_gamma   90.00000000
_symmetry_Int_Tables_number   1
_chemical_formula_structural   Dy2Ni7P4
_chemical_formula_sum   'Dy4 Ni14 P8'
_cell_volume   343.91045629
_cell_formula_units_Z   2
loop_
 _symmetry_equiv_pos_site_id
 _symmetry_equiv_pos_as_xyz
  1  'x, y, z'
loop_
 _atom_site_type_symbol
 _atom_site_label
 _atom_site_symmetry_multiplicity
 _atom_site_fract_x
 _atom_site_fract_y
 _atom_site_fract_z
 _atom_site_occupancy
  Dy  Dy0  1  0.000000  0.058724  0.395469  1
  Dy  Dy1  1  0.500000  0.941276  0.895469  1
  Dy  Dy2  1  0.000000  0.436350  0.178159  1
  Dy  Dy3  1  0.500000  0.563650  0.678159  1
  Ni  Ni4  1  0.000000  0.056947  0.699594  1
  Ni  Ni5  1  0.500000  0.943053  0.199594  1
  Ni  Ni6  1  0.000000  0.725950  0.510034  1
  Ni  Ni7  1  0.500000  0.274050  0.010034  1
  Ni  Ni8  1  0.000000  0.096434  0.094234  1
  Ni  Ni9  1  0.500000  0.903566  0.594234  1
  Ni  Ni10  1  0.000000  0.746142  0.273811  1
  Ni  Ni11  1  0.500000  0.253858  0.773811  1
  Ni  Ni12  1  0.000000  0.306657  0.602813  1
  Ni  Ni13  1  0.500000  0.693343  0.102813  1
  Ni  Ni14  1  0.000000  0.685281  0.911347  1
  Ni  Ni15  1  0.500000  0.314719  0.411347  1
  Ni  Ni16  1  0.000000  0.416771  0.869603  1
  Ni  Ni17  1  0.500000  0.583229  0.369603  1
  P  P18  1  0.000000  0.179535  0.890086  1
  P  P19  1  0.500000  0.820465  0.390086  1
  P  P20  1  0.000000  0.845019  0.083633  1
  P  P21  1  0.500000  0.154981  0.583633  1
  P  P22  1  0.000000  0.809298  0.714407  1
  P  P23  1  0.500000  0.190702  0.214407  1
  P  P24  1  0.000000  0.480362  0.460907  1
  P  P25  1  0.500000  0.519638  0.960907  1
