# generated using pymatgen
data_Pr8DyTm11Pb16
_symmetry_space_group_name_H-M   'P 1'
_cell_length_a   8.30156302
_cell_length_b   8.39157850
_cell_length_c   15.84171000
_cell_angle_alpha   89.99702309
_cell_angle_beta   89.99605907
_cell_angle_gamma   89.98039726
_symmetry_Int_Tables_number   1
_chemical_formula_structural   Pr8DyTm11Pb16
_chemical_formula_sum   'Pr8 Dy1 Tm11 Pb16'
_cell_volume   1103.58442493
_cell_formula_units_Z   1
loop_
 _symmetry_equiv_pos_site_id
 _symmetry_equiv_pos_as_xyz
  1  'x, y, z'
loop_
 _atom_site_type_symbol
 _atom_site_label
 _atom_site_symmetry_multiplicity
 _atom_site_fract_x
 _atom_site_fract_y
 _atom_site_fract_z
 _atom_site_occupancy
  Pr  Pr0  1  0.476777  0.678310  0.597127  1
  Pr  Pr1  1  0.976764  0.821937  0.902854  1
  Pr  Pr2  1  0.523322  0.322112  0.097148  1
  Pr  Pr3  1  0.023158  0.177702  0.402640  1
  Pr  Pr4  1  0.523186  0.321999  0.402535  1
  Pr  Pr5  1  0.023344  0.177875  0.097287  1
  Pr  Pr6  1  0.476265  0.678237  0.902979  1
  Pr  Pr7  1  0.976648  0.821678  0.597181  1
  Dy  Dy8  1  0.635383  0.159880  0.622613  1
  Tm  Tm9  1  0.134904  0.341004  0.877161  1
  Tm  Tm10  1  0.364488  0.840765  0.122955  1
  Tm  Tm11  1  0.865335  0.659405  0.376628  1
  Tm  Tm12  1  0.364621  0.840730  0.376905  1
  Tm  Tm13  1  0.864469  0.659018  0.123024  1
  Tm  Tm14  1  0.635690  0.158882  0.877125  1
  Tm  Tm15  1  0.135496  0.340409  0.623188  1
  Tm  Tm16  1  0.802209  0.494345  0.750297  1
  Tm  Tm17  1  0.301465  0.006436  0.750317  1
  Tm  Tm18  1  0.198197  0.505781  0.249927  1
  Tm  Tm19  1  0.698246  0.993353  0.250003  1
  Pb  Pb20  1  0.703390  0.958338  0.455849  1
  Pb  Pb21  1  0.202957  0.540926  0.043645  1
  Pb  Pb22  1  0.296933  0.041055  0.956514  1
  Pb  Pb23  1  0.797844  0.460866  0.543165  1
  Pb  Pb24  1  0.295331  0.040181  0.543262  1
  Pb  Pb25  1  0.796694  0.459097  0.956563  1
  Pb  Pb26  1  0.703058  0.959044  0.043553  1
  Pb  Pb27  1  0.203290  0.540857  0.456541  1
  Pb  Pb28  1  0.440177  0.370593  0.750727  1
  Pb  Pb29  1  0.940802  0.129949  0.750448  1
  Pb  Pb30  1  0.559262  0.630008  0.249838  1
  Pb  Pb31  1  0.059875  0.870081  0.249756  1
  Pb  Pb32  1  0.665759  0.850035  0.750373  1
  Pb  Pb33  1  0.166158  0.649056  0.749985  1
  Pb  Pb34  1  0.334396  0.149274  0.249901  1
  Pb  Pb35  1  0.834109  0.350780  0.249984  1
