# generated using pymatgen
data_Rb8Mn3BeBr16
_symmetry_space_group_name_H-M   'P 1'
_cell_length_a   7.72125600
_cell_length_b   9.98446193
_cell_length_c   13.66765455
_cell_angle_alpha   90.21141301
_cell_angle_beta   90.00000000
_cell_angle_gamma   90.00000000
_symmetry_Int_Tables_number   1
_chemical_formula_structural   Rb8Mn3BeBr16
_chemical_formula_sum   'Rb8 Mn3 Be1 Br16'
_cell_volume   1053.66766893
_cell_formula_units_Z   1
loop_
 _symmetry_equiv_pos_site_id
 _symmetry_equiv_pos_as_xyz
  1  'x, y, z'
loop_
 _atom_site_type_symbol
 _atom_site_label
 _atom_site_symmetry_multiplicity
 _atom_site_fract_x
 _atom_site_fract_y
 _atom_site_fract_z
 _atom_site_occupancy
  Rb  Rb0  1  0.250000  0.131036  0.897850  1
  Rb  Rb1  1  0.250000  0.625976  0.585965  1
  Rb  Rb2  1  0.750000  0.872527  0.087125  1
  Rb  Rb3  1  0.750000  0.366757  0.417301  1
  Rb  Rb4  1  0.250000  0.976777  0.332593  1
  Rb  Rb5  1  0.250000  0.472484  0.171994  1
  Rb  Rb6  1  0.750000  0.028052  0.667723  1
  Rb  Rb7  1  0.750000  0.523116  0.827056  1
  Mn  Mn8  1  0.250000  0.730909  0.926469  1
  Mn  Mn9  1  0.750000  0.766714  0.426595  1
  Mn  Mn10  1  0.750000  0.270773  0.073450  1
  Be  Be11  1  0.250000  0.237767  0.575431  1
  Br  Br12  1  0.250000  0.017799  0.592787  1
  Br  Br13  1  0.250000  0.482153  0.908570  1
  Br  Br14  1  0.750000  0.014170  0.406469  1
  Br  Br15  1  0.750000  0.519547  0.089516  1
  Br  Br16  1  0.250000  0.300084  0.420726  1
  Br  Br17  1  0.250000  0.806700  0.100049  1
  Br  Br18  1  0.750000  0.689642  0.600075  1
  Br  Br19  1  0.750000  0.192746  0.899597  1
  Br  Br20  1  0.484665  0.322282  0.645318  1
  Br  Br21  1  0.991628  0.831245  0.847779  1
  Br  Br22  1  0.010310  0.664014  0.351669  1
  Br  Br23  1  0.491670  0.169594  0.151565  1
  Br  Br24  1  0.489690  0.664014  0.351669  1
  Br  Br25  1  0.008330  0.169594  0.151565  1
  Br  Br26  1  0.015335  0.322282  0.645318  1
  Br  Br27  1  0.508372  0.831245  0.847779  1
