# generated using pymatgen
data_Th2Co9Tc3As7
_symmetry_space_group_name_H-M   'P 1'
_cell_length_a   3.90157600
_cell_length_b   9.44488172
_cell_length_c   9.44488300
_cell_angle_alpha   120.00000611
_cell_angle_beta   90.00000000
_cell_angle_gamma   90.00000000
_symmetry_Int_Tables_number   1
_chemical_formula_structural   Th2Co9Tc3As7
_chemical_formula_sum   'Th2 Co9 Tc3 As7'
_cell_volume   301.41425086
_cell_formula_units_Z   1
loop_
 _symmetry_equiv_pos_site_id
 _symmetry_equiv_pos_as_xyz
  1  'x, y, z'
loop_
 _atom_site_type_symbol
 _atom_site_label
 _atom_site_symmetry_multiplicity
 _atom_site_fract_x
 _atom_site_fract_y
 _atom_site_fract_z
 _atom_site_occupancy
  Th  Th0  1  0.000000  0.666667  0.333333  1
  Th  Th1  1  0.500000  0.333333  0.666667  1
  Co  Co2  1  0.000000  0.568041  0.936196  1
  Co  Co3  1  0.000000  0.368155  0.431959  1
  Co  Co4  1  0.000000  0.063804  0.631845  1
  Co  Co5  1  0.000000  0.871680  0.151210  1
  Co  Co6  1  0.000000  0.279530  0.128320  1
  Co  Co7  1  0.000000  0.848790  0.720470  1
  Co  Co8  1  0.500000  0.942973  0.379324  1
  Co  Co9  1  0.500000  0.436350  0.057027  1
  Co  Co10  1  0.500000  0.620676  0.563650  1
  Tc  Tc11  1  0.500000  0.785567  0.896970  1
  Tc  Tc12  1  0.500000  0.111403  0.214433  1
  Tc  Tc13  1  0.500000  0.103030  0.888597  1
  As  As14  1  0.000000  0.000000  0.000000  1
  As  As15  1  0.500000  0.706288  0.108029  1
  As  As16  1  0.500000  0.401742  0.293712  1
  As  As17  1  0.500000  0.891971  0.598258  1
  As  As18  1  0.000000  0.595197  0.699672  1
  As  As19  1  0.000000  0.104475  0.404803  1
  As  As20  1  0.000000  0.300328  0.895525  1
