# generated using pymatgen
data_Hf16Nb3Ni4Pt
_symmetry_space_group_name_H-M   'P 1'
_cell_length_a   8.74429335
_cell_length_b   8.74429232
_cell_length_c   8.74429300
_cell_angle_alpha   60.14760175
_cell_angle_beta   60.14760463
_cell_angle_gamma   60.14760266
_symmetry_Int_Tables_number   1
_chemical_formula_structural   Hf16Nb3Ni4Pt
_chemical_formula_sum   'Hf16 Nb3 Ni4 Pt1'
_cell_volume   474.36068675
_cell_formula_units_Z   1
loop_
 _symmetry_equiv_pos_site_id
 _symmetry_equiv_pos_as_xyz
  1  'x, y, z'
loop_
 _atom_site_type_symbol
 _atom_site_label
 _atom_site_symmetry_multiplicity
 _atom_site_fract_x
 _atom_site_fract_y
 _atom_site_fract_z
 _atom_site_occupancy
  Hf  Hf0  1  0.698391  0.100452  0.100452  1
  Hf  Hf1  1  0.100452  0.698391  0.100452  1
  Hf  Hf2  1  0.100452  0.100452  0.698391  1
  Hf  Hf3  1  0.102594  0.102594  0.102594  1
  Hf  Hf4  1  0.315224  0.315224  0.685821  1
  Hf  Hf5  1  0.685455  0.685455  0.314779  1
  Hf  Hf6  1  0.315224  0.685821  0.315224  1
  Hf  Hf7  1  0.685455  0.314779  0.685455  1
  Hf  Hf8  1  0.685821  0.315224  0.315224  1
  Hf  Hf9  1  0.314779  0.685455  0.685455  1
  Hf  Hf10  1  0.950926  0.950926  0.547932  1
  Hf  Hf11  1  0.551687  0.551687  0.947888  1
  Hf  Hf12  1  0.950926  0.547932  0.950926  1
  Hf  Hf13  1  0.551687  0.947888  0.551687  1
  Hf  Hf14  1  0.547932  0.950926  0.950926  1
  Hf  Hf15  1  0.947888  0.551687  0.551687  1
  Nb  Nb16  1  0.996543  0.334115  0.334115  1
  Nb  Nb17  1  0.334115  0.996543  0.334115  1
  Nb  Nb18  1  0.334115  0.334115  0.996543  1
  Ni  Ni19  1  0.325451  0.889932  0.889932  1
  Ni  Ni20  1  0.889932  0.325451  0.889932  1
  Ni  Ni21  1  0.889932  0.889932  0.325451  1
  Ni  Ni22  1  0.890860  0.890860  0.890860  1
  Pt  Pt23  1  0.334155  0.334155  0.334155  1
