# generated using pymatgen
data_U4Mn6Si5TcAs
_symmetry_space_group_name_H-M   'P 1'
_cell_length_a   6.89952284
_cell_length_b   6.89952343
_cell_length_c   6.89952288
_cell_angle_alpha   109.56826485
_cell_angle_beta   109.27731173
_cell_angle_gamma   109.56826708
_symmetry_Int_Tables_number   1
_chemical_formula_structural   U4Mn6Si5TcAs
_chemical_formula_sum   'U4 Mn6 Si5 Tc1 As1'
_cell_volume   252.83171309
_cell_formula_units_Z   1
loop_
 _symmetry_equiv_pos_site_id
 _symmetry_equiv_pos_as_xyz
  1  'x, y, z'
loop_
 _atom_site_type_symbol
 _atom_site_label
 _atom_site_symmetry_multiplicity
 _atom_site_fract_x
 _atom_site_fract_y
 _atom_site_fract_z
 _atom_site_occupancy
  U  U0  1  0.499202  0.495207  0.499202  1
  U  U1  1  0.003996  0.504793  0.003996  1
  U  U2  1  0.499202  0.000000  0.003996  1
  U  U3  1  0.003996  0.000000  0.499202  1
  Mn  Mn4  1  0.496626  0.749573  0.246199  1
  Mn  Mn5  1  0.747053  0.250427  0.496626  1
  Mn  Mn6  1  0.246199  0.749573  0.496626  1
  Mn  Mn7  1  0.249693  0.500000  0.749693  1
  Mn  Mn8  1  0.496626  0.250427  0.747053  1
  Mn  Mn9  1  0.749693  0.500000  0.249693  1
  Si  Si10  1  0.676467  0.675865  0.000603  1
  Si  Si11  1  0.324738  0.324135  0.000603  1
  Si  Si12  1  0.000603  0.675865  0.676467  1
  Si  Si13  1  0.000603  0.324135  0.324738  1
  Si  Si14  1  0.319920  0.000000  0.319920  1
  Tc  Tc15  1  0.003924  0.000000  0.003924  1
  As  As16  1  0.681461  0.000000  0.681461  1
