# generated using pymatgen
data_Tb6Al24Os7Pt
_symmetry_space_group_name_H-M   'P 1'
_cell_length_a   8.83422318
_cell_length_b   8.82348548
_cell_length_c   9.59978704
_cell_angle_alpha   89.99999878
_cell_angle_beta   89.82884703
_cell_angle_gamma   119.95979128
_symmetry_Int_Tables_number   1
_chemical_formula_structural   Tb6Al24Os7Pt
_chemical_formula_sum   'Tb6 Al24 Os7 Pt1'
_cell_volume   648.29699930
_cell_formula_units_Z   1
loop_
 _symmetry_equiv_pos_site_id
 _symmetry_equiv_pos_as_xyz
  1  'x, y, z'
loop_
 _atom_site_type_symbol
 _atom_site_label
 _atom_site_symmetry_multiplicity
 _atom_site_fract_x
 _atom_site_fract_y
 _atom_site_fract_z
 _atom_site_occupancy
  Tb  Tb0  1  0.192950  0.384178  0.251112  1
  Tb  Tb1  1  0.807050  0.615822  0.748888  1
  Tb  Tb2  1  0.612551  0.806276  0.252475  1
  Tb  Tb3  1  0.387449  0.193724  0.747525  1
  Tb  Tb4  1  0.192950  0.808772  0.251112  1
  Tb  Tb5  1  0.807050  0.191228  0.748888  1
  Al  Al6  1  0.337581  0.668791  0.021683  1
  Al  Al7  1  0.662419  0.331209  0.978317  1
  Al  Al8  1  0.667696  0.333848  0.521086  1
  Al  Al9  1  0.332304  0.666152  0.478914  1
  Al  Al10  1  0.163695  0.327894  0.574721  1
  Al  Al11  1  0.836305  0.672106  0.425279  1
  Al  Al12  1  0.671658  0.835828  0.575573  1
  Al  Al13  1  0.831056  0.673860  0.077096  1
  Al  Al14  1  0.328342  0.164172  0.424427  1
  Al  Al15  1  0.168944  0.326140  0.922904  1
  Al  Al16  1  0.163695  0.835799  0.574721  1
  Al  Al17  1  0.327202  0.163602  0.076905  1
  Al  Al18  1  0.836305  0.164201  0.425279  1
  Al  Al19  1  0.672798  0.836398  0.923095  1
  Al  Al20  1  0.831056  0.157197  0.077096  1
  Al  Al21  1  0.168944  0.842803  0.922904  1
  Al  Al22  1  0.561320  0.123817  0.249724  1
  Al  Al23  1  0.438680  0.876183  0.750276  1
  Al  Al24  1  0.875480  0.437740  0.252339  1
  Al  Al25  1  0.124520  0.562260  0.747661  1
  Al  Al26  1  0.561320  0.437503  0.249724  1
  Al  Al27  1  0.438680  0.562497  0.750276  1
  Al  Al28  1  0.999963  0.999981  0.250131  1
  Al  Al29  1  0.000037  0.000019  0.749869  1
  Os  Os30  1  0.500000  0.000000  0.000000  1
  Os  Os31  1  0.500000  0.000000  0.500000  1
  Os  Os32  1  0.500000  0.500000  0.000000  1
  Os  Os33  1  0.000000  0.500000  0.500000  1
  Os  Os34  1  0.500000  0.500000  0.500000  1
  Os  Os35  1  0.000000  0.000000  0.000000  1
  Os  Os36  1  0.000000  0.000000  0.500000  1
  Pt  Pt37  1  0.000000  0.500000  0.000000  1
