# generated using pymatgen
data_Tb6PtRh17
_symmetry_space_group_name_H-M   'P 1'
_cell_length_a   5.27303500
_cell_length_b   5.27303539
_cell_length_c   17.61537700
_cell_angle_alpha   90.00000000
_cell_angle_beta   90.00000000
_cell_angle_gamma   119.99999130
_symmetry_Int_Tables_number   1
_chemical_formula_structural   Tb6PtRh17
_chemical_formula_sum   'Tb6 Pt1 Rh17'
_cell_volume   424.17390936
_cell_formula_units_Z   1
loop_
 _symmetry_equiv_pos_site_id
 _symmetry_equiv_pos_as_xyz
  1  'x, y, z'
loop_
 _atom_site_type_symbol
 _atom_site_label
 _atom_site_symmetry_multiplicity
 _atom_site_fract_x
 _atom_site_fract_y
 _atom_site_fract_z
 _atom_site_occupancy
  Tb  Tb0  1  0.333333  0.666667  0.957916  1
  Tb  Tb1  1  0.666667  0.333333  0.042084  1
  Tb  Tb2  1  0.666667  0.333333  0.456703  1
  Tb  Tb3  1  0.333333  0.666667  0.543297  1
  Tb  Tb4  1  0.333333  0.666667  0.750322  1
  Tb  Tb5  1  0.666667  0.333333  0.249678  1
  Pt  Pt6  1  0.000000  0.000000  0.500000  1
  Rh  Rh7  1  0.167693  0.832307  0.373222  1
  Rh  Rh8  1  0.167693  0.335388  0.373222  1
  Rh  Rh9  1  0.664612  0.832307  0.373222  1
  Rh  Rh10  1  0.832307  0.167693  0.626778  1
  Rh  Rh11  1  0.832307  0.664612  0.626778  1
  Rh  Rh12  1  0.335388  0.167693  0.626778  1
  Rh  Rh13  1  0.832819  0.167181  0.874104  1
  Rh  Rh14  1  0.832819  0.665637  0.874104  1
  Rh  Rh15  1  0.334363  0.167181  0.874104  1
  Rh  Rh16  1  0.167181  0.832819  0.125896  1
  Rh  Rh17  1  0.167181  0.334363  0.125896  1
  Rh  Rh18  1  0.665637  0.832819  0.125896  1
  Rh  Rh19  1  0.333333  0.666667  0.250238  1
  Rh  Rh20  1  0.666667  0.333333  0.749762  1
  Rh  Rh21  1  0.000000  0.000000  0.249582  1
  Rh  Rh22  1  0.000000  0.000000  0.750418  1
  Rh  Rh23  1  0.000000  0.000000  0.000000  1
