# generated using pymatgen
data_Dy5Sc3(Co4As3)4
_symmetry_space_group_name_H-M   'P 1'
_cell_length_a   12.65410700
_cell_length_b   12.65410764
_cell_length_c   3.84060900
_cell_angle_alpha   90.00000000
_cell_angle_beta   90.00000000
_cell_angle_gamma   120.00000616
_symmetry_Int_Tables_number   1
_chemical_formula_structural   Dy5Sc3(Co4As3)4
_chemical_formula_sum   'Dy5 Sc3 Co16 As12'
_cell_volume   532.59088189
_cell_formula_units_Z   1
loop_
 _symmetry_equiv_pos_site_id
 _symmetry_equiv_pos_as_xyz
  1  'x, y, z'
loop_
 _atom_site_type_symbol
 _atom_site_label
 _atom_site_symmetry_multiplicity
 _atom_site_fract_x
 _atom_site_fract_y
 _atom_site_fract_z
 _atom_site_occupancy
  Dy  Dy0  1  0.666667  0.333333  0.000000  1
  Dy  Dy1  1  0.333333  0.666667  0.000000  1
  Dy  Dy2  1  0.815296  0.815296  0.500000  1
  Dy  Dy3  1  0.184704  0.000000  0.500000  1
  Dy  Dy4  1  0.000000  0.184704  0.500000  1
  Sc  Sc5  1  0.438030  0.438030  0.000000  1
  Sc  Sc6  1  0.561970  0.000000  0.000000  1
  Sc  Sc7  1  0.000000  0.561970  0.000000  1
  Co  Co8  1  0.876760  0.355528  0.500000  1
  Co  Co9  1  0.644472  0.521233  0.500000  1
  Co  Co10  1  0.478767  0.123240  0.500000  1
  Co  Co11  1  0.355528  0.876760  0.500000  1
  Co  Co12  1  0.521233  0.644472  0.500000  1
  Co  Co13  1  0.123240  0.478767  0.500000  1
  Co  Co14  1  0.803728  0.178365  0.000000  1
  Co  Co15  1  0.821635  0.625364  0.000000  1
  Co  Co16  1  0.374636  0.196272  0.000000  1
  Co  Co17  1  0.178365  0.803728  0.000000  1
  Co  Co18  1  0.625364  0.821635  0.000000  1
  Co  Co19  1  0.196272  0.374636  0.000000  1
  Co  Co20  1  0.279990  0.279990  0.500000  1
  Co  Co21  1  0.720010  0.000000  0.500000  1
  Co  Co22  1  0.000000  0.720010  0.500000  1
  Co  Co23  1  0.000000  0.000000  0.000000  1
  As  As24  1  0.689820  0.171397  0.500000  1
  As  As25  1  0.828603  0.518423  0.500000  1
  As  As26  1  0.481577  0.310180  0.500000  1
  As  As27  1  0.171397  0.689820  0.500000  1
  As  As28  1  0.518423  0.828603  0.500000  1
  As  As29  1  0.310180  0.481577  0.500000  1
  As  As30  1  0.178190  0.178190  0.000000  1
  As  As31  1  0.821810  0.000000  0.000000  1
  As  As32  1  0.000000  0.821810  0.000000  1
  As  As33  1  0.644583  0.644583  0.000000  1
  As  As34  1  0.355417  0.000000  0.000000  1
  As  As35  1  0.000000  0.355417  0.000000  1
