# generated using pymatgen
data_Y4ReOs3Ru4
_symmetry_space_group_name_H-M   'P 1'
_cell_length_a   5.43694032
_cell_length_b   5.20071367
_cell_length_c   9.04276400
_cell_angle_alpha   90.00000000
_cell_angle_beta   90.00000000
_cell_angle_gamma   121.10620302
_symmetry_Int_Tables_number   1
_chemical_formula_structural   Y4ReOs3Ru4
_chemical_formula_sum   'Y4 Re1 Os3 Ru4'
_cell_volume   218.92713286
_cell_formula_units_Z   1
loop_
 _symmetry_equiv_pos_site_id
 _symmetry_equiv_pos_as_xyz
  1  'x, y, z'
loop_
 _atom_site_type_symbol
 _atom_site_label
 _atom_site_symmetry_multiplicity
 _atom_site_fract_x
 _atom_site_fract_y
 _atom_site_fract_z
 _atom_site_occupancy
  Y  Y0  1  0.331253  0.662413  0.434647  1
  Y  Y1  1  0.669255  0.334415  0.566334  1
  Y  Y2  1  0.669255  0.334415  0.933666  1
  Y  Y3  1  0.331253  0.662413  0.065353  1
  Re  Re4  1  0.832159  0.673509  0.250000  1
  Os  Os5  1  0.165925  0.340166  0.750000  1
  Os  Os6  1  0.162733  0.831358  0.750000  1
  Os  Os7  1  0.343539  0.177323  0.250000  1
  Ru  Ru8  1  0.650354  0.826512  0.750000  1
  Ru  Ru9  1  0.008325  0.989952  0.999518  1
  Ru  Ru10  1  0.827623  0.177572  0.250000  1
  Ru  Ru11  1  0.008325  0.989952  0.500482  1
