# generated using pymatgen
data_La2Pr2Co4HgI
_symmetry_space_group_name_H-M   'P 1'
_cell_length_a   4.03691100
_cell_length_b   4.03691034
_cell_length_c   17.58140600
_cell_angle_alpha   90.00000000
_cell_angle_beta   90.00000000
_cell_angle_gamma   119.99999725
_symmetry_Int_Tables_number   1
_chemical_formula_structural   La2Pr2Co4HgI
_chemical_formula_sum   'La2 Pr2 Co4 Hg1 I1'
_cell_volume   248.13185648
_cell_formula_units_Z   1
loop_
 _symmetry_equiv_pos_site_id
 _symmetry_equiv_pos_as_xyz
  1  'x, y, z'
loop_
 _atom_site_type_symbol
 _atom_site_label
 _atom_site_symmetry_multiplicity
 _atom_site_fract_x
 _atom_site_fract_y
 _atom_site_fract_z
 _atom_site_occupancy
  La  La0  1  0.000000  0.000000  0.099492  1
  La  La1  1  0.000000  0.000000  0.400508  1
  Pr  Pr2  1  0.000000  0.000000  0.884484  1
  Pr  Pr3  1  0.000000  0.000000  0.615516  1
  Co  Co4  1  0.333333  0.666667  0.994893  1
  Co  Co5  1  0.666667  0.333333  0.994332  1
  Co  Co6  1  0.333333  0.666667  0.505107  1
  Co  Co7  1  0.666667  0.333333  0.505668  1
  Hg  Hg8  1  0.333333  0.666667  0.750000  1
  I  I9  1  0.666667  0.333333  0.250000  1
