# generated using pymatgen
data_PrNd7Al(Si4Rh)3
_symmetry_space_group_name_H-M   'P 1'
_cell_length_a   8.26368100
_cell_length_b   8.26368103
_cell_length_c   8.49403800
_cell_angle_alpha   90.00000000
_cell_angle_beta   90.00000000
_cell_angle_gamma   119.99999587
_symmetry_Int_Tables_number   1
_chemical_formula_structural   PrNd7Al(Si4Rh)3
_chemical_formula_sum   'Pr1 Nd7 Al1 Si12 Rh3'
_cell_volume   502.33326537
_cell_formula_units_Z   1
loop_
 _symmetry_equiv_pos_site_id
 _symmetry_equiv_pos_as_xyz
  1  'x, y, z'
loop_
 _atom_site_type_symbol
 _atom_site_label
 _atom_site_symmetry_multiplicity
 _atom_site_fract_x
 _atom_site_fract_y
 _atom_site_fract_z
 _atom_site_occupancy
  Pr  Pr0  1  0.000000  0.000000  0.747773  1
  Nd  Nd1  1  0.000000  0.000000  0.252199  1
  Nd  Nd2  1  0.497082  0.502918  0.745888  1
  Nd  Nd3  1  0.497082  0.994165  0.745888  1
  Nd  Nd4  1  0.005835  0.502918  0.745888  1
  Nd  Nd5  1  0.499392  0.500608  0.253881  1
  Nd  Nd6  1  0.001216  0.500608  0.253881  1
  Nd  Nd7  1  0.499392  0.998784  0.253881  1
  Al  Al8  1  0.666667  0.333333  0.995049  1
  Si  Si9  1  0.838356  0.161644  0.000018  1
  Si  Si10  1  0.838356  0.676713  0.000018  1
  Si  Si11  1  0.323287  0.161644  0.000018  1
  Si  Si12  1  0.832376  0.167624  0.501118  1
  Si  Si13  1  0.832376  0.664751  0.501118  1
  Si  Si14  1  0.335249  0.167624  0.501118  1
  Si  Si15  1  0.166994  0.833006  0.498536  1
  Si  Si16  1  0.666012  0.833006  0.498536  1
  Si  Si17  1  0.166994  0.333988  0.498536  1
  Si  Si18  1  0.169459  0.830541  0.000977  1
  Si  Si19  1  0.661082  0.830541  0.000977  1
  Si  Si20  1  0.169459  0.338918  0.000977  1
  Rh  Rh21  1  0.666667  0.333333  0.503738  1
  Rh  Rh22  1  0.333333  0.666667  0.496934  1
  Rh  Rh23  1  0.333333  0.666667  0.003055  1
