# generated using pymatgen
data_Yb2(GdRh)3
_symmetry_space_group_name_H-M   'P 1'
_cell_length_a   8.33770400
_cell_length_b   8.33770359
_cell_length_c   6.12470600
_cell_angle_alpha   90.00000000
_cell_angle_beta   90.00000000
_cell_angle_gamma   120.00000163
_symmetry_Int_Tables_number   1
_chemical_formula_structural   Yb2(GdRh)3
_chemical_formula_sum   'Yb4 Gd6 Rh6'
_cell_volume   368.73027361
_cell_formula_units_Z   2
loop_
 _symmetry_equiv_pos_site_id
 _symmetry_equiv_pos_as_xyz
  1  'x, y, z'
loop_
 _atom_site_type_symbol
 _atom_site_label
 _atom_site_symmetry_multiplicity
 _atom_site_fract_x
 _atom_site_fract_y
 _atom_site_fract_z
 _atom_site_occupancy
  Yb  Yb0  1  0.666667  0.333333  0.000000  1
  Yb  Yb1  1  0.333333  0.666667  0.000000  1
  Yb  Yb2  1  0.333333  0.666667  0.500000  1
  Yb  Yb3  1  0.666667  0.333333  0.500000  1
  Gd  Gd4  1  0.738463  0.738463  0.750000  1
  Gd  Gd5  1  0.261537  0.000000  0.750000  1
  Gd  Gd6  1  0.000000  0.261537  0.750000  1
  Gd  Gd7  1  0.261537  0.261537  0.250000  1
  Gd  Gd8  1  0.738463  0.000000  0.250000  1
  Gd  Gd9  1  0.000000  0.738463  0.250000  1
  Rh  Rh10  1  0.384999  0.384999  0.750000  1
  Rh  Rh11  1  0.615001  0.000000  0.750000  1
  Rh  Rh12  1  0.000000  0.615001  0.750000  1
  Rh  Rh13  1  0.615001  0.615001  0.250000  1
  Rh  Rh14  1  0.384999  0.000000  0.250000  1
  Rh  Rh15  1  0.000000  0.384999  0.250000  1
