# generated using pymatgen
data_Ho2U2As6Ru7
_symmetry_space_group_name_H-M   'P 1'
_cell_length_a   7.17194485
_cell_length_b   7.17194465
_cell_length_c   7.25365173
_cell_angle_alpha   109.29860439
_cell_angle_beta   109.29860156
_cell_angle_gamma   109.35904480
_symmetry_Int_Tables_number   1
_chemical_formula_structural   Ho2U2As6Ru7
_chemical_formula_sum   'Ho2 U2 As6 Ru7'
_cell_volume   288.82592809
_cell_formula_units_Z   1
loop_
 _symmetry_equiv_pos_site_id
 _symmetry_equiv_pos_as_xyz
  1  'x, y, z'
loop_
 _atom_site_type_symbol
 _atom_site_label
 _atom_site_symmetry_multiplicity
 _atom_site_fract_x
 _atom_site_fract_y
 _atom_site_fract_z
 _atom_site_occupancy
  Ho  Ho0  1  0.500000  0.000000  0.000000  1
  Ho  Ho1  1  0.000000  0.500000  0.000000  1
  U  U2  1  0.000000  0.000000  0.500000  1
  U  U3  1  0.500000  0.500000  0.500000  1
  As  As4  1  0.312704  0.996336  0.309040  1
  As  As5  1  0.996336  0.312704  0.309040  1
  As  As6  1  0.003664  0.687296  0.690960  1
  As  As7  1  0.312513  0.312513  0.000000  1
  As  As8  1  0.687487  0.687487  0.000000  1
  As  As9  1  0.687296  0.003664  0.690960  1
  Ru  Ru10  1  0.749861  0.507159  0.257020  1
  Ru  Ru11  1  0.507159  0.749861  0.257020  1
  Ru  Ru12  1  0.492841  0.250139  0.742980  1
  Ru  Ru13  1  0.750000  0.250000  0.500000  1
  Ru  Ru14  1  0.250000  0.750000  0.500000  1
  Ru  Ru15  1  0.250139  0.492841  0.742980  1
  Ru  Ru16  1  0.000000  0.000000  0.000000  1
