# generated using pymatgen
data_Tb3YGa4(NiIr)2
_symmetry_space_group_name_H-M   'P 1'
_cell_length_a   4.32115000
_cell_length_b   6.80960112
_cell_length_c   7.61578414
_cell_angle_alpha   90.02191554
_cell_angle_beta   90.00000000
_cell_angle_gamma   90.00000000
_symmetry_Int_Tables_number   1
_chemical_formula_structural   Tb3YGa4(NiIr)2
_chemical_formula_sum   'Tb3 Y1 Ga4 Ni2 Ir2'
_cell_volume   224.09677680
_cell_formula_units_Z   1
loop_
 _symmetry_equiv_pos_site_id
 _symmetry_equiv_pos_as_xyz
  1  'x, y, z'
loop_
 _atom_site_type_symbol
 _atom_site_label
 _atom_site_symmetry_multiplicity
 _atom_site_fract_x
 _atom_site_fract_y
 _atom_site_fract_z
 _atom_site_occupancy
  Tb  Tb0  1  0.250000  0.524072  0.688930  1
  Tb  Tb1  1  0.750000  0.979451  0.190718  1
  Tb  Tb2  1  0.750000  0.479404  0.309026  1
  Y  Y3  1  0.250000  0.023964  0.810864  1
  Ga  Ga4  1  0.250000  0.163585  0.438328  1
  Ga  Ga5  1  0.250000  0.663755  0.061715  1
  Ga  Ga6  1  0.750000  0.840832  0.578257  1
  Ga  Ga7  1  0.750000  0.340573  0.921790  1
  Ni  Ni8  1  0.750000  0.218417  0.609341  1
  Ni  Ni9  1  0.750000  0.717965  0.890600  1
  Ir  Ir10  1  0.250000  0.773962  0.391884  1
  Ir  Ir11  1  0.250000  0.274018  0.108547  1
