# generated using pymatgen
data_Cs4Na2ErInP4
_symmetry_space_group_name_H-M   'P 1'
_cell_length_a   9.71745528
_cell_length_b   9.71745434
_cell_length_c   9.71745557
_cell_angle_alpha   137.76833871
_cell_angle_beta   60.13044542
_cell_angle_gamma   139.25252371
_symmetry_Int_Tables_number   1
_chemical_formula_structural   Cs4Na2ErInP4
_chemical_formula_sum   'Cs4 Na2 Er1 In1 P4'
_cell_volume   398.40873959
_cell_formula_units_Z   1
loop_
 _symmetry_equiv_pos_site_id
 _symmetry_equiv_pos_as_xyz
  1  'x, y, z'
loop_
 _atom_site_type_symbol
 _atom_site_label
 _atom_site_symmetry_multiplicity
 _atom_site_fract_x
 _atom_site_fract_y
 _atom_site_fract_z
 _atom_site_occupancy
  Cs  Cs0  1  0.319587  0.725747  0.054279  1
  Cs  Cs1  1  0.180413  0.234692  0.406160  1
  Cs  Cs2  1  0.828532  0.774253  0.593839  1
  Cs  Cs3  1  0.671468  0.265308  0.945721  1
  Na  Na4  1  0.249999  0.249999  0.000000  1
  Na  Na5  1  0.750000  0.750000  0.000000  1
  Er  Er6  1  0.749999  0.249999  0.500000  1
  In  In7  1  0.249999  0.749999  0.500000  1
  P  P8  1  0.916079  0.288055  0.195448  1
  P  P9  1  0.583922  0.779370  0.371976  1
  P  P10  1  0.407393  0.211945  0.628024  1
  P  P11  1  0.092606  0.720630  0.804551  1
