# generated using pymatgen
data_Y2SiRhBr2
_symmetry_space_group_name_H-M   'P 1'
_cell_length_a   4.10793100
_cell_length_b   4.10793196
_cell_length_c   11.32300200
_cell_angle_alpha   90.00000000
_cell_angle_beta   90.00000000
_cell_angle_gamma   119.99998422
_symmetry_Int_Tables_number   1
_chemical_formula_structural   Y2SiRhBr2
_chemical_formula_sum   'Y2 Si1 Rh1 Br2'
_cell_volume   165.47739167
_cell_formula_units_Z   1
loop_
 _symmetry_equiv_pos_site_id
 _symmetry_equiv_pos_as_xyz
  1  'x, y, z'
loop_
 _atom_site_type_symbol
 _atom_site_label
 _atom_site_symmetry_multiplicity
 _atom_site_fract_x
 _atom_site_fract_y
 _atom_site_fract_z
 _atom_site_occupancy
  Y  Y0  1  0.000000  0.000000  0.168168  1
  Y  Y1  1  0.000000  0.000000  0.830116  1
  Si  Si2  1  0.666667  0.333333  0.989825  1
  Rh  Rh3  1  0.333333  0.666667  0.010932  1
  Br  Br4  1  0.333333  0.666667  0.669987  1
  Br  Br5  1  0.666667  0.333333  0.330972  1
