# generated using pymatgen
data_Dy8AlZnRh2
_symmetry_space_group_name_H-M   'P 1'
_cell_length_a   9.51908851
_cell_length_b   9.53036054
_cell_length_c   9.51909026
_cell_angle_alpha   59.96082198
_cell_angle_beta   59.96474581
_cell_angle_gamma   59.96082366
_symmetry_Int_Tables_number   1
_chemical_formula_structural   Dy8AlZnRh2
_chemical_formula_sum   'Dy16 Al2 Zn2 Rh4'
_cell_volume   610.11542965
_cell_formula_units_Z   2
loop_
 _symmetry_equiv_pos_site_id
 _symmetry_equiv_pos_as_xyz
  1  'x, y, z'
loop_
 _atom_site_type_symbol
 _atom_site_label
 _atom_site_symmetry_multiplicity
 _atom_site_fract_x
 _atom_site_fract_y
 _atom_site_fract_z
 _atom_site_occupancy
  Dy  Dy0  1  0.693161  0.307432  0.308002  1
  Dy  Dy1  1  0.693161  0.691406  0.308002  1
  Dy  Dy2  1  0.308811  0.691189  0.308811  1
  Dy  Dy3  1  0.935528  0.936093  0.562184  1
  Dy  Dy4  1  0.145458  0.147318  0.559905  1
  Dy  Dy5  1  0.562642  0.937358  0.562642  1
  Dy  Dy6  1  0.146828  0.148367  0.146828  1
  Dy  Dy7  1  0.308002  0.307432  0.693161  1
  Dy  Dy8  1  0.935528  0.566195  0.562184  1
  Dy  Dy9  1  0.562184  0.566195  0.935528  1
  Dy  Dy10  1  0.562184  0.936093  0.935528  1
  Dy  Dy11  1  0.934844  0.565156  0.934844  1
  Dy  Dy12  1  0.146828  0.557976  0.146828  1
  Dy  Dy13  1  0.308002  0.691406  0.693161  1
  Dy  Dy14  1  0.693757  0.306243  0.693757  1
  Dy  Dy15  1  0.559905  0.147318  0.145458  1
  Al  Al16  1  0.923523  0.230560  0.923523  1
  Al  Al17  1  0.923523  0.922393  0.923523  1
  Zn  Zn18  1  0.922078  0.921585  0.234751  1
  Zn  Zn19  1  0.234751  0.921585  0.922078  1
  Rh  Rh20  1  0.356912  0.357026  0.356912  1
  Rh  Rh21  1  0.929508  0.357262  0.355969  1
  Rh  Rh22  1  0.355969  0.357262  0.929508  1
  Rh  Rh23  1  0.356912  0.929151  0.356912  1
