# generated using pymatgen
data_Zr2Ta2C3N
_symmetry_space_group_name_H-M   'P 1'
_cell_length_a   10.71999961
_cell_length_b   10.71999957
_cell_length_c   10.71999821
_cell_angle_alpha   17.34577509
_cell_angle_beta   17.34577605
_cell_angle_gamma   17.34577647
_symmetry_Int_Tables_number   1
_chemical_formula_structural   Zr2Ta2C3N
_chemical_formula_sum   'Zr2 Ta2 C3 N1'
_cell_volume   95.55473142
_cell_formula_units_Z   1
loop_
 _symmetry_equiv_pos_site_id
 _symmetry_equiv_pos_as_xyz
  1  'x, y, z'
loop_
 _atom_site_type_symbol
 _atom_site_label
 _atom_site_symmetry_multiplicity
 _atom_site_fract_x
 _atom_site_fract_y
 _atom_site_fract_z
 _atom_site_occupancy
  Zr  Zr0  1  0.376995  0.376995  0.376995  1
  Zr  Zr1  1  0.623005  0.623005  0.623005  1
  Ta  Ta2  1  0.873965  0.873965  0.873965  1
  Ta  Ta3  1  0.126035  0.126035  0.126035  1
  C  C4  1  0.246456  0.246456  0.246456  1
  C  C5  1  0.500000  0.500000  0.500000  1
  C  C6  1  0.753544  0.753544  0.753544  1
  N  N7  1  0.000000  0.000000  0.000000  1
