# generated using pymatgen
data_Er9Th3Tc4
_symmetry_space_group_name_H-M   'P 1'
_cell_length_a   6.33989200
_cell_length_b   7.38342890
_cell_length_c   9.38036800
_cell_angle_alpha   90.00000000
_cell_angle_beta   90.00000000
_cell_angle_gamma   90.30831605
_symmetry_Int_Tables_number   1
_chemical_formula_structural   Er9Th3Tc4
_chemical_formula_sum   'Er9 Th3 Tc4'
_cell_volume   439.08999896
_cell_formula_units_Z   1
loop_
 _symmetry_equiv_pos_site_id
 _symmetry_equiv_pos_as_xyz
  1  'x, y, z'
loop_
 _atom_site_type_symbol
 _atom_site_label
 _atom_site_symmetry_multiplicity
 _atom_site_fract_x
 _atom_site_fract_y
 _atom_site_fract_z
 _atom_site_occupancy
  Er  Er0  1  0.333957  0.676529  0.064570  1
  Er  Er1  1  0.166611  0.172460  0.435037  1
  Er  Er2  1  0.666491  0.325016  0.568392  1
  Er  Er3  1  0.831426  0.826683  0.931352  1
  Er  Er4  1  0.666491  0.325016  0.931608  1
  Er  Er5  1  0.831426  0.826683  0.568648  1
  Er  Er6  1  0.333957  0.676529  0.435430  1
  Er  Er7  1  0.166611  0.172460  0.064963  1
  Er  Er8  1  0.367123  0.957369  0.750000  1
  Th  Th9  1  0.858480  0.550475  0.250000  1
  Th  Th10  1  0.641545  0.050533  0.250000  1
  Th  Th11  1  0.142333  0.451776  0.750000  1
  Tc  Tc12  1  0.016154  0.872198  0.250000  1
  Tc  Tc13  1  0.482872  0.371249  0.250000  1
  Tc  Tc14  1  0.978095  0.130318  0.750000  1
  Tc  Tc15  1  0.516428  0.614708  0.750000  1
