# generated using pymatgen
data_Sc8Tc3B24Ru
_symmetry_space_group_name_H-M   'P 1'
_cell_length_a   3.50133600
_cell_length_b   8.89500639
_cell_length_c   11.20003111
_cell_angle_alpha   89.93947300
_cell_angle_beta   90.00000000
_cell_angle_gamma   90.00000000
_symmetry_Int_Tables_number   1
_chemical_formula_structural   Sc8Tc3B24Ru
_chemical_formula_sum   'Sc8 Tc3 B24 Ru1'
_cell_volume   348.81812257
_cell_formula_units_Z   1
loop_
 _symmetry_equiv_pos_site_id
 _symmetry_equiv_pos_as_xyz
  1  'x, y, z'
loop_
 _atom_site_type_symbol
 _atom_site_label
 _atom_site_symmetry_multiplicity
 _atom_site_fract_x
 _atom_site_fract_y
 _atom_site_fract_z
 _atom_site_occupancy
  Sc  Sc0  1  0.000000  0.322050  0.413140  1
  Sc  Sc1  1  0.000000  0.676740  0.583625  1
  Sc  Sc2  1  0.000000  0.820814  0.087971  1
  Sc  Sc3  1  0.000000  0.179805  0.914465  1
  Sc  Sc4  1  0.000000  0.943379  0.371149  1
  Sc  Sc5  1  0.000000  0.056952  0.628973  1
  Sc  Sc6  1  0.000000  0.443869  0.129012  1
  Sc  Sc7  1  0.000000  0.556932  0.870646  1
  Tc  Tc8  1  0.000000  0.638548  0.320476  1
  Tc  Tc9  1  0.000000  0.361115  0.680474  1
  Tc  Tc10  1  0.000000  0.138312  0.178900  1
  B  B11  1  0.500000  0.552564  0.434744  1
  B  B12  1  0.500000  0.447008  0.565234  1
  B  B13  1  0.500000  0.052711  0.064626  1
  B  B14  1  0.500000  0.946312  0.934683  1
  B  B15  1  0.500000  0.752595  0.421502  1
  B  B16  1  0.500000  0.247149  0.578683  1
  B  B17  1  0.500000  0.253341  0.078490  1
  B  B18  1  0.500000  0.748050  0.921011  1
  B  B19  1  0.500000  0.794631  0.264203  1
  B  B20  1  0.500000  0.205043  0.736697  1
  B  B21  1  0.500000  0.294549  0.235939  1
  B  B22  1  0.500000  0.706328  0.764013  1
  B  B23  1  0.500000  0.629964  0.182272  1
  B  B24  1  0.500000  0.370385  0.818164  1
  B  B25  1  0.500000  0.129520  0.317531  1
  B  B26  1  0.500000  0.869915  0.682554  1
  B  B27  1  0.500000  0.978678  0.212427  1
  B  B28  1  0.500000  0.020187  0.787916  1
  B  B29  1  0.500000  0.478736  0.287364  1
  B  B30  1  0.500000  0.521500  0.712379  1
  B  B31  1  0.500000  0.599584  0.027165  1
  B  B32  1  0.500000  0.402123  0.972702  1
  B  B33  1  0.500000  0.098599  0.472905  1
  B  B34  1  0.500000  0.900822  0.527789  1
  Ru  Ru35  1  0.000000  0.861189  0.820180  1
