# generated using pymatgen
data_Lu12CoTc2Rh
_symmetry_space_group_name_H-M   'P 1'
_cell_length_a   6.15380011
_cell_length_b   7.16268081
_cell_length_c   8.92389600
_cell_angle_alpha   90.00000000
_cell_angle_beta   90.00000000
_cell_angle_gamma   90.29757649
_symmetry_Int_Tables_number   1
_chemical_formula_structural   Lu12CoTc2Rh
_chemical_formula_sum   'Lu12 Co1 Tc2 Rh1'
_cell_volume   393.33955909
_cell_formula_units_Z   1
loop_
 _symmetry_equiv_pos_site_id
 _symmetry_equiv_pos_as_xyz
  1  'x, y, z'
loop_
 _atom_site_type_symbol
 _atom_site_label
 _atom_site_symmetry_multiplicity
 _atom_site_fract_x
 _atom_site_fract_y
 _atom_site_fract_z
 _atom_site_occupancy
  Lu  Lu0  1  0.330966  0.677663  0.061947  1
  Lu  Lu1  1  0.165681  0.178183  0.440983  1
  Lu  Lu2  1  0.666239  0.326762  0.563967  1
  Lu  Lu3  1  0.826005  0.818425  0.934272  1
  Lu  Lu4  1  0.666239  0.326762  0.936033  1
  Lu  Lu5  1  0.826005  0.818425  0.565728  1
  Lu  Lu6  1  0.330966  0.677663  0.438053  1
  Lu  Lu7  1  0.165681  0.178183  0.059017  1
  Lu  Lu8  1  0.874350  0.538497  0.250000  1
  Lu  Lu9  1  0.628828  0.041601  0.250000  1
  Lu  Lu10  1  0.139963  0.461261  0.750000  1
  Lu  Lu11  1  0.375795  0.953573  0.750000  1
  Co  Co12  1  0.536770  0.616356  0.750000  1
  Tc  Tc13  1  0.461868  0.389638  0.250000  1
  Tc  Tc14  1  0.965618  0.109994  0.750000  1
  Rh  Rh15  1  0.039023  0.887015  0.250000  1
