# generated using pymatgen
data_Rb3SrTi6CBr18
_symmetry_space_group_name_H-M   'P 1'
_cell_length_a   10.27489252
_cell_length_b   10.40553587
_cell_length_c   10.56842211
_cell_angle_alpha   118.24442762
_cell_angle_beta   100.58901181
_cell_angle_gamma   103.98286056
_symmetry_Int_Tables_number   1
_chemical_formula_structural   Rb3SrTi6CBr18
_chemical_formula_sum   'Rb3 Sr1 Ti6 C1 Br18'
_cell_volume   905.26368430
_cell_formula_units_Z   1
loop_
 _symmetry_equiv_pos_site_id
 _symmetry_equiv_pos_as_xyz
  1  'x, y, z'
loop_
 _atom_site_type_symbol
 _atom_site_label
 _atom_site_symmetry_multiplicity
 _atom_site_fract_x
 _atom_site_fract_y
 _atom_site_fract_z
 _atom_site_occupancy
  Rb  Rb0  1  0.838267  0.962534  0.770340  1
  Rb  Rb1  1  0.159689  0.036867  0.231039  1
  Rb  Rb2  1  0.798852  0.266514  0.432191  1
  Sr  Sr3  1  0.181114  0.729131  0.568275  1
  Ti  Ti4  1  0.362367  0.454452  0.793601  1
  Ti  Ti5  1  0.376079  0.610819  0.123296  1
  Ti  Ti6  1  0.633925  0.722017  0.043096  1
  Ti  Ti7  1  0.639162  0.548154  0.205251  1
  Ti  Ti8  1  0.367269  0.278823  0.953988  1
  Ti  Ti9  1  0.625931  0.383995  0.874863  1
  C  C10  1  0.501537  0.499893  0.998371  1
  Br  Br11  1  0.808152  0.422824  0.101224  1
  Br  Br12  1  0.521426  0.690868  0.393291  1
  Br  Br13  1  0.185919  0.971872  0.883135  1
  Br  Br14  1  0.189850  0.575862  0.901853  1
  Br  Br15  1  0.818866  0.819643  0.298364  1
  Br  Br16  1  0.506324  0.298695  0.196802  1
  Br  Br17  1  0.788014  0.239180  0.724190  1
  Br  Br18  1  0.178705  0.182322  0.696785  1
  Br  Br19  1  0.504165  0.892091  0.193109  1
  Br  Br20  1  0.803717  0.625111  0.906696  1
  Br  Br21  1  0.209301  0.761645  0.304841  1
  Br  Br22  1  0.170691  0.409768  0.510426  1
  Br  Br23  1  0.494459  0.703676  0.802406  1
  Br  Br24  1  0.814209  0.009176  0.099620  1
  Br  Br25  1  0.479859  0.307755  0.606012  1
  Br  Br26  1  0.195216  0.368470  0.089245  1
  Br  Br27  1  0.858062  0.627430  0.494682  1
  Br  Br28  1  0.488872  0.100415  0.803009  1
