# generated using pymatgen
data_PrY2Ho3Ta2O14
_symmetry_space_group_name_H-M   'P 1'
_cell_length_a   6.49647869
_cell_length_b   6.50757196
_cell_length_c   7.53988410
_cell_angle_alpha   89.88429391
_cell_angle_beta   90.13704244
_cell_angle_gamma   108.80175742
_symmetry_Int_Tables_number   1
_chemical_formula_structural   PrY2Ho3Ta2O14
_chemical_formula_sum   'Pr1 Y2 Ho3 Ta2 O14'
_cell_volume   301.74814740
_cell_formula_units_Z   1
loop_
 _symmetry_equiv_pos_site_id
 _symmetry_equiv_pos_as_xyz
  1  'x, y, z'
loop_
 _atom_site_type_symbol
 _atom_site_label
 _atom_site_symmetry_multiplicity
 _atom_site_fract_x
 _atom_site_fract_y
 _atom_site_fract_z
 _atom_site_occupancy
  Pr  Pr0  1  0.514158  0.514660  0.500378  1
  Y  Y1  1  0.462620  0.462446  0.999615  1
  Y  Y2  1  0.999281  0.534429  0.240429  1
  Ho  Ho3  1  0.998563  0.465997  0.746195  1
  Ho  Ho4  1  0.534481  0.000021  0.759730  1
  Ho  Ho5  1  0.466165  0.998422  0.253709  1
  Ta  Ta6  1  0.001556  0.001512  0.500410  1
  Ta  Ta7  1  0.997190  0.997099  0.999524  1
  O  O8  1  0.932541  0.066637  0.749567  1
  O  O9  1  0.067102  0.934540  0.250445  1
  O  O10  1  0.358957  0.643267  0.239728  1
  O  O11  1  0.642776  0.356900  0.760096  1
  O  O12  1  0.365864  0.633532  0.759834  1
  O  O13  1  0.631415  0.364779  0.240301  1
  O  O14  1  0.326543  0.078936  0.974049  1
  O  O15  1  0.675383  0.926580  0.472553  1
  O  O16  1  0.314599  0.060130  0.541542  1
  O  O17  1  0.692001  0.951481  0.042462  1
  O  O18  1  0.061910  0.314533  0.460443  1
  O  O19  1  0.950471  0.692261  0.956637  1
  O  O20  1  0.925934  0.675629  0.528168  1
  O  O21  1  0.080491  0.326207  0.024185  1
