# generated using pymatgen
data_Y7Ho2ScCd3Ru
_symmetry_space_group_name_H-M   'P 1'
_cell_length_a   9.55006808
_cell_length_b   9.55006787
_cell_length_c   9.78380441
_cell_angle_alpha   90.05327713
_cell_angle_beta   89.94672452
_cell_angle_gamma   119.98821146
_symmetry_Int_Tables_number   1
_chemical_formula_structural   Y7Ho2ScCd3Ru
_chemical_formula_sum   'Y14 Ho4 Sc2 Cd6 Ru2'
_cell_volume   772.86323125
_cell_formula_units_Z   2
loop_
 _symmetry_equiv_pos_site_id
 _symmetry_equiv_pos_as_xyz
  1  'x, y, z'
loop_
 _atom_site_type_symbol
 _atom_site_label
 _atom_site_symmetry_multiplicity
 _atom_site_fract_x
 _atom_site_fract_y
 _atom_site_fract_z
 _atom_site_occupancy
  Y  Y0  1  0.792063  0.583821  0.558796  1
  Y  Y1  1  0.416179  0.207937  0.558796  1
  Y  Y2  1  0.791889  0.208111  0.940710  1
  Y  Y3  1  0.791848  0.583722  0.940922  1
  Y  Y4  1  0.416278  0.208152  0.940922  1
  Y  Y5  1  0.208152  0.791848  0.059284  1
  Y  Y6  1  0.208098  0.416279  0.059261  1
  Y  Y7  1  0.583721  0.791902  0.059261  1
  Y  Y8  1  0.540723  0.459277  0.250425  1
  Y  Y9  1  0.540968  0.081649  0.250725  1
  Y  Y10  1  0.918351  0.459032  0.250725  1
  Y  Y11  1  0.458814  0.541186  0.749411  1
  Y  Y12  1  0.459182  0.918018  0.749189  1
  Y  Y13  1  0.081982  0.540818  0.749189  1
  Ho  Ho14  1  0.208817  0.791183  0.440480  1
  Ho  Ho15  1  0.208514  0.417574  0.440568  1
  Ho  Ho16  1  0.582426  0.791486  0.440568  1
  Ho  Ho17  1  0.791556  0.208444  0.559435  1
  Sc  Sc18  1  0.999812  0.000188  0.499721  1
  Sc  Sc19  1  0.999989  0.000011  0.000161  1
  Cd  Cd20  1  0.889219  0.110781  0.250077  1
  Cd  Cd21  1  0.889240  0.778469  0.250088  1
  Cd  Cd22  1  0.221531  0.110760  0.250088  1
  Cd  Cd23  1  0.110834  0.889166  0.749909  1
  Cd  Cd24  1  0.110790  0.221670  0.749916  1
  Cd  Cd25  1  0.778330  0.889210  0.749916  1
  Ru  Ru26  1  0.333385  0.666615  0.252403  1
  Ru  Ru27  1  0.667307  0.332693  0.749051  1
