# generated using pymatgen
data_Na3Bi2(AsO4)3
_symmetry_space_group_name_H-M   'P 1'
_cell_length_a   9.74840030
_cell_length_b   9.74840030
_cell_length_c   6.99800077
_cell_angle_alpha   72.68308015
_cell_angle_beta   72.68308015
_cell_angle_gamma   89.28425941
_symmetry_Int_Tables_number   1
_chemical_formula_structural   Na3Bi2(AsO4)3
_chemical_formula_sum   'Na6 Bi4 As6 O24'
_cell_volume   603.99087318
_cell_formula_units_Z   2
loop_
 _symmetry_equiv_pos_site_id
 _symmetry_equiv_pos_as_xyz
  1  'x, y, z'
loop_
 _atom_site_type_symbol
 _atom_site_label
 _atom_site_symmetry_multiplicity
 _atom_site_fract_x
 _atom_site_fract_y
 _atom_site_fract_z
 _atom_site_occupancy
  Na  Na0  1  0.017886  0.982114  0.250000  1
  Na  Na1  1  0.270158  0.729842  0.750000  1
  Na  Na2  1  0.729842  0.270158  0.250000  1
  Na  Na3  1  0.500000  0.500000  0.000000  1
  Na  Na4  1  0.982114  0.017886  0.750000  1
  Na  Na5  1  0.500000  0.500000  0.500000  1
  Bi  Bi6  1  0.618331  0.904656  0.171207  1
  Bi  Bi7  1  0.904656  0.618331  0.671207  1
  Bi  Bi8  1  0.095344  0.381669  0.328793  1
  Bi  Bi9  1  0.381669  0.095344  0.828793  1
  As  As10  1  0.867135  0.657097  0.140861  1
  As  As11  1  0.132865  0.342903  0.859139  1
  As  As12  1  0.253534  0.746466  0.250000  1
  As  As13  1  0.342903  0.132865  0.359139  1
  As  As14  1  0.657097  0.867135  0.640861  1
  As  As15  1  0.746466  0.253534  0.750000  1
  O  O16  1  0.410867  0.296898  0.348704  1
  O  O17  1  0.550013  0.920300  0.850440  1
  O  O18  1  0.449987  0.079700  0.149560  1
  O  O19  1  0.392221  0.739246  0.356544  1
  O  O20  1  0.589133  0.703102  0.651296  1
  O  O21  1  0.920300  0.550013  0.350440  1
  O  O22  1  0.662946  0.000896  0.409044  1
  O  O23  1  0.000896  0.662946  0.909044  1
  O  O24  1  0.760243  0.100813  0.948081  1
  O  O25  1  0.140208  0.169278  0.843779  1
  O  O26  1  0.260754  0.607779  0.143456  1
  O  O27  1  0.100813  0.760243  0.448081  1
  O  O28  1  0.859792  0.830722  0.156221  1
  O  O29  1  0.830722  0.859792  0.656221  1
  O  O30  1  0.296898  0.410867  0.848704  1
  O  O31  1  0.999104  0.337054  0.090956  1
  O  O32  1  0.337054  0.999104  0.590956  1
  O  O33  1  0.079700  0.449987  0.649560  1
  O  O34  1  0.739246  0.392221  0.856544  1
  O  O35  1  0.899187  0.239757  0.551919  1
  O  O36  1  0.239757  0.899187  0.051919  1
  O  O37  1  0.607779  0.260754  0.643456  1
  O  O38  1  0.169278  0.140208  0.343779  1
  O  O39  1  0.703102  0.589133  0.151296  1
