# generated using pymatgen
data_Ca3Y(Al3Pt4)2
_symmetry_space_group_name_H-M   'P 1'
_cell_length_a   8.12013216
_cell_length_b   8.12013235
_cell_length_c   7.63954200
_cell_angle_alpha   89.98867510
_cell_angle_beta   90.01132491
_cell_angle_gamma   140.00992366
_symmetry_Int_Tables_number   1
_chemical_formula_structural   Ca3Y(Al3Pt4)2
_chemical_formula_sum   'Ca3 Y1 Al6 Pt8'
_cell_volume   323.72135990
_cell_formula_units_Z   1
loop_
 _symmetry_equiv_pos_site_id
 _symmetry_equiv_pos_as_xyz
  1  'x, y, z'
loop_
 _atom_site_type_symbol
 _atom_site_label
 _atom_site_symmetry_multiplicity
 _atom_site_fract_x
 _atom_site_fract_y
 _atom_site_fract_z
 _atom_site_occupancy
  Ca  Ca0  1  0.893146  0.106854  0.592507  1
  Ca  Ca1  1  0.394570  0.605430  0.908174  1
  Ca  Ca2  1  0.605162  0.394838  0.092371  1
  Y  Y3  1  0.106209  0.893791  0.409537  1
  Al  Al4  1  0.001201  0.998799  0.999995  1
  Al  Al5  1  0.499673  0.500327  0.499166  1
  Al  Al6  1  0.022150  0.477823  0.248435  1
  Al  Al7  1  0.477573  0.021163  0.751538  1
  Al  Al8  1  0.978837  0.522427  0.751538  1
  Al  Al9  1  0.522177  0.977850  0.248435  1
  Pt  Pt10  1  0.187918  0.309164  0.251573  1
  Pt  Pt11  1  0.311856  0.187456  0.747733  1
  Pt  Pt12  1  0.812544  0.688144  0.747733  1
  Pt  Pt13  1  0.690836  0.812082  0.251573  1
  Pt  Pt14  1  0.183763  0.816237  0.027101  1
  Pt  Pt15  1  0.815286  0.184714  0.976488  1
  Pt  Pt16  1  0.312157  0.687843  0.522456  1
  Pt  Pt17  1  0.684941  0.315059  0.473646  1
