# generated using pymatgen
data_Ho5(In2Co)2
_symmetry_space_group_name_H-M   'P 1'
_cell_length_a   3.57656100
_cell_length_b   7.94618200
_cell_length_c   18.04702500
_cell_angle_alpha   90.00000000
_cell_angle_beta   90.00000000
_cell_angle_gamma   90.00000000
_symmetry_Int_Tables_number   1
_chemical_formula_structural   Ho5(In2Co)2
_chemical_formula_sum   'Ho10 In8 Co4'
_cell_volume   512.89653424
_cell_formula_units_Z   2
loop_
 _symmetry_equiv_pos_site_id
 _symmetry_equiv_pos_as_xyz
  1  'x, y, z'
loop_
 _atom_site_type_symbol
 _atom_site_label
 _atom_site_symmetry_multiplicity
 _atom_site_fract_x
 _atom_site_fract_y
 _atom_site_fract_z
 _atom_site_occupancy
  Ho  Ho0  1  0.000000  0.500000  0.500000  1
  Ho  Ho1  1  0.000000  0.000000  0.000000  1
  Ho  Ho2  1  0.000000  0.748218  0.277672  1
  Ho  Ho3  1  0.000000  0.251782  0.722328  1
  Ho  Ho4  1  0.000000  0.751782  0.777672  1
  Ho  Ho5  1  0.000000  0.248218  0.222328  1
  Ho  Ho6  1  0.000000  0.616379  0.090629  1
  Ho  Ho7  1  0.000000  0.383621  0.909371  1
  Ho  Ho8  1  0.000000  0.883621  0.590629  1
  Ho  Ho9  1  0.000000  0.116379  0.409371  1
  In  In10  1  0.500000  0.704776  0.930476  1
  In  In11  1  0.500000  0.295224  0.069524  1
  In  In12  1  0.500000  0.795224  0.430476  1
  In  In13  1  0.500000  0.204776  0.569524  1
  In  In14  1  0.500000  0.567802  0.651650  1
  In  In15  1  0.500000  0.432198  0.348350  1
  In  In16  1  0.500000  0.932198  0.151650  1
  In  In17  1  0.500000  0.067802  0.848350  1
  Co  Co18  1  0.500000  0.522650  0.195740  1
  Co  Co19  1  0.500000  0.477350  0.804260  1
  Co  Co20  1  0.500000  0.977350  0.695740  1
  Co  Co21  1  0.500000  0.022650  0.304260  1
