# generated using pymatgen
data_Tb3Er13(LuSn4)4
_symmetry_space_group_name_H-M   'P 1'
_cell_length_a   7.97159047
_cell_length_b   8.08854067
_cell_length_c   15.33707100
_cell_angle_alpha   90.00099170
_cell_angle_beta   90.15040573
_cell_angle_gamma   89.95347972
_symmetry_Int_Tables_number   1
_chemical_formula_structural   Tb3Er13(LuSn4)4
_chemical_formula_sum   'Tb3 Er13 Lu4 Sn16'
_cell_volume   988.90811544
_cell_formula_units_Z   1
loop_
 _symmetry_equiv_pos_site_id
 _symmetry_equiv_pos_as_xyz
  1  'x, y, z'
loop_
 _atom_site_type_symbol
 _atom_site_label
 _atom_site_symmetry_multiplicity
 _atom_site_fract_x
 _atom_site_fract_y
 _atom_site_fract_z
 _atom_site_occupancy
  Tb  Tb0  1  0.978869  0.821348  0.403816  1
  Tb  Tb1  1  0.520362  0.321643  0.595561  1
  Tb  Tb2  1  0.021352  0.178155  0.904386  1
  Er  Er3  1  0.368148  0.837302  0.876962  1
  Er  Er4  1  0.866918  0.662403  0.623352  1
  Er  Er5  1  0.632821  0.162049  0.376841  1
  Er  Er6  1  0.131729  0.338053  0.122447  1
  Er  Er7  1  0.631150  0.162299  0.122530  1
  Er  Er8  1  0.132107  0.337974  0.377163  1
  Er  Er9  1  0.368337  0.837858  0.623527  1
  Er  Er10  1  0.869725  0.661939  0.876888  1
  Er  Er11  1  0.524249  0.321707  0.902323  1
  Er  Er12  1  0.022574  0.178961  0.597303  1
  Er  Er13  1  0.477650  0.678691  0.403719  1
  Er  Er14  1  0.976551  0.820855  0.096928  1
  Er  Er15  1  0.476789  0.677970  0.096131  1
  Lu  Lu16  1  0.199409  0.504443  0.750205  1
  Lu  Lu17  1  0.698991  0.995771  0.750232  1
  Lu  Lu18  1  0.800887  0.495838  0.249602  1
  Lu  Lu19  1  0.301179  0.004280  0.249744  1
  Sn  Sn20  1  0.292700  0.035060  0.042989  1
  Sn  Sn21  1  0.793121  0.462973  0.457383  1
  Sn  Sn22  1  0.706956  0.963788  0.542303  1
  Sn  Sn23  1  0.209364  0.536435  0.958146  1
  Sn  Sn24  1  0.705734  0.960986  0.958684  1
  Sn  Sn25  1  0.204833  0.539584  0.541285  1
  Sn  Sn26  1  0.295096  0.038824  0.458219  1
  Sn  Sn27  1  0.791955  0.462979  0.042199  1
  Sn  Sn28  1  0.565673  0.617691  0.750321  1
  Sn  Sn29  1  0.065105  0.882615  0.749819  1
  Sn  Sn30  1  0.434717  0.382838  0.250030  1
  Sn  Sn31  1  0.935367  0.117728  0.249704  1
  Sn  Sn32  1  0.332692  0.150267  0.750337  1
  Sn  Sn33  1  0.832865  0.349581  0.749489  1
  Sn  Sn34  1  0.666397  0.849060  0.249799  1
  Sn  Sn35  1  0.167628  0.650053  0.249637  1
