# generated using pymatgen
data_Ac12Si3SnI12
_symmetry_space_group_name_H-M   'P 1'
_cell_length_a   11.53387004
_cell_length_b   11.53387115
_cell_length_c   11.53387130
_cell_angle_alpha   109.73271691
_cell_angle_beta   109.73271895
_cell_angle_gamma   109.73271665
_symmetry_Int_Tables_number   1
_chemical_formula_structural   Ac12Si3SnI12
_chemical_formula_sum   'Ac12 Si3 Sn1 I12'
_cell_volume   1169.57021229
_cell_formula_units_Z   1
loop_
 _symmetry_equiv_pos_site_id
 _symmetry_equiv_pos_as_xyz
  1  'x, y, z'
loop_
 _atom_site_type_symbol
 _atom_site_label
 _atom_site_symmetry_multiplicity
 _atom_site_fract_x
 _atom_site_fract_y
 _atom_site_fract_z
 _atom_site_occupancy
  Ac  Ac0  1  0.474745  0.495061  0.231261  1
  Ac  Ac1  1  0.750000  0.232162  0.267838  1
  Ac  Ac2  1  0.750000  0.016868  0.483132  1
  Ac  Ac3  1  0.231261  0.474745  0.495061  1
  Ac  Ac4  1  0.267838  0.750000  0.232162  1
  Ac  Ac5  1  0.025255  0.268739  0.004939  1
  Ac  Ac6  1  0.004939  0.025255  0.268739  1
  Ac  Ac7  1  0.483132  0.750000  0.016868  1
  Ac  Ac8  1  0.495061  0.231261  0.474745  1
  Ac  Ac9  1  0.016868  0.483132  0.750000  1
  Ac  Ac10  1  0.268739  0.004939  0.025255  1
  Ac  Ac11  1  0.232162  0.267838  0.750000  1
  Si  Si12  1  0.500289  0.999711  0.250000  1
  Si  Si13  1  0.999711  0.250000  0.500289  1
  Si  Si14  1  0.250000  0.500289  0.999711  1
  Sn  Sn15  1  0.250000  0.250000  0.250000  1
  I  I16  1  0.250000  0.758227  0.741773  1
  I  I17  1  0.514897  0.507621  0.757851  1
  I  I18  1  0.985103  0.742149  0.992379  1
  I  I19  1  0.741773  0.250000  0.758227  1
  I  I20  1  0.992379  0.985103  0.742149  1
  I  I21  1  0.250000  0.992334  0.507666  1
  I  I22  1  0.757851  0.514897  0.507621  1
  I  I23  1  0.507666  0.250000  0.992334  1
  I  I24  1  0.758227  0.741773  0.250000  1
  I  I25  1  0.742149  0.992379  0.985103  1
  I  I26  1  0.992334  0.507666  0.250000  1
  I  I27  1  0.507621  0.757851  0.514897  1
