# generated using pymatgen
data_Er3Cd(Ir2O7)2
_symmetry_space_group_name_H-M   'P 1'
_cell_length_a   7.17721450
_cell_length_b   7.26656722
_cell_length_c   7.26656800
_cell_angle_alpha   59.99999644
_cell_angle_beta   59.58730865
_cell_angle_gamma   59.58730535
_symmetry_Int_Tables_number   1
_chemical_formula_structural   Er3Cd(Ir2O7)2
_chemical_formula_sum   'Er3 Cd1 Ir4 O14'
_cell_volume   266.29446208
_cell_formula_units_Z   1
loop_
 _symmetry_equiv_pos_site_id
 _symmetry_equiv_pos_as_xyz
  1  'x, y, z'
loop_
 _atom_site_type_symbol
 _atom_site_label
 _atom_site_symmetry_multiplicity
 _atom_site_fract_x
 _atom_site_fract_y
 _atom_site_fract_z
 _atom_site_occupancy
  Er  Er0  1  0.125000  0.125000  0.625000  1
  Er  Er1  1  0.125000  0.125000  0.125000  1
  Er  Er2  1  0.125000  0.625000  0.125000  1
  Cd  Cd3  1  0.625000  0.125000  0.125000  1
  Ir  Ir4  1  0.625000  0.625000  0.625000  1
  Ir  Ir5  1  0.125000  0.625000  0.625000  1
  Ir  Ir6  1  0.625000  0.125000  0.625000  1
  Ir  Ir7  1  0.625000  0.625000  0.125000  1
  O  O8  1  0.964757  0.537442  0.537442  1
  O  O9  1  0.285243  0.289642  0.712558  1
  O  O10  1  0.964757  0.537442  0.960358  1
  O  O11  1  0.715172  0.293982  0.293982  1
  O  O12  1  0.534828  0.553136  0.956018  1
  O  O13  1  0.534828  0.956018  0.553136  1
  O  O14  1  0.534828  0.956018  0.956018  1
  O  O15  1  0.244803  0.251732  0.251732  1
  O  O16  1  0.285243  0.712558  0.712558  1
  O  O17  1  0.715172  0.293982  0.696864  1
  O  O18  1  0.005197  0.998268  0.998268  1
  O  O19  1  0.964757  0.960358  0.537442  1
  O  O20  1  0.285243  0.712558  0.289642  1
  O  O21  1  0.715172  0.696864  0.293982  1
