# generated using pymatgen
data_Tb9ScSi5Hg
_symmetry_space_group_name_H-M   'P 1'
_cell_length_a   7.48395151
_cell_length_b   7.48395215
_cell_length_c   9.02078900
_cell_angle_alpha   114.50778777
_cell_angle_beta   114.50779000
_cell_angle_gamma   90.00000509
_symmetry_Int_Tables_number   1
_chemical_formula_structural   Tb9ScSi5Hg
_chemical_formula_sum   'Tb9 Sc1 Si5 Hg1'
_cell_volume   409.17586071
_cell_formula_units_Z   1
loop_
 _symmetry_equiv_pos_site_id
 _symmetry_equiv_pos_as_xyz
  1  'x, y, z'
loop_
 _atom_site_type_symbol
 _atom_site_label
 _atom_site_symmetry_multiplicity
 _atom_site_fract_x
 _atom_site_fract_y
 _atom_site_fract_z
 _atom_site_occupancy
  Tb  Tb0  1  0.978773  0.978773  0.957545  1
  Tb  Tb1  1  0.972884  0.823996  0.279691  1
  Tb  Tb2  1  0.306807  0.455693  0.279691  1
  Tb  Tb3  1  0.823996  0.306807  0.279691  1
  Tb  Tb4  1  0.455693  0.972884  0.279691  1
  Tb  Tb5  1  0.048489  0.201221  0.721944  1
  Tb  Tb6  1  0.673456  0.520723  0.721944  1
  Tb  Tb7  1  0.201221  0.673456  0.721944  1
  Tb  Tb8  1  0.520723  0.048489  0.721944  1
  Sc  Sc9  1  0.514121  0.514121  0.028243  1
  Si  Si10  1  0.249759  0.249759  0.499517  1
  Si  Si11  1  0.622070  0.875062  0.003119  1
  Si  Si12  1  0.381049  0.128057  0.003119  1
  Si  Si13  1  0.875062  0.381049  0.003119  1
  Si  Si14  1  0.128057  0.622070  0.003119  1
  Hg  Hg15  1  0.747840  0.747840  0.495678  1
