# generated using pymatgen
data_SrY3(Ir2O7)2
_symmetry_space_group_name_H-M   'P 1'
_cell_length_a   7.29503780
_cell_length_b   7.31884382
_cell_length_c   7.29503700
_cell_angle_alpha   60.10753943
_cell_angle_beta   59.99999910
_cell_angle_gamma   60.10753973
_symmetry_Int_Tables_number   1
_chemical_formula_structural   SrY3(Ir2O7)2
_chemical_formula_sum   'Sr1 Y3 Ir4 O14'
_cell_volume   275.85861018
_cell_formula_units_Z   1
loop_
 _symmetry_equiv_pos_site_id
 _symmetry_equiv_pos_as_xyz
  1  'x, y, z'
loop_
 _atom_site_type_symbol
 _atom_site_label
 _atom_site_symmetry_multiplicity
 _atom_site_fract_x
 _atom_site_fract_y
 _atom_site_fract_z
 _atom_site_occupancy
  Sr  Sr0  1  0.125000  0.625000  0.125000  1
  Y  Y1  1  0.625000  0.125000  0.125000  1
  Y  Y2  1  0.125000  0.125000  0.625000  1
  Y  Y3  1  0.125000  0.125000  0.125000  1
  Ir  Ir4  1  0.125000  0.625000  0.625000  1
  Ir  Ir5  1  0.625000  0.125000  0.625000  1
  Ir  Ir6  1  0.625000  0.625000  0.125000  1
  Ir  Ir7  1  0.625000  0.625000  0.625000  1
  O  O8  1  0.692177  0.718609  0.294607  1
  O  O9  1  0.293237  0.290615  0.708074  1
  O  O10  1  0.708074  0.290615  0.708074  1
  O  O11  1  0.294607  0.718609  0.294607  1
  O  O12  1  0.294607  0.718609  0.692177  1
  O  O13  1  0.708074  0.290615  0.293237  1
  O  O14  1  0.557823  0.531391  0.955393  1
  O  O15  1  0.956763  0.959385  0.541926  1
  O  O16  1  0.541926  0.959385  0.541926  1
  O  O17  1  0.955393  0.531391  0.955393  1
  O  O18  1  0.955393  0.531391  0.557823  1
  O  O19  1  0.541926  0.959385  0.956763  1
  O  O20  1  0.257427  0.227720  0.257427  1
  O  O21  1  0.992573  0.022280  0.992573  1
