# generated using pymatgen
data_Yb8ErSc(AlSb3)4
_symmetry_space_group_name_H-M   'P 1'
_cell_length_a   4.38468200
_cell_length_b   7.49568202
_cell_length_c   22.66839324
_cell_angle_alpha   89.89681251
_cell_angle_beta   90.00000000
_cell_angle_gamma   90.00000000
_symmetry_Int_Tables_number   1
_chemical_formula_structural   Yb8ErSc(AlSb3)4
_chemical_formula_sum   'Yb8 Er1 Sc1 Al4 Sb12'
_cell_volume   745.02233061
_cell_formula_units_Z   1
loop_
 _symmetry_equiv_pos_site_id
 _symmetry_equiv_pos_as_xyz
  1  'x, y, z'
loop_
 _atom_site_type_symbol
 _atom_site_label
 _atom_site_symmetry_multiplicity
 _atom_site_fract_x
 _atom_site_fract_y
 _atom_site_fract_z
 _atom_site_occupancy
  Yb  Yb0  1  0.000000  0.463673  0.916099  1
  Yb  Yb1  1  0.000000  0.282077  0.748698  1
  Yb  Yb2  1  0.000000  0.784291  0.754611  1
  Yb  Yb3  1  0.000000  0.536327  0.083901  1
  Yb  Yb4  1  0.000000  0.964266  0.585672  1
  Yb  Yb5  1  0.000000  0.717923  0.251302  1
  Yb  Yb6  1  0.000000  0.035734  0.414328  1
  Yb  Yb7  1  0.000000  0.215709  0.245389  1
  Er  Er8  1  0.000000  0.500000  0.500000  1
  Sc  Sc9  1  0.000000  0.000000  0.000000  1
  Al  Al10  1  0.500000  0.828056  0.881701  1
  Al  Al11  1  0.500000  0.171944  0.118299  1
  Al  Al12  1  0.500000  0.668445  0.380057  1
  Al  Al13  1  0.500000  0.331555  0.619943  1
  Sb  Sb14  1  0.500000  0.781141  0.496007  1
  Sb  Sb15  1  0.000000  0.456129  0.363621  1
  Sb  Sb16  1  0.000000  0.958587  0.132082  1
  Sb  Sb17  1  0.500000  0.528186  0.814084  1
  Sb  Sb18  1  0.500000  0.471814  0.185916  1
  Sb  Sb19  1  0.000000  0.041413  0.867918  1
  Sb  Sb20  1  0.000000  0.543871  0.636379  1
  Sb  Sb21  1  0.500000  0.970226  0.312251  1
  Sb  Sb22  1  0.500000  0.218859  0.503993  1
  Sb  Sb23  1  0.500000  0.029774  0.687749  1
  Sb  Sb24  1  0.500000  0.269952  0.001856  1
  Sb  Sb25  1  0.500000  0.730048  0.998144  1
