# generated using pymatgen
data_Ho12Fe2Hg2Ru
_symmetry_space_group_name_H-M   'P 1'
_cell_length_a   8.28647737
_cell_length_b   8.28640528
_cell_length_c   8.28647609
_cell_angle_alpha   108.69787442
_cell_angle_beta   108.69903597
_cell_angle_gamma   111.02842651
_symmetry_Int_Tables_number   1
_chemical_formula_structural   Ho12Fe2Hg2Ru
_chemical_formula_sum   'Ho12 Fe2 Hg2 Ru1'
_cell_volume   437.76475189
_cell_formula_units_Z   1
loop_
 _symmetry_equiv_pos_site_id
 _symmetry_equiv_pos_as_xyz
  1  'x, y, z'
loop_
 _atom_site_type_symbol
 _atom_site_label
 _atom_site_symmetry_multiplicity
 _atom_site_fract_x
 _atom_site_fract_y
 _atom_site_fract_z
 _atom_site_occupancy
  Ho  Ho0  1  0.432105  0.191392  0.240710  1
  Ho  Ho1  1  0.567895  0.808608  0.759290  1
  Ho  Ho2  1  0.950683  0.191392  0.759287  1
  Ho  Ho3  1  0.191394  0.950686  0.759292  1
  Ho  Ho4  1  0.049317  0.808608  0.240713  1
  Ho  Ho5  1  0.808606  0.049314  0.240708  1
  Ho  Ho6  1  0.191395  0.432104  0.240709  1
  Ho  Ho7  1  0.808605  0.567896  0.759291  1
  Ho  Ho8  1  0.307940  0.307938  0.615874  1
  Ho  Ho9  1  0.692060  0.692062  0.384126  1
  Ho  Ho10  1  0.307936  0.692062  0.000001  1
  Ho  Ho11  1  0.692064  0.307938  0.999999  1
  Fe  Fe12  1  0.383744  0.383746  0.000002  1
  Fe  Fe13  1  0.616256  0.616254  0.999998  1
  Hg  Hg14  1  0.500000  0.000000  0.500000  1
  Hg  Hg15  1  0.000000  0.500000  0.500000  1
  Ru  Ru16  1  0.000000  0.000000  0.000000  1
