# generated using pymatgen
data_NdEu2(AgSn)4
_symmetry_space_group_name_H-M   'P 1'
_cell_length_a   4.81115079
_cell_length_b   7.49504801
_cell_length_c   9.01170307
_cell_angle_alpha   114.57289856
_cell_angle_beta   105.48221178
_cell_angle_gamma   90.00000028
_symmetry_Int_Tables_number   1
_chemical_formula_structural   NdEu2(AgSn)4
_chemical_formula_sum   'Nd1 Eu2 Ag4 Sn4'
_cell_volume   282.51210647
_cell_formula_units_Z   1
loop_
 _symmetry_equiv_pos_site_id
 _symmetry_equiv_pos_as_xyz
  1  'x, y, z'
loop_
 _atom_site_type_symbol
 _atom_site_label
 _atom_site_symmetry_multiplicity
 _atom_site_fract_x
 _atom_site_fract_y
 _atom_site_fract_z
 _atom_site_occupancy
  Nd  Nd0  1  0.000000  0.000000  0.000000  1
  Eu  Eu1  1  0.872649  0.372649  0.745297  1
  Eu  Eu2  1  0.127351  0.627351  0.254703  1
  Ag  Ag3  1  0.328139  0.022489  0.656276  1
  Ag  Ag4  1  0.671861  0.977511  0.343724  1
  Ag  Ag5  1  0.328139  0.633788  0.656276  1
  Ag  Ag6  1  0.671861  0.366212  0.343724  1
  Sn  Sn7  1  0.213999  0.213999  0.427997  1
  Sn  Sn8  1  0.786001  0.786001  0.572003  1
  Sn  Sn9  1  0.500000  0.302843  0.000000  1
  Sn  Sn10  1  0.500000  0.697157  0.000000  1
