# generated using pymatgen
data_ErLu11ZnCo4Sn
_symmetry_space_group_name_H-M   'P 1'
_cell_length_a   8.14765936
_cell_length_b   8.13656203
_cell_length_c   8.13656287
_cell_angle_alpha   111.35253412
_cell_angle_beta   110.28386903
_cell_angle_gamma   106.75962347
_symmetry_Int_Tables_number   1
_chemical_formula_structural   ErLu11ZnCo4Sn
_chemical_formula_sum   'Er1 Lu11 Zn1 Co4 Sn1'
_cell_volume   414.78107525
_cell_formula_units_Z   1
loop_
 _symmetry_equiv_pos_site_id
 _symmetry_equiv_pos_as_xyz
  1  'x, y, z'
loop_
 _atom_site_type_symbol
 _atom_site_label
 _atom_site_symmetry_multiplicity
 _atom_site_fract_x
 _atom_site_fract_y
 _atom_site_fract_z
 _atom_site_occupancy
  Er  Er0  1  0.428653  0.224371  0.204280  1
  Lu  Lu1  1  0.567893  0.774104  0.793792  1
  Lu  Lu2  1  0.020149  0.225790  0.794359  1
  Lu  Lu3  1  0.980410  0.775375  0.205035  1
  Lu  Lu4  1  0.183804  0.285592  0.470055  1
  Lu  Lu5  1  0.816332  0.715726  0.531311  1
  Lu  Lu6  1  0.183804  0.713750  0.898211  1
  Lu  Lu7  1  0.816332  0.285020  0.100607  1
  Lu  Lu8  1  0.314880  0.620080  0.303700  1
  Lu  Lu9  1  0.685706  0.381419  0.697213  1
  Lu  Lu10  1  0.314880  0.011180  0.694799  1
  Lu  Lu11  1  0.685706  0.988492  0.304288  1
  Zn  Zn12  1  0.995166  0.998039  0.997127  1
  Co  Co13  1  0.375495  0.999533  0.375962  1
  Co  Co14  1  0.628381  0.000823  0.627559  1
  Co  Co15  1  0.114441  0.614726  0.499716  1
  Co  Co16  1  0.887620  0.385830  0.501790  1
  Sn  Sn17  1  0.500347  0.500150  0.000197  1
