# generated using pymatgen
data_Pr13Nd3(YSn4)4
_symmetry_space_group_name_H-M   'P 1'
_cell_length_a   8.12404115
_cell_length_b   8.47188609
_cell_length_c   16.17079300
_cell_angle_alpha   90.03913777
_cell_angle_beta   90.01102325
_cell_angle_gamma   89.99042276
_symmetry_Int_Tables_number   1
_chemical_formula_structural   Pr13Nd3(YSn4)4
_chemical_formula_sum   'Pr13 Nd3 Y4 Sn16'
_cell_volume   1112.96991498
_cell_formula_units_Z   1
loop_
 _symmetry_equiv_pos_site_id
 _symmetry_equiv_pos_as_xyz
  1  'x, y, z'
loop_
 _atom_site_type_symbol
 _atom_site_label
 _atom_site_symmetry_multiplicity
 _atom_site_fract_x
 _atom_site_fract_y
 _atom_site_fract_z
 _atom_site_occupancy
  Pr  Pr0  1  0.844477  0.667904  0.376735  1
  Pr  Pr1  1  0.344507  0.832470  0.376394  1
  Pr  Pr2  1  0.844699  0.667727  0.123229  1
  Pr  Pr3  1  0.655288  0.167454  0.876605  1
  Pr  Pr4  1  0.155209  0.332387  0.623462  1
  Pr  Pr5  1  0.497328  0.680517  0.597290  1
  Pr  Pr6  1  0.997527  0.819244  0.902773  1
  Pr  Pr7  1  0.502419  0.319293  0.096780  1
  Pr  Pr8  1  0.002425  0.181071  0.402954  1
  Pr  Pr9  1  0.502790  0.319434  0.402933  1
  Pr  Pr10  1  0.002413  0.180521  0.096531  1
  Pr  Pr11  1  0.497496  0.680455  0.903003  1
  Pr  Pr12  1  0.997677  0.819214  0.597374  1
  Nd  Nd13  1  0.655619  0.167592  0.624478  1
  Nd  Nd14  1  0.155986  0.332120  0.876082  1
  Nd  Nd15  1  0.344197  0.832390  0.123584  1
  Y  Y16  1  0.823911  0.502860  0.749928  1
  Y  Y17  1  0.323907  0.996947  0.750303  1
  Y  Y18  1  0.176041  0.497111  0.249722  1
  Y  Y19  1  0.675854  0.003023  0.249918  1
  Sn  Sn20  1  0.685434  0.965300  0.459347  1
  Sn  Sn21  1  0.186339  0.536098  0.040925  1
  Sn  Sn22  1  0.313139  0.035905  0.958788  1
  Sn  Sn23  1  0.812873  0.463285  0.541909  1
  Sn  Sn24  1  0.316499  0.035981  0.542041  1
  Sn  Sn25  1  0.816500  0.463829  0.957967  1
  Sn  Sn26  1  0.683722  0.963898  0.041895  1
  Sn  Sn27  1  0.185938  0.535697  0.458259  1
  Sn  Sn28  1  0.459530  0.387928  0.750298  1
  Sn  Sn29  1  0.959812  0.112035  0.749956  1
  Sn  Sn30  1  0.539944  0.612233  0.249436  1
  Sn  Sn31  1  0.040558  0.888652  0.249587  1
  Sn  Sn32  1  0.692804  0.852883  0.749880  1
  Sn  Sn33  1  0.192868  0.646725  0.750300  1
  Sn  Sn34  1  0.307221  0.147093  0.249517  1
  Sn  Sn35  1  0.807050  0.352728  0.249812  1
