# generated using pymatgen
data_YHo2(Al3Os)4
_symmetry_space_group_name_H-M   'P 1'
_cell_length_a   8.82905100
_cell_length_b   8.82453355
_cell_length_c   9.56119300
_cell_angle_alpha   90.00000000
_cell_angle_beta   90.00000000
_cell_angle_gamma   120.01693185
_symmetry_Int_Tables_number   1
_chemical_formula_structural   YHo2(Al3Os)4
_chemical_formula_sum   'Y2 Ho4 Al24 Os8'
_cell_volume   645.02177723
_cell_formula_units_Z   2
loop_
 _symmetry_equiv_pos_site_id
 _symmetry_equiv_pos_as_xyz
  1  'x, y, z'
loop_
 _atom_site_type_symbol
 _atom_site_label
 _atom_site_symmetry_multiplicity
 _atom_site_fract_x
 _atom_site_fract_y
 _atom_site_fract_z
 _atom_site_occupancy
  Y  Y0  1  0.193342  0.386683  0.250000  1
  Y  Y1  1  0.806658  0.613317  0.750000  1
  Ho  Ho2  1  0.613161  0.806581  0.250000  1
  Ho  Ho3  1  0.386839  0.193419  0.750000  1
  Ho  Ho4  1  0.193420  0.806581  0.250000  1
  Ho  Ho5  1  0.806580  0.193419  0.750000  1
  Al  Al6  1  0.333371  0.666742  0.015702  1
  Al  Al7  1  0.666629  0.333258  0.984298  1
  Al  Al8  1  0.666629  0.333258  0.515702  1
  Al  Al9  1  0.333371  0.666742  0.484298  1
  Al  Al10  1  0.162661  0.325322  0.576196  1
  Al  Al11  1  0.837339  0.674678  0.423804  1
  Al  Al12  1  0.674690  0.837428  0.576112  1
  Al  Al13  1  0.837339  0.674678  0.076196  1
  Al  Al14  1  0.325310  0.162572  0.423888  1
  Al  Al15  1  0.162661  0.325322  0.923804  1
  Al  Al16  1  0.162738  0.837428  0.576112  1
  Al  Al17  1  0.325310  0.162572  0.076112  1
  Al  Al18  1  0.837262  0.162572  0.423888  1
  Al  Al19  1  0.674690  0.837428  0.923888  1
  Al  Al20  1  0.837262  0.162572  0.076112  1
  Al  Al21  1  0.162738  0.837428  0.923888  1
  Al  Al22  1  0.560130  0.120260  0.250000  1
  Al  Al23  1  0.439870  0.879740  0.750000  1
  Al  Al24  1  0.879600  0.439885  0.250000  1
  Al  Al25  1  0.120400  0.560115  0.750000  1
  Al  Al26  1  0.560284  0.439885  0.250000  1
  Al  Al27  1  0.439716  0.560115  0.750000  1
  Al  Al28  1  0.999920  0.999839  0.250000  1
  Al  Al29  1  0.000080  0.000161  0.750000  1
  Os  Os30  1  0.500000  0.000000  0.000000  1
  Os  Os31  1  0.000000  0.500000  0.000000  1
  Os  Os32  1  0.500000  0.000000  0.500000  1
  Os  Os33  1  0.500000  0.500000  0.000000  1
  Os  Os34  1  0.000000  0.500000  0.500000  1
  Os  Os35  1  0.500000  0.500000  0.500000  1
  Os  Os36  1  0.000000  0.000000  0.000000  1
  Os  Os37  1  0.000000  0.000000  0.500000  1
