# generated using pymatgen
data_Hf2Ti4Si2P
_symmetry_space_group_name_H-M   'P 1'
_cell_length_a   6.88909210
_cell_length_b   6.88705014
_cell_length_c   3.59194800
_cell_angle_alpha   90.00000000
_cell_angle_beta   90.00000000
_cell_angle_gamma   119.99018410
_symmetry_Int_Tables_number   1
_chemical_formula_structural   Hf2Ti4Si2P
_chemical_formula_sum   'Hf2 Ti4 Si2 P1'
_cell_volume   147.60424806
_cell_formula_units_Z   1
loop_
 _symmetry_equiv_pos_site_id
 _symmetry_equiv_pos_as_xyz
  1  'x, y, z'
loop_
 _atom_site_type_symbol
 _atom_site_label
 _atom_site_symmetry_multiplicity
 _atom_site_fract_x
 _atom_site_fract_y
 _atom_site_fract_z
 _atom_site_occupancy
  Hf  Hf0  1  0.597603  0.999855  0.000000  1
  Hf  Hf1  1  0.402397  0.402252  0.000000  1
  Ti  Ti2  1  0.000000  0.251199  0.500000  1
  Ti  Ti3  1  0.246771  0.996487  0.500000  1
  Ti  Ti4  1  0.753229  0.749716  0.500000  1
  Ti  Ti5  1  0.000000  0.598488  0.000000  1
  Si  Si6  1  0.672764  0.338231  0.500000  1
  Si  Si7  1  0.327236  0.665468  0.500000  1
  P  P8  1  0.000000  0.998304  0.000000  1
