# generated using pymatgen
data_Sr10VReN10
_symmetry_space_group_name_H-M   'P 1'
_cell_length_a   7.70434885
_cell_length_b   7.70434813
_cell_length_c   9.01291498
_cell_angle_alpha   76.36984683
_cell_angle_beta   76.36985274
_cell_angle_gamma   96.86043858
_symmetry_Int_Tables_number   1
_chemical_formula_structural   Sr10VReN10
_chemical_formula_sum   'Sr10 V1 Re1 N10'
_cell_volume   496.52300003
_cell_formula_units_Z   1
loop_
 _symmetry_equiv_pos_site_id
 _symmetry_equiv_pos_as_xyz
  1  'x, y, z'
loop_
 _atom_site_type_symbol
 _atom_site_label
 _atom_site_symmetry_multiplicity
 _atom_site_fract_x
 _atom_site_fract_y
 _atom_site_fract_z
 _atom_site_occupancy
  Sr  Sr0  1  0.389710  0.394018  0.386804  1
  Sr  Sr1  1  0.605982  0.610290  0.613196  1
  Sr  Sr2  1  0.664943  0.668712  0.008966  1
  Sr  Sr3  1  0.331288  0.335057  0.991034  1
  Sr  Sr4  1  0.930126  0.914819  0.199679  1
  Sr  Sr5  1  0.085181  0.069874  0.800321  1
  Sr  Sr6  1  0.548628  0.088366  0.755139  1
  Sr  Sr7  1  0.911634  0.451372  0.244861  1
  Sr  Sr8  1  0.430905  0.892272  0.246135  1
  Sr  Sr9  1  0.107728  0.569095  0.753865  1
  V  V10  1  0.243612  0.756388  0.000000  1
  Re  Re11  1  0.756033  0.243967  0.000000  1
  N  N12  1  0.658340  0.659006  0.313269  1
  N  N13  1  0.340994  0.341660  0.686731  1
  N  N14  1  0.715983  0.011416  0.981665  1
  N  N15  1  0.988584  0.284017  0.018335  1
  N  N16  1  0.282737  0.989589  0.015413  1
  N  N17  1  0.010411  0.717263  0.984587  1
  N  N18  1  0.404963  0.735335  0.822343  1
  N  N19  1  0.264665  0.595037  0.177656  1
  N  N20  1  0.592650  0.265098  0.177089  1
  N  N21  1  0.734902  0.407350  0.822910  1
