# generated using pymatgen
data_ErBeB14
_symmetry_space_group_name_H-M   'P 1'
_cell_length_a   7.18971510
_cell_length_b   7.18971423
_cell_length_c   7.18971487
_cell_angle_alpha   132.66151223
_cell_angle_beta   110.38777915
_cell_angle_gamma   88.50796618
_symmetry_Int_Tables_number   1
_chemical_formula_structural   ErBeB14
_chemical_formula_sum   'Er2 Be2 B28'
_cell_volume   243.99710802
_cell_formula_units_Z   2
loop_
 _symmetry_equiv_pos_site_id
 _symmetry_equiv_pos_as_xyz
  1  'x, y, z'
loop_
 _atom_site_type_symbol
 _atom_site_label
 _atom_site_symmetry_multiplicity
 _atom_site_fract_x
 _atom_site_fract_y
 _atom_site_fract_z
 _atom_site_occupancy
  Er  Er0  1  0.107332  0.750000  0.357332  1
  Er  Er1  1  0.892668  0.250000  0.642668  1
  Be  Be2  1  0.500000  0.500000  0.500000  1
  Be  Be3  1  0.500000  0.000000  0.000000  1
  B  B4  1  0.132036  0.166476  0.965560  1
  B  B5  1  0.867964  0.833524  0.034440  1
  B  B6  1  0.700917  0.666476  0.034440  1
  B  B7  1  0.299083  0.333524  0.965560  1
  B  B8  1  0.289928  0.655964  0.633964  1
  B  B9  1  0.710072  0.344036  0.366036  1
  B  B10  1  0.522000  0.155964  0.366036  1
  B  B11  1  0.478000  0.844036  0.633964  1
  B  B12  1  0.424352  0.592429  0.831922  1
  B  B13  1  0.575648  0.407571  0.168078  1
  B  B14  1  0.260506  0.092429  0.168078  1
  B  B15  1  0.739494  0.907571  0.831922  1
  B  B16  1  0.898666  0.896598  0.676261  1
  B  B17  1  0.101334  0.777594  0.997932  1
  B  B18  1  0.720338  0.396598  0.997932  1
  B  B19  1  0.279662  0.277594  0.676261  1
  B  B20  1  0.101334  0.103402  0.323739  1
  B  B21  1  0.898666  0.222406  0.002068  1
  B  B22  1  0.279662  0.603402  0.002068  1
  B  B23  1  0.720338  0.722406  0.323739  1
  B  B24  1  0.533108  0.328450  0.698922  1
  B  B25  1  0.466892  0.165815  0.795343  1
  B  B26  1  0.129529  0.828450  0.795343  1
  B  B27  1  0.870471  0.665815  0.698922  1
  B  B28  1  0.466892  0.671550  0.301078  1
  B  B29  1  0.533108  0.834185  0.204657  1
  B  B30  1  0.870471  0.171550  0.204657  1
  B  B31  1  0.129529  0.334185  0.301078  1
