# generated using pymatgen
data_U3TeF24
_symmetry_space_group_name_H-M   'P 1'
_cell_length_a   5.50389405
_cell_length_b   9.44246500
_cell_length_c   10.53647210
_cell_angle_alpha   90.00000000
_cell_angle_beta   89.98406986
_cell_angle_gamma   90.00000000
_symmetry_Int_Tables_number   1
_chemical_formula_structural   U3TeF24
_chemical_formula_sum   'U3 Te1 F24'
_cell_volume   547.58387898
_cell_formula_units_Z   1
loop_
 _symmetry_equiv_pos_site_id
 _symmetry_equiv_pos_as_xyz
  1  'x, y, z'
loop_
 _atom_site_type_symbol
 _atom_site_label
 _atom_site_symmetry_multiplicity
 _atom_site_fract_x
 _atom_site_fract_y
 _atom_site_fract_z
 _atom_site_occupancy
  U  U0  1  0.597314  0.750000  0.627726  1
  U  U1  1  0.097213  0.250000  0.872399  1
  U  U2  1  0.403147  0.250000  0.372200  1
  Te  Te3  1  0.902811  0.750000  0.127730  1
  F  F4  1  0.560989  0.401337  0.264548  1
  F  F5  1  0.048669  0.610539  0.227068  1
  F  F6  1  0.438839  0.901385  0.735555  1
  F  F7  1  0.938805  0.098639  0.764538  1
  F  F8  1  0.171083  0.750000  0.019718  1
  F  F9  1  0.694374  0.250000  0.489546  1
  F  F10  1  0.805611  0.250000  0.989507  1
  F  F11  1  0.305900  0.750000  0.510431  1
  F  F12  1  0.633963  0.750000  0.235588  1
  F  F13  1  0.110759  0.250000  0.255142  1
  F  F14  1  0.389402  0.250000  0.755061  1
  F  F15  1  0.889256  0.750000  0.744794  1
  F  F16  1  0.756289  0.889534  0.028613  1
  F  F17  1  0.244004  0.098455  0.479809  1
  F  F18  1  0.256075  0.401392  0.979809  1
  F  F19  1  0.755913  0.598499  0.520140  1
  F  F20  1  0.256075  0.098608  0.979809  1
  F  F21  1  0.755913  0.901501  0.520140  1
  F  F22  1  0.756289  0.610466  0.028613  1
  F  F23  1  0.244004  0.401545  0.479809  1
  F  F24  1  0.048669  0.889461  0.227068  1
  F  F25  1  0.560989  0.098663  0.264548  1
  F  F26  1  0.938805  0.401361  0.764538  1
  F  F27  1  0.438839  0.598615  0.735555  1
