# generated using pymatgen
data_Yb5CeNi18
_symmetry_space_group_name_H-M   'P 1'
_cell_length_a   4.91873300
_cell_length_b   4.91873212
_cell_length_c   16.08033400
_cell_angle_alpha   90.00000000
_cell_angle_beta   90.00000000
_cell_angle_gamma   119.99999922
_symmetry_Int_Tables_number   1
_chemical_formula_structural   Yb5CeNi18
_chemical_formula_sum   'Yb5 Ce1 Ni18'
_cell_volume   336.92413305
_cell_formula_units_Z   1
loop_
 _symmetry_equiv_pos_site_id
 _symmetry_equiv_pos_as_xyz
  1  'x, y, z'
loop_
 _atom_site_type_symbol
 _atom_site_label
 _atom_site_symmetry_multiplicity
 _atom_site_fract_x
 _atom_site_fract_y
 _atom_site_fract_z
 _atom_site_occupancy
  Yb  Yb0  1  0.333333  0.666667  0.458624  1
  Yb  Yb1  1  0.666667  0.333333  0.963200  1
  Yb  Yb2  1  0.666667  0.333333  0.536800  1
  Yb  Yb3  1  0.333333  0.666667  0.041376  1
  Yb  Yb4  1  0.333333  0.666667  0.250000  1
  Ce  Ce5  1  0.666667  0.333333  0.750000  1
  Ni  Ni6  1  0.832840  0.167160  0.372745  1
  Ni  Ni7  1  0.167093  0.832907  0.875699  1
  Ni  Ni8  1  0.832840  0.665682  0.127255  1
  Ni  Ni9  1  0.167093  0.334186  0.624301  1
  Ni  Ni10  1  0.000000  0.000000  0.498771  1
  Ni  Ni11  1  0.665814  0.832907  0.875699  1
  Ni  Ni12  1  0.832840  0.665682  0.372745  1
  Ni  Ni13  1  0.167093  0.334186  0.875699  1
  Ni  Ni14  1  0.334318  0.167160  0.127255  1
  Ni  Ni15  1  0.666667  0.333333  0.250000  1
  Ni  Ni16  1  0.832840  0.167160  0.127255  1
  Ni  Ni17  1  0.000000  0.000000  0.750000  1
  Ni  Ni18  1  0.665814  0.832907  0.624301  1
  Ni  Ni19  1  0.334318  0.167160  0.372745  1
  Ni  Ni20  1  0.000000  0.000000  0.001229  1
  Ni  Ni21  1  0.167093  0.832907  0.624301  1
  Ni  Ni22  1  0.333333  0.666667  0.750000  1
  Ni  Ni23  1  0.000000  0.000000  0.250000  1
