# generated using pymatgen
data_Dy3ErAl4Ir3Pt
_symmetry_space_group_name_H-M   'P 1'
_cell_length_a   4.29831700
_cell_length_b   6.85311237
_cell_length_c   7.89990128
_cell_angle_alpha   90.22048631
_cell_angle_beta   89.99981286
_cell_angle_gamma   89.99960205
_symmetry_Int_Tables_number   1
_chemical_formula_structural   Dy3ErAl4Ir3Pt
_chemical_formula_sum   'Dy3 Er1 Al4 Ir3 Pt1'
_cell_volume   232.70447951
_cell_formula_units_Z   1
loop_
 _symmetry_equiv_pos_site_id
 _symmetry_equiv_pos_as_xyz
  1  'x, y, z'
loop_
 _atom_site_type_symbol
 _atom_site_label
 _atom_site_symmetry_multiplicity
 _atom_site_fract_x
 _atom_site_fract_y
 _atom_site_fract_z
 _atom_site_occupancy
  Dy  Dy0  1  0.250005  0.470906  0.183476  1
  Dy  Dy1  1  0.749998  0.535913  0.818772  1
  Dy  Dy2  1  0.750002  0.028546  0.677178  1
  Er  Er3  1  0.249989  0.968790  0.320191  1
  Al  Al4  1  0.249999  0.857432  0.938944  1
  Al  Al5  1  0.750005  0.138133  0.064930  1
  Al  Al6  1  0.750003  0.640321  0.437437  1
  Al  Al7  1  0.249993  0.360654  0.559458  1
  Ir  Ir8  1  0.249996  0.733414  0.619153  1
  Ir  Ir9  1  0.749999  0.266153  0.380566  1
  Ir  Ir10  1  0.750003  0.768466  0.119545  1
  Pt  Pt11  1  0.250006  0.231272  0.880351  1
