# generated using pymatgen
data_Hf16Ta3Si16W
_symmetry_space_group_name_H-M   'P 1'
_cell_length_a   6.98167499
_cell_length_b   6.98167499
_cell_length_c   12.76852383
_cell_angle_alpha   89.93724154
_cell_angle_beta   90.06275846
_cell_angle_gamma   90.05971192
_symmetry_Int_Tables_number   1
_chemical_formula_structural   Hf16Ta3Si16W
_chemical_formula_sum   'Hf16 Ta3 Si16 W1'
_cell_volume   622.38510548
_cell_formula_units_Z   1
loop_
 _symmetry_equiv_pos_site_id
 _symmetry_equiv_pos_as_xyz
  1  'x, y, z'
loop_
 _atom_site_type_symbol
 _atom_site_label
 _atom_site_symmetry_multiplicity
 _atom_site_fract_x
 _atom_site_fract_y
 _atom_site_fract_z
 _atom_site_occupancy
  Hf  Hf0  1  0.496793  0.154753  0.531384  1
  Hf  Hf1  1  0.503390  0.845282  0.030613  1
  Hf  Hf2  1  0.654776  0.003576  0.280237  1
  Hf  Hf3  1  0.345128  0.997357  0.780966  1
  Hf  Hf4  1  0.845282  0.503390  0.969387  1
  Hf  Hf5  1  0.154753  0.496793  0.468616  1
  Hf  Hf6  1  0.003576  0.654776  0.719763  1
  Hf  Hf7  1  0.997357  0.345128  0.219034  1
  Hf  Hf8  1  0.497388  0.354000  0.124920  1
  Hf  Hf9  1  0.502090  0.645594  0.625935  1
  Hf  Hf10  1  0.854988  0.003237  0.876589  1
  Hf  Hf11  1  0.145551  0.998343  0.374901  1
  Hf  Hf12  1  0.645594  0.502090  0.374065  1
  Hf  Hf13  1  0.354000  0.497388  0.875080  1
  Hf  Hf14  1  0.003237  0.854988  0.123411  1
  Hf  Hf15  1  0.998343  0.145551  0.625099  1
  Ta  Ta16  1  0.674552  0.324716  0.750675  1
  Ta  Ta17  1  0.324716  0.674552  0.249325  1
  Ta  Ta18  1  0.825001  0.825001  0.500000  1
  Si  Si19  1  0.797590  0.146251  0.071973  1
  Si  Si20  1  0.202800  0.853998  0.571474  1
  Si  Si21  1  0.646401  0.702673  0.821575  1
  Si  Si22  1  0.354004  0.296859  0.321280  1
  Si  Si23  1  0.853998  0.202800  0.428526  1
  Si  Si24  1  0.146251  0.797590  0.928027  1
  Si  Si25  1  0.702673  0.646401  0.178425  1
  Si  Si26  1  0.296859  0.354004  0.678720  1
  Si  Si27  1  0.544220  0.195509  0.934511  1
  Si  Si28  1  0.453412  0.803742  0.434196  1
  Si  Si29  1  0.696070  0.954064  0.684552  1
  Si  Si30  1  0.302907  0.047777  0.183432  1
  Si  Si31  1  0.803742  0.453412  0.565804  1
  Si  Si32  1  0.195509  0.544220  0.065489  1
  Si  Si33  1  0.954064  0.696070  0.315448  1
  Si  Si34  1  0.047777  0.302907  0.816568  1
  W  W35  1  0.175208  0.175208  0.000000  1
