# generated using pymatgen
data_Dy5Ho(Tm2Pb3)2
_symmetry_space_group_name_H-M   'P 1'
_cell_length_a   6.56611200
_cell_length_b   9.03000594
_cell_length_c   9.03291402
_cell_angle_alpha   120.00178867
_cell_angle_beta   89.99993337
_cell_angle_gamma   90.00029186
_symmetry_Int_Tables_number   1
_chemical_formula_structural   Dy5Ho(Tm2Pb3)2
_chemical_formula_sum   'Dy5 Ho1 Tm4 Pb6'
_cell_volume   463.81736294
_cell_formula_units_Z   1
loop_
 _symmetry_equiv_pos_site_id
 _symmetry_equiv_pos_as_xyz
  1  'x, y, z'
loop_
 _atom_site_type_symbol
 _atom_site_label
 _atom_site_symmetry_multiplicity
 _atom_site_fract_x
 _atom_site_fract_y
 _atom_site_fract_z
 _atom_site_occupancy
  Dy  Dy0  1  0.750005  0.238571  0.999972  1
  Dy  Dy1  1  0.749997  0.761370  0.761395  1
  Dy  Dy2  1  0.749999  0.999947  0.238639  1
  Dy  Dy3  1  0.250000  0.761409  0.999972  1
  Dy  Dy4  1  0.250001  0.238653  0.238571  1
  Ho  Ho5  1  0.250002  0.000050  0.761360  1
  Tm  Tm6  1  0.499988  0.333328  0.666734  1
  Tm  Tm7  1  0.499989  0.666626  0.333291  1
  Tm  Tm8  1  0.000009  0.666670  0.333293  1
  Tm  Tm9  1  0.000011  0.333375  0.666736  1
  Pb  Pb10  1  0.749994  0.605234  0.999997  1
  Pb  Pb11  1  0.750004  0.394721  0.394674  1
  Pb  Pb12  1  0.750004  0.000047  0.605325  1
  Pb  Pb13  1  0.249993  0.394652  0.999933  1
  Pb  Pb14  1  0.250003  0.605394  0.605370  1
  Pb  Pb15  1  0.250003  0.999955  0.394738  1
