# generated using pymatgen
data_YEr3(MgIr)4
_symmetry_space_group_name_H-M   'P 1'
_cell_length_a   4.09504100
_cell_length_b   7.05540855
_cell_length_c   8.50800700
_cell_angle_alpha   89.88363653
_cell_angle_beta   90.00000000
_cell_angle_gamma   90.00000000
_symmetry_Int_Tables_number   1
_chemical_formula_structural   YEr3(MgIr)4
_chemical_formula_sum   'Y1 Er3 Mg4 Ir4'
_cell_volume   245.81442473
_cell_formula_units_Z   1
loop_
 _symmetry_equiv_pos_site_id
 _symmetry_equiv_pos_as_xyz
  1  'x, y, z'
loop_
 _atom_site_type_symbol
 _atom_site_label
 _atom_site_symmetry_multiplicity
 _atom_site_fract_x
 _atom_site_fract_y
 _atom_site_fract_z
 _atom_site_occupancy
  Y  Y0  1  0.250000  0.959977  0.325392  1
  Er  Er1  1  0.250000  0.458898  0.172674  1
  Er  Er2  1  0.750000  0.040633  0.674727  1
  Er  Er3  1  0.750000  0.540003  0.825944  1
  Mg  Mg4  1  0.250000  0.365556  0.559651  1
  Mg  Mg5  1  0.250000  0.864897  0.940982  1
  Mg  Mg6  1  0.750000  0.635359  0.441409  1
  Mg  Mg7  1  0.750000  0.134726  0.058979  1
  Ir  Ir8  1  0.250000  0.249628  0.869512  1
  Ir  Ir9  1  0.250000  0.749587  0.632175  1
  Ir  Ir10  1  0.750000  0.747197  0.128860  1
  Ir  Ir11  1  0.750000  0.253537  0.369694  1
