# generated using pymatgen
data_Y16Sc4Ir7Pt5
_symmetry_space_group_name_H-M   'P 1'
_cell_length_a   10.90470473
_cell_length_b   10.90470473
_cell_length_c   6.27992024
_cell_angle_alpha   90.02253982
_cell_angle_beta   90.02253982
_cell_angle_gamma   89.87470550
_symmetry_Int_Tables_number   1
_chemical_formula_structural   Y16Sc4Ir7Pt5
_chemical_formula_sum   'Y16 Sc4 Ir7 Pt5'
_cell_volume   746.75965021
_cell_formula_units_Z   1
loop_
 _symmetry_equiv_pos_site_id
 _symmetry_equiv_pos_as_xyz
  1  'x, y, z'
loop_
 _atom_site_type_symbol
 _atom_site_label
 _atom_site_symmetry_multiplicity
 _atom_site_fract_x
 _atom_site_fract_y
 _atom_site_fract_z
 _atom_site_occupancy
  Y  Y0  1  0.291637  0.087664  0.375797  1
  Y  Y1  1  0.291756  0.911957  0.875468  1
  Y  Y2  1  0.708681  0.085100  0.875611  1
  Y  Y3  1  0.708223  0.911829  0.375798  1
  Y  Y4  1  0.583843  0.786767  0.879493  1
  Y  Y5  1  0.582825  0.210670  0.375992  1
  Y  Y6  1  0.415929  0.787745  0.379086  1
  Y  Y7  1  0.413300  0.211306  0.880837  1
  Y  Y8  1  0.213233  0.416157  0.620507  1
  Y  Y9  1  0.212255  0.584071  0.120914  1
  Y  Y10  1  0.789330  0.417175  0.124008  1
  Y  Y11  1  0.788694  0.586700  0.619163  1
  Y  Y12  1  0.912336  0.708363  0.124203  1
  Y  Y13  1  0.914900  0.291319  0.624389  1
  Y  Y14  1  0.088043  0.708244  0.624532  1
  Y  Y15  1  0.088171  0.291777  0.124202  1
  Sc  Sc16  1  0.000018  0.999845  0.499774  1
  Sc  Sc17  1  0.000155  0.999982  0.000226  1
  Sc  Sc18  1  0.497876  0.501791  0.001919  1
  Sc  Sc19  1  0.498209  0.502124  0.498081  1
  Ir  Ir20  1  0.646935  0.646033  0.249826  1
  Ir  Ir21  1  0.353967  0.353065  0.250174  1
  Ir  Ir22  1  0.353104  0.646896  0.750000  1
  Ir  Ir23  1  0.500227  0.000358  0.123177  1
  Ir  Ir24  1  0.500143  0.000639  0.624463  1
  Ir  Ir25  1  0.999361  0.499857  0.875537  1
  Ir  Ir26  1  0.999642  0.499773  0.376823  1
  Pt  Pt27  1  0.853853  0.146147  0.250000  1
  Pt  Pt28  1  0.854305  0.854260  0.749930  1
  Pt  Pt29  1  0.145740  0.145695  0.750070  1
  Pt  Pt30  1  0.145712  0.854288  0.250000  1
  Pt  Pt31  1  0.647594  0.352406  0.750000  1
