# generated using pymatgen
data_Eu(IrCl4)3
_symmetry_space_group_name_H-M   'P 1'
_cell_length_a   12.21470706
_cell_length_b   11.66175368
_cell_length_c   6.20478600
_cell_angle_alpha   79.93289832
_cell_angle_beta   70.05680030
_cell_angle_gamma   32.14455532
_symmetry_Int_Tables_number   1
_chemical_formula_structural   Eu(IrCl4)3
_chemical_formula_sum   'Eu1 Ir3 Cl12'
_cell_volume   430.41667275
_cell_formula_units_Z   1
loop_
 _symmetry_equiv_pos_site_id
 _symmetry_equiv_pos_as_xyz
  1  'x, y, z'
loop_
 _atom_site_type_symbol
 _atom_site_label
 _atom_site_symmetry_multiplicity
 _atom_site_fract_x
 _atom_site_fract_y
 _atom_site_fract_z
 _atom_site_occupancy
  Eu  Eu0  1  0.416225  0.416225  0.583775  1
  Ir  Ir1  1  0.828001  0.828001  0.671999  1
  Ir  Ir2  1  0.667474  0.667474  0.832526  1
  Ir  Ir3  1  0.588531  0.588531  0.411469  1
  Cl  Cl4  1  0.739016  0.290706  0.250042  1
  Cl  Cl5  1  0.868221  0.458412  0.087356  1
  Cl  Cl6  1  0.387869  0.796781  0.156326  1
  Cl  Cl7  1  0.458412  0.868221  0.586011  1
  Cl  Cl8  1  0.115496  0.691872  0.357781  1
  Cl  Cl9  1  0.290706  0.739016  0.720237  1
  Cl  Cl10  1  0.543165  0.952286  0.968415  1
  Cl  Cl11  1  0.952286  0.543165  0.536133  1
  Cl  Cl12  1  0.045248  0.610699  0.907834  1
  Cl  Cl13  1  0.796781  0.387869  0.659025  1
  Cl  Cl14  1  0.691872  0.115496  0.834852  1
  Cl  Cl15  1  0.610699  0.045248  0.436218  1
