# generated using pymatgen
data_Hf9Zr(ZnPb3)2
_symmetry_space_group_name_H-M   'P 1'
_cell_length_a   8.77328200
_cell_length_b   8.77213793
_cell_length_c   5.89638500
_cell_angle_alpha   90.00000000
_cell_angle_beta   90.00000000
_cell_angle_gamma   120.00431438
_symmetry_Int_Tables_number   1
_chemical_formula_structural   Hf9Zr(ZnPb3)2
_chemical_formula_sum   'Hf9 Zr1 Zn2 Pb6'
_cell_volume   392.97518122
_cell_formula_units_Z   1
loop_
 _symmetry_equiv_pos_site_id
 _symmetry_equiv_pos_as_xyz
  1  'x, y, z'
loop_
 _atom_site_type_symbol
 _atom_site_label
 _atom_site_symmetry_multiplicity
 _atom_site_fract_x
 _atom_site_fract_y
 _atom_site_fract_z
 _atom_site_occupancy
  Hf  Hf0  1  0.333363  0.666516  0.999677  1
  Hf  Hf1  1  0.666848  0.333484  0.500323  1
  Hf  Hf2  1  0.666848  0.333484  0.999677  1
  Hf  Hf3  1  0.333363  0.666516  0.500323  1
  Hf  Hf4  1  0.263445  0.263709  0.750000  1
  Hf  Hf5  1  0.999736  0.736291  0.750000  1
  Hf  Hf6  1  0.000208  0.263262  0.250000  1
  Hf  Hf7  1  0.736946  0.736738  0.250000  1
  Hf  Hf8  1  0.736551  0.000000  0.750000  1
  Zr  Zr9  1  0.263505  0.000000  0.250000  1
  Zn  Zn10  1  0.999391  0.000000  0.999296  1
  Zn  Zn11  1  0.999391  0.000000  0.500704  1
  Pb  Pb12  1  0.615115  0.000000  0.250000  1
  Pb  Pb13  1  0.614376  0.614380  0.750000  1
  Pb  Pb14  1  0.999995  0.385620  0.750000  1
  Pb  Pb15  1  0.999604  0.613801  0.250000  1
  Pb  Pb16  1  0.385803  0.386199  0.250000  1
  Pb  Pb17  1  0.385511  0.000000  0.750000  1
