# generated using pymatgen
data_LuThSc14(CdNi)4
_symmetry_space_group_name_H-M   'P 1'
_cell_length_a   8.99182050
_cell_length_b   8.99182045
_cell_length_c   8.98073500
_cell_angle_alpha   60.40970367
_cell_angle_beta   60.40969416
_cell_angle_gamma   60.54450961
_symmetry_Int_Tables_number   1
_chemical_formula_structural   LuThSc14(CdNi)4
_chemical_formula_sum   'Lu1 Th1 Sc14 Cd4 Ni4'
_cell_volume   518.71803641
_cell_formula_units_Z   1
loop_
 _symmetry_equiv_pos_site_id
 _symmetry_equiv_pos_as_xyz
  1  'x, y, z'
loop_
 _atom_site_type_symbol
 _atom_site_label
 _atom_site_symmetry_multiplicity
 _atom_site_fract_x
 _atom_site_fract_y
 _atom_site_fract_z
 _atom_site_occupancy
  Lu  Lu0  1  0.939111  0.939111  0.563352  1
  Th  Th1  1  0.345147  0.345147  0.345380  1
  Sc  Sc2  1  0.351049  0.351049  0.944383  1
  Sc  Sc3  1  0.356018  0.941961  0.349699  1
  Sc  Sc4  1  0.941961  0.356018  0.349699  1
  Sc  Sc5  1  0.816487  0.187194  0.183294  1
  Sc  Sc6  1  0.191703  0.812384  0.814094  1
  Sc  Sc7  1  0.187194  0.816487  0.183294  1
  Sc  Sc8  1  0.812384  0.191703  0.814094  1
  Sc  Sc9  1  0.184476  0.184476  0.818028  1
  Sc  Sc10  1  0.814322  0.814322  0.187873  1
  Sc  Sc11  1  0.933965  0.564973  0.566589  1
  Sc  Sc12  1  0.562207  0.938109  0.939316  1
  Sc  Sc13  1  0.564973  0.933965  0.566589  1
  Sc  Sc14  1  0.938109  0.562207  0.939316  1
  Sc  Sc15  1  0.566987  0.566987  0.933782  1
  Cd  Cd16  1  0.583701  0.583701  0.583692  1
  Cd  Cd17  1  0.586655  0.586655  0.246908  1
  Cd  Cd18  1  0.582077  0.249274  0.588155  1
  Cd  Cd19  1  0.249274  0.582077  0.588155  1
  Ni  Ni20  1  0.144482  0.144482  0.147262  1
  Ni  Ni21  1  0.136269  0.136269  0.573602  1
  Ni  Ni22  1  0.136404  0.575046  0.136725  1
  Ni  Ni23  1  0.575046  0.136404  0.136725  1
