# generated using pymatgen
data_Er2TmCu3Sb4
_symmetry_space_group_name_H-M   'P 1'
_cell_length_a   8.26503376
_cell_length_b   8.26503378
_cell_length_c   8.26503339
_cell_angle_alpha   109.50450938
_cell_angle_beta   109.40467555
_cell_angle_gamma   109.50450484
_symmetry_Int_Tables_number   1
_chemical_formula_structural   Er2TmCu3Sb4
_chemical_formula_sum   'Er4 Tm2 Cu6 Sb8'
_cell_volume   434.62180164
_cell_formula_units_Z   2
loop_
 _symmetry_equiv_pos_site_id
 _symmetry_equiv_pos_as_xyz
  1  'x, y, z'
loop_
 _atom_site_type_symbol
 _atom_site_label
 _atom_site_symmetry_multiplicity
 _atom_site_fract_x
 _atom_site_fract_y
 _atom_site_fract_z
 _atom_site_occupancy
  Er  Er0  1  0.250000  0.125027  0.875027  1
  Er  Er1  1  0.750000  0.374973  0.624973  1
  Er  Er2  1  0.124973  0.874973  0.250000  1
  Er  Er3  1  0.375027  0.625027  0.750000  1
  Tm  Tm4  1  0.875000  0.250000  0.125000  1
  Tm  Tm5  1  0.625000  0.750000  0.375000  1
  Cu  Cu6  1  0.375000  0.250000  0.625000  1
  Cu  Cu7  1  0.125000  0.750000  0.875000  1
  Cu  Cu8  1  0.250000  0.624732  0.374732  1
  Cu  Cu9  1  0.750000  0.875268  0.125268  1
  Cu  Cu10  1  0.625268  0.375268  0.250000  1
  Cu  Cu11  1  0.874732  0.124732  0.750000  1
  Sb  Sb12  1  0.660540  0.500071  0.000275  1
  Sb  Sb13  1  0.500204  0.999929  0.660469  1
  Sb  Sb14  1  0.999796  0.660265  0.499725  1
  Sb  Sb15  1  0.839460  0.839735  0.839531  1
  Sb  Sb16  1  0.500275  0.000071  0.160540  1
  Sb  Sb17  1  0.160469  0.499929  0.000204  1
  Sb  Sb18  1  0.999725  0.160265  0.499796  1
  Sb  Sb19  1  0.339531  0.339735  0.339460  1
