# generated using pymatgen
data_Li2Ca3Pr(ZnSi3)2
_symmetry_space_group_name_H-M   'P 1'
_cell_length_a   9.43952270
_cell_length_b   9.43952223
_cell_length_c   6.84976462
_cell_angle_alpha   89.63964683
_cell_angle_beta   90.36035425
_cell_angle_gamma   153.41681395
_symmetry_Int_Tables_number   1
_chemical_formula_structural   Li2Ca3Pr(ZnSi3)2
_chemical_formula_sum   'Li2 Ca3 Pr1 Zn2 Si6'
_cell_volume   273.12184458
_cell_formula_units_Z   1
loop_
 _symmetry_equiv_pos_site_id
 _symmetry_equiv_pos_as_xyz
  1  'x, y, z'
loop_
 _atom_site_type_symbol
 _atom_site_label
 _atom_site_symmetry_multiplicity
 _atom_site_fract_x
 _atom_site_fract_y
 _atom_site_fract_z
 _atom_site_occupancy
  Li  Li0  1  0.812284  0.187716  0.940078  1
  Li  Li1  1  0.187483  0.812517  0.439355  1
  Ca  Ca2  1  0.553998  0.446002  0.254960  1
  Ca  Ca3  1  0.655916  0.344084  0.742635  1
  Ca  Ca4  1  0.343650  0.656350  0.243196  1
  Pr  Pr5  1  0.446226  0.553774  0.754702  1
  Zn  Zn6  1  0.192335  0.807665  0.054111  1
  Zn  Zn7  1  0.807859  0.192141  0.554041  1
  Si  Si8  1  0.277938  0.722062  0.748942  1
  Si  Si9  1  0.722674  0.277326  0.248789  1
  Si  Si10  1  0.940288  0.059712  0.428453  1
  Si  Si11  1  0.055544  0.944456  0.582062  1
  Si  Si12  1  0.944426  0.055574  0.080585  1
  Si  Si13  1  0.059382  0.940618  0.928095  1
