# generated using pymatgen
data_Y7Th(CoHg)2
_symmetry_space_group_name_H-M   'P 1'
_cell_length_a   9.53738264
_cell_length_b   9.53738436
_cell_length_c   9.55502200
_cell_angle_alpha   59.93880624
_cell_angle_beta   59.93880026
_cell_angle_gamma   60.02352567
_symmetry_Int_Tables_number   1
_chemical_formula_structural   Y7Th(CoHg)2
_chemical_formula_sum   'Y14 Th2 Co4 Hg4'
_cell_volume   614.11522050
_cell_formula_units_Z   2
loop_
 _symmetry_equiv_pos_site_id
 _symmetry_equiv_pos_as_xyz
  1  'x, y, z'
loop_
 _atom_site_type_symbol
 _atom_site_label
 _atom_site_symmetry_multiplicity
 _atom_site_fract_x
 _atom_site_fract_y
 _atom_site_fract_z
 _atom_site_occupancy
  Y  Y0  1  0.600943  0.198304  0.600376  1
  Y  Y1  1  0.198304  0.600943  0.600376  1
  Y  Y2  1  0.061999  0.439402  0.438298  1
  Y  Y3  1  0.439402  0.061999  0.060300  1
  Y  Y4  1  0.439402  0.061999  0.438298  1
  Y  Y5  1  0.061999  0.439402  0.060300  1
  Y  Y6  1  0.437695  0.437695  0.062305  1
  Y  Y7  1  0.062731  0.062731  0.437269  1
  Y  Y8  1  0.188403  0.812657  0.813207  1
  Y  Y9  1  0.812657  0.188403  0.185733  1
  Y  Y10  1  0.812657  0.188403  0.813207  1
  Y  Y11  1  0.188403  0.812657  0.185733  1
  Y  Y12  1  0.812283  0.812283  0.187717  1
  Y  Y13  1  0.189030  0.189030  0.810970  1
  Th  Th14  1  0.591663  0.591663  0.597748  1
  Th  Th15  1  0.591663  0.591663  0.218926  1
  Co  Co16  1  0.395453  0.395453  0.388379  1
  Co  Co17  1  0.395453  0.395453  0.820717  1
  Co  Co18  1  0.400636  0.818471  0.390447  1
  Co  Co19  1  0.818471  0.400636  0.390447  1
  Hg  Hg20  1  0.834801  0.834801  0.832315  1
  Hg  Hg21  1  0.834801  0.834801  0.498082  1
  Hg  Hg22  1  0.835755  0.495392  0.834426  1
  Hg  Hg23  1  0.495392  0.835755  0.834426  1
