# generated using pymatgen
data_Tb2Y5Ho13Pt16
_symmetry_space_group_name_H-M   'P 1'
_cell_length_a   7.47565114
_cell_length_b   7.55608801
_cell_length_c   14.75112401
_cell_angle_alpha   90.00336724
_cell_angle_beta   90.00784209
_cell_angle_gamma   90.00770639
_symmetry_Int_Tables_number   1
_chemical_formula_structural   Tb2Y5Ho13Pt16
_chemical_formula_sum   'Tb2 Y5 Ho13 Pt16'
_cell_volume   833.24197475
_cell_formula_units_Z   1
loop_
 _symmetry_equiv_pos_site_id
 _symmetry_equiv_pos_as_xyz
  1  'x, y, z'
loop_
 _atom_site_type_symbol
 _atom_site_label
 _atom_site_symmetry_multiplicity
 _atom_site_fract_x
 _atom_site_fract_y
 _atom_site_fract_z
 _atom_site_occupancy
  Tb  Tb0  1  0.498009  0.679944  0.093041  1
  Tb  Tb1  1  0.502081  0.320017  0.593026  1
  Y  Y2  1  0.001899  0.179852  0.907030  1
  Y  Y3  1  0.001715  0.179545  0.592952  1
  Y  Y4  1  0.501930  0.320051  0.907018  1
  Y  Y5  1  0.498073  0.680007  0.406991  1
  Y  Y6  1  0.998163  0.820163  0.092938  1
  Ho  Ho7  1  0.681405  0.988498  0.250134  1
  Ho  Ho8  1  0.181122  0.511588  0.250122  1
  Ho  Ho9  1  0.818904  0.488504  0.749988  1
  Ho  Ho10  1  0.318674  0.011481  0.750055  1
  Ho  Ho11  1  0.656475  0.832454  0.622262  1
  Ho  Ho12  1  0.156178  0.667742  0.877744  1
  Ho  Ho13  1  0.843769  0.332280  0.377742  1
  Ho  Ho14  1  0.343531  0.167615  0.122285  1
  Ho  Ho15  1  0.343302  0.167387  0.377702  1
  Ho  Ho16  1  0.843780  0.332185  0.122313  1
  Ho  Ho17  1  0.156027  0.667923  0.622175  1
  Ho  Ho18  1  0.656594  0.832492  0.877693  1
  Ho  Ho19  1  0.997420  0.819712  0.406829  1
  Pt  Pt20  1  0.816572  0.642505  0.250583  1
  Pt  Pt21  1  0.315776  0.857923  0.250084  1
  Pt  Pt22  1  0.683926  0.142033  0.749863  1
  Pt  Pt23  1  0.184119  0.358067  0.749987  1
  Pt  Pt24  1  0.546638  0.386368  0.249988  1
  Pt  Pt25  1  0.046431  0.113458  0.250280  1
  Pt  Pt26  1  0.953448  0.886133  0.749983  1
  Pt  Pt27  1  0.453394  0.613659  0.749927  1
  Pt  Pt28  1  0.817229  0.533458  0.541868  1
  Pt  Pt29  1  0.317234  0.966825  0.957967  1
  Pt  Pt30  1  0.683943  0.032351  0.457738  1
  Pt  Pt31  1  0.182957  0.467048  0.042138  1
  Pt  Pt32  1  0.182523  0.467837  0.457676  1
  Pt  Pt33  1  0.682676  0.033074  0.042087  1
  Pt  Pt34  1  0.316978  0.966769  0.541894  1
  Pt  Pt35  1  0.817105  0.533055  0.957892  1
