# generated using pymatgen
data_TbDy6YC10
_symmetry_space_group_name_H-M   'P 1'
_cell_length_a   3.68003500
_cell_length_b   6.59559480
_cell_length_c   11.95332444
_cell_angle_alpha   91.11239554
_cell_angle_beta   90.00000000
_cell_angle_gamma   90.00000000
_symmetry_Int_Tables_number   1
_chemical_formula_structural   TbDy6YC10
_chemical_formula_sum   'Tb1 Dy6 Y1 C10'
_cell_volume   290.07664697
_cell_formula_units_Z   1
loop_
 _symmetry_equiv_pos_site_id
 _symmetry_equiv_pos_as_xyz
  1  'x, y, z'
loop_
 _atom_site_type_symbol
 _atom_site_label
 _atom_site_symmetry_multiplicity
 _atom_site_fract_x
 _atom_site_fract_y
 _atom_site_fract_z
 _atom_site_occupancy
  Tb  Tb0  1  0.500000  0.395937  0.302652  1
  Dy  Dy1  1  0.000000  0.255522  0.542349  1
  Dy  Dy2  1  0.000000  0.744553  0.458125  1
  Dy  Dy3  1  0.000000  0.756370  0.956527  1
  Dy  Dy4  1  0.500000  0.109242  0.803934  1
  Dy  Dy5  1  0.500000  0.890501  0.195612  1
  Dy  Dy6  1  0.500000  0.604001  0.697343  1
  Y  Y7  1  0.000000  0.244741  0.043275  1
  C  C8  1  0.500000  0.500213  0.500625  1
  C  C9  1  0.500000  0.998848  0.999541  1
  C  C10  1  0.000000  0.363378  0.735426  1
  C  C11  1  0.000000  0.638101  0.264698  1
  C  C12  1  0.000000  0.856817  0.761486  1
  C  C13  1  0.000000  0.142226  0.238411  1
  C  C14  1  0.000000  0.389470  0.846637  1
  C  C15  1  0.000000  0.611274  0.153504  1
  C  C16  1  0.000000  0.077288  0.342836  1
  C  C17  1  0.000000  0.921518  0.657021  1
