# generated using pymatgen
data_MnZnTeO6
_symmetry_space_group_name_H-M   'P 1'
_cell_length_a   5.05937833
_cell_length_b   5.05933240
_cell_length_c   4.57701342
_cell_angle_alpha   90.41900207
_cell_angle_beta   90.41993054
_cell_angle_gamma   120.11869936
_symmetry_Int_Tables_number   1
_chemical_formula_structural   MnZnTeO6
_chemical_formula_sum   'Mn1 Zn1 Te1 O6'
_cell_volume   101.32946741
_cell_formula_units_Z   1
loop_
 _symmetry_equiv_pos_site_id
 _symmetry_equiv_pos_as_xyz
  1  'x, y, z'
loop_
 _atom_site_type_symbol
 _atom_site_label
 _atom_site_symmetry_multiplicity
 _atom_site_fract_x
 _atom_site_fract_y
 _atom_site_fract_z
 _atom_site_occupancy
  Mn  Mn0  1  0.851264  0.148666  0.000002  1
  Zn  Zn1  1  0.517826  0.482181  0.500009  1
  Te  Te2  1  0.184434  0.815576  0.000010  1
  O  O3  1  0.162129  0.130023  0.231421  1
  O  O4  1  0.523569  0.844287  0.231631  1
  O  O5  1  0.876066  0.481671  0.231458  1
  O  O6  1  0.518335  0.123947  0.768543  1
  O  O7  1  0.155720  0.476450  0.768376  1
  O  O8  1  0.869988  0.837886  0.768584  1
