# generated using pymatgen
data_Tm3Co6B2Ru
_symmetry_space_group_name_H-M   'P 1'
_cell_length_a   5.02166200
_cell_length_b   5.02166175
_cell_length_c   14.31265300
_cell_angle_alpha   90.00000000
_cell_angle_beta   90.00000000
_cell_angle_gamma   120.00001479
_symmetry_Int_Tables_number   1
_chemical_formula_structural   Tm3Co6B2Ru
_chemical_formula_sum   'Tm6 Co12 B4 Ru2'
_cell_volume   312.56881289
_cell_formula_units_Z   2
loop_
 _symmetry_equiv_pos_site_id
 _symmetry_equiv_pos_as_xyz
  1  'x, y, z'
loop_
 _atom_site_type_symbol
 _atom_site_label
 _atom_site_symmetry_multiplicity
 _atom_site_fract_x
 _atom_site_fract_y
 _atom_site_fract_z
 _atom_site_occupancy
  Tm  Tm0  1  0.333333  0.666667  0.536533  1
  Tm  Tm1  1  0.666667  0.333333  0.036533  1
  Tm  Tm2  1  0.666667  0.333333  0.463467  1
  Tm  Tm3  1  0.333333  0.666667  0.963467  1
  Tm  Tm4  1  0.333333  0.666667  0.750000  1
  Tm  Tm5  1  0.666667  0.333333  0.250000  1
  Co  Co6  1  0.165959  0.331918  0.148654  1
  Co  Co7  1  0.834041  0.668082  0.648654  1
  Co  Co8  1  0.668082  0.834041  0.148654  1
  Co  Co9  1  0.165959  0.834041  0.148654  1
  Co  Co10  1  0.834041  0.165959  0.648654  1
  Co  Co11  1  0.331918  0.165959  0.648654  1
  Co  Co12  1  0.834041  0.668082  0.851346  1
  Co  Co13  1  0.834041  0.165959  0.851346  1
  Co  Co14  1  0.331918  0.165959  0.851346  1
  Co  Co15  1  0.668082  0.834041  0.351346  1
  Co  Co16  1  0.165959  0.834041  0.351346  1
  Co  Co17  1  0.165959  0.331918  0.351346  1
  B  B18  1  0.333333  0.666667  0.250000  1
  B  B19  1  0.666667  0.333333  0.750000  1
  B  B20  1  0.000000  0.000000  0.250000  1
  B  B21  1  0.000000  0.000000  0.750000  1
  Ru  Ru22  1  0.000000  0.000000  0.000000  1
  Ru  Ru23  1  0.000000  0.000000  0.500000  1
