# generated using pymatgen
data_Sc6Al24Fe3Rh5
_symmetry_space_group_name_H-M   'P 1'
_cell_length_a   8.60333800
_cell_length_b   8.60851509
_cell_length_c   9.28718853
_cell_angle_alpha   90.07366470
_cell_angle_beta   90.00000000
_cell_angle_gamma   119.98011581
_symmetry_Int_Tables_number   1
_chemical_formula_structural   Sc6Al24Fe3Rh5
_chemical_formula_sum   'Sc6 Al24 Fe3 Rh5'
_cell_volume   595.79469049
_cell_formula_units_Z   1
loop_
 _symmetry_equiv_pos_site_id
 _symmetry_equiv_pos_as_xyz
  1  'x, y, z'
loop_
 _atom_site_type_symbol
 _atom_site_label
 _atom_site_symmetry_multiplicity
 _atom_site_fract_x
 _atom_site_fract_y
 _atom_site_fract_z
 _atom_site_occupancy
  Sc  Sc0  1  0.804628  0.192202  0.748374  1
  Sc  Sc1  1  0.195372  0.807798  0.251626  1
  Sc  Sc2  1  0.387575  0.192202  0.748374  1
  Sc  Sc3  1  0.612425  0.807798  0.251626  1
  Sc  Sc4  1  0.806510  0.613019  0.747618  1
  Sc  Sc5  1  0.193490  0.386981  0.252382  1
  Al  Al6  1  0.666840  0.333680  0.963999  1
  Al  Al7  1  0.333160  0.666320  0.036001  1
  Al  Al8  1  0.337852  0.675705  0.466346  1
  Al  Al9  1  0.662148  0.324295  0.533654  1
  Al  Al10  1  0.834697  0.156333  0.423784  1
  Al  Al11  1  0.165303  0.843667  0.576216  1
  Al  Al12  1  0.321637  0.156333  0.423784  1
  Al  Al13  1  0.159962  0.840277  0.921783  1
  Al  Al14  1  0.678363  0.843667  0.576216  1
  Al  Al15  1  0.840038  0.159723  0.078217  1
  Al  Al16  1  0.840208  0.680416  0.422700  1
  Al  Al17  1  0.680314  0.840277  0.921783  1
  Al  Al18  1  0.159792  0.319584  0.577300  1
  Al  Al19  1  0.319686  0.159723  0.078217  1
  Al  Al20  1  0.159434  0.318870  0.921954  1
  Al  Al21  1  0.840566  0.681130  0.078046  1
  Al  Al22  1  0.439761  0.560745  0.749993  1
  Al  Al23  1  0.560239  0.439255  0.250007  1
  Al  Al24  1  0.120984  0.560745  0.749993  1
  Al  Al25  1  0.879016  0.439255  0.250007  1
  Al  Al26  1  0.441916  0.883832  0.743946  1
  Al  Al27  1  0.558084  0.116168  0.256054  1
  Al  Al28  1  0.999844  0.999687  0.749839  1
  Al  Al29  1  0.000156  0.000313  0.250161  1
  Fe  Fe30  1  0.500000  0.000000  0.500000  1
  Fe  Fe31  1  0.000000  0.000000  0.000000  1
  Fe  Fe32  1  0.000000  0.000000  0.500000  1
  Rh  Rh33  1  0.500000  0.500000  0.000000  1
  Rh  Rh34  1  0.000000  0.500000  0.000000  1
  Rh  Rh35  1  0.500000  0.500000  0.500000  1
  Rh  Rh36  1  0.500000  0.000000  0.000000  1
  Rh  Rh37  1  0.000000  0.500000  0.500000  1
