# generated using pymatgen
data_K4Cd(AsO4)2
_symmetry_space_group_name_H-M   'P 1'
_cell_length_a   5.50909756
_cell_length_b   6.18252159
_cell_length_c   8.13728427
_cell_angle_alpha   103.17947888
_cell_angle_beta   91.29227930
_cell_angle_gamma   100.07589074
_symmetry_Int_Tables_number   1
_chemical_formula_structural   K4Cd(AsO4)2
_chemical_formula_sum   'K4 Cd1 As2 O8'
_cell_volume   265.13043733
_cell_formula_units_Z   1
loop_
 _symmetry_equiv_pos_site_id
 _symmetry_equiv_pos_as_xyz
  1  'x, y, z'
loop_
 _atom_site_type_symbol
 _atom_site_label
 _atom_site_symmetry_multiplicity
 _atom_site_fract_x
 _atom_site_fract_y
 _atom_site_fract_z
 _atom_site_occupancy
  K  K0  1  0.286509  0.596128  0.172538  1
  K  K1  1  0.806138  0.731724  0.475391  1
  K  K2  1  0.193864  0.268277  0.524609  1
  K  K3  1  0.713493  0.403872  0.827462  1
  Cd  Cd4  1  0.000000  0.000000  0.000000  1
  As  As5  1  0.643941  0.159679  0.255269  1
  As  As6  1  0.356058  0.840319  0.744731  1
  O  O7  1  0.822931  0.322372  0.137179  1
  O  O8  1  0.737789  0.898338  0.201850  1
  O  O9  1  0.331880  0.138820  0.209517  1
  O  O10  1  0.295904  0.721631  0.531655  1
  O  O11  1  0.704096  0.278370  0.468345  1
  O  O12  1  0.668121  0.861179  0.790483  1
  O  O13  1  0.262210  0.101661  0.798150  1
  O  O14  1  0.177068  0.677627  0.862821  1
