# generated using pymatgen
data_Cs3Sr(B2Pt3)6
_symmetry_space_group_name_H-M   'P 1'
_cell_length_a   8.22837203
_cell_length_b   8.22837246
_cell_length_c   8.22837300
_cell_angle_alpha   82.64570273
_cell_angle_beta   82.64570235
_cell_angle_gamma   82.64570951
_symmetry_Int_Tables_number   1
_chemical_formula_structural   Cs3Sr(B2Pt3)6
_chemical_formula_sum   'Cs3 Sr1 B12 Pt18'
_cell_volume   544.44304130
_cell_formula_units_Z   1
loop_
 _symmetry_equiv_pos_site_id
 _symmetry_equiv_pos_as_xyz
  1  'x, y, z'
loop_
 _atom_site_type_symbol
 _atom_site_label
 _atom_site_symmetry_multiplicity
 _atom_site_fract_x
 _atom_site_fract_y
 _atom_site_fract_z
 _atom_site_occupancy
  Cs  Cs0  1  0.901296  0.901296  0.901296  1
  Cs  Cs1  1  0.374972  0.374972  0.374972  1
  Cs  Cs2  1  0.136872  0.136872  0.136872  1
  Sr  Sr3  1  0.648372  0.648372  0.648372  1
  B  B4  1  0.535097  0.180888  0.849678  1
  B  B5  1  0.849678  0.535097  0.180888  1
  B  B6  1  0.180888  0.849678  0.535097  1
  B  B7  1  0.963601  0.652233  0.303000  1
  B  B8  1  0.456810  0.809919  0.161053  1
  B  B9  1  0.161053  0.456810  0.809919  1
  B  B10  1  0.809919  0.161053  0.456810  1
  B  B11  1  0.039787  0.336219  0.687651  1
  B  B12  1  0.687651  0.039787  0.336219  1
  B  B13  1  0.336219  0.687651  0.039787  1
  B  B14  1  0.303000  0.963601  0.652233  1
  B  B15  1  0.652233  0.303000  0.963601  1
  Pt  Pt16  1  0.421509  0.914022  0.405924  1
  Pt  Pt17  1  0.069377  0.105969  0.570417  1
  Pt  Pt18  1  0.914022  0.405924  0.421509  1
  Pt  Pt19  1  0.570417  0.069377  0.105969  1
  Pt  Pt20  1  0.597040  0.590244  0.058297  1
  Pt  Pt21  1  0.590244  0.058297  0.597040  1
  Pt  Pt22  1  0.058297  0.597040  0.590244  1
  Pt  Pt23  1  0.906561  0.899709  0.438575  1
  Pt  Pt24  1  0.899709  0.438575  0.906561  1
  Pt  Pt25  1  0.438575  0.906561  0.899709  1
  Pt  Pt26  1  0.748081  0.285418  0.207890  1
  Pt  Pt27  1  0.207890  0.748081  0.285418  1
  Pt  Pt28  1  0.285418  0.207890  0.748081  1
  Pt  Pt29  1  0.262742  0.716426  0.764352  1
  Pt  Pt30  1  0.764352  0.262742  0.716426  1
  Pt  Pt31  1  0.716426  0.764352  0.262742  1
  Pt  Pt32  1  0.105969  0.570417  0.069377  1
  Pt  Pt33  1  0.405924  0.421509  0.914022  1
