# generated using pymatgen
data_Cs6K3AlAs4
_symmetry_space_group_name_H-M   'P 1'
_cell_length_a   10.64419500
_cell_length_b   10.64419451
_cell_length_c   11.20473700
_cell_angle_alpha   90.00000000
_cell_angle_beta   90.00000000
_cell_angle_gamma   119.99999840
_symmetry_Int_Tables_number   1
_chemical_formula_structural   Cs6K3AlAs4
_chemical_formula_sum   'Cs12 K6 Al2 As8'
_cell_volume   1099.40556333
_cell_formula_units_Z   2
loop_
 _symmetry_equiv_pos_site_id
 _symmetry_equiv_pos_as_xyz
  1  'x, y, z'
loop_
 _atom_site_type_symbol
 _atom_site_label
 _atom_site_symmetry_multiplicity
 _atom_site_fract_x
 _atom_site_fract_y
 _atom_site_fract_z
 _atom_site_occupancy
  Cs  Cs0  1  0.208188  0.791812  0.953943  1
  Cs  Cs1  1  0.208188  0.416376  0.953943  1
  Cs  Cs2  1  0.583624  0.791812  0.953943  1
  Cs  Cs3  1  0.416376  0.208188  0.453943  1
  Cs  Cs4  1  0.791812  0.583624  0.046057  1
  Cs  Cs5  1  0.791812  0.208188  0.453943  1
  Cs  Cs6  1  0.791812  0.583624  0.453943  1
  Cs  Cs7  1  0.208188  0.791812  0.546057  1
  Cs  Cs8  1  0.583624  0.791812  0.546057  1
  Cs  Cs9  1  0.416376  0.208188  0.046057  1
  Cs  Cs10  1  0.791812  0.208188  0.046057  1
  Cs  Cs11  1  0.208188  0.416376  0.546057  1
  K  K12  1  0.242360  0.121180  0.750000  1
  K  K13  1  0.878820  0.121180  0.750000  1
  K  K14  1  0.757640  0.878820  0.250000  1
  K  K15  1  0.121180  0.242360  0.250000  1
  K  K16  1  0.121180  0.878820  0.250000  1
  K  K17  1  0.878820  0.757640  0.750000  1
  Al  Al18  1  0.333333  0.666667  0.250000  1
  Al  Al19  1  0.666667  0.333333  0.750000  1
  As  As20  1  0.000000  0.000000  0.000000  1
  As  As21  1  0.064072  0.532036  0.250000  1
  As  As22  1  0.467964  0.935928  0.250000  1
  As  As23  1  0.532036  0.064072  0.750000  1
  As  As24  1  0.532036  0.467964  0.750000  1
  As  As25  1  0.000000  0.000000  0.500000  1
  As  As26  1  0.467964  0.532036  0.250000  1
  As  As27  1  0.935928  0.467964  0.750000  1
