# generated using pymatgen
data_HoTm2Zr(NiAs)4
_symmetry_space_group_name_H-M   'P 1'
_cell_length_a   4.01248700
_cell_length_b   4.01248703
_cell_length_c   15.03703600
_cell_angle_alpha   90.00000000
_cell_angle_beta   90.00000000
_cell_angle_gamma   119.99999149
_symmetry_Int_Tables_number   1
_chemical_formula_structural   HoTm2Zr(NiAs)4
_chemical_formula_sum   'Ho1 Tm2 Zr1 Ni4 As4'
_cell_volume   209.66222414
_cell_formula_units_Z   1
loop_
 _symmetry_equiv_pos_site_id
 _symmetry_equiv_pos_as_xyz
  1  'x, y, z'
loop_
 _atom_site_type_symbol
 _atom_site_label
 _atom_site_symmetry_multiplicity
 _atom_site_fract_x
 _atom_site_fract_y
 _atom_site_fract_z
 _atom_site_occupancy
  Ho  Ho0  1  0.000000  0.000000  0.004781  1
  Tm  Tm1  1  0.000000  0.000000  0.749530  1
  Tm  Tm2  1  0.000000  0.000000  0.495170  1
  Zr  Zr3  1  0.000000  0.000000  0.250475  1
  Ni  Ni4  1  0.333333  0.666667  0.156711  1
  Ni  Ni5  1  0.666667  0.333333  0.867804  1
  Ni  Ni6  1  0.666667  0.333333  0.630920  1
  Ni  Ni7  1  0.333333  0.666667  0.344556  1
  As  As8  1  0.333333  0.666667  0.617768  1
  As  As9  1  0.666667  0.333333  0.378672  1
  As  As10  1  0.666667  0.333333  0.122816  1
  As  As11  1  0.333333  0.666667  0.880797  1
