# generated using pymatgen
data_Ce2FeCo2Si5
_symmetry_space_group_name_H-M   'P 1'
_cell_length_a   7.94109057
_cell_length_b   7.94109027
_cell_length_c   7.94109051
_cell_angle_alpha   138.65987682
_cell_angle_beta   105.48180515
_cell_angle_gamma   88.98385546
_symmetry_Int_Tables_number   1
_chemical_formula_structural   Ce2FeCo2Si5
_chemical_formula_sum   'Ce4 Fe2 Co4 Si10'
_cell_volume   305.36348760
_cell_formula_units_Z   2
loop_
 _symmetry_equiv_pos_site_id
 _symmetry_equiv_pos_as_xyz
  1  'x, y, z'
loop_
 _atom_site_type_symbol
 _atom_site_label
 _atom_site_symmetry_multiplicity
 _atom_site_fract_x
 _atom_site_fract_y
 _atom_site_fract_z
 _atom_site_occupancy
  Ce  Ce0  1  0.867628  0.630732  0.236896  1
  Ce  Ce1  1  0.132372  0.369268  0.763104  1
  Ce  Ce2  1  0.393836  0.130732  0.263104  1
  Ce  Ce3  1  0.606164  0.869268  0.736896  1
  Fe  Fe4  1  0.000000  0.750000  0.750000  1
  Fe  Fe5  1  0.000000  0.250000  0.250000  1
  Co  Co6  1  0.248476  0.862521  0.385954  1
  Co  Co7  1  0.751524  0.137479  0.614046  1
  Co  Co8  1  0.476567  0.362521  0.114046  1
  Co  Co9  1  0.523433  0.637479  0.885954  1
  Si  Si10  1  0.500000  0.750000  0.250000  1
  Si  Si11  1  0.500000  0.250000  0.750000  1
  Si  Si12  1  0.231271  0.981271  0.750000  1
  Si  Si13  1  0.768729  0.518729  0.750000  1
  Si  Si14  1  0.768729  0.018729  0.250000  1
  Si  Si15  1  0.231271  0.481271  0.250000  1
  Si  Si16  1  0.047733  0.897308  0.150424  1
  Si  Si17  1  0.952267  0.102692  0.849576  1
  Si  Si18  1  0.746884  0.397308  0.349576  1
  Si  Si19  1  0.253116  0.602692  0.650424  1
