# generated using pymatgen
data_La16Y4Sn15Bi
_symmetry_space_group_name_H-M   'P 1'
_cell_length_a   8.42574395
_cell_length_b   8.50113036
_cell_length_c   16.25603400
_cell_angle_alpha   89.98540837
_cell_angle_beta   90.12778051
_cell_angle_gamma   89.91179548
_symmetry_Int_Tables_number   1
_chemical_formula_structural   La16Y4Sn15Bi
_chemical_formula_sum   'La16 Y4 Sn15 Bi1'
_cell_volume   1164.38854138
_cell_formula_units_Z   1
loop_
 _symmetry_equiv_pos_site_id
 _symmetry_equiv_pos_as_xyz
  1  'x, y, z'
loop_
 _atom_site_type_symbol
 _atom_site_label
 _atom_site_symmetry_multiplicity
 _atom_site_fract_x
 _atom_site_fract_y
 _atom_site_fract_z
 _atom_site_occupancy
  La  La0  1  0.971625  0.819587  0.899655  1
  La  La1  1  0.466871  0.682592  0.601290  1
  La  La2  1  0.528521  0.319215  0.100340  1
  La  La3  1  0.030125  0.179312  0.398675  1
  La  La4  1  0.971976  0.822067  0.600940  1
  La  La5  1  0.471203  0.680729  0.899711  1
  La  La6  1  0.526153  0.317581  0.398023  1
  La  La7  1  0.028313  0.181182  0.100136  1
  La  La8  1  0.880723  0.662091  0.381155  1
  La  La9  1  0.378812  0.840844  0.117626  1
  La  La10  1  0.619535  0.155959  0.618504  1
  La  La11  1  0.121599  0.341063  0.882196  1
  La  La12  1  0.125087  0.339472  0.617890  1
  La  La13  1  0.621602  0.159047  0.882113  1
  La  La14  1  0.379012  0.840285  0.382204  1
  La  La15  1  0.878808  0.658894  0.117694  1
  Y  Y16  1  0.286702  0.002518  0.750842  1
  Y  Y17  1  0.787198  0.497278  0.753856  1
  Y  Y18  1  0.212684  0.503181  0.249438  1
  Y  Y19  1  0.712651  0.997422  0.249270  1
  Sn  Sn20  1  0.281218  0.029750  0.953106  1
  Sn  Sn21  1  0.719663  0.971578  0.453443  1
  Sn  Sn22  1  0.219061  0.529777  0.046562  1
  Sn  Sn23  1  0.220482  0.528788  0.453175  1
  Sn  Sn24  1  0.718874  0.970423  0.046686  1
  Sn  Sn25  1  0.280836  0.028605  0.547071  1
  Sn  Sn26  1  0.781207  0.470359  0.953180  1
  Sn  Sn27  1  0.166881  0.645605  0.749784  1
  Sn  Sn28  1  0.667089  0.853463  0.749751  1
  Sn  Sn29  1  0.332158  0.145077  0.249773  1
  Sn  Sn30  1  0.832019  0.355009  0.250131  1
  Sn  Sn31  1  0.924804  0.118910  0.749477  1
  Sn  Sn32  1  0.424571  0.381716  0.749512  1
  Sn  Sn33  1  0.576446  0.617945  0.250224  1
  Sn  Sn34  1  0.075645  0.882063  0.249666  1
  Bi  Bi35  1  0.779844  0.470613  0.546902  1
