# generated using pymatgen
data_Sr4Dy2TaSbO12
_symmetry_space_group_name_H-M   'P 1'
_cell_length_a   5.86272602
_cell_length_b   5.92490353
_cell_length_c   8.32187876
_cell_angle_alpha   90.04847994
_cell_angle_beta   90.21643944
_cell_angle_gamma   90.00183146
_symmetry_Int_Tables_number   1
_chemical_formula_structural   Sr4Dy2TaSbO12
_chemical_formula_sum   'Sr4 Dy2 Ta1 Sb1 O12'
_cell_volume   289.06733075
_cell_formula_units_Z   1
loop_
 _symmetry_equiv_pos_site_id
 _symmetry_equiv_pos_as_xyz
  1  'x, y, z'
loop_
 _atom_site_type_symbol
 _atom_site_label
 _atom_site_symmetry_multiplicity
 _atom_site_fract_x
 _atom_site_fract_y
 _atom_site_fract_z
 _atom_site_occupancy
  Sr  Sr0  1  0.008549  0.034665  0.249176  1
  Sr  Sr1  1  0.492522  0.534324  0.249917  1
  Sr  Sr2  1  0.507479  0.465676  0.750083  1
  Sr  Sr3  1  0.991452  0.965335  0.750823  1
  Dy  Dy4  1  0.500000  0.000000  0.000001  1
  Dy  Dy5  1  0.000000  0.500001  0.500000  1
  Ta  Ta6  1  0.000000  0.500001  0.000000  1
  Sb  Sb7  1  0.500000  0.000000  0.500000  1
  O  O8  1  0.272609  0.301678  0.040609  1
  O  O9  1  0.195081  0.774342  0.042731  1
  O  O10  1  0.921210  0.478305  0.234794  1
  O  O11  1  0.579354  0.978331  0.264479  1
  O  O12  1  0.303703  0.274501  0.457021  1
  O  O13  1  0.227012  0.800378  0.458849  1
  O  O14  1  0.772987  0.199623  0.541150  1
  O  O15  1  0.696298  0.725499  0.542979  1
  O  O16  1  0.420647  0.021669  0.735521  1
  O  O17  1  0.078789  0.521694  0.765206  1
  O  O18  1  0.804920  0.225657  0.957270  1
  O  O19  1  0.727391  0.698322  0.959390  1
