# generated using pymatgen
data_Ho4Ru7W
_symmetry_space_group_name_H-M   'P 1'
_cell_length_a   5.48639662
_cell_length_b   5.17957961
_cell_length_c   9.01847400
_cell_angle_alpha   90.00000000
_cell_angle_beta   90.00000000
_cell_angle_gamma   122.02267032
_symmetry_Int_Tables_number   1
_chemical_formula_structural   Ho4Ru7W
_chemical_formula_sum   'Ho4 Ru7 W1'
_cell_volume   217.28404151
_cell_formula_units_Z   1
loop_
 _symmetry_equiv_pos_site_id
 _symmetry_equiv_pos_as_xyz
  1  'x, y, z'
loop_
 _atom_site_type_symbol
 _atom_site_label
 _atom_site_symmetry_multiplicity
 _atom_site_fract_x
 _atom_site_fract_y
 _atom_site_fract_z
 _atom_site_occupancy
  Ho  Ho0  1  0.672471  0.345211  0.562946  1
  Ho  Ho1  1  0.334213  0.668724  0.431711  1
  Ho  Ho2  1  0.334213  0.668724  0.068289  1
  Ho  Ho3  1  0.672471  0.345211  0.937054  1
  Ru  Ru4  1  0.009175  0.018515  0.498417  1
  Ru  Ru5  1  0.009175  0.018515  0.001583  1
  Ru  Ru6  1  0.171161  0.818787  0.750000  1
  Ru  Ru7  1  0.648715  0.818803  0.750000  1
  Ru  Ru8  1  0.824596  0.649266  0.250000  1
  Ru  Ru9  1  0.830878  0.164774  0.250000  1
  Ru  Ru10  1  0.334625  0.165566  0.250000  1
  W  W11  1  0.158307  0.317903  0.750000  1
