# generated using pymatgen
data_YbEr(Al3Pt)6
_symmetry_space_group_name_H-M   'P 1'
_cell_length_a   10.42714359
_cell_length_b   10.42714345
_cell_length_c   10.42714465
_cell_angle_alpha   42.15640690
_cell_angle_beta   42.15640676
_cell_angle_gamma   42.15640117
_symmetry_Int_Tables_number   1
_chemical_formula_structural   YbEr(Al3Pt)6
_chemical_formula_sum   'Yb1 Er1 Al18 Pt6'
_cell_volume   462.08580468
_cell_formula_units_Z   1
loop_
 _symmetry_equiv_pos_site_id
 _symmetry_equiv_pos_as_xyz
  1  'x, y, z'
loop_
 _atom_site_type_symbol
 _atom_site_label
 _atom_site_symmetry_multiplicity
 _atom_site_fract_x
 _atom_site_fract_y
 _atom_site_fract_z
 _atom_site_occupancy
  Yb  Yb0  1  0.166839  0.166839  0.166839  1
  Er  Er1  1  0.833191  0.833191  0.833191  1
  Al  Al2  1  0.107925  0.435743  0.765041  1
  Al  Al3  1  0.435743  0.765041  0.107925  1
  Al  Al4  1  0.563470  0.892527  0.235313  1
  Al  Al5  1  0.949611  0.949611  0.949611  1
  Al  Al6  1  0.050711  0.050711  0.050711  1
  Al  Al7  1  0.295243  0.703350  0.501411  1
  Al  Al8  1  0.892527  0.235313  0.563470  1
  Al  Al9  1  0.385147  0.385147  0.385147  1
  Al  Al10  1  0.501411  0.295243  0.703350  1
  Al  Al11  1  0.235313  0.563470  0.892527  1
  Al  Al12  1  0.716669  0.716669  0.716669  1
  Al  Al13  1  0.614756  0.614756  0.614756  1
  Al  Al14  1  0.333956  0.999867  0.666161  1
  Al  Al15  1  0.703350  0.501411  0.295243  1
  Al  Al16  1  0.666161  0.333956  0.999867  1
  Al  Al17  1  0.283075  0.283075  0.283075  1
  Al  Al18  1  0.999867  0.666161  0.333956  1
  Al  Al19  1  0.765041  0.107925  0.435743  1
  Pt  Pt20  1  0.419224  0.076866  0.759757  1
  Pt  Pt21  1  0.582073  0.239629  0.922444  1
  Pt  Pt22  1  0.076866  0.759757  0.419224  1
  Pt  Pt23  1  0.759757  0.419224  0.076866  1
  Pt  Pt24  1  0.922444  0.582073  0.239629  1
  Pt  Pt25  1  0.239629  0.922444  0.582073  1
