# generated using pymatgen
data_Eu2Cd2Sb3H
_symmetry_space_group_name_H-M   'P 1'
_cell_length_a   4.52688500
_cell_length_b   4.53578507
_cell_length_c   19.85009264
_cell_angle_alpha   89.92879547
_cell_angle_beta   90.00000000
_cell_angle_gamma   90.00000000
_symmetry_Int_Tables_number   1
_chemical_formula_structural   Eu2Cd2Sb3H
_chemical_formula_sum   'Eu4 Cd4 Sb6 H2'
_cell_volume   407.58118884
_cell_formula_units_Z   2
loop_
 _symmetry_equiv_pos_site_id
 _symmetry_equiv_pos_as_xyz
  1  'x, y, z'
loop_
 _atom_site_type_symbol
 _atom_site_label
 _atom_site_symmetry_multiplicity
 _atom_site_fract_x
 _atom_site_fract_y
 _atom_site_fract_z
 _atom_site_occupancy
  Eu  Eu0  1  0.250000  0.766519  0.626362  1
  Eu  Eu1  1  0.750000  0.233481  0.373638  1
  Eu  Eu2  1  0.750000  0.248742  0.945173  1
  Eu  Eu3  1  0.250000  0.751258  0.054827  1
  Cd  Cd4  1  0.250000  0.255245  0.781229  1
  Cd  Cd5  1  0.750000  0.744755  0.218771  1
  Cd  Cd6  1  0.750000  0.759853  0.781215  1
  Cd  Cd7  1  0.250000  0.240147  0.218785  1
  Sb  Sb8  1  0.750000  0.729195  0.499450  1
  Sb  Sb9  1  0.250000  0.270805  0.500550  1
  Sb  Sb10  1  0.250000  0.735369  0.319249  1
  Sb  Sb11  1  0.750000  0.264631  0.680751  1
  Sb  Sb12  1  0.750000  0.248996  0.120856  1
  Sb  Sb13  1  0.250000  0.751004  0.879144  1
  H  H14  1  0.250000  0.250376  0.999888  1
  H  H15  1  0.750000  0.749624  0.000112  1
