# generated using pymatgen
data_Sm2Dy3Ho3(WO6)4
_symmetry_space_group_name_H-M   'P 1'
_cell_length_a   5.42593406
_cell_length_b   7.73579749
_cell_length_c   11.51108007
_cell_angle_alpha   75.54743084
_cell_angle_beta   90.00126479
_cell_angle_gamma   90.01721803
_symmetry_Int_Tables_number   1
_chemical_formula_structural   Sm2Dy3Ho3(WO6)4
_chemical_formula_sum   'Sm2 Dy3 Ho3 W4 O24'
_cell_volume   467.87524641
_cell_formula_units_Z   1
loop_
 _symmetry_equiv_pos_site_id
 _symmetry_equiv_pos_as_xyz
  1  'x, y, z'
loop_
 _atom_site_type_symbol
 _atom_site_label
 _atom_site_symmetry_multiplicity
 _atom_site_fract_x
 _atom_site_fract_y
 _atom_site_fract_z
 _atom_site_occupancy
  Sm  Sm0  1  0.684147  0.500073  0.750050  1
  Sm  Sm1  1  0.315706  0.500267  0.249748  1
  Dy  Dy2  1  0.739956  0.999852  0.750251  1
  Dy  Dy3  1  0.259976  0.999814  0.249683  1
  Dy  Dy4  1  0.813315  0.203060  0.422931  1
  Ho  Ho5  1  0.186712  0.796373  0.577419  1
  Ho  Ho6  1  0.813505  0.796611  0.077311  1
  Ho  Ho7  1  0.186529  0.203380  0.922741  1
  W  W8  1  0.253538  0.725585  0.885118  1
  W  W9  1  0.746480  0.725720  0.385143  1
  W  W10  1  0.253436  0.274544  0.615172  1
  W  W11  1  0.746327  0.274472  0.114641  1
  O  O12  1  0.041923  0.940736  0.896023  1
  O  O13  1  0.531323  0.847636  0.931071  1
  O  O14  1  0.959186  0.939913  0.395937  1
  O  O15  1  0.456435  0.791900  0.727541  1
  O  O16  1  0.469045  0.847991  0.431032  1
  O  O17  1  0.984271  0.715079  0.770583  1
  O  O18  1  0.543681  0.792127  0.227418  1
  O  O19  1  0.853786  0.638713  0.547021  1
  O  O20  1  0.354271  0.491352  0.887612  1
  O  O21  1  0.015586  0.714894  0.270389  1
  O  O22  1  0.354525  0.508883  0.612615  1
  O  O23  1  0.853884  0.361260  0.952892  1
  O  O24  1  0.146093  0.638830  0.046974  1
  O  O25  1  0.644906  0.491769  0.387542  1
  O  O26  1  0.984026  0.284926  0.729491  1
  O  O27  1  0.645770  0.508779  0.112349  1
  O  O28  1  0.147342  0.361718  0.453130  1
  O  O29  1  0.456345  0.208223  0.772703  1
  O  O30  1  0.015963  0.285032  0.228974  1
  O  O31  1  0.530396  0.151758  0.569649  1
  O  O32  1  0.542806  0.208269  0.271909  1
  O  O33  1  0.042080  0.059045  0.604321  1
  O  O34  1  0.468754  0.152212  0.068654  1
  O  O35  1  0.957975  0.059204  0.103965  1
