# generated using pymatgen
data_Yb5Er3(Ge4Mo3)4
_symmetry_space_group_name_H-M   'P 1'
_cell_length_a   6.84910076
_cell_length_b   7.05684389
_cell_length_c   13.20191466
_cell_angle_alpha   89.92330449
_cell_angle_beta   89.96163683
_cell_angle_gamma   89.93379885
_symmetry_Int_Tables_number   1
_chemical_formula_structural   Yb5Er3(Ge4Mo3)4
_chemical_formula_sum   'Yb5 Er3 Ge16 Mo12'
_cell_volume   638.08746137
_cell_formula_units_Z   1
loop_
 _symmetry_equiv_pos_site_id
 _symmetry_equiv_pos_as_xyz
  1  'x, y, z'
loop_
 _atom_site_type_symbol
 _atom_site_label
 _atom_site_symmetry_multiplicity
 _atom_site_fract_x
 _atom_site_fract_y
 _atom_site_fract_z
 _atom_site_occupancy
  Yb  Yb0  1  0.493304  0.329933  0.089636  1
  Yb  Yb1  1  0.993046  0.171264  0.409009  1
  Yb  Yb2  1  0.506122  0.671903  0.591065  1
  Yb  Yb3  1  0.006587  0.827944  0.908896  1
  Yb  Yb4  1  0.506010  0.671469  0.910560  1
  Er  Er5  1  0.005601  0.825463  0.592677  1
  Er  Er6  1  0.494084  0.326835  0.407998  1
  Er  Er7  1  0.993918  0.173463  0.091280  1
  Ge  Ge8  1  0.670721  0.043325  0.545131  1
  Ge  Ge9  1  0.170162  0.457210  0.954103  1
  Ge  Ge10  1  0.330467  0.955848  0.045780  1
  Ge  Ge11  1  0.829329  0.543318  0.454399  1
  Ge  Ge12  1  0.328789  0.955286  0.454358  1
  Ge  Ge13  1  0.830012  0.545429  0.045435  1
  Ge  Ge14  1  0.670069  0.042712  0.953763  1
  Ge  Ge15  1  0.171009  0.455240  0.545311  1
  Ge  Ge16  1  0.529640  0.377001  0.750051  1
  Ge  Ge17  1  0.031153  0.122989  0.749823  1
  Ge  Ge18  1  0.469533  0.627518  0.248896  1
  Ge  Ge19  1  0.969950  0.874653  0.250779  1
  Ge  Ge20  1  0.804684  0.643135  0.751827  1
  Ge  Ge21  1  0.310034  0.854733  0.751518  1
  Ge  Ge22  1  0.192197  0.356648  0.250268  1
  Ge  Ge23  1  0.691573  0.144615  0.249254  1
  Mo  Mo24  1  0.833802  0.337890  0.627664  1
  Mo  Mo25  1  0.333729  0.162977  0.871787  1
  Mo  Mo26  1  0.165395  0.661750  0.127743  1
  Mo  Mo27  1  0.666991  0.838652  0.372694  1
  Mo  Mo28  1  0.166384  0.660814  0.372742  1
  Mo  Mo29  1  0.668784  0.840672  0.128108  1
  Mo  Mo30  1  0.835986  0.336321  0.871886  1
  Mo  Mo31  1  0.334071  0.161174  0.626987  1
  Mo  Mo32  1  0.661297  0.012599  0.749251  1
  Mo  Mo33  1  0.159693  0.487747  0.748933  1
  Mo  Mo34  1  0.337836  0.990873  0.250552  1
  Mo  Mo35  1  0.838040  0.510599  0.249833  1
