# generated using pymatgen
data_RbTbBeF6
_symmetry_space_group_name_H-M   'P 1'
_cell_length_a   5.91733100
_cell_length_b   6.56026474
_cell_length_c   7.31811410
_cell_angle_alpha   66.31464484
_cell_angle_beta   90.00000000
_cell_angle_gamma   90.00000000
_symmetry_Int_Tables_number   1
_chemical_formula_structural   RbTbBeF6
_chemical_formula_sum   'Rb2 Tb2 Be2 F12'
_cell_volume   260.15404895
_cell_formula_units_Z   2
loop_
 _symmetry_equiv_pos_site_id
 _symmetry_equiv_pos_as_xyz
  1  'x, y, z'
loop_
 _atom_site_type_symbol
 _atom_site_label
 _atom_site_symmetry_multiplicity
 _atom_site_fract_x
 _atom_site_fract_y
 _atom_site_fract_z
 _atom_site_occupancy
  Rb  Rb0  1  0.250000  0.081505  0.786204  1
  Rb  Rb1  1  0.750000  0.918495  0.213796  1
  Tb  Tb2  1  0.250000  0.392169  0.180289  1
  Tb  Tb3  1  0.750000  0.607831  0.819711  1
  Be  Be4  1  0.250000  0.767972  0.464418  1
  Be  Be5  1  0.750000  0.232028  0.535582  1
  F  F6  1  0.463814  0.756192  0.594626  1
  F  F7  1  0.536186  0.243808  0.405374  1
  F  F8  1  0.963814  0.243808  0.405374  1
  F  F9  1  0.036186  0.756192  0.594626  1
  F  F10  1  0.250000  0.575836  0.392414  1
  F  F11  1  0.750000  0.424164  0.607586  1
  F  F12  1  0.499166  0.677430  0.027980  1
  F  F13  1  0.500834  0.322570  0.972020  1
  F  F14  1  0.999166  0.322570  0.972020  1
  F  F15  1  0.000834  0.677430  0.027980  1
  F  F16  1  0.250000  0.996701  0.276357  1
  F  F17  1  0.750000  0.003299  0.723643  1
