# generated using pymatgen
data_Yb5Np3RhO18
_symmetry_space_group_name_H-M   'P 1'
_cell_length_a   9.06937625
_cell_length_b   9.06937563
_cell_length_c   5.33722900
_cell_angle_alpha   92.25097987
_cell_angle_beta   87.74902029
_cell_angle_gamma   120.12887844
_symmetry_Int_Tables_number   1
_chemical_formula_structural   Yb5Np3RhO18
_chemical_formula_sum   'Yb5 Np3 Rh1 O18'
_cell_volume   379.30562091
_cell_formula_units_Z   1
loop_
 _symmetry_equiv_pos_site_id
 _symmetry_equiv_pos_as_xyz
  1  'x, y, z'
loop_
 _atom_site_type_symbol
 _atom_site_label
 _atom_site_symmetry_multiplicity
 _atom_site_fract_x
 _atom_site_fract_y
 _atom_site_fract_z
 _atom_site_occupancy
  Yb  Yb0  1  0.009552  0.265559  0.497506  1
  Yb  Yb1  1  0.265559  0.009552  0.502494  1
  Yb  Yb2  1  0.374294  0.374294  0.000000  1
  Yb  Yb3  1  0.999580  0.612386  0.014531  1
  Yb  Yb4  1  0.612386  0.999580  0.985469  1
  Np  Np5  1  0.672680  0.335167  0.504964  1
  Np  Np6  1  0.335167  0.672680  0.495036  1
  Np  Np7  1  0.988857  0.988857  0.000000  1
  Rh  Rh8  1  0.692807  0.692807  0.500000  1
  O  O9  1  0.767040  0.226898  0.719875  1
  O  O10  1  0.783411  0.574661  0.703784  1
  O  O11  1  0.470980  0.243922  0.720238  1
  O  O12  1  0.574661  0.783411  0.296216  1
  O  O13  1  0.243922  0.470980  0.279762  1
  O  O14  1  0.226898  0.767040  0.280125  1
  O  O15  1  0.596458  0.478147  0.289331  1
  O  O16  1  0.531628  0.132735  0.283743  1
  O  O17  1  0.875273  0.402897  0.300205  1
  O  O18  1  0.094412  0.871340  0.840647  1
  O  O19  1  0.136272  0.180222  0.766109  1
  O  O20  1  0.788349  0.894472  0.735709  1
  O  O21  1  0.180222  0.136272  0.233891  1
  O  O22  1  0.894472  0.788349  0.264291  1
  O  O23  1  0.871340  0.094412  0.159353  1
  O  O24  1  0.478147  0.596458  0.710669  1
  O  O25  1  0.402897  0.875273  0.699795  1
  O  O26  1  0.132735  0.531628  0.716257  1
