# generated using pymatgen
data_Dy10B2I15
_symmetry_space_group_name_H-M   'P 1'
_cell_length_a   9.60484861
_cell_length_b   10.34607496
_cell_length_c   11.30346696
_cell_angle_alpha   91.77940500
_cell_angle_beta   114.41456122
_cell_angle_gamma   110.44763499
_symmetry_Int_Tables_number   1
_chemical_formula_structural   Dy10B2I15
_chemical_formula_sum   'Dy10 B2 I15'
_cell_volume   937.88338510
_cell_formula_units_Z   1
loop_
 _symmetry_equiv_pos_site_id
 _symmetry_equiv_pos_as_xyz
  1  'x, y, z'
loop_
 _atom_site_type_symbol
 _atom_site_label
 _atom_site_symmetry_multiplicity
 _atom_site_fract_x
 _atom_site_fract_y
 _atom_site_fract_z
 _atom_site_occupancy
  Dy  Dy0  1  0.784273  0.393455  0.267807  1
  Dy  Dy1  1  0.215727  0.606545  0.732193  1
  Dy  Dy2  1  0.662843  0.751921  0.825227  1
  Dy  Dy3  1  0.337157  0.248079  0.174773  1
  Dy  Dy4  1  0.523113  0.712739  0.085605  1
  Dy  Dy5  1  0.476887  0.287261  0.914395  1
  Dy  Dy6  1  0.580489  0.043995  0.308883  1
  Dy  Dy7  1  0.419511  0.956005  0.691117  1
  Dy  Dy8  1  0.707277  0.069911  0.045521  1
  Dy  Dy9  1  0.292723  0.930089  0.954479  1
  B  B10  1  0.468552  0.822900  0.880062  1
  B  B11  1  0.531448  0.177100  0.119938  1
  I  I12  1  0.000000  0.000000  0.000000  1
  I  I13  1  0.638722  0.882503  0.582912  1
  I  I14  1  0.361278  0.117497  0.417088  1
  I  I15  1  0.884958  0.299292  0.531189  1
  I  I16  1  0.115042  0.700708  0.468811  1
  I  I17  1  0.285070  0.760297  0.177749  1
  I  I18  1  0.714930  0.239703  0.822251  1
  I  I19  1  0.054899  0.340255  0.225745  1
  I  I20  1  0.160407  0.056121  0.702003  1
  I  I21  1  0.839593  0.943879  0.297997  1
  I  I22  1  0.228072  0.409819  0.942060  1
  I  I23  1  0.771928  0.590181  0.057940  1
  I  I24  1  0.409715  0.459717  0.659669  1
  I  I25  1  0.590285  0.540283  0.340331  1
  I  I26  1  0.945101  0.659745  0.774255  1
