# generated using pymatgen
data_ErTmZn(PRh2)6
_symmetry_space_group_name_H-M   'P 1'
_cell_length_a   9.65061200
_cell_length_b   9.65061100
_cell_length_c   3.88574300
_cell_angle_alpha   90.00000000
_cell_angle_beta   90.00000000
_cell_angle_gamma   120.00000343
_symmetry_Int_Tables_number   1
_chemical_formula_structural   ErTmZn(PRh2)6
_chemical_formula_sum   'Er1 Tm1 Zn1 P6 Rh12'
_cell_volume   313.41108696
_cell_formula_units_Z   1
loop_
 _symmetry_equiv_pos_site_id
 _symmetry_equiv_pos_as_xyz
  1  'x, y, z'
loop_
 _atom_site_type_symbol
 _atom_site_label
 _atom_site_symmetry_multiplicity
 _atom_site_fract_x
 _atom_site_fract_y
 _atom_site_fract_z
 _atom_site_occupancy
  Er  Er0  1  0.666667  0.333333  0.247673  1
  Tm  Tm1  1  0.333333  0.666667  0.752292  1
  Zn  Zn2  1  0.000000  0.000000  0.500022  1
  P  P3  1  0.402338  0.284633  0.748211  1
  P  P4  1  0.715367  0.117706  0.748211  1
  P  P5  1  0.882294  0.597662  0.748211  1
  P  P6  1  0.597507  0.715312  0.251798  1
  P  P7  1  0.284688  0.882194  0.251798  1
  P  P8  1  0.117806  0.402493  0.251798  1
  Rh  Rh9  1  0.452831  0.066451  0.748909  1
  Rh  Rh10  1  0.933549  0.386378  0.748909  1
  Rh  Rh11  1  0.613622  0.547169  0.748909  1
  Rh  Rh12  1  0.546865  0.933180  0.251110  1
  Rh  Rh13  1  0.066820  0.613687  0.251110  1
  Rh  Rh14  1  0.386313  0.453135  0.251110  1
  Rh  Rh15  1  0.158928  0.284153  0.753892  1
  Rh  Rh16  1  0.715847  0.874776  0.753892  1
  Rh  Rh17  1  0.125224  0.841072  0.753892  1
  Rh  Rh18  1  0.841073  0.715943  0.246085  1
  Rh  Rh19  1  0.284057  0.125130  0.246085  1
  Rh  Rh20  1  0.874870  0.158927  0.246085  1
