# generated using pymatgen
data_LiTmCo(PIr)3
_symmetry_space_group_name_H-M   'P 1'
_cell_length_a   3.85996800
_cell_length_b   10.65630800
_cell_length_c   12.52338500
_cell_angle_alpha   90.00000000
_cell_angle_beta   90.00000000
_cell_angle_gamma   90.00000000
_symmetry_Int_Tables_number   1
_chemical_formula_structural   LiTmCo(PIr)3
_chemical_formula_sum   'Li4 Tm4 Co4 P12 Ir12'
_cell_volume   515.12449387
_cell_formula_units_Z   4
loop_
 _symmetry_equiv_pos_site_id
 _symmetry_equiv_pos_as_xyz
  1  'x, y, z'
loop_
 _atom_site_type_symbol
 _atom_site_label
 _atom_site_symmetry_multiplicity
 _atom_site_fract_x
 _atom_site_fract_y
 _atom_site_fract_z
 _atom_site_occupancy
  Li  Li0  1  0.250000  0.705732  0.987745  1
  Li  Li1  1  0.250000  0.794268  0.487745  1
  Li  Li2  1  0.750000  0.294268  0.012255  1
  Li  Li3  1  0.750000  0.205732  0.512255  1
  Tm  Tm4  1  0.250000  0.581277  0.709063  1
  Tm  Tm5  1  0.250000  0.918723  0.209063  1
  Tm  Tm6  1  0.750000  0.418723  0.290937  1
  Tm  Tm7  1  0.750000  0.081277  0.790937  1
  Co  Co8  1  0.250000  0.466219  0.935758  1
  Co  Co9  1  0.250000  0.033781  0.435758  1
  Co  Co10  1  0.750000  0.533781  0.064242  1
  Co  Co11  1  0.750000  0.966219  0.564242  1
  P  P12  1  0.250000  0.423845  0.107374  1
  P  P13  1  0.250000  0.076155  0.607374  1
  P  P14  1  0.750000  0.576155  0.892626  1
  P  P15  1  0.750000  0.923845  0.392626  1
  P  P16  1  0.250000  0.269907  0.864404  1
  P  P17  1  0.250000  0.230093  0.364404  1
  P  P18  1  0.750000  0.730093  0.135596  1
  P  P19  1  0.750000  0.769907  0.635596  1
  P  P20  1  0.250000  0.600145  0.386359  1
  P  P21  1  0.250000  0.899855  0.886359  1
  P  P22  1  0.750000  0.399855  0.613641  1
  P  P23  1  0.750000  0.100145  0.113641  1
  Ir  Ir24  1  0.250000  0.405092  0.471884  1
  Ir  Ir25  1  0.250000  0.094908  0.971884  1
  Ir  Ir26  1  0.750000  0.594908  0.528116  1
  Ir  Ir27  1  0.750000  0.905092  0.028116  1
  Ir  Ir28  1  0.250000  0.222910  0.172836  1
  Ir  Ir29  1  0.250000  0.277090  0.672836  1
  Ir  Ir30  1  0.750000  0.777090  0.827164  1
  Ir  Ir31  1  0.750000  0.722910  0.327164  1
  Ir  Ir32  1  0.250000  0.883703  0.693954  1
  Ir  Ir33  1  0.250000  0.616297  0.193954  1
  Ir  Ir34  1  0.750000  0.116297  0.306046  1
  Ir  Ir35  1  0.750000  0.383703  0.806046  1
