# generated using pymatgen
data_Yb7ScSb6
_symmetry_space_group_name_H-M   'P 1'
_cell_length_a   8.10429234
_cell_length_b   8.10429169
_cell_length_c   8.04191100
_cell_angle_alpha   109.31537146
_cell_angle_beta   109.31536986
_cell_angle_gamma   109.62661529
_symmetry_Int_Tables_number   1
_chemical_formula_structural   Yb7ScSb6
_chemical_formula_sum   'Yb7 Sc1 Sb6'
_cell_volume   407.37959043
_cell_formula_units_Z   1
loop_
 _symmetry_equiv_pos_site_id
 _symmetry_equiv_pos_as_xyz
  1  'x, y, z'
loop_
 _atom_site_type_symbol
 _atom_site_label
 _atom_site_symmetry_multiplicity
 _atom_site_fract_x
 _atom_site_fract_y
 _atom_site_fract_z
 _atom_site_occupancy
  Yb  Yb0  1  0.651386  0.652552  0.653927  1
  Yb  Yb1  1  0.005355  0.357155  0.500873  1
  Yb  Yb2  1  0.351800  0.494645  0.995518  1
  Yb  Yb3  1  0.001166  0.848614  0.502541  1
  Yb  Yb4  1  0.847448  0.498834  0.001375  1
  Yb  Yb5  1  0.500000  0.000000  0.850563  1
  Yb  Yb6  1  0.142845  0.148200  0.143718  1
  Sc  Sc7  1  0.500000  0.000000  0.352412  1
  Sb  Sb8  1  0.862693  0.123686  0.735143  1
  Sb  Sb9  1  0.376314  0.239007  0.611458  1
  Sb  Sb10  1  0.135326  0.757578  0.890976  1
  Sb  Sb11  1  0.742422  0.877748  0.133398  1
  Sb  Sb12  1  0.260993  0.637307  0.372450  1
  Sb  Sb13  1  0.622252  0.364674  0.255650  1
