# generated using pymatgen
data_Zr16Co4Os3Rh
_symmetry_space_group_name_H-M   'P 1'
_cell_length_a   8.70583969
_cell_length_b   8.70946051
_cell_length_c   8.70629509
_cell_angle_alpha   59.92994429
_cell_angle_beta   59.93554940
_cell_angle_gamma   59.93717002
_symmetry_Int_Tables_number   1
_chemical_formula_structural   Zr16Co4Os3Rh
_chemical_formula_sum   'Zr16 Co4 Os3 Rh1'
_cell_volume   466.09222299
_cell_formula_units_Z   1
loop_
 _symmetry_equiv_pos_site_id
 _symmetry_equiv_pos_as_xyz
  1  'x, y, z'
loop_
 _atom_site_type_symbol
 _atom_site_label
 _atom_site_symmetry_multiplicity
 _atom_site_fract_x
 _atom_site_fract_y
 _atom_site_fract_z
 _atom_site_occupancy
  Zr  Zr0  1  0.055125  0.648680  0.648700  1
  Zr  Zr1  1  0.648676  0.055212  0.648697  1
  Zr  Zr2  1  0.648713  0.648716  0.055116  1
  Zr  Zr3  1  0.649048  0.648968  0.649017  1
  Zr  Zr4  1  0.798963  0.798893  0.201103  1
  Zr  Zr5  1  0.201140  0.201188  0.800463  1
  Zr  Zr6  1  0.798945  0.201103  0.798939  1
  Zr  Zr7  1  0.201215  0.800366  0.201210  1
  Zr  Zr8  1  0.201109  0.798889  0.798956  1
  Zr  Zr9  1  0.800403  0.201227  0.201178  1
  Zr  Zr10  1  0.435167  0.435186  0.060082  1
  Zr  Zr11  1  0.064112  0.064089  0.435514  1
  Zr  Zr12  1  0.435201  0.060044  0.435213  1
  Zr  Zr13  1  0.064122  0.435520  0.064107  1
  Zr  Zr14  1  0.060111  0.435154  0.435151  1
  Zr  Zr15  1  0.435528  0.064106  0.064103  1
  Co  Co16  1  0.420839  0.860119  0.860093  1
  Co  Co17  1  0.860061  0.420907  0.860120  1
  Co  Co18  1  0.860074  0.860149  0.420861  1
  Co  Co19  1  0.859503  0.859471  0.859466  1
  Os  Os20  1  0.745861  0.419103  0.419064  1
  Os  Os21  1  0.419081  0.745851  0.419073  1
  Os  Os22  1  0.419068  0.419096  0.745849  1
  Rh  Rh23  1  0.417934  0.417963  0.417925  1
