# generated using pymatgen
data_Dy5Sc(Si3Os)8
_symmetry_space_group_name_H-M   'P 1'
_cell_length_a   10.10639708
_cell_length_b   10.10639723
_cell_length_c   8.15584405
_cell_angle_alpha   90.02288464
_cell_angle_beta   90.02288848
_cell_angle_gamma   132.45702712
_symmetry_Int_Tables_number   1
_chemical_formula_structural   Dy5Sc(Si3Os)8
_chemical_formula_sum   'Dy5 Sc1 Si24 Os8'
_cell_volume   614.59717052
_cell_formula_units_Z   1
loop_
 _symmetry_equiv_pos_site_id
 _symmetry_equiv_pos_as_xyz
  1  'x, y, z'
loop_
 _atom_site_type_symbol
 _atom_site_label
 _atom_site_symmetry_multiplicity
 _atom_site_fract_x
 _atom_site_fract_y
 _atom_site_fract_z
 _atom_site_occupancy
  Dy  Dy0  1  0.000000  0.000000  0.000000  1
  Dy  Dy1  1  0.501861  0.001589  0.749251  1
  Dy  Dy2  1  0.998411  0.498139  0.250749  1
  Dy  Dy3  1  0.498139  0.998411  0.250749  1
  Dy  Dy4  1  0.001589  0.501861  0.749251  1
  Sc  Sc5  1  0.500000  0.500000  0.500000  1
  Si  Si6  1  0.795012  0.204988  0.500000  1
  Si  Si7  1  0.295875  0.704125  0.000000  1
  Si  Si8  1  0.204988  0.795012  0.500000  1
  Si  Si9  1  0.704125  0.295875  0.000000  1
  Si  Si10  1  0.333228  0.333228  0.831345  1
  Si  Si11  1  0.666772  0.666772  0.168655  1
  Si  Si12  1  0.169212  0.169212  0.334380  1
  Si  Si13  1  0.830788  0.830788  0.665620  1
  Si  Si14  1  0.121075  0.885966  0.727225  1
  Si  Si15  1  0.114034  0.878925  0.272775  1
  Si  Si16  1  0.610930  0.378393  0.229864  1
  Si  Si17  1  0.621607  0.389070  0.770136  1
  Si  Si18  1  0.878925  0.114034  0.272775  1
  Si  Si19  1  0.885966  0.121075  0.727225  1
  Si  Si20  1  0.389070  0.621607  0.770136  1
  Si  Si21  1  0.378393  0.610930  0.229864  1
  Si  Si22  1  0.345357  0.113170  0.503991  1
  Si  Si23  1  0.886830  0.654643  0.496009  1
  Si  Si24  1  0.388796  0.155142  0.004892  1
  Si  Si25  1  0.844858  0.611204  0.995108  1
  Si  Si26  1  0.654643  0.886830  0.496009  1
  Si  Si27  1  0.113170  0.345357  0.503991  1
  Si  Si28  1  0.611204  0.844858  0.995108  1
  Si  Si29  1  0.155142  0.388796  0.004892  1
  Os  Os30  1  0.667849  0.332151  0.500000  1
  Os  Os31  1  0.169448  0.830552  0.000000  1
  Os  Os32  1  0.332151  0.667849  0.500000  1
  Os  Os33  1  0.830552  0.169448  0.000000  1
  Os  Os34  1  0.126845  0.126845  0.627285  1
  Os  Os35  1  0.873155  0.873155  0.372715  1
  Os  Os36  1  0.373055  0.373055  0.128872  1
  Os  Os37  1  0.626945  0.626945  0.871128  1
