# generated using pymatgen
data_Li3Lu4ScPt4
_symmetry_space_group_name_H-M   'P 1'
_cell_length_a   4.00724400
_cell_length_b   6.94543774
_cell_length_c   8.53917147
_cell_angle_alpha   91.48777552
_cell_angle_beta   90.00000000
_cell_angle_gamma   90.00000000
_symmetry_Int_Tables_number   1
_chemical_formula_structural   Li3Lu4ScPt4
_chemical_formula_sum   'Li3 Lu4 Sc1 Pt4'
_cell_volume   237.58264516
_cell_formula_units_Z   1
loop_
 _symmetry_equiv_pos_site_id
 _symmetry_equiv_pos_as_xyz
  1  'x, y, z'
loop_
 _atom_site_type_symbol
 _atom_site_label
 _atom_site_symmetry_multiplicity
 _atom_site_fract_x
 _atom_site_fract_y
 _atom_site_fract_z
 _atom_site_occupancy
  Li  Li0  1  0.250000  0.127730  0.057991  1
  Li  Li1  1  0.250000  0.641042  0.432070  1
  Li  Li2  1  0.750000  0.875248  0.945596  1
  Lu  Lu3  1  0.250000  0.029697  0.686391  1
  Lu  Lu4  1  0.250000  0.552414  0.833441  1
  Lu  Lu5  1  0.750000  0.946713  0.322372  1
  Lu  Lu6  1  0.750000  0.458918  0.170929  1
  Sc  Sc7  1  0.750000  0.374303  0.555085  1
  Pt  Pt8  1  0.250000  0.240668  0.376759  1
  Pt  Pt9  1  0.250000  0.745344  0.128375  1
  Pt  Pt10  1  0.750000  0.749861  0.626539  1
  Pt  Pt11  1  0.750000  0.258062  0.864452  1
