# generated using pymatgen
data_RbLiMn2O3
_symmetry_space_group_name_H-M   'P 1'
_cell_length_a   10.77950400
_cell_length_b   10.77950400
_cell_length_c   3.60725200
_cell_angle_alpha   90.00000000
_cell_angle_beta   90.00000000
_cell_angle_gamma   90.00000000
_symmetry_Int_Tables_number   1
_chemical_formula_structural   RbLiMn2O3
_chemical_formula_sum   'Rb4 Li4 Mn8 O12'
_cell_volume   419.15440912
_cell_formula_units_Z   4
loop_
 _symmetry_equiv_pos_site_id
 _symmetry_equiv_pos_as_xyz
  1  'x, y, z'
loop_
 _atom_site_type_symbol
 _atom_site_label
 _atom_site_symmetry_multiplicity
 _atom_site_fract_x
 _atom_site_fract_y
 _atom_site_fract_z
 _atom_site_occupancy
  Rb  Rb0  1  0.390026  0.390026  0.000000  1
  Rb  Rb1  1  0.890026  0.109974  0.500000  1
  Rb  Rb2  1  0.109974  0.890026  0.500000  1
  Rb  Rb3  1  0.609974  0.609974  0.000000  1
  Li  Li4  1  0.797954  0.797954  0.500000  1
  Li  Li5  1  0.202046  0.202046  0.500000  1
  Li  Li6  1  0.297954  0.702046  0.000000  1
  Li  Li7  1  0.702046  0.297954  0.000000  1
  Mn  Mn8  1  0.327350  0.072844  0.000000  1
  Mn  Mn9  1  0.672650  0.927156  0.000000  1
  Mn  Mn10  1  0.427156  0.827350  0.500000  1
  Mn  Mn11  1  0.572844  0.172650  0.500000  1
  Mn  Mn12  1  0.072844  0.327350  0.000000  1
  Mn  Mn13  1  0.827350  0.427156  0.500000  1
  Mn  Mn14  1  0.172650  0.572844  0.500000  1
  Mn  Mn15  1  0.927156  0.672650  0.000000  1
  O  O16  1  0.381862  0.157691  0.500000  1
  O  O17  1  0.842309  0.618138  0.500000  1
  O  O18  1  0.157691  0.381862  0.500000  1
  O  O19  1  0.881862  0.342309  0.000000  1
  O  O20  1  0.856655  0.856655  0.000000  1
  O  O21  1  0.356655  0.643345  0.500000  1
  O  O22  1  0.643345  0.356655  0.500000  1
  O  O23  1  0.143345  0.143345  0.000000  1
  O  O24  1  0.618138  0.842309  0.500000  1
  O  O25  1  0.657691  0.118138  0.000000  1
  O  O26  1  0.342309  0.881862  0.000000  1
  O  O27  1  0.118138  0.657691  0.000000  1
