# generated using pymatgen
data_Tm2Th3Os2Pt
_symmetry_space_group_name_H-M   'P 1'
_cell_length_a   8.38579500
_cell_length_b   8.38579609
_cell_length_c   6.31109600
_cell_angle_alpha   90.00000000
_cell_angle_beta   90.00000000
_cell_angle_gamma   119.89707174
_symmetry_Int_Tables_number   1
_chemical_formula_structural   Tm2Th3Os2Pt
_chemical_formula_sum   'Tm4 Th6 Os4 Pt2'
_cell_volume   384.74542320
_cell_formula_units_Z   2
loop_
 _symmetry_equiv_pos_site_id
 _symmetry_equiv_pos_as_xyz
  1  'x, y, z'
loop_
 _atom_site_type_symbol
 _atom_site_label
 _atom_site_symmetry_multiplicity
 _atom_site_fract_x
 _atom_site_fract_y
 _atom_site_fract_z
 _atom_site_occupancy
  Tm  Tm0  1  0.331409  0.668591  0.000000  1
  Tm  Tm1  1  0.668591  0.331409  0.000000  1
  Tm  Tm2  1  0.668591  0.331409  0.500000  1
  Tm  Tm3  1  0.331409  0.668591  0.500000  1
  Th  Th4  1  0.252308  0.990707  0.250000  1
  Th  Th5  1  0.747692  0.009293  0.750000  1
  Th  Th6  1  0.990707  0.252308  0.250000  1
  Th  Th7  1  0.009293  0.747692  0.750000  1
  Th  Th8  1  0.749334  0.749334  0.250000  1
  Th  Th9  1  0.250666  0.250666  0.750000  1
  Os  Os10  1  0.612346  0.996589  0.250000  1
  Os  Os11  1  0.387654  0.003411  0.750000  1
  Os  Os12  1  0.996589  0.612346  0.250000  1
  Os  Os13  1  0.003411  0.387654  0.750000  1
  Pt  Pt14  1  0.389921  0.389921  0.250000  1
  Pt  Pt15  1  0.610079  0.610079  0.750000  1
