# generated using pymatgen
data_Tb3Fe8Co
_symmetry_space_group_name_H-M   'P 1'
_cell_length_a   8.67853940
_cell_length_b   8.67853886
_cell_length_c   8.67853916
_cell_angle_alpha   34.36108491
_cell_angle_beta   34.36108946
_cell_angle_gamma   34.36108922
_symmetry_Int_Tables_number   1
_chemical_formula_structural   Tb3Fe8Co
_chemical_formula_sum   'Tb3 Fe8 Co1'
_cell_volume   185.71506886
_cell_formula_units_Z   1
loop_
 _symmetry_equiv_pos_site_id
 _symmetry_equiv_pos_as_xyz
  1  'x, y, z'
loop_
 _atom_site_type_symbol
 _atom_site_label
 _atom_site_symmetry_multiplicity
 _atom_site_fract_x
 _atom_site_fract_y
 _atom_site_fract_z
 _atom_site_occupancy
  Tb  Tb0  1  0.000000  0.000000  0.000000  1
  Tb  Tb1  1  0.141884  0.141884  0.141884  1
  Tb  Tb2  1  0.858116  0.858116  0.858116  1
  Fe  Fe3  1  0.332665  0.332665  0.332665  1
  Fe  Fe4  1  0.667335  0.667335  0.667335  1
  Fe  Fe5  1  0.082318  0.580602  0.580602  1
  Fe  Fe6  1  0.580602  0.580602  0.082318  1
  Fe  Fe7  1  0.580602  0.082318  0.580602  1
  Fe  Fe8  1  0.419398  0.917682  0.419398  1
  Fe  Fe9  1  0.917682  0.419398  0.419398  1
  Fe  Fe10  1  0.419398  0.419398  0.917682  1
  Co  Co11  1  0.500000  0.500000  0.500000  1
