# generated using pymatgen
data_Ca4Ho2Si24OsRu7
_symmetry_space_group_name_H-M   'P 1'
_cell_length_a   10.16313471
_cell_length_b   10.16313571
_cell_length_c   8.14872990
_cell_angle_alpha   90.01676211
_cell_angle_beta   90.01675975
_cell_angle_gamma   132.73913121
_symmetry_Int_Tables_number   1
_chemical_formula_structural   Ca4Ho2Si24OsRu7
_chemical_formula_sum   'Ca4 Ho2 Si24 Os1 Ru7'
_cell_volume   618.17038578
_cell_formula_units_Z   1
loop_
 _symmetry_equiv_pos_site_id
 _symmetry_equiv_pos_as_xyz
  1  'x, y, z'
loop_
 _atom_site_type_symbol
 _atom_site_label
 _atom_site_symmetry_multiplicity
 _atom_site_fract_x
 _atom_site_fract_y
 _atom_site_fract_z
 _atom_site_occupancy
  Ca  Ca0  1  0.499967  0.500033  0.500000  1
  Ca  Ca1  1  0.999974  0.000026  0.000000  1
  Ca  Ca2  1  0.500480  0.000259  0.749946  1
  Ca  Ca3  1  0.999741  0.499520  0.250054  1
  Ho  Ho4  1  0.499879  0.000035  0.250018  1
  Ho  Ho5  1  0.999965  0.500121  0.749982  1
  Si  Si6  1  0.795717  0.204283  0.500000  1
  Si  Si7  1  0.294969  0.705031  0.000000  1
  Si  Si8  1  0.205092  0.794908  0.500000  1
  Si  Si9  1  0.704758  0.295242  0.000000  1
  Si  Si10  1  0.332713  0.335398  0.832251  1
  Si  Si11  1  0.664602  0.667287  0.167749  1
  Si  Si12  1  0.167508  0.164378  0.332086  1
  Si  Si13  1  0.835622  0.832492  0.667914  1
  Si  Si14  1  0.122264  0.889574  0.729898  1
  Si  Si15  1  0.110426  0.877736  0.270102  1
  Si  Si16  1  0.607655  0.375046  0.228932  1
  Si  Si17  1  0.624954  0.392345  0.771068  1
  Si  Si18  1  0.874388  0.107084  0.269519  1
  Si  Si19  1  0.892916  0.125612  0.730481  1
  Si  Si20  1  0.390117  0.622889  0.770304  1
  Si  Si21  1  0.377111  0.609883  0.229696  1
  Si  Si22  1  0.345416  0.112458  0.506043  1
  Si  Si23  1  0.887542  0.654584  0.493957  1
  Si  Si24  1  0.386593  0.153251  0.009201  1
  Si  Si25  1  0.846749  0.613407  0.990799  1
  Si  Si26  1  0.652930  0.886012  0.489856  1
  Si  Si27  1  0.113988  0.347070  0.510144  1
  Si  Si28  1  0.612765  0.846355  0.994092  1
  Si  Si29  1  0.153645  0.387235  0.005908  1
  Os  Os30  1  0.670855  0.329145  0.500000  1
  Ru  Ru31  1  0.170281  0.829719  0.000000  1
  Ru  Ru32  1  0.329822  0.670178  0.500000  1
  Ru  Ru33  1  0.829050  0.170950  0.000000  1
  Ru  Ru34  1  0.126612  0.127052  0.624928  1
  Ru  Ru35  1  0.872948  0.873388  0.375072  1
  Ru  Ru36  1  0.373215  0.373235  0.124779  1
  Ru  Ru37  1  0.626765  0.626785  0.875221  1
