# generated using pymatgen
data_Th6OsPd6Ru
_symmetry_space_group_name_H-M   'P 1'
_cell_length_a   8.06209370
_cell_length_b   8.06209282
_cell_length_c   8.06209288
_cell_angle_alpha   114.04730333
_cell_angle_beta   114.04729130
_cell_angle_gamma   114.04730728
_symmetry_Int_Tables_number   1
_chemical_formula_structural   Th6OsPd6Ru
_chemical_formula_sum   'Th6 Os1 Pd6 Ru1'
_cell_volume   317.24639445
_cell_formula_units_Z   1
loop_
 _symmetry_equiv_pos_site_id
 _symmetry_equiv_pos_as_xyz
  1  'x, y, z'
loop_
 _atom_site_type_symbol
 _atom_site_label
 _atom_site_symmetry_multiplicity
 _atom_site_fract_x
 _atom_site_fract_y
 _atom_site_fract_z
 _atom_site_occupancy
  Th  Th0  1  0.399030  0.041238  0.280332  1
  Th  Th1  1  0.041238  0.280332  0.399030  1
  Th  Th2  1  0.280332  0.399030  0.041238  1
  Th  Th3  1  0.600970  0.958762  0.719668  1
  Th  Th4  1  0.958762  0.719668  0.600970  1
  Th  Th5  1  0.719668  0.600970  0.958762  1
  Os  Os6  1  0.500000  0.500000  0.500000  1
  Pd  Pd7  1  0.231797  0.067450  0.570492  1
  Pd  Pd8  1  0.067450  0.570492  0.231797  1
  Pd  Pd9  1  0.570492  0.231797  0.067450  1
  Pd  Pd10  1  0.768203  0.932550  0.429508  1
  Pd  Pd11  1  0.932550  0.429508  0.768203  1
  Pd  Pd12  1  0.429508  0.768203  0.932550  1
  Ru  Ru13  1  0.000000  0.000000  0.000000  1
