# generated using pymatgen
data_Tb2Tm4CoTc
_symmetry_space_group_name_H-M   'P 1'
_cell_length_a   6.29430100
_cell_length_b   7.17976600
_cell_length_c   9.18243600
_cell_angle_alpha   90.00000000
_cell_angle_beta   90.00000000
_cell_angle_gamma   90.00000000
_symmetry_Int_Tables_number   1
_chemical_formula_structural   Tb2Tm4CoTc
_chemical_formula_sum   'Tb4 Tm8 Co2 Tc2'
_cell_volume   414.96905108
_cell_formula_units_Z   2
loop_
 _symmetry_equiv_pos_site_id
 _symmetry_equiv_pos_as_xyz
  1  'x, y, z'
loop_
 _atom_site_type_symbol
 _atom_site_label
 _atom_site_symmetry_multiplicity
 _atom_site_fract_x
 _atom_site_fract_y
 _atom_site_fract_z
 _atom_site_occupancy
  Tb  Tb0  1  0.371508  0.546848  0.250000  1
  Tb  Tb1  1  0.142718  0.041141  0.250000  1
  Tb  Tb2  1  0.871508  0.953152  0.750000  1
  Tb  Tb3  1  0.642718  0.458859  0.750000  1
  Tm  Tm4  1  0.667735  0.173202  0.064500  1
  Tm  Tm5  1  0.823443  0.681123  0.432585  1
  Tm  Tm6  1  0.323443  0.818877  0.932585  1
  Tm  Tm7  1  0.167735  0.326798  0.564500  1
  Tm  Tm8  1  0.667735  0.173202  0.435500  1
  Tm  Tm9  1  0.167735  0.326798  0.935500  1
  Tm  Tm10  1  0.323443  0.818877  0.567415  1
  Tm  Tm11  1  0.823443  0.681123  0.067415  1
  Co  Co12  1  0.541244  0.885483  0.250000  1
  Co  Co13  1  0.041244  0.614517  0.750000  1
  Tc  Tc14  1  0.962176  0.391112  0.250000  1
  Tc  Tc15  1  0.462176  0.108888  0.750000  1
