# generated using pymatgen
data_La2Y18ZnSi14Pd
_symmetry_space_group_name_H-M   'P 1'
_cell_length_a   7.44082278
_cell_length_b   7.84812159
_cell_length_c   14.73992326
_cell_angle_alpha   89.67025100
_cell_angle_beta   89.97755314
_cell_angle_gamma   89.95155254
_symmetry_Int_Tables_number   1
_chemical_formula_structural   La2Y18ZnSi14Pd
_chemical_formula_sum   'La2 Y18 Zn1 Si14 Pd1'
_cell_volume   860.74503489
_cell_formula_units_Z   1
loop_
 _symmetry_equiv_pos_site_id
 _symmetry_equiv_pos_as_xyz
  1  'x, y, z'
loop_
 _atom_site_type_symbol
 _atom_site_label
 _atom_site_symmetry_multiplicity
 _atom_site_fract_x
 _atom_site_fract_y
 _atom_site_fract_z
 _atom_site_occupancy
  La  La0  1  0.523229  0.569330  0.341914  1
  La  La1  1  0.023061  0.429804  0.658546  1
  Y  Y2  1  0.808222  0.579335  0.874683  1
  Y  Y3  1  0.313166  0.422943  0.126118  1
  Y  Y4  1  0.183446  0.927783  0.373264  1
  Y  Y5  1  0.683484  0.071530  0.626537  1
  Y  Y6  1  0.182391  0.927661  0.628144  1
  Y  Y7  1  0.682377  0.071679  0.372129  1
  Y  Y8  1  0.813029  0.575221  0.126141  1
  Y  Y9  1  0.318216  0.427638  0.873134  1
  Y  Y10  1  0.648263  0.229140  0.999630  1
  Y  Y11  1  0.158947  0.769154  0.000325  1
  Y  Y12  1  0.349123  0.265233  0.500067  1
  Y  Y13  1  0.848601  0.733611  0.499756  1
  Y  Y14  1  0.476624  0.933684  0.843803  1
  Y  Y15  1  0.972791  0.061568  0.155811  1
  Y  Y16  1  0.474329  0.934500  0.155315  1
  Y  Y17  1  0.971269  0.062006  0.844898  1
  Y  Y18  1  0.526679  0.565268  0.653442  1
  Y  Y19  1  0.026850  0.434351  0.346184  1
  Zn  Zn20  1  0.017537  0.350558  0.998891  1
  Si  Si21  1  0.476330  0.858099  0.501191  1
  Si  Si22  1  0.978192  0.141295  0.498851  1
  Si  Si23  1  0.651866  0.276456  0.791069  1
  Si  Si24  1  0.152266  0.721079  0.209245  1
  Si  Si25  1  0.351267  0.216288  0.288570  1
  Si  Si26  1  0.848546  0.783096  0.711869  1
  Si  Si27  1  0.361012  0.219187  0.710180  1
  Si  Si28  1  0.858661  0.780747  0.289492  1
  Si  Si29  1  0.649360  0.270626  0.206336  1
  Si  Si30  1  0.149097  0.726902  0.793129  1
  Si  Si31  1  0.771332  0.880297  0.000835  1
  Si  Si32  1  0.263237  0.126818  0.999279  1
  Si  Si33  1  0.233556  0.626975  0.501903  1
  Si  Si34  1  0.733583  0.373076  0.498371  1
  Pd  Pd35  1  0.520059  0.657058  0.000950  1
