# generated using pymatgen
data_BaSmCr4N7
_symmetry_space_group_name_H-M   'P 1'
_cell_length_a   6.30796900
_cell_length_b   6.30796890
_cell_length_c   10.37008800
_cell_angle_alpha   90.00000000
_cell_angle_beta   90.00000000
_cell_angle_gamma   120.00000575
_symmetry_Int_Tables_number   1
_chemical_formula_structural   BaSmCr4N7
_chemical_formula_sum   'Ba2 Sm2 Cr8 N14'
_cell_volume   357.34864723
_cell_formula_units_Z   2
loop_
 _symmetry_equiv_pos_site_id
 _symmetry_equiv_pos_as_xyz
  1  'x, y, z'
loop_
 _atom_site_type_symbol
 _atom_site_label
 _atom_site_symmetry_multiplicity
 _atom_site_fract_x
 _atom_site_fract_y
 _atom_site_fract_z
 _atom_site_occupancy
  Ba  Ba0  1  0.333333  0.666667  0.364058  1
  Ba  Ba1  1  0.666667  0.333333  0.864058  1
  Sm  Sm2  1  0.333333  0.666667  0.736037  1
  Sm  Sm3  1  0.666667  0.333333  0.236037  1
  Cr  Cr4  1  0.830883  0.661765  0.548922  1
  Cr  Cr5  1  0.169117  0.830883  0.048922  1
  Cr  Cr6  1  0.661765  0.830883  0.048922  1
  Cr  Cr7  1  0.338235  0.169117  0.548922  1
  Cr  Cr8  1  0.830883  0.169117  0.548922  1
  Cr  Cr9  1  0.169117  0.338235  0.048922  1
  Cr  Cr10  1  0.000000  0.000000  0.808466  1
  Cr  Cr11  1  0.000000  0.000000  0.308466  1
  N  N12  1  0.000000  0.000000  0.620011  1
  N  N13  1  0.000000  0.000000  0.120011  1
  N  N14  1  0.154589  0.309176  0.872053  1
  N  N15  1  0.845411  0.154589  0.372053  1
  N  N16  1  0.309176  0.154589  0.372053  1
  N  N17  1  0.690824  0.845411  0.872053  1
  N  N18  1  0.154589  0.845411  0.872053  1
  N  N19  1  0.845411  0.690824  0.372053  1
  N  N20  1  0.976980  0.488491  0.600802  1
  N  N21  1  0.488491  0.976980  0.100802  1
  N  N22  1  0.488491  0.511509  0.100802  1
  N  N23  1  0.511509  0.488491  0.600802  1
  N  N24  1  0.023020  0.511509  0.100802  1
  N  N25  1  0.511509  0.023020  0.600802  1
