# generated using pymatgen
data_Pr2Cd2P6N13
_symmetry_space_group_name_H-M   'P 1'
_cell_length_a   7.42937576
_cell_length_b   7.47740506
_cell_length_c   7.42937609
_cell_angle_alpha   109.25728911
_cell_angle_beta   109.64030016
_cell_angle_gamma   109.25729658
_symmetry_Int_Tables_number   1
_chemical_formula_structural   Pr2Cd2P6N13
_chemical_formula_sum   'Pr2 Cd2 P6 N13'
_cell_volume   318.71910146
_cell_formula_units_Z   1
loop_
 _symmetry_equiv_pos_site_id
 _symmetry_equiv_pos_as_xyz
  1  'x, y, z'
loop_
 _atom_site_type_symbol
 _atom_site_label
 _atom_site_symmetry_multiplicity
 _atom_site_fract_x
 _atom_site_fract_y
 _atom_site_fract_z
 _atom_site_occupancy
  Pr  Pr0  1  0.692496  0.000000  0.006759  1
  Pr  Pr1  1  0.006759  0.000000  0.692496  1
  Cd  Cd2  1  0.004302  0.701980  0.004302  1
  Cd  Cd3  1  0.302322  0.298020  0.302322  1
  P  P4  1  0.249374  0.750248  0.498126  1
  P  P5  1  0.747878  0.249752  0.499127  1
  P  P6  1  0.748024  0.500000  0.248024  1
  P  P7  1  0.248024  0.500000  0.748024  1
  P  P8  1  0.498126  0.750248  0.249374  1
  P  P9  1  0.499127  0.249752  0.747878  1
  N  N10  1  0.004013  0.000000  0.004013  1
  N  N11  1  0.712500  0.296111  0.293853  1
  N  N12  1  0.292975  0.722049  0.292975  1
  N  N13  1  0.304326  0.590872  0.588724  1
  N  N14  1  0.588724  0.590872  0.304326  1
  N  N15  1  0.416389  0.703889  0.997742  1
  N  N16  1  0.997742  0.703889  0.416389  1
  N  N17  1  0.570926  0.277951  0.570926  1
  N  N18  1  0.713427  0.000000  0.397387  1
  N  N19  1  0.397387  0.000000  0.713427  1
  N  N20  1  0.713455  0.409128  0.997852  1
  N  N21  1  0.293853  0.296111  0.712500  1
  N  N22  1  0.997852  0.409128  0.713455  1
