# generated using pymatgen
data_Er8Hf11Si16W
_symmetry_space_group_name_H-M   'P 1'
_cell_length_a   7.21953840
_cell_length_b   7.21953970
_cell_length_c   13.25363256
_cell_angle_alpha   89.96171283
_cell_angle_beta   90.03828435
_cell_angle_gamma   90.09775435
_symmetry_Int_Tables_number   1
_chemical_formula_structural   Er8Hf11Si16W
_chemical_formula_sum   'Er8 Hf11 Si16 W1'
_cell_volume   690.80113129
_cell_formula_units_Z   1
loop_
 _symmetry_equiv_pos_site_id
 _symmetry_equiv_pos_as_xyz
  1  'x, y, z'
loop_
 _atom_site_type_symbol
 _atom_site_label
 _atom_site_symmetry_multiplicity
 _atom_site_fract_x
 _atom_site_fract_y
 _atom_site_fract_z
 _atom_site_occupancy
  Er  Er0  1  0.998493  0.343533  0.212506  1
  Er  Er1  1  0.004130  0.656513  0.716669  1
  Er  Er2  1  0.156282  0.495573  0.465403  1
  Er  Er3  1  0.501555  0.845623  0.034231  1
  Er  Er4  1  0.845623  0.501555  0.965769  1
  Er  Er5  1  0.495573  0.156282  0.534597  1
  Er  Er6  1  0.343533  0.998493  0.787494  1
  Er  Er7  1  0.656513  0.004130  0.283331  1
  Hf  Hf8  1  0.825710  0.825710  0.500000  1
  Hf  Hf9  1  0.324643  0.674238  0.248737  1
  Hf  Hf10  1  0.674238  0.324643  0.751263  1
  Hf  Hf11  1  0.148000  0.997928  0.373490  1
  Hf  Hf12  1  0.853190  0.004119  0.877505  1
  Hf  Hf13  1  0.503291  0.648284  0.624748  1
  Hf  Hf14  1  0.349512  0.494113  0.877083  1
  Hf  Hf15  1  0.494113  0.349512  0.122917  1
  Hf  Hf16  1  0.648284  0.503291  0.375252  1
  Hf  Hf17  1  0.997928  0.148000  0.626510  1
  Hf  Hf18  1  0.004119  0.853190  0.122495  1
  Si  Si19  1  0.361800  0.295149  0.316620  1
  Si  Si20  1  0.637495  0.704898  0.818095  1
  Si  Si21  1  0.205006  0.861963  0.567607  1
  Si  Si22  1  0.138989  0.797444  0.932706  1
  Si  Si23  1  0.797444  0.138989  0.067294  1
  Si  Si24  1  0.861963  0.205006  0.432393  1
  Si  Si25  1  0.295149  0.361800  0.683380  1
  Si  Si26  1  0.704898  0.637495  0.181905  1
  Si  Si27  1  0.295250  0.050867  0.182284  1
  Si  Si28  1  0.702984  0.952083  0.686058  1
  Si  Si29  1  0.450835  0.796905  0.434925  1
  Si  Si30  1  0.202448  0.545947  0.064106  1
  Si  Si31  1  0.545947  0.202448  0.935894  1
  Si  Si32  1  0.796905  0.450835  0.565075  1
  Si  Si33  1  0.050867  0.295250  0.817716  1
  Si  Si34  1  0.952083  0.702984  0.313942  1
  W  W35  1  0.175206  0.175206  0.000000  1
