# generated using pymatgen
data_DyTm2Hf3(SnRh)6
_symmetry_space_group_name_H-M   'P 1'
_cell_length_a   7.46810408
_cell_length_b   7.46105362
_cell_length_c   7.48195800
_cell_angle_alpha   90.00000000
_cell_angle_beta   90.00000000
_cell_angle_gamma   119.96965704
_symmetry_Int_Tables_number   1
_chemical_formula_structural   DyTm2Hf3(SnRh)6
_chemical_formula_sum   'Dy1 Tm2 Hf3 Sn6 Rh6'
_cell_volume   361.15125438
_cell_formula_units_Z   1
loop_
 _symmetry_equiv_pos_site_id
 _symmetry_equiv_pos_as_xyz
  1  'x, y, z'
loop_
 _atom_site_type_symbol
 _atom_site_label
 _atom_site_symmetry_multiplicity
 _atom_site_fract_x
 _atom_site_fract_y
 _atom_site_fract_z
 _atom_site_occupancy
  Dy  Dy0  1  0.999850  0.406016  0.750000  1
  Tm  Tm1  1  0.594729  0.594611  0.750000  1
  Tm  Tm2  1  0.405451  0.000261  0.750000  1
  Hf  Hf3  1  0.999017  0.392943  0.250000  1
  Hf  Hf4  1  0.606912  0.605976  0.250000  1
  Hf  Hf5  1  0.394067  0.001015  0.250000  1
  Sn  Sn6  1  0.266909  0.267287  0.494720  1
  Sn  Sn7  1  0.000827  0.733837  0.493894  1
  Sn  Sn8  1  0.000827  0.733837  0.006106  1
  Sn  Sn9  1  0.732257  0.998737  0.494735  1
  Sn  Sn10  1  0.732257  0.998737  0.005265  1
  Sn  Sn11  1  0.266909  0.267287  0.005280  1
  Rh  Rh12  1  0.333916  0.667079  0.462155  1
  Rh  Rh13  1  0.666081  0.333169  0.464044  1
  Rh  Rh14  1  0.333916  0.667079  0.037845  1
  Rh  Rh15  1  0.000002  0.998746  0.750000  1
  Rh  Rh16  1  0.999989  0.000217  0.250000  1
  Rh  Rh17  1  0.666081  0.333169  0.035956  1
