# generated using pymatgen
data_LaPr6Dy9CdHg3Ir4
_symmetry_space_group_name_H-M   'P 1'
_cell_length_a   9.75283878
_cell_length_b   9.76563907
_cell_length_c   9.76566087
_cell_angle_alpha   60.27790332
_cell_angle_beta   60.29901952
_cell_angle_gamma   60.29972485
_symmetry_Int_Tables_number   1
_chemical_formula_structural   LaPr6Dy9CdHg3Ir4
_chemical_formula_sum   'La1 Pr6 Dy9 Cd1 Hg3 Ir4'
_cell_volume   662.03481350
_cell_formula_units_Z   1
loop_
 _symmetry_equiv_pos_site_id
 _symmetry_equiv_pos_as_xyz
  1  'x, y, z'
loop_
 _atom_site_type_symbol
 _atom_site_label
 _atom_site_symmetry_multiplicity
 _atom_site_fract_x
 _atom_site_fract_y
 _atom_site_fract_z
 _atom_site_occupancy
  La  La0  1  0.348683  0.348180  0.348183  1
  Pr  Pr1  1  0.939919  0.560067  0.560070  1
  Pr  Pr2  1  0.556830  0.942821  0.942823  1
  Pr  Pr3  1  0.559352  0.940381  0.559960  1
  Pr  Pr4  1  0.942270  0.557096  0.942996  1
  Pr  Pr5  1  0.559353  0.559965  0.940379  1
  Pr  Pr6  1  0.942268  0.942996  0.557097  1
  Dy  Dy7  1  0.348894  0.348637  0.952253  1
  Dy  Dy8  1  0.348894  0.952253  0.348634  1
  Dy  Dy9  1  0.950172  0.349457  0.349457  1
  Dy  Dy10  1  0.813779  0.187108  0.187107  1
  Dy  Dy11  1  0.186104  0.811987  0.811987  1
  Dy  Dy12  1  0.186066  0.814584  0.186740  1
  Dy  Dy13  1  0.811100  0.187561  0.811410  1
  Dy  Dy14  1  0.186066  0.186740  0.814585  1
  Dy  Dy15  1  0.811099  0.811409  0.187562  1
  Cd  Cd16  1  0.263664  0.580779  0.580780  1
  Hg  Hg17  1  0.581121  0.582760  0.582759  1
  Hg  Hg18  1  0.583981  0.586105  0.251379  1
  Hg  Hg19  1  0.583980  0.251379  0.586105  1
  Ir  Ir20  1  0.141461  0.141979  0.141979  1
  Ir  Ir21  1  0.138538  0.138885  0.578012  1
  Ir  Ir22  1  0.138537  0.578012  0.138885  1
  Ir  Ir23  1  0.577866  0.138857  0.138857  1
