# generated using pymatgen
data_Y4Al24Pd2Pt7
_symmetry_space_group_name_H-M   'P 1'
_cell_length_a   7.52989924
_cell_length_b   7.53845242
_cell_length_c   13.19910842
_cell_angle_alpha   84.61454525
_cell_angle_beta   100.88072268
_cell_angle_gamma   119.83904190
_symmetry_Int_Tables_number   1
_chemical_formula_structural   Y4Al24Pd2Pt7
_chemical_formula_sum   'Y4 Al24 Pd2 Pt7'
_cell_volume   638.21945521
_cell_formula_units_Z   1
loop_
 _symmetry_equiv_pos_site_id
 _symmetry_equiv_pos_as_xyz
  1  'x, y, z'
loop_
 _atom_site_type_symbol
 _atom_site_label
 _atom_site_symmetry_multiplicity
 _atom_site_fract_x
 _atom_site_fract_y
 _atom_site_fract_z
 _atom_site_occupancy
  Y  Y0  1  0.732521  0.998595  0.192145  1
  Y  Y1  1  0.267727  0.001327  0.807821  1
  Y  Y2  1  0.062225  0.668287  0.192171  1
  Y  Y3  1  0.938003  0.331452  0.807899  1
  Al  Al4  1  0.807426  0.868955  0.815534  1
  Al  Al5  1  0.192395  0.131177  0.184444  1
  Al  Al6  1  0.981649  0.666366  0.944457  1
  Al  Al7  1  0.018847  0.333839  0.055446  1
  Al  Al8  1  0.398142  0.664040  0.816551  1
  Al  Al9  1  0.601094  0.336125  0.183581  1
  Al  Al10  1  0.881990  0.665235  0.669900  1
  Al  Al11  1  0.118236  0.334710  0.330173  1
  Al  Al12  1  0.602707  0.458832  0.815991  1
  Al  Al13  1  0.396991  0.541894  0.183880  1
  Al  Al14  1  0.230274  0.340030  0.668805  1
  Al  Al15  1  0.769796  0.659975  0.331203  1
  Al  Al16  1  0.853094  0.333060  0.558395  1
  Al  Al17  1  0.185625  0.999027  0.558588  1
  Al  Al18  1  0.814292  0.000810  0.441421  1
  Al  Al19  1  0.352237  0.999418  0.055556  1
  Al  Al20  1  0.647649  0.000059  0.944541  1
  Al  Al21  1  0.555841  0.993150  0.670034  1
  Al  Al22  1  0.444199  0.006596  0.329889  1
  Al  Al23  1  0.520841  0.667412  0.561566  1
  Al  Al24  1  0.479225  0.332591  0.438549  1
  Al  Al25  1  0.682841  0.667624  0.046622  1
  Al  Al26  1  0.316895  0.332637  0.953343  1
  Al  Al27  1  0.147014  0.666998  0.441498  1
  Pd  Pd28  1  0.328548  0.671429  0.000044  1
  Pd  Pd29  1  0.000032  0.999981  0.000001  1
  Pt  Pt30  1  0.545973  0.324848  0.637194  1
  Pt  Pt31  1  0.454167  0.674939  0.363099  1
  Pt  Pt32  1  0.887443  0.007707  0.638371  1
  Pt  Pt33  1  0.112620  0.992281  0.361639  1
  Pt  Pt34  1  0.671378  0.328642  0.999955  1
  Pt  Pt35  1  0.204341  0.666581  0.638392  1
  Pt  Pt36  1  0.795720  0.333370  0.361302  1
