# generated using pymatgen
data_Er16AgHg3Ir4
_symmetry_space_group_name_H-M   'P 1'
_cell_length_a   9.52818666
_cell_length_b   9.52818649
_cell_length_c   9.52818751
_cell_angle_alpha   59.73053104
_cell_angle_beta   59.73052557
_cell_angle_gamma   59.73053250
_symmetry_Int_Tables_number   1
_chemical_formula_structural   Er16AgHg3Ir4
_chemical_formula_sum   'Er16 Ag1 Hg3 Ir4'
_cell_volume   607.92474993
_cell_formula_units_Z   1
loop_
 _symmetry_equiv_pos_site_id
 _symmetry_equiv_pos_as_xyz
  1  'x, y, z'
loop_
 _atom_site_type_symbol
 _atom_site_label
 _atom_site_symmetry_multiplicity
 _atom_site_fract_x
 _atom_site_fract_y
 _atom_site_fract_z
 _atom_site_occupancy
  Er  Er0  1  0.601297  0.601297  0.601297  1
  Er  Er1  1  0.600929  0.600929  0.199299  1
  Er  Er2  1  0.600929  0.199299  0.600929  1
  Er  Er3  1  0.199299  0.600929  0.600929  1
  Er  Er4  1  0.059508  0.439974  0.439974  1
  Er  Er5  1  0.437420  0.059356  0.059356  1
  Er  Er6  1  0.439974  0.059508  0.439974  1
  Er  Er7  1  0.059356  0.437420  0.059356  1
  Er  Er8  1  0.439974  0.439974  0.059508  1
  Er  Er9  1  0.059356  0.059356  0.437420  1
  Er  Er10  1  0.187846  0.811059  0.811059  1
  Er  Er11  1  0.811318  0.186644  0.186644  1
  Er  Er12  1  0.811059  0.187846  0.811059  1
  Er  Er13  1  0.186644  0.811318  0.186644  1
  Er  Er14  1  0.811059  0.811059  0.187846  1
  Er  Er15  1  0.186644  0.186644  0.811318  1
  Ag  Ag16  1  0.833740  0.833740  0.833740  1
  Hg  Hg17  1  0.835753  0.835753  0.497497  1
  Hg  Hg18  1  0.835753  0.497497  0.835753  1
  Hg  Hg19  1  0.497497  0.835753  0.835753  1
  Ir  Ir20  1  0.392072  0.392072  0.392072  1
  Ir  Ir21  1  0.393788  0.393788  0.824993  1
  Ir  Ir22  1  0.393788  0.824993  0.393788  1
  Ir  Ir23  1  0.824993  0.393788  0.393788  1
