# generated using pymatgen
data_Tb2CeThRe5Os3
_symmetry_space_group_name_H-M   'P 1'
_cell_length_a   5.36702282
_cell_length_b   5.23002123
_cell_length_c   9.32708037
_cell_angle_alpha   89.99999925
_cell_angle_beta   90.08490834
_cell_angle_gamma   119.15910707
_symmetry_Int_Tables_number   1
_chemical_formula_structural   Tb2CeThRe5Os3
_chemical_formula_sum   'Tb2 Ce1 Th1 Re5 Os3'
_cell_volume   228.62859742
_cell_formula_units_Z   1
loop_
 _symmetry_equiv_pos_site_id
 _symmetry_equiv_pos_as_xyz
  1  'x, y, z'
loop_
 _atom_site_type_symbol
 _atom_site_label
 _atom_site_symmetry_multiplicity
 _atom_site_fract_x
 _atom_site_fract_y
 _atom_site_fract_z
 _atom_site_occupancy
  Tb  Tb0  1  0.666786  0.333393  0.437336  1
  Tb  Tb1  1  0.332994  0.666497  0.561740  1
  Ce  Ce2  1  0.336807  0.668404  0.939627  1
  Th  Th3  1  0.667394  0.333697  0.060170  1
  Re  Re4  1  0.159345  0.828391  0.255563  1
  Re  Re5  1  0.159345  0.330954  0.255563  1
  Re  Re6  1  0.342002  0.171001  0.746379  1
  Re  Re7  1  0.834299  0.169562  0.744916  1
  Re  Re8  1  0.834299  0.664737  0.744916  1
  Os  Os9  1  0.006872  0.003436  0.498953  1
  Os  Os10  1  0.013930  0.006964  0.001093  1
  Os  Os11  1  0.645927  0.822963  0.253744  1
