# generated using pymatgen
data_ErNp3Ga12Fe
_symmetry_space_group_name_H-M   'P 1'
_cell_length_a   7.37863339
_cell_length_b   7.43088959
_cell_length_c   7.37863263
_cell_angle_alpha   109.61475239
_cell_angle_beta   109.32731773
_cell_angle_gamma   109.61474158
_symmetry_Int_Tables_number   1
_chemical_formula_structural   ErNp3Ga12Fe
_chemical_formula_sum   'Er1 Np3 Ga12 Fe1'
_cell_volume   310.88400622
_cell_formula_units_Z   1
loop_
 _symmetry_equiv_pos_site_id
 _symmetry_equiv_pos_as_xyz
  1  'x, y, z'
loop_
 _atom_site_type_symbol
 _atom_site_label
 _atom_site_symmetry_multiplicity
 _atom_site_fract_x
 _atom_site_fract_y
 _atom_site_fract_z
 _atom_site_occupancy
  Er  Er0  1  0.000000  0.500000  0.000000  1
  Np  Np1  1  0.000000  0.000000  0.500000  1
  Np  Np2  1  0.500000  0.000000  0.000000  1
  Np  Np3  1  0.500000  0.500000  0.500000  1
  Ga  Ga4  1  0.713359  0.717288  0.000000  1
  Ga  Ga5  1  0.286641  0.003929  0.286641  1
  Ga  Ga6  1  0.000000  0.282712  0.286641  1
  Ga  Ga7  1  0.286641  0.282712  0.000000  1
  Ga  Ga8  1  0.713359  0.996071  0.713359  1
  Ga  Ga9  1  0.000000  0.717288  0.713359  1
  Ga  Ga10  1  0.749321  0.249321  0.498643  1
  Ga  Ga11  1  0.749321  0.500000  0.250679  1
  Ga  Ga12  1  0.498643  0.249321  0.749321  1
  Ga  Ga13  1  0.250679  0.500000  0.749321  1
  Ga  Ga14  1  0.250679  0.750679  0.501357  1
  Ga  Ga15  1  0.501357  0.750679  0.250679  1
  Fe  Fe16  1  0.000000  0.000000  0.000000  1
