# generated using pymatgen
data_Pa3N5
_symmetry_space_group_name_H-M   'P 1'
_cell_length_a   4.25752800
_cell_length_b   11.63675200
_cell_length_c   11.38249400
_cell_angle_alpha   90.00000000
_cell_angle_beta   90.00000000
_cell_angle_gamma   90.00000000
_symmetry_Int_Tables_number   1
_chemical_formula_structural   Pa3N5
_chemical_formula_sum   'Pa12 N20'
_cell_volume   563.93197743
_cell_formula_units_Z   4
loop_
 _symmetry_equiv_pos_site_id
 _symmetry_equiv_pos_as_xyz
  1  'x, y, z'
loop_
 _atom_site_type_symbol
 _atom_site_label
 _atom_site_symmetry_multiplicity
 _atom_site_fract_x
 _atom_site_fract_y
 _atom_site_fract_z
 _atom_site_occupancy
  Pa  Pa0  1  0.000000  0.823724  0.250000  1
  Pa  Pa1  1  0.000000  0.176276  0.750000  1
  Pa  Pa2  1  0.500000  0.323724  0.250000  1
  Pa  Pa3  1  0.500000  0.676276  0.750000  1
  Pa  Pa4  1  0.000000  0.138972  0.433777  1
  Pa  Pa5  1  0.000000  0.861028  0.566223  1
  Pa  Pa6  1  0.000000  0.138972  0.066223  1
  Pa  Pa7  1  0.000000  0.861028  0.933777  1
  Pa  Pa8  1  0.500000  0.638972  0.433777  1
  Pa  Pa9  1  0.500000  0.361028  0.566223  1
  Pa  Pa10  1  0.500000  0.638972  0.066223  1
  Pa  Pa11  1  0.500000  0.361028  0.933777  1
  N  N12  1  0.000000  0.235589  0.250000  1
  N  N13  1  0.000000  0.764411  0.750000  1
  N  N14  1  0.500000  0.735589  0.250000  1
  N  N15  1  0.500000  0.264411  0.750000  1
  N  N16  1  0.000000  0.952842  0.391796  1
  N  N17  1  0.000000  0.047158  0.608204  1
  N  N18  1  0.000000  0.952842  0.108204  1
  N  N19  1  0.000000  0.047158  0.891796  1
  N  N20  1  0.500000  0.452842  0.391796  1
  N  N21  1  0.500000  0.547158  0.608204  1
  N  N22  1  0.500000  0.452842  0.108204  1
  N  N23  1  0.500000  0.547158  0.891796  1
  N  N24  1  0.000000  0.713834  0.423340  1
  N  N25  1  0.000000  0.286166  0.576660  1
  N  N26  1  0.000000  0.713834  0.076660  1
  N  N27  1  0.000000  0.286166  0.923340  1
  N  N28  1  0.500000  0.213834  0.423340  1
  N  N29  1  0.500000  0.786166  0.576660  1
  N  N30  1  0.500000  0.213834  0.076660  1
  N  N31  1  0.500000  0.786166  0.923340  1
