# generated using pymatgen
data_Cs7B12Ir5Pt7
_symmetry_space_group_name_H-M   'P 1'
_cell_length_a   9.51054396
_cell_length_b   9.49394010
_cell_length_c   9.49393944
_cell_angle_alpha   111.35038580
_cell_angle_beta   111.90980547
_cell_angle_gamma   111.90980291
_symmetry_Int_Tables_number   1
_chemical_formula_structural   Cs7B12Ir5Pt7
_chemical_formula_sum   'Cs7 B12 Ir5 Pt7'
_cell_volume   598.58538227
_cell_formula_units_Z   1
loop_
 _symmetry_equiv_pos_site_id
 _symmetry_equiv_pos_as_xyz
  1  'x, y, z'
loop_
 _atom_site_type_symbol
 _atom_site_label
 _atom_site_symmetry_multiplicity
 _atom_site_fract_x
 _atom_site_fract_y
 _atom_site_fract_z
 _atom_site_occupancy
  Cs  Cs0  1  0.996530  0.732541  0.730485  1
  Cs  Cs1  1  0.734556  0.732775  0.996243  1
  Cs  Cs2  1  0.730942  0.996733  0.731754  1
  Cs  Cs3  1  0.265444  0.003757  0.267225  1
  Cs  Cs4  1  0.003470  0.269515  0.267459  1
  Cs  Cs5  1  0.269058  0.268246  0.003267  1
  Cs  Cs6  1  0.500000  0.500334  0.499666  1
  B  B7  1  0.267360  0.733012  0.501480  1
  B  B8  1  0.732640  0.498520  0.266988  1
  B  B9  1  0.500000  0.266322  0.733678  1
  B  B10  1  0.721760  0.261381  0.497993  1
  B  B11  1  0.278240  0.502007  0.738619  1
  B  B12  1  0.500000  0.731138  0.268862  1
  B  B13  1  0.062069  0.940343  0.497280  1
  B  B14  1  0.937931  0.502720  0.059657  1
  B  B15  1  0.500000  0.059845  0.940155  1
  B  B16  1  0.939578  0.053738  0.486230  1
  B  B17  1  0.060422  0.513770  0.946262  1
  B  B18  1  0.500000  0.939408  0.060592  1
  Ir  Ir19  1  0.672766  0.326510  0.001404  1
  Ir  Ir20  1  0.327234  0.998596  0.673490  1
  Ir  Ir21  1  0.000000  0.672732  0.327268  1
  Ir  Ir22  1  0.325888  0.670812  0.000455  1
  Ir  Ir23  1  0.674112  0.999545  0.329188  1
  Pt  Pt24  1  0.000000  0.325955  0.674045  1
  Pt  Pt25  1  0.638732  0.244059  0.247648  1
  Pt  Pt26  1  0.250758  0.250270  0.641396  1
  Pt  Pt27  1  0.246950  0.642316  0.247854  1
  Pt  Pt28  1  0.749242  0.358604  0.749730  1
  Pt  Pt29  1  0.361268  0.752352  0.755941  1
  Pt  Pt30  1  0.753050  0.752146  0.357684  1
