# generated using pymatgen
data_Sc4Al3Fe5
_symmetry_space_group_name_H-M   'P 1'
_cell_length_a   5.08491501
_cell_length_b   5.08491528
_cell_length_c   8.24230600
_cell_angle_alpha   90.00000000
_cell_angle_beta   90.00000000
_cell_angle_gamma   120.00575342
_symmetry_Int_Tables_number   1
_chemical_formula_structural   Sc4Al3Fe5
_chemical_formula_sum   'Sc4 Al3 Fe5'
_cell_volume   184.55321027
_cell_formula_units_Z   1
loop_
 _symmetry_equiv_pos_site_id
 _symmetry_equiv_pos_as_xyz
  1  'x, y, z'
loop_
 _atom_site_type_symbol
 _atom_site_label
 _atom_site_symmetry_multiplicity
 _atom_site_fract_x
 _atom_site_fract_y
 _atom_site_fract_z
 _atom_site_occupancy
  Sc  Sc0  1  0.334689  0.665311  0.441329  1
  Sc  Sc1  1  0.663425  0.336575  0.570282  1
  Sc  Sc2  1  0.663425  0.336575  0.929718  1
  Sc  Sc3  1  0.334689  0.665311  0.058671  1
  Al  Al4  1  0.007740  0.992260  0.507655  1
  Al  Al5  1  0.007740  0.992260  0.992345  1
  Al  Al6  1  0.826401  0.173599  0.250000  1
  Fe  Fe7  1  0.821588  0.659833  0.250000  1
  Fe  Fe8  1  0.340167  0.178412  0.250000  1
  Fe  Fe9  1  0.177686  0.822314  0.750000  1
  Fe  Fe10  1  0.170856  0.348405  0.750000  1
  Fe  Fe11  1  0.651595  0.829144  0.750000  1
