# generated using pymatgen
data_Er2Tm3(FeB3)2
_symmetry_space_group_name_H-M   'P 1'
_cell_length_a   5.38519077
_cell_length_b   5.38519004
_cell_length_c   8.16459045
_cell_angle_alpha   70.74400945
_cell_angle_beta   70.74400914
_cell_angle_gamma   60.00000248
_symmetry_Int_Tables_number   1
_chemical_formula_structural   Er2Tm3(FeB3)2
_chemical_formula_sum   'Er2 Tm3 Fe2 B6'
_cell_volume   189.60356512
_cell_formula_units_Z   1
loop_
 _symmetry_equiv_pos_site_id
 _symmetry_equiv_pos_as_xyz
  1  'x, y, z'
loop_
 _atom_site_type_symbol
 _atom_site_label
 _atom_site_symmetry_multiplicity
 _atom_site_fract_x
 _atom_site_fract_y
 _atom_site_fract_z
 _atom_site_occupancy
  Er  Er0  1  0.999913  0.999913  0.000260  1
  Er  Er1  1  0.748381  0.748381  0.754859  1
  Tm  Tm2  1  0.251224  0.251224  0.246327  1
  Tm  Tm3  1  0.583298  0.583298  0.250108  1
  Tm  Tm4  1  0.416739  0.416739  0.749781  1
  Fe  Fe5  1  0.882796  0.882796  0.351612  1
  Fe  Fe6  1  0.117158  0.117158  0.648525  1
  B  B7  1  0.499941  0.168427  0.499755  1
  B  B8  1  0.831878  0.499941  0.499755  1
  B  B9  1  0.168427  0.831878  0.499755  1
  B  B10  1  0.168427  0.499941  0.499755  1
  B  B11  1  0.831878  0.168427  0.499755  1
  B  B12  1  0.499941  0.831878  0.499755  1
