# generated using pymatgen
data_Sc6Ti3NbAl12Ru7
_symmetry_space_group_name_H-M   'P 1'
_cell_length_a   8.83082378
_cell_length_b   8.83083135
_cell_length_c   8.84041247
_cell_angle_alpha   60.03397818
_cell_angle_beta   60.03418704
_cell_angle_gamma   59.99972291
_symmetry_Int_Tables_number   1
_chemical_formula_structural   Sc6Ti3NbAl12Ru7
_chemical_formula_sum   'Sc6 Ti3 Nb1 Al12 Ru7'
_cell_volume   487.73392840
_cell_formula_units_Z   1
loop_
 _symmetry_equiv_pos_site_id
 _symmetry_equiv_pos_as_xyz
  1  'x, y, z'
loop_
 _atom_site_type_symbol
 _atom_site_label
 _atom_site_symmetry_multiplicity
 _atom_site_fract_x
 _atom_site_fract_y
 _atom_site_fract_z
 _atom_site_occupancy
  Sc  Sc0  1  0.708932  0.708935  0.289358  1
  Sc  Sc1  1  0.292737  0.708959  0.289330  1
  Sc  Sc2  1  0.708963  0.292749  0.289318  1
  Sc  Sc3  1  0.290084  0.290062  0.709013  1
  Sc  Sc4  1  0.710826  0.290080  0.709007  1
  Sc  Sc5  1  0.290078  0.710857  0.709012  1
  Ti  Ti6  1  0.881298  0.358234  0.879165  1
  Ti  Ti7  1  0.358256  0.881294  0.879152  1
  Ti  Ti8  1  0.881307  0.881308  0.879143  1
  Nb  Nb9  1  0.879670  0.879683  0.360976  1
  Al  Al10  1  0.120037  0.120020  0.639920  1
  Al  Al11  1  0.120992  0.640391  0.117667  1
  Al  Al12  1  0.640384  0.120981  0.117679  1
  Al  Al13  1  0.120976  0.120959  0.117683  1
  Al  Al14  1  0.666421  0.666437  0.000667  1
  Al  Al15  1  0.664029  0.002243  0.669694  1
  Al  Al16  1  0.002256  0.664035  0.669689  1
  Al  Al17  1  0.664012  0.664031  0.669729  1
  Al  Al18  1  0.334207  0.334208  0.997401  1
  Al  Al19  1  0.333884  0.996715  0.335516  1
  Al  Al20  1  0.996722  0.333876  0.335514  1
  Al  Al21  1  0.333896  0.333894  0.335506  1
  Ru  Ru22  1  0.000566  0.000524  0.998383  1
  Ru  Ru23  1  0.997835  0.997826  0.501444  1
  Ru  Ru24  1  0.502891  0.997810  0.501465  1
  Ru  Ru25  1  0.997823  0.502908  0.501430  1
  Ru  Ru26  1  0.500792  0.500839  0.999055  1
  Ru  Ru27  1  0.999298  0.500843  0.999049  1
  Ru  Ru28  1  0.500824  0.999295  0.999035  1
