# generated using pymatgen
data_Nd16Zn3InRh4
_symmetry_space_group_name_H-M   'P 1'
_cell_length_a   9.83409024
_cell_length_b   9.87376885
_cell_length_c   9.87376900
_cell_angle_alpha   60.00000284
_cell_angle_beta   59.86644268
_cell_angle_gamma   59.86643835
_symmetry_Int_Tables_number   1
_chemical_formula_structural   Nd16Zn3InRh4
_chemical_formula_sum   'Nd16 Zn3 In1 Rh4'
_cell_volume   676.55861790
_cell_formula_units_Z   1
loop_
 _symmetry_equiv_pos_site_id
 _symmetry_equiv_pos_as_xyz
  1  'x, y, z'
loop_
 _atom_site_type_symbol
 _atom_site_label
 _atom_site_symmetry_multiplicity
 _atom_site_fract_x
 _atom_site_fract_y
 _atom_site_fract_z
 _atom_site_occupancy
  Nd  Nd0  1  0.808591  0.808339  0.191535  1
  Nd  Nd1  1  0.808591  0.191535  0.808339  1
  Nd  Nd2  1  0.190100  0.190610  0.809645  1
  Nd  Nd3  1  0.648090  0.053473  0.649219  1
  Nd  Nd4  1  0.069391  0.057160  0.436725  1
  Nd  Nd5  1  0.438237  0.436745  0.062509  1
  Nd  Nd6  1  0.648090  0.649219  0.649219  1
  Nd  Nd7  1  0.808591  0.191535  0.191535  1
  Nd  Nd8  1  0.190100  0.809645  0.809645  1
  Nd  Nd9  1  0.056479  0.647841  0.647841  1
  Nd  Nd10  1  0.438237  0.062509  0.062509  1
  Nd  Nd11  1  0.438237  0.062509  0.436745  1
  Nd  Nd12  1  0.069391  0.436725  0.057160  1
  Nd  Nd13  1  0.648090  0.649219  0.053473  1
  Nd  Nd14  1  0.190100  0.809645  0.190610  1
  Nd  Nd15  1  0.069391  0.436725  0.436725  1
  Zn  Zn16  1  0.418177  0.421504  0.421504  1
  Zn  Zn17  1  0.418177  0.421504  0.738814  1
  Zn  Zn18  1  0.418177  0.738814  0.421504  1
  In  In19  1  0.726766  0.424411  0.424411  1
  Rh  Rh20  1  0.857347  0.429076  0.856789  1
  Rh  Rh21  1  0.857347  0.856789  0.856789  1
  Rh  Rh22  1  0.857347  0.856789  0.429076  1
  Rh  Rh23  1  0.426954  0.857683  0.857683  1
