# generated using pymatgen
data_CaSn2PbCl8
_symmetry_space_group_name_H-M   'P 1'
_cell_length_a   6.73199379
_cell_length_b   7.19945624
_cell_length_c   7.93720600
_cell_angle_alpha   90.00000000
_cell_angle_beta   90.00000000
_cell_angle_gamma   88.86370280
_symmetry_Int_Tables_number   1
_chemical_formula_structural   CaSn2PbCl8
_chemical_formula_sum   'Ca1 Sn2 Pb1 Cl8'
_cell_volume   384.61449071
_cell_formula_units_Z   1
loop_
 _symmetry_equiv_pos_site_id
 _symmetry_equiv_pos_as_xyz
  1  'x, y, z'
loop_
 _atom_site_type_symbol
 _atom_site_label
 _atom_site_symmetry_multiplicity
 _atom_site_fract_x
 _atom_site_fract_y
 _atom_site_fract_z
 _atom_site_occupancy
  Ca  Ca0  1  0.500000  0.750000  0.651458  1
  Sn  Sn1  1  0.000000  0.250000  0.851916  1
  Sn  Sn2  1  0.500000  0.250000  0.366184  1
  Pb  Pb3  1  0.000000  0.750000  0.153858  1
  Cl  Cl4  1  0.225195  0.409417  0.092670  1
  Cl  Cl5  1  0.730855  0.576989  0.403466  1
  Cl  Cl6  1  0.757287  0.584925  0.889377  1
  Cl  Cl7  1  0.242713  0.915075  0.889377  1
  Cl  Cl8  1  0.718943  0.067044  0.602778  1
  Cl  Cl9  1  0.281057  0.432956  0.602778  1
  Cl  Cl10  1  0.269145  0.923011  0.403466  1
  Cl  Cl11  1  0.774805  0.090583  0.092670  1
