# generated using pymatgen
data_Tb5Y(MoO7)2
_symmetry_space_group_name_H-M   'P 1'
_cell_length_a   6.49842402
_cell_length_b   6.50108890
_cell_length_c   7.50485303
_cell_angle_alpha   89.99130742
_cell_angle_beta   89.99648985
_cell_angle_gamma   108.82041081
_symmetry_Int_Tables_number   1
_chemical_formula_structural   Tb5Y(MoO7)2
_chemical_formula_sum   'Tb5 Y1 Mo2 O14'
_cell_volume   300.10465721
_cell_formula_units_Z   1
loop_
 _symmetry_equiv_pos_site_id
 _symmetry_equiv_pos_as_xyz
  1  'x, y, z'
loop_
 _atom_site_type_symbol
 _atom_site_label
 _atom_site_symmetry_multiplicity
 _atom_site_fract_x
 _atom_site_fract_y
 _atom_site_fract_z
 _atom_site_occupancy
  Tb  Tb0  1  0.000512  0.536039  0.244546  1
  Tb  Tb1  1  0.470000  0.469905  0.999984  1
  Tb  Tb2  1  0.529900  0.529895  0.500032  1
  Tb  Tb3  1  0.535924  0.000395  0.755458  1
  Tb  Tb4  1  0.999632  0.464137  0.744527  1
  Y  Y5  1  0.464656  0.999515  0.255401  1
  Mo  Mo6  1  0.001538  0.001492  0.499854  1
  Mo  Mo7  1  0.998401  0.998525  0.000126  1
  O  O8  1  0.926780  0.073211  0.749999  1
  O  O9  1  0.636858  0.362853  0.750014  1
  O  O10  1  0.311375  0.058869  0.536292  1
  O  O11  1  0.940835  0.688334  0.963471  1
  O  O12  1  0.629646  0.368174  0.250090  1
  O  O13  1  0.917359  0.673891  0.525951  1
  O  O14  1  0.325861  0.082211  0.974264  1
  O  O15  1  0.082569  0.326123  0.025964  1
  O  O16  1  0.674168  0.917908  0.473736  1
  O  O17  1  0.369686  0.630519  0.749993  1
  O  O18  1  0.688612  0.941194  0.036838  1
  O  O19  1  0.059137  0.311729  0.463470  1
  O  O20  1  0.363272  0.638197  0.249997  1
  O  O21  1  0.073278  0.926885  0.249993  1
