# generated using pymatgen
data_Tm3HfIn2Ir3
_symmetry_space_group_name_H-M   'P 1'
_cell_length_a   7.38301750
_cell_length_b   7.21566196
_cell_length_c   4.13952700
_cell_angle_alpha   90.00000000
_cell_angle_beta   90.00000000
_cell_angle_gamma   119.25294694
_symmetry_Int_Tables_number   1
_chemical_formula_structural   Tm3HfIn2Ir3
_chemical_formula_sum   'Tm3 Hf1 In2 Ir3'
_cell_volume   192.40295334
_cell_formula_units_Z   1
loop_
 _symmetry_equiv_pos_site_id
 _symmetry_equiv_pos_as_xyz
  1  'x, y, z'
loop_
 _atom_site_type_symbol
 _atom_site_label
 _atom_site_symmetry_multiplicity
 _atom_site_fract_x
 _atom_site_fract_y
 _atom_site_fract_z
 _atom_site_occupancy
  Tm  Tm0  1  0.583646  0.587291  0.000000  1
  Tm  Tm1  1  0.416354  0.003645  0.000000  1
  Tm  Tm2  1  0.000000  0.395482  0.000000  1
  Hf  Hf3  1  0.000000  0.753096  0.500000  1
  In  In4  1  0.255854  0.254884  0.500000  1
  In  In5  1  0.744146  0.999030  0.500000  1
  Ir  Ir6  1  0.000000  0.980161  0.000000  1
  Ir  Ir7  1  0.682029  0.354220  0.500000  1
  Ir  Ir8  1  0.317971  0.672192  0.500000  1
