# generated using pymatgen
data_Tb9Dy(SiSn3)2
_symmetry_space_group_name_H-M   'P 1'
_cell_length_a   9.26872500
_cell_length_b   9.26872498
_cell_length_c   6.47921200
_cell_angle_alpha   90.00000000
_cell_angle_beta   90.00000000
_cell_angle_gamma   120.00000364
_symmetry_Int_Tables_number   1
_chemical_formula_structural   Tb9Dy(SiSn3)2
_chemical_formula_sum   'Tb9 Dy1 Si2 Sn6'
_cell_volume   482.05079023
_cell_formula_units_Z   1
loop_
 _symmetry_equiv_pos_site_id
 _symmetry_equiv_pos_as_xyz
  1  'x, y, z'
loop_
 _atom_site_type_symbol
 _atom_site_label
 _atom_site_symmetry_multiplicity
 _atom_site_fract_x
 _atom_site_fract_y
 _atom_site_fract_z
 _atom_site_occupancy
  Tb  Tb0  1  0.666667  0.333333  0.000000  1
  Tb  Tb1  1  0.333333  0.666667  0.000000  1
  Tb  Tb2  1  0.333333  0.666667  0.500000  1
  Tb  Tb3  1  0.747214  0.747199  0.750018  1
  Tb  Tb4  1  0.252801  0.000015  0.750018  1
  Tb  Tb5  1  0.999985  0.252786  0.750018  1
  Tb  Tb6  1  0.252801  0.252786  0.249982  1
  Tb  Tb7  1  0.747214  0.000015  0.249982  1
  Tb  Tb8  1  0.999985  0.747199  0.249982  1
  Dy  Dy9  1  0.666667  0.333333  0.500000  1
  Si  Si10  1  0.000000  0.000000  0.000000  1
  Si  Si11  1  0.000000  0.000000  0.500000  1
  Sn  Sn12  1  0.391128  0.391084  0.749980  1
  Sn  Sn13  1  0.608916  0.000044  0.749980  1
  Sn  Sn14  1  0.999956  0.608872  0.749980  1
  Sn  Sn15  1  0.608916  0.608872  0.250020  1
  Sn  Sn16  1  0.391128  0.000044  0.250020  1
  Sn  Sn17  1  0.999956  0.391084  0.250020  1
