# generated using pymatgen
data_Nd16TcNi3Ag4
_symmetry_space_group_name_H-M   'P 1'
_cell_length_a   9.85562088
_cell_length_b   9.85562115
_cell_length_c   9.85562111
_cell_angle_alpha   59.28964091
_cell_angle_beta   59.28964072
_cell_angle_gamma   59.28964493
_symmetry_Int_Tables_number   1
_chemical_formula_structural   Nd16TcNi3Ag4
_chemical_formula_sum   'Nd16 Tc1 Ni3 Ag4'
_cell_volume   665.96966066
_cell_formula_units_Z   1
loop_
 _symmetry_equiv_pos_site_id
 _symmetry_equiv_pos_as_xyz
  1  'x, y, z'
loop_
 _atom_site_type_symbol
 _atom_site_label
 _atom_site_symmetry_multiplicity
 _atom_site_fract_x
 _atom_site_fract_y
 _atom_site_fract_z
 _atom_site_occupancy
  Nd  Nd0  1  0.599327  0.599327  0.599327  1
  Nd  Nd1  1  0.600400  0.600400  0.204052  1
  Nd  Nd2  1  0.600400  0.204052  0.600400  1
  Nd  Nd3  1  0.204052  0.600400  0.600400  1
  Nd  Nd4  1  0.058769  0.439609  0.439609  1
  Nd  Nd5  1  0.442015  0.057608  0.057608  1
  Nd  Nd6  1  0.439609  0.058769  0.439609  1
  Nd  Nd7  1  0.057608  0.442015  0.057608  1
  Nd  Nd8  1  0.439609  0.439609  0.058769  1
  Nd  Nd9  1  0.057608  0.057608  0.442015  1
  Nd  Nd10  1  0.184414  0.813613  0.813613  1
  Nd  Nd11  1  0.807020  0.188930  0.188930  1
  Nd  Nd12  1  0.813613  0.184414  0.813613  1
  Nd  Nd13  1  0.188930  0.807020  0.188930  1
  Nd  Nd14  1  0.813613  0.813613  0.184414  1
  Nd  Nd15  1  0.188930  0.188930  0.807020  1
  Tc  Tc16  1  0.390225  0.390225  0.390225  1
  Ni  Ni17  1  0.393637  0.393637  0.825106  1
  Ni  Ni18  1  0.393637  0.825106  0.393637  1
  Ni  Ni19  1  0.825106  0.393637  0.393637  1
  Ag  Ag20  1  0.831908  0.831908  0.831908  1
  Ag  Ag21  1  0.829564  0.829564  0.510442  1
  Ag  Ag22  1  0.829564  0.510442  0.829564  1
  Ag  Ag23  1  0.510442  0.829564  0.829564  1
