# generated using pymatgen
data_K(Bi3Rh)4
_symmetry_space_group_name_H-M   'P 1'
_cell_length_a   8.54562906
_cell_length_b   8.54562985
_cell_length_c   8.54563000
_cell_angle_alpha   109.47122573
_cell_angle_beta   109.47122760
_cell_angle_gamma   109.47121851
_symmetry_Int_Tables_number   1
_chemical_formula_structural   K(Bi3Rh)4
_chemical_formula_sum   'K1 Bi12 Rh4'
_cell_volume   480.40802840
_cell_formula_units_Z   1
loop_
 _symmetry_equiv_pos_site_id
 _symmetry_equiv_pos_as_xyz
  1  'x, y, z'
loop_
 _atom_site_type_symbol
 _atom_site_label
 _atom_site_symmetry_multiplicity
 _atom_site_fract_x
 _atom_site_fract_y
 _atom_site_fract_z
 _atom_site_occupancy
  K  K0  1  0.000000  0.000000  0.000000  1
  Bi  Bi1  1  0.840362  0.661080  0.501441  1
  Bi  Bi2  1  0.159638  0.338920  0.498559  1
  Bi  Bi3  1  0.159638  0.661080  0.820719  1
  Bi  Bi4  1  0.840362  0.338920  0.179281  1
  Bi  Bi5  1  0.661080  0.501441  0.840362  1
  Bi  Bi6  1  0.338920  0.498559  0.159638  1
  Bi  Bi7  1  0.661080  0.820719  0.159638  1
  Bi  Bi8  1  0.338920  0.179281  0.840362  1
  Bi  Bi9  1  0.501441  0.840362  0.661080  1
  Bi  Bi10  1  0.498559  0.159638  0.338920  1
  Bi  Bi11  1  0.179281  0.840362  0.338920  1
  Bi  Bi12  1  0.820719  0.159638  0.661080  1
  Rh  Rh13  1  0.500000  0.500000  0.500000  1
  Rh  Rh14  1  0.500000  0.000000  0.000000  1
  Rh  Rh15  1  0.000000  0.500000  0.000000  1
  Rh  Rh16  1  0.000000  0.000000  0.500000  1
