# generated using pymatgen
data_Nd(Eu3Si2)3
_symmetry_space_group_name_H-M   'P 1'
_cell_length_a   9.23066918
_cell_length_b   9.23066888
_cell_length_c   9.22010434
_cell_angle_alpha   129.78095005
_cell_angle_beta   129.78094776
_cell_angle_gamma   73.74989585
_symmetry_Int_Tables_number   1
_chemical_formula_structural   Nd(Eu3Si2)3
_chemical_formula_sum   'Nd1 Eu9 Si6'
_cell_volume   452.65966841
_cell_formula_units_Z   1
loop_
 _symmetry_equiv_pos_site_id
 _symmetry_equiv_pos_as_xyz
  1  'x, y, z'
loop_
 _atom_site_type_symbol
 _atom_site_label
 _atom_site_symmetry_multiplicity
 _atom_site_fract_x
 _atom_site_fract_y
 _atom_site_fract_z
 _atom_site_occupancy
  Nd  Nd0  1  0.539471  0.039471  0.863716  1
  Eu  Eu1  1  0.176219  0.676219  0.144484  1
  Eu  Eu2  1  0.032638  0.176588  0.500194  1
  Eu  Eu3  1  0.676588  0.532638  0.500194  1
  Eu  Eu4  1  0.468041  0.968041  0.147814  1
  Eu  Eu5  1  0.822083  0.322083  0.853526  1
  Eu  Eu6  1  0.968197  0.821389  0.498527  1
  Eu  Eu7  1  0.321389  0.468197  0.498527  1
  Eu  Eu8  1  0.498645  0.505582  0.001042  1
  Eu  Eu9  1  0.005582  0.998645  0.001042  1
  Si  Si10  1  0.884469  0.384469  0.272541  1
  Si  Si11  1  0.106802  0.606802  0.715101  1
  Si  Si12  1  0.389968  0.110464  0.505617  1
  Si  Si13  1  0.610464  0.889968  0.505617  1
  Si  Si14  1  0.254795  0.244649  0.996030  1
  Si  Si15  1  0.744649  0.754795  0.996030  1
