# generated using pymatgen
data_Dy13HoLu2(InRh)4
_symmetry_space_group_name_H-M   'P 1'
_cell_length_a   9.64002070
_cell_length_b   9.64697904
_cell_length_c   9.64144613
_cell_angle_alpha   59.98101853
_cell_angle_beta   60.08431933
_cell_angle_gamma   59.97611643
_symmetry_Int_Tables_number   1
_chemical_formula_structural   Dy13HoLu2(InRh)4
_chemical_formula_sum   'Dy13 Ho1 Lu2 In4 Rh4'
_cell_volume   634.20771638
_cell_formula_units_Z   1
loop_
 _symmetry_equiv_pos_site_id
 _symmetry_equiv_pos_as_xyz
  1  'x, y, z'
loop_
 _atom_site_type_symbol
 _atom_site_label
 _atom_site_symmetry_multiplicity
 _atom_site_fract_x
 _atom_site_fract_y
 _atom_site_fract_z
 _atom_site_occupancy
  Dy  Dy0  1  0.935422  0.938969  0.561857  1
  Dy  Dy1  1  0.148314  0.151207  0.549271  1
  Dy  Dy2  1  0.561501  0.939536  0.559429  1
  Dy  Dy3  1  0.148951  0.151858  0.151475  1
  Dy  Dy4  1  0.312051  0.310315  0.688701  1
  Dy  Dy5  1  0.935422  0.563752  0.561857  1
  Dy  Dy6  1  0.561396  0.561344  0.939360  1
  Dy  Dy7  1  0.561396  0.937900  0.939360  1
  Dy  Dy8  1  0.934785  0.562873  0.939469  1
  Dy  Dy9  1  0.148951  0.547715  0.151475  1
  Dy  Dy10  1  0.312051  0.688933  0.688701  1
  Dy  Dy11  1  0.688663  0.311965  0.687409  1
  Dy  Dy12  1  0.552659  0.149433  0.148474  1
  Ho  Ho13  1  0.313420  0.687970  0.310641  1
  Lu  Lu14  1  0.689127  0.311916  0.310991  1
  Lu  Lu15  1  0.689127  0.687966  0.310991  1
  In  In16  1  0.918605  0.916733  0.247928  1
  In  In17  1  0.248982  0.916704  0.917609  1
  In  In18  1  0.917602  0.248869  0.917484  1
  In  In19  1  0.917602  0.916045  0.917484  1
  Rh  Rh20  1  0.361300  0.355392  0.357456  1
  Rh  Rh21  1  0.923288  0.359610  0.357494  1
  Rh  Rh22  1  0.358084  0.357144  0.927630  1
  Rh  Rh23  1  0.361300  0.925853  0.357456  1
