# generated using pymatgen
data_DyZrSn2IrRh
_symmetry_space_group_name_H-M   'P 1'
_cell_length_a   7.50388900
_cell_length_b   7.50388882
_cell_length_c   7.54007500
_cell_angle_alpha   90.00000000
_cell_angle_beta   90.00000000
_cell_angle_gamma   120.00000522
_symmetry_Int_Tables_number   1
_chemical_formula_structural   DyZrSn2IrRh
_chemical_formula_sum   'Dy3 Zr3 Sn6 Ir3 Rh3'
_cell_volume   367.68766984
_cell_formula_units_Z   3
loop_
 _symmetry_equiv_pos_site_id
 _symmetry_equiv_pos_as_xyz
  1  'x, y, z'
loop_
 _atom_site_type_symbol
 _atom_site_label
 _atom_site_symmetry_multiplicity
 _atom_site_fract_x
 _atom_site_fract_y
 _atom_site_fract_z
 _atom_site_occupancy
  Dy  Dy0  1  0.406478  0.998388  0.249428  1
  Dy  Dy1  1  0.591911  0.593522  0.249428  1
  Dy  Dy2  1  0.001612  0.408089  0.249428  1
  Zr  Zr3  1  0.604303  0.605675  0.750447  1
  Zr  Zr4  1  0.001372  0.395697  0.750447  1
  Zr  Zr5  1  0.394325  0.998628  0.750447  1
  Sn  Sn6  1  0.266351  0.264527  0.505873  1
  Sn  Sn7  1  0.265735  0.264777  0.994060  1
  Sn  Sn8  1  0.735223  0.000958  0.994060  1
  Sn  Sn9  1  0.998176  0.733649  0.505873  1
  Sn  Sn10  1  0.735473  0.001824  0.505873  1
  Sn  Sn11  1  0.999042  0.734265  0.994060  1
  Ir  Ir12  1  0.666667  0.333333  0.967012  1
  Ir  Ir13  1  0.333333  0.666667  0.967576  1
  Ir  Ir14  1  0.333333  0.666667  0.531947  1
  Rh  Rh15  1  0.666667  0.333333  0.534033  1
  Rh  Rh16  1  0.000000  0.000000  0.750344  1
  Rh  Rh17  1  0.000000  0.000000  0.249666  1
