# generated using pymatgen
data_Sc2(NbRe8)3
_symmetry_space_group_name_H-M   'P 1'
_cell_length_a   8.43889740
_cell_length_b   8.43889637
_cell_length_c   8.42752300
_cell_angle_alpha   109.44392657
_cell_angle_beta   109.44392411
_cell_angle_gamma   109.49849904
_symmetry_Int_Tables_number   1
_chemical_formula_structural   Sc2(NbRe8)3
_chemical_formula_sum   'Sc2 Nb3 Re24'
_cell_volume   462.16347318
_cell_formula_units_Z   1
loop_
 _symmetry_equiv_pos_site_id
 _symmetry_equiv_pos_as_xyz
  1  'x, y, z'
loop_
 _atom_site_type_symbol
 _atom_site_label
 _atom_site_symmetry_multiplicity
 _atom_site_fract_x
 _atom_site_fract_y
 _atom_site_fract_z
 _atom_site_occupancy
  Sc  Sc0  1  0.000000  0.000000  0.631892  1
  Sc  Sc1  1  0.000000  0.000000  0.998681  1
  Nb  Nb2  1  0.368028  0.368028  0.367780  1
  Nb  Nb3  1  0.000000  0.631972  0.999752  1
  Nb  Nb4  1  0.631972  0.000000  0.999752  1
  Re  Re5  1  0.000000  0.397946  0.680797  1
  Re  Re6  1  0.282333  0.600905  0.600172  1
  Re  Re7  1  0.717667  0.318574  0.317841  1
  Re  Re8  1  0.318574  0.717667  0.317841  1
  Re  Re9  1  0.676767  0.000000  0.396568  1
  Re  Re10  1  0.000000  0.676767  0.396568  1
  Re  Re11  1  0.602054  0.602054  0.282852  1
  Re  Re12  1  0.805643  0.805643  0.181915  1
  Re  Re13  1  0.376286  0.193513  0.000502  1
  Re  Re14  1  0.193513  0.376286  0.000502  1
  Re  Re15  1  0.623714  0.817227  0.624215  1
  Re  Re16  1  0.377112  0.000000  0.196481  1
  Re  Re17  1  0.000000  0.377112  0.196481  1
  Re  Re18  1  0.817227  0.623714  0.624215  1
  Re  Re19  1  0.182773  0.806487  0.806988  1
  Re  Re20  1  0.806487  0.182773  0.806988  1
  Re  Re21  1  0.194357  0.000000  0.376272  1
  Re  Re22  1  0.000000  0.194357  0.376272  1
  Re  Re23  1  0.622888  0.622888  0.819370  1
  Re  Re24  1  0.397946  0.000000  0.680797  1
  Re  Re25  1  0.600905  0.282333  0.600172  1
  Re  Re26  1  0.681426  0.399095  0.999267  1
  Re  Re27  1  0.399095  0.681426  0.999267  1
  Re  Re28  1  0.323233  0.323233  0.719800  1
