# generated using pymatgen
data_YEr3(Tm4Bi3)4
_symmetry_space_group_name_H-M   'P 1'
_cell_length_a   8.18960524
_cell_length_b   9.46191800
_cell_length_c   11.90996535
_cell_angle_alpha   90.00000000
_cell_angle_beta   89.97204647
_cell_angle_gamma   90.00000000
_symmetry_Int_Tables_number   1
_chemical_formula_structural   YEr3(Tm4Bi3)4
_chemical_formula_sum   'Y1 Er3 Tm16 Bi12'
_cell_volume   922.89564112
_cell_formula_units_Z   1
loop_
 _symmetry_equiv_pos_site_id
 _symmetry_equiv_pos_as_xyz
  1  'x, y, z'
loop_
 _atom_site_type_symbol
 _atom_site_label
 _atom_site_symmetry_multiplicity
 _atom_site_fract_x
 _atom_site_fract_y
 _atom_site_fract_z
 _atom_site_occupancy
  Y  Y0  1  0.313423  0.250000  0.217868  1
  Er  Er1  1  0.813286  0.250000  0.282519  1
  Er  Er2  1  0.686835  0.750000  0.782543  1
  Er  Er3  1  0.186820  0.750000  0.717512  1
  Tm  Tm4  1  0.352800  0.750000  0.217095  1
  Tm  Tm5  1  0.852837  0.750000  0.282890  1
  Tm  Tm6  1  0.647228  0.250000  0.782895  1
  Tm  Tm7  1  0.147118  0.250000  0.717093  1
  Tm  Tm8  1  0.691707  0.565854  0.058847  1
  Tm  Tm9  1  0.191750  0.934109  0.441182  1
  Tm  Tm10  1  0.308276  0.065816  0.940986  1
  Tm  Tm11  1  0.808222  0.434091  0.558851  1
  Tm  Tm12  1  0.308276  0.434184  0.940986  1
  Tm  Tm13  1  0.808222  0.065909  0.558851  1
  Tm  Tm14  1  0.691707  0.934146  0.058847  1
  Tm  Tm15  1  0.191750  0.565891  0.441182  1
  Tm  Tm16  1  0.477598  0.250000  0.489319  1
  Tm  Tm17  1  0.977108  0.250000  0.010746  1
  Tm  Tm18  1  0.522601  0.750000  0.510941  1
  Tm  Tm19  1  0.022566  0.750000  0.989031  1
  Bi  Bi20  1  0.403604  0.750000  0.957275  1
  Bi  Bi21  1  0.903650  0.750000  0.542721  1
  Bi  Bi22  1  0.596834  0.250000  0.042272  1
  Bi  Bi23  1  0.096120  0.250000  0.457460  1
  Bi  Bi24  1  0.565493  0.995558  0.325490  1
  Bi  Bi25  1  0.064831  0.504614  0.174592  1
  Bi  Bi26  1  0.434727  0.495776  0.674648  1
  Bi  Bi27  1  0.934779  0.004227  0.825314  1
  Bi  Bi28  1  0.434727  0.004224  0.674648  1
  Bi  Bi29  1  0.934779  0.495773  0.825314  1
  Bi  Bi30  1  0.565493  0.504442  0.325490  1
  Bi  Bi31  1  0.064831  0.995386  0.174592  1
