# generated using pymatgen
data_SmBeSiRh3
_symmetry_space_group_name_H-M   'P 1'
_cell_length_a   5.54583300
_cell_length_b   5.54583389
_cell_length_c   3.52300100
_cell_angle_alpha   90.00000000
_cell_angle_beta   90.00000000
_cell_angle_gamma   120.00000067
_symmetry_Int_Tables_number   1
_chemical_formula_structural   SmBeSiRh3
_chemical_formula_sum   'Sm1 Be1 Si1 Rh3'
_cell_volume   93.83763207
_cell_formula_units_Z   1
loop_
 _symmetry_equiv_pos_site_id
 _symmetry_equiv_pos_as_xyz
  1  'x, y, z'
loop_
 _atom_site_type_symbol
 _atom_site_label
 _atom_site_symmetry_multiplicity
 _atom_site_fract_x
 _atom_site_fract_y
 _atom_site_fract_z
 _atom_site_occupancy
  Sm  Sm0  1  0.000000  0.000000  0.000000  1
  Be  Be1  1  0.666667  0.333333  0.000000  1
  Si  Si2  1  0.333333  0.666667  0.000000  1
  Rh  Rh3  1  0.502869  0.497131  0.500000  1
  Rh  Rh4  1  0.502869  0.005738  0.500000  1
  Rh  Rh5  1  0.994262  0.497131  0.500000  1
