# generated using pymatgen
data_TbTm2(Ga2Ni3)3
_symmetry_space_group_name_H-M   'P 1'
_cell_length_a   4.06544700
_cell_length_b   8.74308040
_cell_length_c   8.70464134
_cell_angle_alpha   60.25880381
_cell_angle_beta   90.00000000
_cell_angle_gamma   90.00000000
_symmetry_Int_Tables_number   1
_chemical_formula_structural   TbTm2(Ga2Ni3)3
_chemical_formula_sum   'Tb1 Tm2 Ga6 Ni9'
_cell_volume   268.64637158
_cell_formula_units_Z   1
loop_
 _symmetry_equiv_pos_site_id
 _symmetry_equiv_pos_as_xyz
  1  'x, y, z'
loop_
 _atom_site_type_symbol
 _atom_site_label
 _atom_site_symmetry_multiplicity
 _atom_site_fract_x
 _atom_site_fract_y
 _atom_site_fract_z
 _atom_site_occupancy
  Tb  Tb0  1  0.500000  0.666134  0.667043  1
  Tm  Tm1  1  0.500000  0.333473  0.333741  1
  Tm  Tm2  1  0.000000  0.999417  0.001495  1
  Ga  Ga3  1  0.500000  0.729600  0.270202  1
  Ga  Ga4  1  0.500000  0.269746  0.000341  1
  Ga  Ga5  1  0.500000  0.000306  0.730274  1
  Ga  Ga6  1  0.000000  0.478330  0.520866  1
  Ga  Ga7  1  0.000000  0.521796  0.999062  1
  Ga  Ga8  1  0.000000  0.000564  0.478374  1
  Ni  Ni9  1  0.000000  0.203667  0.173107  1
  Ni  Ni10  1  0.000000  0.172985  0.625770  1
  Ni  Ni11  1  0.000000  0.624931  0.201530  1
  Ni  Ni12  1  0.000000  0.828112  0.799611  1
  Ni  Ni13  1  0.000000  0.371107  0.827800  1
  Ni  Ni14  1  0.000000  0.798703  0.373400  1
  Ni  Ni15  1  0.500000  0.291933  0.706728  1
  Ni  Ni16  1  0.500000  0.708048  0.000405  1
  Ni  Ni17  1  0.500000  0.001048  0.290348  1
