# generated using pymatgen
data_Tb13Pr7(SnBi3)4
_symmetry_space_group_name_H-M   'P 1'
_cell_length_a   8.39855963
_cell_length_b   8.38262138
_cell_length_c   15.70044877
_cell_angle_alpha   90.01985142
_cell_angle_beta   90.17323166
_cell_angle_gamma   89.98835596
_symmetry_Int_Tables_number   1
_chemical_formula_structural   Tb13Pr7(SnBi3)4
_chemical_formula_sum   'Tb13 Pr7 Sn4 Bi12'
_cell_volume   1105.33699662
_cell_formula_units_Z   1
loop_
 _symmetry_equiv_pos_site_id
 _symmetry_equiv_pos_as_xyz
  1  'x, y, z'
loop_
 _atom_site_type_symbol
 _atom_site_label
 _atom_site_symmetry_multiplicity
 _atom_site_fract_x
 _atom_site_fract_y
 _atom_site_fract_z
 _atom_site_occupancy
  Tb  Tb0  1  0.356240  0.850829  0.875706  1
  Tb  Tb1  1  0.855611  0.648147  0.625171  1
  Tb  Tb2  1  0.642341  0.148921  0.375168  1
  Tb  Tb3  1  0.140869  0.350857  0.124539  1
  Tb  Tb4  1  0.640947  0.149210  0.124345  1
  Tb  Tb5  1  0.142916  0.351132  0.375092  1
  Tb  Tb6  1  0.357721  0.851914  0.625967  1
  Tb  Tb7  1  0.859632  0.650018  0.875377  1
  Tb  Tb8  1  0.527919  0.317253  0.899397  1
  Tb  Tb9  1  0.188100  0.494268  0.749985  1
  Tb  Tb10  1  0.688076  0.006461  0.750269  1
  Tb  Tb11  1  0.811584  0.506159  0.249319  1
  Tb  Tb12  1  0.311657  0.994155  0.250000  1
  Pr  Pr13  1  0.023369  0.183696  0.598657  1
  Pr  Pr14  1  0.477049  0.683374  0.402435  1
  Pr  Pr15  1  0.975086  0.816830  0.097503  1
  Pr  Pr16  1  0.476659  0.683070  0.097943  1
  Pr  Pr17  1  0.977087  0.816879  0.402558  1
  Pr  Pr18  1  0.522325  0.316395  0.597289  1
  Pr  Pr19  1  0.023223  0.182111  0.902393  1
  Sn  Sn20  1  0.340805  0.154903  0.752595  1
  Sn  Sn21  1  0.836568  0.348101  0.750949  1
  Sn  Sn22  1  0.662240  0.847777  0.249963  1
  Sn  Sn23  1  0.161928  0.652433  0.249799  1
  Bi  Bi24  1  0.290919  0.042209  0.045915  1
  Bi  Bi25  1  0.792335  0.457321  0.453813  1
  Bi  Bi26  1  0.708249  0.957330  0.546171  1
  Bi  Bi27  1  0.215006  0.536244  0.953220  1
  Bi  Bi28  1  0.705796  0.960123  0.953411  1
  Bi  Bi29  1  0.207394  0.543837  0.546144  1
  Bi  Bi30  1  0.292154  0.043127  0.454537  1
  Bi  Bi31  1  0.789150  0.455495  0.043599  1
  Bi  Bi32  1  0.553539  0.626377  0.751367  1
  Bi  Bi33  1  0.053489  0.872731  0.749920  1
  Bi  Bi34  1  0.446078  0.372533  0.249703  1
  Bi  Bi35  1  0.945937  0.127779  0.249779  1
