# generated using pymatgen
data_Sm4OsBr4
_symmetry_space_group_name_H-M   'P 1'
_cell_length_a   9.25184547
_cell_length_b   9.25184451
_cell_length_c   6.62343787
_cell_angle_alpha   89.93181068
_cell_angle_beta   89.93181255
_cell_angle_gamma   89.45220428
_symmetry_Int_Tables_number   1
_chemical_formula_structural   Sm4OsBr4
_chemical_formula_sum   'Sm8 Os2 Br8'
_cell_volume   566.91729140
_cell_formula_units_Z   2
loop_
 _symmetry_equiv_pos_site_id
 _symmetry_equiv_pos_as_xyz
  1  'x, y, z'
loop_
 _atom_site_type_symbol
 _atom_site_label
 _atom_site_symmetry_multiplicity
 _atom_site_fract_x
 _atom_site_fract_y
 _atom_site_fract_z
 _atom_site_occupancy
  Sm  Sm0  1  0.751727  0.097301  0.989800  1
  Sm  Sm1  1  0.097301  0.751727  0.489800  1
  Sm  Sm2  1  0.095757  0.247586  0.998271  1
  Sm  Sm3  1  0.247586  0.095757  0.498271  1
  Sm  Sm4  1  0.904243  0.752414  0.001729  1
  Sm  Sm5  1  0.902699  0.248273  0.510200  1
  Sm  Sm6  1  0.248273  0.902699  0.010200  1
  Sm  Sm7  1  0.752414  0.904243  0.501729  1
  Os  Os8  1  0.997107  0.002893  0.250000  1
  Os  Os9  1  0.002893  0.997107  0.750000  1
  Br  Br10  1  0.588448  0.181804  0.573581  1
  Br  Br11  1  0.816058  0.592202  0.422583  1
  Br  Br12  1  0.407798  0.183942  0.077417  1
  Br  Br13  1  0.183942  0.407798  0.577417  1
  Br  Br14  1  0.592202  0.816058  0.922583  1
  Br  Br15  1  0.411552  0.818196  0.426419  1
  Br  Br16  1  0.181804  0.588448  0.073581  1
  Br  Br17  1  0.818196  0.411552  0.926419  1
