# generated using pymatgen
data_Y2Er6Cd2IrRu
_symmetry_space_group_name_H-M   'P 1'
_cell_length_a   9.58144928
_cell_length_b   9.57634951
_cell_length_c   9.61543201
_cell_angle_alpha   59.90004793
_cell_angle_beta   59.84748341
_cell_angle_gamma   59.68563749
_symmetry_Int_Tables_number   1
_chemical_formula_structural   Y2Er6Cd2IrRu
_chemical_formula_sum   'Y4 Er12 Cd4 Ir2 Ru2'
_cell_volume   621.17651714
_cell_formula_units_Z   2
loop_
 _symmetry_equiv_pos_site_id
 _symmetry_equiv_pos_as_xyz
  1  'x, y, z'
loop_
 _atom_site_type_symbol
 _atom_site_label
 _atom_site_symmetry_multiplicity
 _atom_site_fract_x
 _atom_site_fract_y
 _atom_site_fract_z
 _atom_site_occupancy
  Y  Y0  1  0.559979  0.938276  0.563442  1
  Y  Y1  1  0.938276  0.559979  0.938303  1
  Y  Y2  1  0.561449  0.561449  0.938551  1
  Y  Y3  1  0.938456  0.938456  0.561544  1
  Er  Er4  1  0.348618  0.347686  0.347018  1
  Er  Er5  1  0.347686  0.348618  0.956677  1
  Er  Er6  1  0.347085  0.959739  0.346944  1
  Er  Er7  1  0.959739  0.347085  0.346232  1
  Er  Er8  1  0.812080  0.187486  0.189711  1
  Er  Er9  1  0.187486  0.812080  0.810722  1
  Er  Er10  1  0.187851  0.811793  0.190168  1
  Er  Er11  1  0.811793  0.187851  0.810188  1
  Er  Er12  1  0.188081  0.188081  0.811919  1
  Er  Er13  1  0.809379  0.809379  0.190621  1
  Er  Er14  1  0.940750  0.557361  0.560780  1
  Er  Er15  1  0.557361  0.940750  0.941109  1
  Cd  Cd16  1  0.580805  0.580075  0.580317  1
  Cd  Cd17  1  0.580075  0.580805  0.258804  1
  Cd  Cd18  1  0.580353  0.257687  0.581270  1
  Cd  Cd19  1  0.257687  0.580353  0.580691  1
  Ir  Ir20  1  0.143045  0.577732  0.140464  1
  Ir  Ir21  1  0.577732  0.143045  0.138757  1
  Ru  Ru22  1  0.143350  0.140881  0.136769  1
  Ru  Ru23  1  0.140881  0.143350  0.578999  1
