# generated using pymatgen
data_Ce12Si5Tc8As3
_symmetry_space_group_name_H-M   'P 1'
_cell_length_a   5.60177728
_cell_length_b   7.90946801
_cell_length_c   13.41148400
_cell_angle_alpha   90.00000000
_cell_angle_beta   90.00000000
_cell_angle_gamma   89.82774847
_symmetry_Int_Tables_number   1
_chemical_formula_structural   Ce12Si5Tc8As3
_chemical_formula_sum   'Ce12 Si5 Tc8 As3'
_cell_volume   594.22098458
_cell_formula_units_Z   1
loop_
 _symmetry_equiv_pos_site_id
 _symmetry_equiv_pos_as_xyz
  1  'x, y, z'
loop_
 _atom_site_type_symbol
 _atom_site_label
 _atom_site_symmetry_multiplicity
 _atom_site_fract_x
 _atom_site_fract_y
 _atom_site_fract_z
 _atom_site_occupancy
  Ce  Ce0  1  0.119167  0.271148  0.750000  1
  Ce  Ce1  1  0.881503  0.730786  0.250000  1
  Ce  Ce2  1  0.119368  0.230585  0.250000  1
  Ce  Ce3  1  0.878308  0.767747  0.750000  1
  Ce  Ce4  1  0.662721  0.414722  0.596511  1
  Ce  Ce5  1  0.334316  0.587359  0.096631  1
  Ce  Ce6  1  0.665207  0.088103  0.404635  1
  Ce  Ce7  1  0.335981  0.909297  0.903008  1
  Ce  Ce8  1  0.334316  0.587359  0.403369  1
  Ce  Ce9  1  0.662721  0.414722  0.903489  1
  Ce  Ce10  1  0.335981  0.909297  0.596992  1
  Ce  Ce11  1  0.665207  0.088103  0.095365  1
  Si  Si12  1  0.112260  0.250024  0.500261  1
  Si  Si13  1  0.888954  0.750388  0.999755  1
  Si  Si14  1  0.888954  0.750388  0.500245  1
  Si  Si15  1  0.112260  0.250024  0.999739  1
  Si  Si16  1  0.371047  0.616573  0.750000  1
  Tc  Tc17  1  0.850559  0.028986  0.589236  1
  Tc  Tc18  1  0.151161  0.971686  0.089406  1
  Tc  Tc19  1  0.849435  0.472537  0.410778  1
  Tc  Tc20  1  0.153527  0.528193  0.908575  1
  Tc  Tc21  1  0.151161  0.971686  0.410594  1
  Tc  Tc22  1  0.850559  0.028986  0.910764  1
  Tc  Tc23  1  0.153527  0.528193  0.591425  1
  Tc  Tc24  1  0.849435  0.472537  0.089222  1
  As  As25  1  0.620972  0.119991  0.750000  1
  As  As26  1  0.380148  0.880357  0.250000  1
  As  As27  1  0.621245  0.380220  0.250000  1
