# generated using pymatgen
data_Ce2Pr3Ho11(CdIr)4
_symmetry_space_group_name_H-M   'P 1'
_cell_length_a   9.68343012
_cell_length_b   9.69310733
_cell_length_c   9.71395154
_cell_angle_alpha   59.90829421
_cell_angle_beta   59.83224114
_cell_angle_gamma   59.75829917
_symmetry_Int_Tables_number   1
_chemical_formula_structural   Ce2Pr3Ho11(CdIr)4
_chemical_formula_sum   'Ce2 Pr3 Ho11 Cd4 Ir4'
_cell_volume   642.27633091
_cell_formula_units_Z   1
loop_
 _symmetry_equiv_pos_site_id
 _symmetry_equiv_pos_as_xyz
  1  'x, y, z'
loop_
 _atom_site_type_symbol
 _atom_site_label
 _atom_site_symmetry_multiplicity
 _atom_site_fract_x
 _atom_site_fract_y
 _atom_site_fract_z
 _atom_site_occupancy
  Ce  Ce0  1  0.347833  0.345832  0.346997  1
  Ce  Ce1  1  0.346153  0.347736  0.959987  1
  Pr  Pr2  1  0.940796  0.561836  0.935055  1
  Pr  Pr3  1  0.563476  0.566790  0.933811  1
  Pr  Pr4  1  0.935426  0.938399  0.562246  1
  Ho  Ho5  1  0.350510  0.948930  0.351901  1
  Ho  Ho6  1  0.950324  0.348533  0.350708  1
  Ho  Ho7  1  0.813823  0.185762  0.188202  1
  Ho  Ho8  1  0.189030  0.814915  0.811994  1
  Ho  Ho9  1  0.187493  0.813090  0.188988  1
  Ho  Ho10  1  0.813363  0.186843  0.811777  1
  Ho  Ho11  1  0.189393  0.185994  0.812011  1
  Ho  Ho12  1  0.811550  0.812411  0.189189  1
  Ho  Ho13  1  0.942711  0.558052  0.555083  1
  Ho  Ho14  1  0.554407  0.945598  0.940924  1
  Ho  Ho15  1  0.559768  0.942165  0.559628  1
  Cd  Cd16  1  0.582228  0.580760  0.577744  1
  Cd  Cd17  1  0.577817  0.581812  0.261761  1
  Cd  Cd18  1  0.576117  0.256975  0.583690  1
  Cd  Cd19  1  0.260436  0.576808  0.578464  1
  Ir  Ir20  1  0.147858  0.140678  0.138610  1
  Ir  Ir21  1  0.144435  0.145178  0.573165  1
  Ir  Ir22  1  0.142174  0.573367  0.145091  1
  Ir  Ir23  1  0.572876  0.141536  0.142973  1
