# generated using pymatgen
data_Y4Be2Co12Si2B3C
_symmetry_space_group_name_H-M   'P 1'
_cell_length_a   5.12781200
_cell_length_b   5.12781284
_cell_length_c   12.87822200
_cell_angle_alpha   90.00000000
_cell_angle_beta   90.00000000
_cell_angle_gamma   119.99998171
_symmetry_Int_Tables_number   1
_chemical_formula_structural   Y4Be2Co12Si2B3C
_chemical_formula_sum   'Y4 Be2 Co12 Si2 B3 C1'
_cell_volume   293.25868213
_cell_formula_units_Z   1
loop_
 _symmetry_equiv_pos_site_id
 _symmetry_equiv_pos_as_xyz
  1  'x, y, z'
loop_
 _atom_site_type_symbol
 _atom_site_label
 _atom_site_symmetry_multiplicity
 _atom_site_fract_x
 _atom_site_fract_y
 _atom_site_fract_z
 _atom_site_occupancy
  Y  Y0  1  0.333333  0.666667  0.250364  1
  Y  Y1  1  0.333333  0.666667  0.749636  1
  Y  Y2  1  0.333333  0.666667  0.000000  1
  Y  Y3  1  0.333333  0.666667  0.500000  1
  Be  Be4  1  0.666667  0.333333  0.249504  1
  Be  Be5  1  0.666667  0.333333  0.750496  1
  Co  Co6  1  0.830662  0.661323  0.105261  1
  Co  Co7  1  0.832841  0.665683  0.609655  1
  Co  Co8  1  0.338677  0.169338  0.105261  1
  Co  Co9  1  0.334317  0.167159  0.609655  1
  Co  Co10  1  0.830662  0.169338  0.105261  1
  Co  Co11  1  0.832841  0.167159  0.609655  1
  Co  Co12  1  0.830662  0.661323  0.894739  1
  Co  Co13  1  0.832841  0.665683  0.390345  1
  Co  Co14  1  0.338677  0.169338  0.894739  1
  Co  Co15  1  0.334317  0.167159  0.390345  1
  Co  Co16  1  0.830662  0.169338  0.894739  1
  Co  Co17  1  0.832841  0.167159  0.390345  1
  Si  Si18  1  0.000000  0.000000  0.751806  1
  Si  Si19  1  0.000000  0.000000  0.248194  1
  B  B20  1  0.666667  0.333333  0.500000  1
  B  B21  1  0.000000  0.000000  0.000000  1
  B  B22  1  0.000000  0.000000  0.500000  1
  C  C23  1  0.666667  0.333333  0.000000  1
