# generated using pymatgen
data_KPr6IrI12
_symmetry_space_group_name_H-M   'P 1'
_cell_length_a   10.13335886
_cell_length_b   10.13335848
_cell_length_c   10.13335925
_cell_angle_alpha   105.90624562
_cell_angle_beta   105.90624017
_cell_angle_gamma   105.90623283
_symmetry_Int_Tables_number   1
_chemical_formula_structural   KPr6IrI12
_chemical_formula_sum   'K1 Pr6 Ir1 I12'
_cell_volume   891.16733611
_cell_formula_units_Z   1
loop_
 _symmetry_equiv_pos_site_id
 _symmetry_equiv_pos_as_xyz
  1  'x, y, z'
loop_
 _atom_site_type_symbol
 _atom_site_label
 _atom_site_symmetry_multiplicity
 _atom_site_fract_x
 _atom_site_fract_y
 _atom_site_fract_z
 _atom_site_occupancy
  K  K0  1  0.500000  0.500000  0.500000  1
  Pr  Pr1  1  0.096998  0.302535  0.020310  1
  Pr  Pr2  1  0.302535  0.020311  0.096997  1
  Pr  Pr3  1  0.020311  0.096997  0.302536  1
  Pr  Pr4  1  0.979690  0.903003  0.697465  1
  Pr  Pr5  1  0.697465  0.979690  0.903003  1
  Pr  Pr6  1  0.903002  0.697465  0.979690  1
  Ir  Ir7  1  0.000000  0.000000  0.000000  1
  I  I8  1  0.224549  0.677565  0.076459  1
  I  I9  1  0.440597  0.356580  0.123515  1
  I  I10  1  0.677566  0.076459  0.224549  1
  I  I11  1  0.923542  0.775451  0.322435  1
  I  I12  1  0.123515  0.440597  0.356580  1
  I  I13  1  0.356580  0.123515  0.440597  1
  I  I14  1  0.643420  0.876485  0.559404  1
  I  I15  1  0.876486  0.559403  0.643420  1
  I  I16  1  0.076459  0.224549  0.677566  1
  I  I17  1  0.322435  0.923542  0.775451  1
  I  I18  1  0.559403  0.643420  0.876486  1
  I  I19  1  0.775451  0.322435  0.923541  1
