# generated using pymatgen
data_Y6Th2MgCdIr2
_symmetry_space_group_name_H-M   'P 1'
_cell_length_a   9.81399737
_cell_length_b   9.81399639
_cell_length_c   9.82707000
_cell_angle_alpha   59.95592339
_cell_angle_beta   59.95592669
_cell_angle_gamma   59.89288191
_symmetry_Int_Tables_number   1
_chemical_formula_structural   Y6Th2MgCdIr2
_chemical_formula_sum   'Y12 Th4 Mg2 Cd2 Ir4'
_cell_volume   668.28065734
_cell_formula_units_Z   2
loop_
 _symmetry_equiv_pos_site_id
 _symmetry_equiv_pos_as_xyz
  1  'x, y, z'
loop_
 _atom_site_type_symbol
 _atom_site_label
 _atom_site_symmetry_multiplicity
 _atom_site_fract_x
 _atom_site_fract_y
 _atom_site_fract_z
 _atom_site_occupancy
  Y  Y0  1  0.812431  0.188045  0.187282  1
  Y  Y1  1  0.188045  0.812431  0.812241  1
  Y  Y2  1  0.188045  0.812431  0.187282  1
  Y  Y3  1  0.812431  0.188045  0.812241  1
  Y  Y4  1  0.189265  0.189265  0.810735  1
  Y  Y5  1  0.813318  0.813318  0.186682  1
  Y  Y6  1  0.938678  0.564172  0.563864  1
  Y  Y7  1  0.564172  0.938678  0.933286  1
  Y  Y8  1  0.564172  0.938678  0.563864  1
  Y  Y9  1  0.938678  0.564172  0.933286  1
  Y  Y10  1  0.565206  0.565206  0.934794  1
  Y  Y11  1  0.936832  0.936832  0.563168  1
  Th  Th12  1  0.348857  0.348857  0.348092  1
  Th  Th13  1  0.348857  0.348857  0.954194  1
  Th  Th14  1  0.349015  0.953676  0.348654  1
  Th  Th15  1  0.953676  0.349015  0.348654  1
  Mg  Mg16  1  0.577251  0.577251  0.581789  1
  Mg  Mg17  1  0.577251  0.577251  0.263710  1
  Cd  Cd18  1  0.582169  0.252149  0.582841  1
  Cd  Cd19  1  0.252149  0.582169  0.582841  1
  Ir  Ir20  1  0.143714  0.143714  0.144221  1
  Ir  Ir21  1  0.143714  0.143714  0.568350  1
  Ir  Ir22  1  0.143163  0.568910  0.143963  1
  Ir  Ir23  1  0.568910  0.143163  0.143963  1
