# generated using pymatgen
data_Yb4Ga4CuNi3
_symmetry_space_group_name_H-M   'P 1'
_cell_length_a   4.02687500
_cell_length_b   6.84640817
_cell_length_c   7.62495615
_cell_angle_alpha   90.29956511
_cell_angle_beta   90.00000000
_cell_angle_gamma   90.00000000
_symmetry_Int_Tables_number   1
_chemical_formula_structural   Yb4Ga4CuNi3
_chemical_formula_sum   'Yb4 Ga4 Cu1 Ni3'
_cell_volume   210.21434579
_cell_formula_units_Z   1
loop_
 _symmetry_equiv_pos_site_id
 _symmetry_equiv_pos_as_xyz
  1  'x, y, z'
loop_
 _atom_site_type_symbol
 _atom_site_label
 _atom_site_symmetry_multiplicity
 _atom_site_fract_x
 _atom_site_fract_y
 _atom_site_fract_z
 _atom_site_occupancy
  Yb  Yb0  1  0.250000  0.026813  0.317260  1
  Yb  Yb1  1  0.250000  0.530505  0.178667  1
  Yb  Yb2  1  0.750000  0.965888  0.682680  1
  Yb  Yb3  1  0.750000  0.473328  0.824040  1
  Ga  Ga4  1  0.250000  0.142886  0.941918  1
  Ga  Ga5  1  0.250000  0.652033  0.562355  1
  Ga  Ga6  1  0.750000  0.853742  0.063250  1
  Ga  Ga7  1  0.750000  0.357656  0.431192  1
  Cu  Cu8  1  0.250000  0.279569  0.626303  1
  Ni  Ni9  1  0.250000  0.778455  0.873535  1
  Ni  Ni10  1  0.750000  0.719441  0.373824  1
  Ni  Ni11  1  0.750000  0.219684  0.124976  1
