# generated using pymatgen
data_Nd2Dy2ReB12Ru
_symmetry_space_group_name_H-M   'P 1'
_cell_length_a   3.72950700
_cell_length_b   9.24902587
_cell_length_c   11.69350324
_cell_angle_alpha   90.19786333
_cell_angle_beta   90.00000000
_cell_angle_gamma   90.00000000
_symmetry_Int_Tables_number   1
_chemical_formula_structural   Nd2Dy2ReB12Ru
_chemical_formula_sum   'Nd4 Dy4 Re2 B24 Ru2'
_cell_volume   403.35688225
_cell_formula_units_Z   2
loop_
 _symmetry_equiv_pos_site_id
 _symmetry_equiv_pos_as_xyz
  1  'x, y, z'
loop_
 _atom_site_type_symbol
 _atom_site_label
 _atom_site_symmetry_multiplicity
 _atom_site_fract_x
 _atom_site_fract_y
 _atom_site_fract_z
 _atom_site_occupancy
  Nd  Nd0  1  0.000000  0.321866  0.413027  1
  Nd  Nd1  1  0.000000  0.678134  0.586973  1
  Nd  Nd2  1  0.000000  0.824207  0.084948  1
  Nd  Nd3  1  0.000000  0.175793  0.915052  1
  Dy  Dy4  1  0.000000  0.943001  0.369978  1
  Dy  Dy5  1  0.000000  0.056999  0.630022  1
  Dy  Dy6  1  0.000000  0.442737  0.129888  1
  Dy  Dy7  1  0.000000  0.557263  0.870112  1
  Re  Re8  1  0.000000  0.139433  0.180771  1
  Re  Re9  1  0.000000  0.860567  0.819229  1
  B  B10  1  0.500000  0.555723  0.430463  1
  B  B11  1  0.500000  0.444277  0.569537  1
  B  B12  1  0.500000  0.054805  0.069132  1
  B  B13  1  0.500000  0.945195  0.930868  1
  B  B14  1  0.500000  0.749055  0.416716  1
  B  B15  1  0.500000  0.250945  0.583284  1
  B  B16  1  0.500000  0.249293  0.083406  1
  B  B17  1  0.500000  0.750707  0.916594  1
  B  B18  1  0.500000  0.789706  0.266933  1
  B  B19  1  0.500000  0.210294  0.733067  1
  B  B20  1  0.500000  0.290638  0.233760  1
  B  B21  1  0.500000  0.709362  0.766240  1
  B  B22  1  0.500000  0.630107  0.187026  1
  B  B23  1  0.500000  0.369893  0.812974  1
  B  B24  1  0.500000  0.130548  0.313968  1
  B  B25  1  0.500000  0.869452  0.686032  1
  B  B26  1  0.500000  0.984991  0.213432  1
  B  B27  1  0.500000  0.015009  0.786568  1
  B  B28  1  0.500000  0.485411  0.287266  1
  B  B29  1  0.500000  0.514589  0.712734  1
  B  B30  1  0.500000  0.599544  0.027471  1
  B  B31  1  0.500000  0.400456  0.972529  1
  B  B32  1  0.500000  0.100602  0.472401  1
  B  B33  1  0.500000  0.899398  0.527599  1
  Ru  Ru34  1  0.000000  0.638889  0.320133  1
  Ru  Ru35  1  0.000000  0.361111  0.679867  1
