# generated using pymatgen
data_Th4MgNi4Ag
_symmetry_space_group_name_H-M   'P 1'
_cell_length_a   7.55845800
_cell_length_b   7.55845800
_cell_length_c   3.69127900
_cell_angle_alpha   90.00000000
_cell_angle_beta   90.00000000
_cell_angle_gamma   90.00000000
_symmetry_Int_Tables_number   1
_chemical_formula_structural   Th4MgNi4Ag
_chemical_formula_sum   'Th4 Mg1 Ni4 Ag1'
_cell_volume   210.88382991
_cell_formula_units_Z   1
loop_
 _symmetry_equiv_pos_site_id
 _symmetry_equiv_pos_as_xyz
  1  'x, y, z'
loop_
 _atom_site_type_symbol
 _atom_site_label
 _atom_site_symmetry_multiplicity
 _atom_site_fract_x
 _atom_site_fract_y
 _atom_site_fract_z
 _atom_site_occupancy
  Th  Th0  1  0.328584  0.824875  0.500000  1
  Th  Th1  1  0.824875  0.671416  0.500000  1
  Th  Th2  1  0.175125  0.328584  0.500000  1
  Th  Th3  1  0.671416  0.175125  0.500000  1
  Mg  Mg4  1  0.000000  0.000000  0.000000  1
  Ni  Ni5  1  0.121249  0.627495  0.000000  1
  Ni  Ni6  1  0.627495  0.878751  0.000000  1
  Ni  Ni7  1  0.878751  0.372505  0.000000  1
  Ni  Ni8  1  0.372505  0.121249  0.000000  1
  Ag  Ag9  1  0.500000  0.500000  0.000000  1
