# generated using pymatgen
data_Yb20As7Ir5
_symmetry_space_group_name_H-M   'P 1'
_cell_length_a   6.30299997
_cell_length_b   11.26551706
_cell_length_c   11.26551706
_cell_angle_alpha   90.23095099
_cell_angle_beta   89.71890321
_cell_angle_gamma   89.71890321
_symmetry_Int_Tables_number   1
_chemical_formula_structural   Yb20As7Ir5
_chemical_formula_sum   'Yb20 As7 Ir5'
_cell_volume   799.89971178
_cell_formula_units_Z   1
loop_
 _symmetry_equiv_pos_site_id
 _symmetry_equiv_pos_as_xyz
  1  'x, y, z'
loop_
 _atom_site_type_symbol
 _atom_site_label
 _atom_site_symmetry_multiplicity
 _atom_site_fract_x
 _atom_site_fract_y
 _atom_site_fract_z
 _atom_site_occupancy
  Yb  Yb0  1  0.355667  0.831008  0.551713  1
  Yb  Yb1  1  0.857670  0.655127  0.552151  1
  Yb  Yb2  1  0.851204  0.833696  0.944849  1
  Yb  Yb3  1  0.351701  0.662024  0.945710  1
  Yb  Yb4  1  0.855965  0.544391  0.826082  1
  Yb  Yb5  1  0.353158  0.950479  0.833009  1
  Yb  Yb6  1  0.359399  0.541573  0.659465  1
  Yb  Yb7  1  0.850650  0.947611  0.665995  1
  Yb  Yb8  1  0.644035  0.173918  0.455610  1
  Yb  Yb9  1  0.140601  0.340535  0.458428  1
  Yb  Yb10  1  0.146842  0.166991  0.049521  1
  Yb  Yb11  1  0.649350  0.334005  0.052389  1
  Yb  Yb12  1  0.144333  0.448288  0.168992  1
  Yb  Yb13  1  0.648796  0.055151  0.166304  1
  Yb  Yb14  1  0.642330  0.447850  0.344873  1
  Yb  Yb15  1  0.148299  0.054290  0.337976  1
  Yb  Yb16  1  0.501772  0.751839  0.247432  1
  Yb  Yb17  1  0.998228  0.752568  0.248161  1
  Yb  Yb18  1  0.998559  0.256048  0.741922  1
  Yb  Yb19  1  0.501441  0.258078  0.743952  1
  As  As20  1  0.250000  0.904032  0.095968  1
  As  As21  1  0.753520  0.598093  0.094790  1
  As  As22  1  0.746480  0.905210  0.401907  1
  As  As23  1  0.250000  0.600096  0.399904  1
  As  As24  1  0.750000  0.099882  0.900118  1
  As  As25  1  0.246355  0.398697  0.911018  1
  As  As26  1  0.253645  0.088982  0.601303  1
  Ir  Ir27  1  0.750000  0.401895  0.598105  1
  Ir  Ir28  1  0.104815  0.747929  0.748625  1
  Ir  Ir29  1  0.597215  0.747395  0.749052  1
  Ir  Ir30  1  0.902785  0.250948  0.252605  1
  Ir  Ir31  1  0.395185  0.251375  0.252071  1
