# generated using pymatgen
data_BaZn4Ru
_symmetry_space_group_name_H-M   'P 1'
_cell_length_a   7.00610927
_cell_length_b   7.00610951
_cell_length_c   5.21208300
_cell_angle_alpha   90.00000000
_cell_angle_beta   90.00000000
_cell_angle_gamma   103.00684505
_symmetry_Int_Tables_number   1
_chemical_formula_structural   BaZn4Ru
_chemical_formula_sum   'Ba2 Zn8 Ru2'
_cell_volume   249.27406828
_cell_formula_units_Z   2
loop_
 _symmetry_equiv_pos_site_id
 _symmetry_equiv_pos_as_xyz
  1  'x, y, z'
loop_
 _atom_site_type_symbol
 _atom_site_label
 _atom_site_symmetry_multiplicity
 _atom_site_fract_x
 _atom_site_fract_y
 _atom_site_fract_z
 _atom_site_occupancy
  Ba  Ba0  1  0.671602  0.671602  0.250000  1
  Ba  Ba1  1  0.328398  0.328398  0.750000  1
  Zn  Zn2  1  0.947118  0.947118  0.750000  1
  Zn  Zn3  1  0.052882  0.052882  0.250000  1
  Zn  Zn4  1  0.528731  0.942441  0.751984  1
  Zn  Zn5  1  0.471269  0.057559  0.251984  1
  Zn  Zn6  1  0.942441  0.528731  0.748016  1
  Zn  Zn7  1  0.057559  0.471269  0.248016  1
  Zn  Zn8  1  0.786449  0.213551  0.000000  1
  Zn  Zn9  1  0.213551  0.786449  0.500000  1
  Ru  Ru10  1  0.799143  0.200857  0.500000  1
  Ru  Ru11  1  0.200857  0.799143  0.000000  1
