# generated using pymatgen
data_Sr12Ag9Sn4Pb8Au3
_symmetry_space_group_name_H-M   'P 1'
_cell_length_a   5.03172100
_cell_length_b   8.63496906
_cell_length_c   23.81940137
_cell_angle_alpha   89.94602810
_cell_angle_beta   90.00000000
_cell_angle_gamma   90.00000000
_symmetry_Int_Tables_number   1
_chemical_formula_structural   Sr12Ag9Sn4Pb8Au3
_chemical_formula_sum   'Sr12 Ag9 Sn4 Pb8 Au3'
_cell_volume   1034.92287908
_cell_formula_units_Z   1
loop_
 _symmetry_equiv_pos_site_id
 _symmetry_equiv_pos_as_xyz
  1  'x, y, z'
loop_
 _atom_site_type_symbol
 _atom_site_label
 _atom_site_symmetry_multiplicity
 _atom_site_fract_x
 _atom_site_fract_y
 _atom_site_fract_z
 _atom_site_occupancy
  Sr  Sr0  1  0.750000  0.214438  0.499436  1
  Sr  Sr1  1  0.250000  0.787462  0.168036  1
  Sr  Sr2  1  0.250000  0.785041  0.501765  1
  Sr  Sr3  1  0.250000  0.795814  0.833823  1
  Sr  Sr4  1  0.250000  0.715068  0.331928  1
  Sr  Sr5  1  0.750000  0.207619  0.834642  1
  Sr  Sr6  1  0.750000  0.283270  0.998295  1
  Sr  Sr7  1  0.750000  0.287417  0.667090  1
  Sr  Sr8  1  0.750000  0.283501  0.333161  1
  Sr  Sr9  1  0.250000  0.715440  0.666472  1
  Sr  Sr10  1  0.250000  0.714626  0.001474  1
  Sr  Sr11  1  0.750000  0.208718  0.166533  1
  Ag  Ag12  1  0.250000  0.077875  0.596085  1
  Ag  Ag13  1  0.250000  0.080245  0.736388  1
  Ag  Ag14  1  0.750000  0.592247  0.904315  1
  Ag  Ag15  1  0.750000  0.915670  0.404024  1
  Ag  Ag16  1  0.750000  0.591144  0.566908  1
  Ag  Ag17  1  0.750000  0.594803  0.763284  1
  Ag  Ag18  1  0.250000  0.417005  0.433976  1
  Ag  Ag19  1  0.250000  0.405671  0.236775  1
  Ag  Ag20  1  0.750000  0.916053  0.063658  1
  Sn  Sn21  1  0.750000  0.915977  0.935270  1
  Sn  Sn22  1  0.250000  0.080236  0.267678  1
  Sn  Sn23  1  0.750000  0.916425  0.601458  1
  Sn  Sn24  1  0.750000  0.918822  0.731515  1
  Pb  Pb25  1  0.250000  0.413847  0.567345  1
  Pb  Pb26  1  0.250000  0.085395  0.400170  1
  Pb  Pb27  1  0.250000  0.085989  0.066642  1
  Pb  Pb28  1  0.250000  0.413559  0.900889  1
  Pb  Pb29  1  0.750000  0.583174  0.100466  1
  Pb  Pb30  1  0.250000  0.418432  0.766474  1
  Pb  Pb31  1  0.750000  0.582757  0.234794  1
  Pb  Pb32  1  0.750000  0.585324  0.432590  1
  Au  Au33  1  0.250000  0.414969  0.093567  1
  Au  Au34  1  0.250000  0.073027  0.932105  1
  Au  Au35  1  0.750000  0.922942  0.260972  1
