# generated using pymatgen
data_Nd4TcPt3F28
_symmetry_space_group_name_H-M   'P 1'
_cell_length_a   5.69822275
_cell_length_b   9.17727873
_cell_length_c   12.29894216
_cell_angle_alpha   62.02339312
_cell_angle_beta   90.03170864
_cell_angle_gamma   90.04476351
_symmetry_Int_Tables_number   1
_chemical_formula_structural   Nd4TcPt3F28
_chemical_formula_sum   'Nd4 Tc1 Pt3 F28'
_cell_volume   568.00233739
_cell_formula_units_Z   1
loop_
 _symmetry_equiv_pos_site_id
 _symmetry_equiv_pos_as_xyz
  1  'x, y, z'
loop_
 _atom_site_type_symbol
 _atom_site_label
 _atom_site_symmetry_multiplicity
 _atom_site_fract_x
 _atom_site_fract_y
 _atom_site_fract_z
 _atom_site_occupancy
  Nd  Nd0  1  0.259464  0.811093  0.265932  1
  Nd  Nd1  1  0.739657  0.188492  0.735576  1
  Nd  Nd2  1  0.760612  0.187643  0.236144  1
  Nd  Nd3  1  0.239536  0.811605  0.763715  1
  Tc  Tc4  1  0.756654  0.726178  0.042910  1
  Pt  Pt5  1  0.242170  0.273071  0.957376  1
  Pt  Pt6  1  0.258014  0.273235  0.457106  1
  Pt  Pt7  1  0.742174  0.726136  0.543372  1
  F  F8  1  0.930296  0.705834  0.416984  1
  F  F9  1  0.068061  0.293770  0.582851  1
  F  F10  1  0.432340  0.293953  0.083112  1
  F  F11  1  0.558588  0.709794  0.918892  1
  F  F12  1  0.477660  0.729759  0.135157  1
  F  F13  1  0.528713  0.272419  0.868417  1
  F  F14  1  0.971131  0.272682  0.368112  1
  F  F15  1  0.029999  0.726886  0.631491  1
  F  F16  1  0.950773  0.743623  0.168910  1
  F  F17  1  0.056578  0.256991  0.828094  1
  F  F18  1  0.444215  0.257733  0.327842  1
  F  F19  1  0.558181  0.741987  0.673055  1
  F  F20  1  0.769306  0.484335  0.138223  1
  F  F21  1  0.230630  0.515387  0.860946  1
  F  F22  1  0.268622  0.515538  0.361290  1
  F  F23  1  0.731215  0.483821  0.639405  1
  F  F24  1  0.949652  0.280497  0.040658  1
  F  F25  1  0.044456  0.720027  0.956139  1
  F  F26  1  0.448823  0.718527  0.460986  1
  F  F27  1  0.550610  0.280821  0.540145  1
  F  F28  1  0.742964  0.968607  0.451380  1
  F  F29  1  0.257497  0.030691  0.548719  1
  F  F30  1  0.243071  0.030477  0.049680  1
  F  F31  1  0.758019  0.967469  0.948193  1
  F  F32  1  0.590375  0.967535  0.231500  1
  F  F33  1  0.409729  0.032320  0.768229  1
  F  F34  1  0.090556  0.032335  0.269357  1
  F  F35  1  0.909660  0.968733  0.730101  1
