# generated using pymatgen
data_Dy2Be3Re14C3
_symmetry_space_group_name_H-M   'P 1'
_cell_length_a   6.87254647
_cell_length_b   6.87254663
_cell_length_c   6.87254539
_cell_angle_alpha   82.54675060
_cell_angle_beta   82.54674863
_cell_angle_gamma   82.54674183
_symmetry_Int_Tables_number   1
_chemical_formula_structural   Dy2Be3Re14C3
_chemical_formula_sum   'Dy2 Be3 Re14 C3'
_cell_volume   317.03058887
_cell_formula_units_Z   1
loop_
 _symmetry_equiv_pos_site_id
 _symmetry_equiv_pos_as_xyz
  1  'x, y, z'
loop_
 _atom_site_type_symbol
 _atom_site_label
 _atom_site_symmetry_multiplicity
 _atom_site_fract_x
 _atom_site_fract_y
 _atom_site_fract_z
 _atom_site_occupancy
  Dy  Dy0  1  0.653390  0.653390  0.653390  1
  Dy  Dy1  1  0.346610  0.346610  0.346610  1
  Be  Be2  1  0.000000  0.000000  0.500000  1
  Be  Be3  1  0.500000  0.000000  0.000000  1
  Be  Be4  1  0.000000  0.500000  0.000000  1
  Re  Re5  1  0.721115  0.278885  0.000000  1
  Re  Re6  1  0.000000  0.721115  0.278885  1
  Re  Re7  1  0.278885  0.000000  0.721115  1
  Re  Re8  1  0.000000  0.278885  0.721115  1
  Re  Re9  1  0.721115  0.000000  0.278885  1
  Re  Re10  1  0.278885  0.721115  0.000000  1
  Re  Re11  1  0.343473  0.343473  0.860134  1
  Re  Re12  1  0.860134  0.343473  0.343473  1
  Re  Re13  1  0.343473  0.860134  0.343473  1
  Re  Re14  1  0.656527  0.656527  0.139866  1
  Re  Re15  1  0.139866  0.656527  0.656527  1
  Re  Re16  1  0.656527  0.139866  0.656527  1
  Re  Re17  1  0.899504  0.899504  0.899504  1
  Re  Re18  1  0.100496  0.100496  0.100496  1
  C  C19  1  0.500000  0.500000  0.000000  1
  C  C20  1  0.000000  0.500000  0.500000  1
  C  C21  1  0.500000  0.000000  0.500000  1
