# generated using pymatgen
data_Mn3Co4Sb
_symmetry_space_group_name_H-M   'P 1'
_cell_length_a   7.25251734
_cell_length_b   7.25251747
_cell_length_c   7.25251832
_cell_angle_alpha   33.21392259
_cell_angle_beta   33.21391725
_cell_angle_gamma   33.21392279
_symmetry_Int_Tables_number   1
_chemical_formula_structural   Mn3Co4Sb
_chemical_formula_sum   'Mn3 Co4 Sb1'
_cell_volume   101.89577652
_cell_formula_units_Z   1
loop_
 _symmetry_equiv_pos_site_id
 _symmetry_equiv_pos_as_xyz
  1  'x, y, z'
loop_
 _atom_site_type_symbol
 _atom_site_label
 _atom_site_symmetry_multiplicity
 _atom_site_fract_x
 _atom_site_fract_y
 _atom_site_fract_z
 _atom_site_occupancy
  Mn  Mn0  1  0.246440  0.246440  0.246440  1
  Mn  Mn1  1  0.753560  0.753560  0.753560  1
  Mn  Mn2  1  0.500000  0.500000  0.500000  1
  Co  Co3  1  0.872191  0.872191  0.872191  1
  Co  Co4  1  0.378843  0.378843  0.378843  1
  Co  Co5  1  0.127809  0.127809  0.127809  1
  Co  Co6  1  0.621157  0.621157  0.621157  1
  Sb  Sb7  1  0.000000  0.000000  0.000000  1
