# generated using pymatgen
data_La4YZr3(As3Rh4)4
_symmetry_space_group_name_H-M   'P 1'
_cell_length_a   13.41598179
_cell_length_b   13.43934596
_cell_length_c   4.07564900
_cell_angle_alpha   90.00000000
_cell_angle_beta   90.00000000
_cell_angle_gamma   120.05762481
_symmetry_Int_Tables_number   1
_chemical_formula_structural   La4YZr3(As3Rh4)4
_chemical_formula_sum   'La4 Y1 Zr3 As12 Rh16'
_cell_volume   636.02696372
_cell_formula_units_Z   1
loop_
 _symmetry_equiv_pos_site_id
 _symmetry_equiv_pos_as_xyz
  1  'x, y, z'
loop_
 _atom_site_type_symbol
 _atom_site_label
 _atom_site_symmetry_multiplicity
 _atom_site_fract_x
 _atom_site_fract_y
 _atom_site_fract_z
 _atom_site_occupancy
  La  La0  1  0.186768  0.186540  0.500000  1
  La  La1  1  0.813232  0.999772  0.500000  1
  La  La2  1  0.333456  0.666807  0.000000  1
  La  La3  1  0.666544  0.333350  0.000000  1
  Y  Y4  1  0.000000  0.809772  0.500000  1
  Zr  Zr5  1  0.558848  0.558584  0.000000  1
  Zr  Zr6  1  0.441152  0.999736  0.000000  1
  Zr  Zr7  1  0.000000  0.443557  0.000000  1
  As  As8  1  0.824712  0.821664  0.000000  1
  As  As9  1  0.175288  0.996952  0.000000  1
  As  As10  1  0.000000  0.177898  0.000000  1
  As  As11  1  0.168030  0.483423  0.500000  1
  As  As12  1  0.518060  0.685566  0.500000  1
  As  As13  1  0.314414  0.831637  0.500000  1
  As  As14  1  0.685586  0.517223  0.500000  1
  As  As15  1  0.831970  0.315394  0.500000  1
  As  As16  1  0.481940  0.167506  0.500000  1
  As  As17  1  0.359434  0.359311  0.000000  1
  As  As18  1  0.640566  0.999876  0.000000  1
  As  As19  1  0.000000  0.643707  0.000000  1
  Rh  Rh20  1  0.719901  0.718065  0.500000  1
  Rh  Rh21  1  0.280099  0.998165  0.500000  1
  Rh  Rh22  1  0.000000  0.282917  0.500000  1
  Rh  Rh23  1  0.176288  0.375330  0.000000  1
  Rh  Rh24  1  0.625554  0.800996  0.000000  1
  Rh  Rh25  1  0.195970  0.823331  0.000000  1
  Rh  Rh26  1  0.804030  0.627361  0.000000  1
  Rh  Rh27  1  0.823712  0.199041  0.000000  1
  Rh  Rh28  1  0.374446  0.175443  0.000000  1
  Rh  Rh29  1  0.354878  0.481392  0.500000  1
  Rh  Rh30  1  0.518732  0.873001  0.500000  1
  Rh  Rh31  1  0.126045  0.646563  0.500000  1
  Rh  Rh32  1  0.873955  0.520517  0.500000  1
  Rh  Rh33  1  0.645122  0.126512  0.500000  1
  Rh  Rh34  1  0.481268  0.354268  0.500000  1
  Rh  Rh35  1  0.000000  0.998821  0.000000  1
