# generated using pymatgen
data_Yb2Mg2AgIr
_symmetry_space_group_name_H-M   'P 1'
_cell_length_a   4.23008100
_cell_length_b   7.35518747
_cell_length_c   8.70623991
_cell_angle_alpha   89.31843138
_cell_angle_beta   90.00000000
_cell_angle_gamma   90.00000000
_symmetry_Int_Tables_number   1
_chemical_formula_structural   Yb2Mg2AgIr
_chemical_formula_sum   'Yb4 Mg4 Ag2 Ir2'
_cell_volume   270.85841470
_cell_formula_units_Z   2
loop_
 _symmetry_equiv_pos_site_id
 _symmetry_equiv_pos_as_xyz
  1  'x, y, z'
loop_
 _atom_site_type_symbol
 _atom_site_label
 _atom_site_symmetry_multiplicity
 _atom_site_fract_x
 _atom_site_fract_y
 _atom_site_fract_z
 _atom_site_occupancy
  Yb  Yb0  1  0.250000  0.518453  0.157493  1
  Yb  Yb1  1  0.750000  0.481547  0.842507  1
  Yb  Yb2  1  0.750000  0.953888  0.691906  1
  Yb  Yb3  1  0.250000  0.046112  0.308094  1
  Mg  Mg4  1  0.250000  0.644820  0.573396  1
  Mg  Mg5  1  0.750000  0.355180  0.426604  1
  Mg  Mg6  1  0.750000  0.866617  0.051689  1
  Mg  Mg7  1  0.250000  0.133383  0.948311  1
  Ag  Ag8  1  0.750000  0.737345  0.369392  1
  Ag  Ag9  1  0.250000  0.262655  0.630608  1
  Ir  Ir10  1  0.250000  0.765948  0.869758  1
  Ir  Ir11  1  0.750000  0.234052  0.130242  1
