# generated using pymatgen
data_Er10In5AsS2
_symmetry_space_group_name_H-M   'P 1'
_cell_length_a   8.83594500
_cell_length_b   8.88658264
_cell_length_c   6.53903100
_cell_angle_alpha   90.00000000
_cell_angle_beta   90.00000000
_cell_angle_gamma   120.18976305
_symmetry_Int_Tables_number   1
_chemical_formula_structural   Er10In5AsS2
_chemical_formula_sum   'Er10 In5 As1 S2'
_cell_volume   443.81112790
_cell_formula_units_Z   1
loop_
 _symmetry_equiv_pos_site_id
 _symmetry_equiv_pos_as_xyz
  1  'x, y, z'
loop_
 _atom_site_type_symbol
 _atom_site_label
 _atom_site_symmetry_multiplicity
 _atom_site_fract_x
 _atom_site_fract_y
 _atom_site_fract_z
 _atom_site_occupancy
  Er  Er0  1  0.678221  0.337058  0.000640  1
  Er  Er1  1  0.321779  0.658838  0.000640  1
  Er  Er2  1  0.321779  0.658838  0.499360  1
  Er  Er3  1  0.678221  0.337058  0.499360  1
  Er  Er4  1  0.755712  0.756490  0.750000  1
  Er  Er5  1  0.244288  0.000778  0.750000  1
  Er  Er6  1  0.000000  0.245905  0.750000  1
  Er  Er7  1  0.240271  0.247138  0.250000  1
  Er  Er8  1  0.759729  0.006867  0.250000  1
  Er  Er9  1  0.000000  0.749002  0.250000  1
  In  In10  1  0.404756  0.401631  0.750000  1
  In  In11  1  0.595244  0.996877  0.750000  1
  In  In12  1  0.000000  0.605842  0.750000  1
  In  In13  1  0.596619  0.600045  0.250000  1
  In  In14  1  0.403381  0.003425  0.250000  1
  As  As15  1  0.000000  0.392756  0.250000  1
  S  S16  1  0.000000  0.000726  0.002038  1
  S  S17  1  0.000000  0.000726  0.497962  1
