# generated using pymatgen
data_DyTi(TcO4)6
_symmetry_space_group_name_H-M   'P 1'
_cell_length_a   10.27147798
_cell_length_b   10.27147735
_cell_length_c   10.27147800
_cell_angle_alpha   49.01622486
_cell_angle_beta   49.01623532
_cell_angle_gamma   49.01622845
_symmetry_Int_Tables_number   1
_chemical_formula_structural   DyTi(TcO4)6
_chemical_formula_sum   'Dy1 Ti1 Tc6 O24'
_cell_volume   567.04487839
_cell_formula_units_Z   1
loop_
 _symmetry_equiv_pos_site_id
 _symmetry_equiv_pos_as_xyz
  1  'x, y, z'
loop_
 _atom_site_type_symbol
 _atom_site_label
 _atom_site_symmetry_multiplicity
 _atom_site_fract_x
 _atom_site_fract_y
 _atom_site_fract_z
 _atom_site_occupancy
  Dy  Dy0  1  0.500000  0.500000  0.500000  1
  Ti  Ti1  1  0.000000  0.000000  0.000000  1
  Tc  Tc2  1  0.545017  0.969239  0.238394  1
  Tc  Tc3  1  0.238394  0.545017  0.969239  1
  Tc  Tc4  1  0.969239  0.238394  0.545017  1
  Tc  Tc5  1  0.761606  0.454983  0.030761  1
  Tc  Tc6  1  0.030761  0.761606  0.454983  1
  Tc  Tc7  1  0.454983  0.030761  0.761606  1
  O  O8  1  0.757136  0.996295  0.118874  1
  O  O9  1  0.118874  0.757136  0.996295  1
  O  O10  1  0.996295  0.118874  0.757136  1
  O  O11  1  0.676037  0.401441  0.269820  1
  O  O12  1  0.269820  0.676037  0.401441  1
  O  O13  1  0.401441  0.269820  0.676037  1
  O  O14  1  0.242864  0.003705  0.881126  1
  O  O15  1  0.881126  0.242864  0.003705  1
  O  O16  1  0.003705  0.881126  0.242864  1
  O  O17  1  0.323963  0.598559  0.730180  1
  O  O18  1  0.730180  0.323963  0.598559  1
  O  O19  1  0.598559  0.730180  0.323963  1
  O  O20  1  0.400297  0.037209  0.421742  1
  O  O21  1  0.421742  0.400297  0.037209  1
  O  O22  1  0.037209  0.421742  0.400297  1
  O  O23  1  0.911920  0.559225  0.902846  1
  O  O24  1  0.902846  0.911920  0.559225  1
  O  O25  1  0.559225  0.902846  0.911920  1
  O  O26  1  0.599703  0.962791  0.578258  1
  O  O27  1  0.578258  0.599703  0.962791  1
  O  O28  1  0.962791  0.578258  0.599703  1
  O  O29  1  0.088080  0.440775  0.097154  1
  O  O30  1  0.097154  0.088080  0.440775  1
  O  O31  1  0.440775  0.097154  0.088080  1
