# generated using pymatgen
data_HfZr7(Si4W3)4
_symmetry_space_group_name_H-M   'P 1'
_cell_length_a   6.61675428
_cell_length_b   6.78446483
_cell_length_c   12.67083201
_cell_angle_alpha   89.97335599
_cell_angle_beta   89.98456642
_cell_angle_gamma   90.00972387
_symmetry_Int_Tables_number   1
_chemical_formula_structural   HfZr7(Si4W3)4
_chemical_formula_sum   'Hf1 Zr7 Si16 W12'
_cell_volume   568.80796178
_cell_formula_units_Z   1
loop_
 _symmetry_equiv_pos_site_id
 _symmetry_equiv_pos_as_xyz
  1  'x, y, z'
loop_
 _atom_site_type_symbol
 _atom_site_label
 _atom_site_symmetry_multiplicity
 _atom_site_fract_x
 _atom_site_fract_y
 _atom_site_fract_z
 _atom_site_occupancy
  Hf  Hf0  1  0.507967  0.671865  0.592399  1
  Zr  Zr1  1  0.993512  0.172087  0.092580  1
  Zr  Zr2  1  0.006620  0.827744  0.907452  1
  Zr  Zr3  1  0.506536  0.672148  0.907942  1
  Zr  Zr4  1  0.006812  0.827731  0.592281  1
  Zr  Zr5  1  0.493580  0.327623  0.092479  1
  Zr  Zr6  1  0.993771  0.172488  0.407631  1
  Zr  Zr7  1  0.493305  0.328083  0.407935  1
  Si  Si8  1  0.032432  0.121197  0.749794  1
  Si  Si9  1  0.966962  0.878842  0.250191  1
  Si  Si10  1  0.467273  0.620672  0.249943  1
  Si  Si11  1  0.532172  0.379793  0.749826  1
  Si  Si12  1  0.301504  0.859543  0.749539  1
  Si  Si13  1  0.699141  0.139807  0.250291  1
  Si  Si14  1  0.199283  0.360153  0.250017  1
  Si  Si15  1  0.800411  0.639981  0.749779  1
  Si  Si16  1  0.167837  0.459888  0.543222  1
  Si  Si17  1  0.833062  0.540844  0.457055  1
  Si  Si18  1  0.333181  0.958996  0.457281  1
  Si  Si19  1  0.833336  0.540776  0.043112  1
  Si  Si20  1  0.666662  0.040181  0.543237  1
  Si  Si21  1  0.166744  0.459060  0.956782  1
  Si  Si22  1  0.666818  0.040866  0.956853  1
  Si  Si23  1  0.333259  0.959260  0.043074  1
  W  W24  1  0.166803  0.509598  0.749308  1
  W  W25  1  0.833904  0.490850  0.250207  1
  W  W26  1  0.333756  0.008964  0.250197  1
  W  W27  1  0.665757  0.990394  0.749344  1
  W  W28  1  0.330628  0.164108  0.624003  1
  W  W29  1  0.668272  0.835099  0.376618  1
  W  W30  1  0.169545  0.664138  0.376000  1
  W  W31  1  0.669179  0.835780  0.124316  1
  W  W32  1  0.829493  0.337048  0.623959  1
  W  W33  1  0.330776  0.163998  0.875608  1
  W  W34  1  0.830600  0.336295  0.875668  1
  W  W35  1  0.169111  0.664103  0.124080  1
