# generated using pymatgen
data_La4Ga18PtRh5
_symmetry_space_group_name_H-M   'P 1'
_cell_length_a   7.73129392
_cell_length_b   7.73129571
_cell_length_c   9.67657853
_cell_angle_alpha   90.00704693
_cell_angle_beta   90.00704782
_cell_angle_gamma   119.40892634
_symmetry_Int_Tables_number   1
_chemical_formula_structural   La4Ga18PtRh5
_chemical_formula_sum   'La4 Ga18 Pt1 Rh5'
_cell_volume   503.86350189
_cell_formula_units_Z   1
loop_
 _symmetry_equiv_pos_site_id
 _symmetry_equiv_pos_as_xyz
  1  'x, y, z'
loop_
 _atom_site_type_symbol
 _atom_site_label
 _atom_site_symmetry_multiplicity
 _atom_site_fract_x
 _atom_site_fract_y
 _atom_site_fract_z
 _atom_site_occupancy
  La  La0  1  0.996611  0.671037  0.749935  1
  La  La1  1  0.003389  0.328963  0.250065  1
  La  La2  1  0.671037  0.996611  0.749935  1
  La  La3  1  0.328963  0.003389  0.250065  1
  Ga  Ga4  1  0.132585  0.132585  0.752867  1
  Ga  Ga5  1  0.867415  0.867415  0.247133  1
  Ga  Ga6  1  0.003356  0.338986  0.578567  1
  Ga  Ga7  1  0.996644  0.661014  0.421433  1
  Ga  Ga8  1  0.996701  0.664271  0.076685  1
  Ga  Ga9  1  0.335729  0.003299  0.923315  1
  Ga  Ga10  1  0.003299  0.335729  0.923315  1
  Ga  Ga11  1  0.664271  0.996701  0.076685  1
  Ga  Ga12  1  0.661014  0.996644  0.421433  1
  Ga  Ga13  1  0.338986  0.003356  0.578567  1
  Ga  Ga14  1  0.333778  0.333778  0.050932  1
  Ga  Ga15  1  0.666222  0.666222  0.949068  1
  Ga  Ga16  1  0.662323  0.662323  0.552648  1
  Ga  Ga17  1  0.337677  0.337677  0.447352  1
  Ga  Ga18  1  0.340188  0.546584  0.750170  1
  Ga  Ga19  1  0.659812  0.453416  0.249830  1
  Ga  Ga20  1  0.546584  0.340188  0.750170  1
  Ga  Ga21  1  0.453416  0.659812  0.249830  1
  Pt  Pt22  1  0.000000  0.000000  0.500000  1
  Rh  Rh23  1  0.670392  0.329608  0.500000  1
  Rh  Rh24  1  0.329608  0.670392  0.500000  1
  Rh  Rh25  1  0.329535  0.670465  0.000000  1
  Rh  Rh26  1  0.670465  0.329535  0.000000  1
  Rh  Rh27  1  0.000000  0.000000  0.000000  1
