# generated using pymatgen
data_Er6Al24ZnCo3Os4
_symmetry_space_group_name_H-M   'P 1'
_cell_length_a   8.79559394
_cell_length_b   8.77388383
_cell_length_c   9.41545333
_cell_angle_alpha   90.15140800
_cell_angle_beta   89.66967803
_cell_angle_gamma   120.40429555
_symmetry_Int_Tables_number   1
_chemical_formula_structural   Er6Al24ZnCo3Os4
_chemical_formula_sum   'Er6 Al24 Zn1 Co3 Os4'
_cell_volume   626.66859170
_cell_formula_units_Z   1
loop_
 _symmetry_equiv_pos_site_id
 _symmetry_equiv_pos_as_xyz
  1  'x, y, z'
loop_
 _atom_site_type_symbol
 _atom_site_label
 _atom_site_symmetry_multiplicity
 _atom_site_fract_x
 _atom_site_fract_y
 _atom_site_fract_z
 _atom_site_occupancy
  Er  Er0  1  0.199755  0.392581  0.254811  1
  Er  Er1  1  0.800245  0.607419  0.745189  1
  Er  Er2  1  0.608298  0.801320  0.246525  1
  Er  Er3  1  0.391702  0.198680  0.753475  1
  Er  Er4  1  0.195593  0.806184  0.249470  1
  Er  Er5  1  0.804407  0.193816  0.750530  1
  Al  Al6  1  0.321495  0.654989  0.023101  1
  Al  Al7  1  0.678505  0.345011  0.976899  1
  Al  Al8  1  0.666652  0.333295  0.519901  1
  Al  Al9  1  0.333348  0.666705  0.480099  1
  Al  Al10  1  0.159687  0.321923  0.577885  1
  Al  Al11  1  0.840313  0.678077  0.422115  1
  Al  Al12  1  0.678672  0.840056  0.573963  1
  Al  Al13  1  0.840283  0.677349  0.077865  1
  Al  Al14  1  0.321328  0.159944  0.426037  1
  Al  Al15  1  0.159717  0.322651  0.922135  1
  Al  Al16  1  0.159743  0.839147  0.575784  1
  Al  Al17  1  0.318120  0.167391  0.080871  1
  Al  Al18  1  0.840257  0.160853  0.424216  1
  Al  Al19  1  0.681880  0.832609  0.919129  1
  Al  Al20  1  0.853343  0.170963  0.080050  1
  Al  Al21  1  0.146657  0.829037  0.919950  1
  Al  Al22  1  0.565876  0.128075  0.253200  1
  Al  Al23  1  0.434124  0.871925  0.746800  1
  Al  Al24  1  0.883536  0.441646  0.243873  1
  Al  Al25  1  0.116464  0.558354  0.756127  1
  Al  Al26  1  0.563235  0.438296  0.248607  1
  Al  Al27  1  0.436765  0.561704  0.751393  1
  Al  Al28  1  0.999744  0.997370  0.251365  1
  Al  Al29  1  0.000256  0.002630  0.748635  1
  Zn  Zn30  1  0.500000  0.000000  0.000000  1
  Co  Co31  1  0.000000  0.500000  0.000000  1
  Co  Co32  1  0.000000  0.000000  0.000000  1
  Co  Co33  1  0.000000  0.000000  0.500000  1
  Os  Os34  1  0.500000  0.000000  0.500000  1
  Os  Os35  1  0.500000  0.500000  0.000000  1
  Os  Os36  1  0.000000  0.500000  0.500000  1
  Os  Os37  1  0.500000  0.500000  0.500000  1
