# generated using pymatgen
data_Er2Ti4Sn5
_symmetry_space_group_name_H-M   'P 1'
_cell_length_a   10.74612124
_cell_length_b   10.74612164
_cell_length_c   10.74612091
_cell_angle_alpha   148.84791794
_cell_angle_beta   131.64165903
_cell_angle_gamma   58.64983346
_symmetry_Int_Tables_number   1
_chemical_formula_structural   Er2Ti4Sn5
_chemical_formula_sum   'Er4 Ti8 Sn10'
_cell_volume   475.97356787
_cell_formula_units_Z   2
loop_
 _symmetry_equiv_pos_site_id
 _symmetry_equiv_pos_as_xyz
  1  'x, y, z'
loop_
 _atom_site_type_symbol
 _atom_site_label
 _atom_site_symmetry_multiplicity
 _atom_site_fract_x
 _atom_site_fract_y
 _atom_site_fract_z
 _atom_site_occupancy
  Er  Er0  1  0.256559  0.143487  0.113074  1
  Er  Er1  1  0.743441  0.856513  0.886926  1
  Er  Er2  1  0.030413  0.643487  0.386926  1
  Er  Er3  1  0.969587  0.356513  0.613074  1
  Ti  Ti4  1  0.310768  0.560768  0.250000  1
  Ti  Ti5  1  0.689232  0.439232  0.750000  1
  Ti  Ti6  1  0.689232  0.939232  0.250000  1
  Ti  Ti7  1  0.310768  0.060768  0.750000  1
  Ti  Ti8  1  0.675980  0.436412  0.239567  1
  Ti  Ti9  1  0.324020  0.563588  0.760433  1
  Ti  Ti10  1  0.196845  0.936412  0.260433  1
  Ti  Ti11  1  0.803155  0.063588  0.739567  1
  Sn  Sn12  1  0.585625  0.289574  0.296052  1
  Sn  Sn13  1  0.414375  0.710426  0.703948  1
  Sn  Sn14  1  0.993521  0.789574  0.203948  1
  Sn  Sn15  1  0.006479  0.210426  0.796052  1
  Sn  Sn16  1  0.000000  0.250000  0.250000  1
  Sn  Sn17  1  0.000000  0.750000  0.750000  1
  Sn  Sn18  1  0.473035  0.067114  0.405919  1
  Sn  Sn19  1  0.526965  0.932886  0.594081  1
  Sn  Sn20  1  0.661195  0.567114  0.094081  1
  Sn  Sn21  1  0.338805  0.432886  0.905919  1
