# generated using pymatgen
data_PaTa6Cl18
_symmetry_space_group_name_H-M   'P 1'
_cell_length_a   10.19334798
_cell_length_b   10.19334797
_cell_length_c   10.19334808
_cell_angle_alpha   55.97243335
_cell_angle_beta   55.97243602
_cell_angle_gamma   55.97244047
_symmetry_Int_Tables_number   1
_chemical_formula_structural   PaTa6Cl18
_chemical_formula_sum   'Pa1 Ta6 Cl18'
_cell_volume   679.03216853
_cell_formula_units_Z   1
loop_
 _symmetry_equiv_pos_site_id
 _symmetry_equiv_pos_as_xyz
  1  'x, y, z'
loop_
 _atom_site_type_symbol
 _atom_site_label
 _atom_site_symmetry_multiplicity
 _atom_site_fract_x
 _atom_site_fract_y
 _atom_site_fract_z
 _atom_site_occupancy
  Pa  Pa0  1  0.000000  0.000000  0.000000  1
  Ta  Ta1  1  0.411529  0.306300  0.645253  1
  Ta  Ta2  1  0.354747  0.588471  0.693700  1
  Ta  Ta3  1  0.693700  0.354747  0.588471  1
  Ta  Ta4  1  0.306300  0.645253  0.411529  1
  Ta  Ta5  1  0.645253  0.411529  0.306300  1
  Ta  Ta6  1  0.588471  0.693700  0.354747  1
  Cl  Cl7  1  0.568280  0.161829  0.441996  1
  Cl  Cl8  1  0.223897  0.370851  0.907957  1
  Cl  Cl9  1  0.907957  0.223897  0.370851  1
  Cl  Cl10  1  0.370851  0.907957  0.223897  1
  Cl  Cl11  1  0.776103  0.629149  0.092043  1
  Cl  Cl12  1  0.092043  0.776103  0.629149  1
  Cl  Cl13  1  0.704225  0.956649  0.160151  1
  Cl  Cl14  1  0.956649  0.160151  0.704225  1
  Cl  Cl15  1  0.160151  0.704225  0.956649  1
  Cl  Cl16  1  0.295775  0.043351  0.839849  1
  Cl  Cl17  1  0.043351  0.839849  0.295775  1
  Cl  Cl18  1  0.839849  0.295775  0.043351  1
  Cl  Cl19  1  0.558004  0.431720  0.838171  1
  Cl  Cl20  1  0.161829  0.441996  0.568280  1
  Cl  Cl21  1  0.441996  0.568280  0.161829  1
  Cl  Cl22  1  0.431720  0.838171  0.558004  1
  Cl  Cl23  1  0.838171  0.558004  0.431720  1
  Cl  Cl24  1  0.629149  0.092043  0.776103  1
