# generated using pymatgen
data_Dy15Lu5(InGa2)4
_symmetry_space_group_name_H-M   'P 1'
_cell_length_a   7.73152902
_cell_length_b   7.73138010
_cell_length_c   14.34092500
_cell_angle_alpha   89.99641317
_cell_angle_beta   89.99580556
_cell_angle_gamma   89.99168481
_symmetry_Int_Tables_number   1
_chemical_formula_structural   Dy15Lu5(InGa2)4
_chemical_formula_sum   'Dy15 Lu5 In4 Ga8'
_cell_volume   857.23436591
_cell_formula_units_Z   1
loop_
 _symmetry_equiv_pos_site_id
 _symmetry_equiv_pos_as_xyz
  1  'x, y, z'
loop_
 _atom_site_type_symbol
 _atom_site_label
 _atom_site_symmetry_multiplicity
 _atom_site_fract_x
 _atom_site_fract_y
 _atom_site_fract_z
 _atom_site_occupancy
  Dy  Dy0  1  0.673571  0.661448  0.606751  1
  Dy  Dy1  1  0.674036  0.338154  0.106627  1
  Dy  Dy2  1  0.826592  0.838634  0.393096  1
  Dy  Dy3  1  0.173571  0.838962  0.893490  1
  Dy  Dy4  1  0.326689  0.338619  0.606892  1
  Dy  Dy5  1  0.326099  0.661261  0.106752  1
  Dy  Dy6  1  0.173394  0.161450  0.393034  1
  Dy  Dy7  1  0.826813  0.161299  0.893395  1
  Dy  Dy8  1  0.661461  0.326350  0.393035  1
  Dy  Dy9  1  0.338579  0.326560  0.893498  1
  Dy  Dy10  1  0.161371  0.826639  0.606778  1
  Dy  Dy11  1  0.838769  0.826902  0.106656  1
  Dy  Dy12  1  0.338431  0.673533  0.393183  1
  Dy  Dy13  1  0.661398  0.673409  0.893433  1
  Dy  Dy14  1  0.838650  0.173521  0.606655  1
  Lu  Lu15  1  0.000006  0.499835  0.759139  1
  Lu  Lu16  1  0.000393  0.499649  0.258706  1
  Lu  Lu17  1  0.499420  0.000413  0.240542  1
  Lu  Lu18  1  0.499845  0.999956  0.740822  1
  Lu  Lu19  1  0.160580  0.173262  0.107705  1
  In  In20  1  0.000191  0.499949  0.495381  1
  In  In21  1  0.001033  0.498705  0.995852  1
  In  In22  1  0.499964  0.000096  0.504554  1
  In  In23  1  0.498771  0.001098  0.005037  1
  Ga  Ga24  1  0.874655  0.874550  0.750069  1
  Ga  Ga25  1  0.875765  0.125373  0.249476  1
  Ga  Ga26  1  0.624961  0.625029  0.249884  1
  Ga  Ga27  1  0.374781  0.625103  0.750056  1
  Ga  Ga28  1  0.125172  0.125255  0.750069  1
  Ga  Ga29  1  0.125403  0.875809  0.249564  1
  Ga  Ga30  1  0.374414  0.374349  0.249801  1
  Ga  Ga31  1  0.625224  0.374827  0.750067  1
