# generated using pymatgen
data_Ho2Pa3O10
_symmetry_space_group_name_H-M   'P 1'
_cell_length_a   6.62996262
_cell_length_b   6.62996240
_cell_length_c   8.53207001
_cell_angle_alpha   49.71007334
_cell_angle_beta   49.71007723
_cell_angle_gamma   48.07236147
_symmetry_Int_Tables_number   1
_chemical_formula_structural   Ho2Pa3O10
_chemical_formula_sum   'Ho2 Pa3 O10'
_cell_volume   197.03645125
_cell_formula_units_Z   1
loop_
 _symmetry_equiv_pos_site_id
 _symmetry_equiv_pos_as_xyz
  1  'x, y, z'
loop_
 _atom_site_type_symbol
 _atom_site_label
 _atom_site_symmetry_multiplicity
 _atom_site_fract_x
 _atom_site_fract_y
 _atom_site_fract_z
 _atom_site_occupancy
  Ho  Ho0  1  0.301371  0.301371  0.096452  1
  Ho  Ho1  1  0.698629  0.698629  0.903548  1
  Pa  Pa2  1  0.095889  0.095889  0.704614  1
  Pa  Pa3  1  0.500000  0.500000  0.500000  1
  Pa  Pa4  1  0.904111  0.904111  0.295386  1
  O  O5  1  0.654925  0.154779  0.791796  1
  O  O6  1  0.154779  0.654925  0.791796  1
  O  O7  1  0.453580  0.946698  0.403181  1
  O  O8  1  0.946698  0.453580  0.403181  1
  O  O9  1  0.845221  0.345075  0.208204  1
  O  O10  1  0.242722  0.757278  0.000000  1
  O  O11  1  0.345075  0.845221  0.208204  1
  O  O12  1  0.757278  0.242722  0.000000  1
  O  O13  1  0.053302  0.546420  0.596819  1
  O  O14  1  0.546420  0.053302  0.596819  1
