# generated using pymatgen
data_TmLu5(Sc2Pb3)2
_symmetry_space_group_name_H-M   'P 1'
_cell_length_a   8.77981300
_cell_length_b   8.78451733
_cell_length_c   6.30182600
_cell_angle_alpha   90.00000000
_cell_angle_beta   90.00000000
_cell_angle_gamma   119.98228277
_symmetry_Int_Tables_number   1
_chemical_formula_structural   TmLu5(Sc2Pb3)2
_chemical_formula_sum   'Tm1 Lu5 Sc4 Pb6'
_cell_volume   420.99575498
_cell_formula_units_Z   1
loop_
 _symmetry_equiv_pos_site_id
 _symmetry_equiv_pos_as_xyz
  1  'x, y, z'
loop_
 _atom_site_type_symbol
 _atom_site_label
 _atom_site_symmetry_multiplicity
 _atom_site_fract_x
 _atom_site_fract_y
 _atom_site_fract_z
 _atom_site_occupancy
  Tm  Tm0  1  0.236139  0.000000  0.250000  1
  Lu  Lu1  1  0.236083  0.236207  0.750000  1
  Lu  Lu2  1  0.999876  0.763793  0.750000  1
  Lu  Lu3  1  0.999940  0.236129  0.250000  1
  Lu  Lu4  1  0.763812  0.763871  0.250000  1
  Lu  Lu5  1  0.764079  0.000000  0.750000  1
  Sc  Sc6  1  0.333360  0.666680  0.999985  1
  Sc  Sc7  1  0.666681  0.333320  0.500015  1
  Sc  Sc8  1  0.666681  0.333320  0.999985  1
  Sc  Sc9  1  0.333360  0.666680  0.500015  1
  Pb  Pb10  1  0.602474  0.000000  0.250000  1
  Pb  Pb11  1  0.602292  0.602296  0.750000  1
  Pb  Pb12  1  0.999996  0.397704  0.750000  1
  Pb  Pb13  1  0.999730  0.601918  0.250000  1
  Pb  Pb14  1  0.397812  0.398082  0.250000  1
  Pb  Pb15  1  0.397684  0.000000  0.750000  1
