# generated using pymatgen
data_Hf6AlAs5Ru6
_symmetry_space_group_name_H-M   'P 1'
_cell_length_a   7.66531446
_cell_length_b   7.69152399
_cell_length_c   7.66531441
_cell_angle_alpha   128.39155345
_cell_angle_beta   120.03401874
_cell_angle_gamma   82.92038938
_symmetry_Int_Tables_number   1
_chemical_formula_structural   Hf6AlAs5Ru6
_chemical_formula_sum   'Hf6 Al1 As5 Ru6'
_cell_volume   294.70432144
_cell_formula_units_Z   1
loop_
 _symmetry_equiv_pos_site_id
 _symmetry_equiv_pos_as_xyz
  1  'x, y, z'
loop_
 _atom_site_type_symbol
 _atom_site_label
 _atom_site_symmetry_multiplicity
 _atom_site_fract_x
 _atom_site_fract_y
 _atom_site_fract_z
 _atom_site_occupancy
  Hf  Hf0  1  0.470864  0.700967  0.730103  1
  Hf  Hf1  1  0.525079  0.254591  0.229512  1
  Hf  Hf2  1  0.748421  0.833618  0.585197  1
  Hf  Hf3  1  0.249578  0.828660  0.079081  1
  Hf  Hf4  1  0.052897  0.256014  0.703116  1
  Hf  Hf5  1  0.949561  0.655684  0.206123  1
  Al  Al6  1  0.275115  0.274979  0.499865  1
  As  As7  1  0.725376  0.225454  0.000078  1
  As  As8  1  0.329053  0.585582  0.248475  1
  As  As9  1  0.671353  0.920445  0.259233  1
  As  As10  1  0.161213  0.920445  0.749092  1
  As  As11  1  0.837106  0.585582  0.756528  1
  Ru  Ru12  1  0.505669  0.498995  0.002724  1
  Ru  Ru13  1  0.996271  0.498995  0.493326  1
  Ru  Ru14  1  0.095956  0.253513  0.101935  1
  Ru  Ru15  1  0.904520  0.006281  0.155892  1
  Ru  Ru16  1  0.350390  0.006281  0.601761  1
  Ru  Ru17  1  0.651578  0.253513  0.657557  1
