# generated using pymatgen
data_Sm4Er3Tm(B6Ru)4
_symmetry_space_group_name_H-M   'P 1'
_cell_length_a   3.68018100
_cell_length_b   9.16169701
_cell_length_c   11.56897701
_cell_angle_alpha   90.00560486
_cell_angle_beta   90.00000000
_cell_angle_gamma   90.00000000
_symmetry_Int_Tables_number   1
_chemical_formula_structural   Sm4Er3Tm(B6Ru)4
_chemical_formula_sum   'Sm4 Er3 Tm1 B24 Ru4'
_cell_volume   390.06776322
_cell_formula_units_Z   1
loop_
 _symmetry_equiv_pos_site_id
 _symmetry_equiv_pos_as_xyz
  1  'x, y, z'
loop_
 _atom_site_type_symbol
 _atom_site_label
 _atom_site_symmetry_multiplicity
 _atom_site_fract_x
 _atom_site_fract_y
 _atom_site_fract_z
 _atom_site_occupancy
  Sm  Sm0  1  0.000000  0.322476  0.414410  1
  Sm  Sm1  1  0.000000  0.677511  0.585696  1
  Sm  Sm2  1  0.000000  0.822401  0.085539  1
  Sm  Sm3  1  0.000000  0.177639  0.914358  1
  Er  Er4  1  0.000000  0.943927  0.372024  1
  Er  Er5  1  0.000000  0.055969  0.628082  1
  Er  Er6  1  0.000000  0.444086  0.127740  1
  Tm  Tm7  1  0.000000  0.556034  0.871923  1
  B  B8  1  0.500000  0.555652  0.431379  1
  B  B9  1  0.500000  0.444369  0.568680  1
  B  B10  1  0.500000  0.055630  0.068609  1
  B  B11  1  0.500000  0.944272  0.931358  1
  B  B12  1  0.500000  0.749668  0.418028  1
  B  B13  1  0.500000  0.250357  0.581998  1
  B  B14  1  0.500000  0.249709  0.081962  1
  B  B15  1  0.500000  0.750018  0.918006  1
  B  B16  1  0.500000  0.791001  0.266273  1
  B  B17  1  0.500000  0.209107  0.733759  1
  B  B18  1  0.500000  0.291018  0.233709  1
  B  B19  1  0.500000  0.708711  0.766363  1
  B  B20  1  0.500000  0.630859  0.184706  1
  B  B21  1  0.500000  0.369399  0.815396  1
  B  B22  1  0.500000  0.130863  0.315275  1
  B  B23  1  0.500000  0.869074  0.684776  1
  B  B24  1  0.500000  0.984813  0.213718  1
  B  B25  1  0.500000  0.015136  0.786306  1
  B  B26  1  0.500000  0.484808  0.286272  1
  B  B27  1  0.500000  0.515360  0.713941  1
  B  B28  1  0.500000  0.603348  0.027924  1
  B  B29  1  0.500000  0.396909  0.971551  1
  B  B30  1  0.500000  0.103465  0.471766  1
  B  B31  1  0.500000  0.896526  0.528275  1
  Ru  Ru32  1  0.000000  0.639064  0.319747  1
  Ru  Ru33  1  0.000000  0.361175  0.680404  1
  Ru  Ru34  1  0.000000  0.139114  0.180184  1
  Ru  Ru35  1  0.000000  0.860531  0.819865  1
