# generated using pymatgen
data_HF18
_symmetry_space_group_name_H-M   'P 1'
_cell_length_a   6.70541141
_cell_length_b   10.36311391
_cell_length_c   10.45761548
_cell_angle_alpha   86.10521100
_cell_angle_beta   94.07547210
_cell_angle_gamma   71.66344067
_symmetry_Int_Tables_number   1
_chemical_formula_structural   HF18
_chemical_formula_sum   'H2 F36'
_cell_volume   684.91158510
_cell_formula_units_Z   2
loop_
 _symmetry_equiv_pos_site_id
 _symmetry_equiv_pos_as_xyz
  1  'x, y, z'
loop_
 _atom_site_type_symbol
 _atom_site_label
 _atom_site_symmetry_multiplicity
 _atom_site_fract_x
 _atom_site_fract_y
 _atom_site_fract_z
 _atom_site_occupancy
  H  H0  1  0.603192  0.857455  0.768414  1
  H  H1  1  0.396808  0.142545  0.231586  1
  F  F2  1  0.297591  0.377820  0.914284  1
  F  F3  1  0.702409  0.622180  0.085716  1
  F  F4  1  0.348258  0.210038  0.557020  1
  F  F5  1  0.651742  0.789962  0.442980  1
  F  F6  1  0.897524  0.195673  0.810254  1
  F  F7  1  0.102476  0.804327  0.189746  1
  F  F8  1  0.703232  0.880597  0.997662  1
  F  F9  1  0.296768  0.119403  0.002338  1
  F  F10  1  0.811097  0.650332  0.807059  1
  F  F11  1  0.188903  0.349668  0.192941  1
  F  F12  1  0.442117  0.416470  0.838885  1
  F  F13  1  0.557883  0.583530  0.161115  1
  F  F14  1  0.750780  0.599340  0.691937  1
  F  F15  1  0.249220  0.400660  0.308063  1
  F  F16  1  0.762663  0.994984  0.534778  1
  F  F17  1  0.237337  0.005016  0.465222  1
  F  F18  1  0.273317  0.228422  0.680780  1
  F  F19  1  0.726683  0.771578  0.319220  1
  F  F20  1  0.817260  0.083341  0.620118  1
  F  F21  1  0.182740  0.916659  0.379882  1
  F  F22  1  0.801916  0.980850  0.967529  1
  F  F23  1  0.198084  0.019150  0.032471  1
  F  F24  1  0.890331  0.334672  0.805891  1
  F  F25  1  0.109669  0.665328  0.194109  1
  F  F26  1  0.202350  0.712269  0.935558  1
  F  F27  1  0.797650  0.287731  0.064442  1
  F  F28  1  0.476003  0.916359  0.724869  1
  F  F29  1  0.523997  0.083641  0.275131  1
  F  F30  1  0.101983  0.750805  0.585809  1
  F  F31  1  0.898017  0.249195  0.414191  1
  F  F32  1  0.192062  0.624433  0.664256  1
  F  F33  1  0.807938  0.375567  0.335744  1
  F  F34  1  0.288827  0.795747  0.855623  1
  F  F35  1  0.711173  0.204253  0.144377  1
  F  F36  1  0.483680  0.436318  0.516396  1
  F  F37  1  0.516320  0.563682  0.483604  1
