# generated using pymatgen
data_Sm2Mg(Al3Cu2)3
_symmetry_space_group_name_H-M   'P 1'
_cell_length_a   9.06773500
_cell_length_b   9.06773350
_cell_length_c   4.15046200
_cell_angle_alpha   90.00000000
_cell_angle_beta   90.00000000
_cell_angle_gamma   119.99999452
_symmetry_Int_Tables_number   1
_chemical_formula_structural   Sm2Mg(Al3Cu2)3
_chemical_formula_sum   'Sm2 Mg1 Al9 Cu6'
_cell_volume   295.54571363
_cell_formula_units_Z   1
loop_
 _symmetry_equiv_pos_site_id
 _symmetry_equiv_pos_as_xyz
  1  'x, y, z'
loop_
 _atom_site_type_symbol
 _atom_site_label
 _atom_site_symmetry_multiplicity
 _atom_site_fract_x
 _atom_site_fract_y
 _atom_site_fract_z
 _atom_site_occupancy
  Sm  Sm0  1  0.333333  0.666667  0.000000  1
  Sm  Sm1  1  0.666667  0.333333  0.000000  1
  Mg  Mg2  1  0.000000  0.000000  0.500000  1
  Al  Al3  1  0.295185  0.000000  0.000000  1
  Al  Al4  1  0.295185  0.295185  0.000000  1
  Al  Al5  1  0.000000  0.704815  0.000000  1
  Al  Al6  1  0.000000  0.295185  0.000000  1
  Al  Al7  1  0.704815  0.704815  0.000000  1
  Al  Al8  1  0.704815  0.000000  0.000000  1
  Al  Al9  1  0.500000  0.000000  0.500000  1
  Al  Al10  1  0.500000  0.500000  0.500000  1
  Al  Al11  1  0.000000  0.500000  0.500000  1
  Cu  Cu12  1  0.177546  0.355091  0.500000  1
  Cu  Cu13  1  0.822454  0.177546  0.500000  1
  Cu  Cu14  1  0.355091  0.177546  0.500000  1
  Cu  Cu15  1  0.644909  0.822454  0.500000  1
  Cu  Cu16  1  0.177546  0.822454  0.500000  1
  Cu  Cu17  1  0.822454  0.644909  0.500000  1
