# generated using pymatgen
data_La13Tb7(TcSb2)4
_symmetry_space_group_name_H-M   'P 1'
_cell_length_a   8.21775964
_cell_length_b   9.38252990
_cell_length_c   12.52628478
_cell_angle_alpha   89.87126621
_cell_angle_beta   89.95984446
_cell_angle_gamma   90.14021169
_symmetry_Int_Tables_number   1
_chemical_formula_structural   La13Tb7(TcSb2)4
_chemical_formula_sum   'La13 Tb7 Tc4 Sb8'
_cell_volume   965.81326842
_cell_formula_units_Z   1
loop_
 _symmetry_equiv_pos_site_id
 _symmetry_equiv_pos_as_xyz
  1  'x, y, z'
loop_
 _atom_site_type_symbol
 _atom_site_label
 _atom_site_symmetry_multiplicity
 _atom_site_fract_x
 _atom_site_fract_y
 _atom_site_fract_z
 _atom_site_occupancy
  La  La0  1  0.150825  0.748469  0.204788  1
  La  La1  1  0.650109  0.250211  0.297166  1
  La  La2  1  0.850040  0.250357  0.795654  1
  La  La3  1  0.349566  0.749505  0.703481  1
  La  La4  1  0.445088  0.749821  0.996069  1
  La  La5  1  0.945831  0.250403  0.505014  1
  La  La6  1  0.549026  0.251098  0.003782  1
  La  La7  1  0.053558  0.749909  0.496012  1
  La  La8  1  0.620890  0.750651  0.309157  1
  La  La9  1  0.122964  0.251652  0.193271  1
  La  La10  1  0.379198  0.250666  0.690476  1
  La  La11  1  0.881088  0.748054  0.807699  1
  La  La12  1  0.817511  0.964812  0.065319  1
  Tb  Tb13  1  0.321206  0.037576  0.432232  1
  Tb  Tb14  1  0.177541  0.461893  0.932305  1
  Tb  Tb15  1  0.678169  0.537917  0.568406  1
  Tb  Tb16  1  0.182529  0.038659  0.930821  1
  Tb  Tb17  1  0.678612  0.962121  0.567817  1
  Tb  Tb18  1  0.822168  0.536367  0.067190  1
  Tb  Tb19  1  0.321966  0.462351  0.432043  1
  Tc  Tc20  1  0.428000  0.749976  0.488052  1
  Tc  Tc21  1  0.925821  0.247159  0.012826  1
  Tc  Tc22  1  0.571643  0.249993  0.512564  1
  Tc  Tc23  1  0.078823  0.746985  0.984867  1
  Sb  Sb24  1  0.929812  0.995077  0.330352  1
  Sb  Sb25  1  0.423464  0.006989  0.174070  1
  Sb  Sb26  1  0.072174  0.494192  0.671982  1
  Sb  Sb27  1  0.571225  0.505620  0.826855  1
  Sb  Sb28  1  0.072337  0.005803  0.672530  1
  Sb  Sb29  1  0.571521  0.995109  0.825911  1
  Sb  Sb30  1  0.928011  0.505986  0.327953  1
  Sb  Sb31  1  0.429286  0.494617  0.173333  1
