# generated using pymatgen
data_La13Tb7Si15Pd
_symmetry_space_group_name_H-M   'P 1'
_cell_length_a   7.94916396
_cell_length_b   7.96424487
_cell_length_c   14.63590100
_cell_angle_alpha   89.99176273
_cell_angle_beta   89.37564303
_cell_angle_gamma   90.30482379
_symmetry_Int_Tables_number   1
_chemical_formula_structural   La13Tb7Si15Pd
_chemical_formula_sum   'La13 Tb7 Si15 Pd1'
_cell_volume   926.51740423
_cell_formula_units_Z   1
loop_
 _symmetry_equiv_pos_site_id
 _symmetry_equiv_pos_as_xyz
  1  'x, y, z'
loop_
 _atom_site_type_symbol
 _atom_site_label
 _atom_site_symmetry_multiplicity
 _atom_site_fract_x
 _atom_site_fract_y
 _atom_site_fract_z
 _atom_site_occupancy
  La  La0  1  0.134936  0.992500  0.875708  1
  La  La1  1  0.993124  0.634483  0.046829  1
  La  La2  1  0.015279  0.355675  0.536274  1
  La  La3  1  0.637434  0.986147  0.959667  1
  La  La4  1  0.141097  0.507144  0.791400  1
  La  La5  1  0.848756  0.484487  0.285724  1
  La  La6  1  0.500545  0.134656  0.206953  1
  La  La7  1  0.499038  0.865137  0.704556  1
  La  La8  1  0.368536  0.017613  0.459773  1
  La  La9  1  0.695409  0.693528  0.497161  1
  La  La10  1  0.826191  0.177189  0.751394  1
  La  La11  1  0.172327  0.808906  0.263519  1
  La  La12  1  0.305004  0.307640  0.996046  1
  Tb  Tb13  1  0.366077  0.490150  0.377849  1
  Tb  Tb14  1  0.850211  0.017732  0.366444  1
  Tb  Tb15  1  0.988896  0.136808  0.128927  1
  Tb  Tb16  1  0.019603  0.865886  0.623605  1
  Tb  Tb17  1  0.637705  0.508583  0.876635  1
  Tb  Tb18  1  0.502617  0.368323  0.622597  1
  Tb  Tb19  1  0.500657  0.631802  0.126072  1
  Si  Si20  1  0.918294  0.293207  0.945709  1
  Si  Si21  1  0.712261  0.077386  0.556768  1
  Si  Si22  1  0.210449  0.426623  0.194023  1
  Si  Si23  1  0.793712  0.571344  0.690801  1
  Si  Si24  1  0.437775  0.214900  0.802789  1
  Si  Si25  1  0.565092  0.789920  0.306722  1
  Si  Si26  1  0.289769  0.923877  0.064561  1
  Si  Si27  1  0.845991  0.786388  0.808317  1
  Si  Si28  1  0.147953  0.213145  0.314983  1
  Si  Si29  1  0.784047  0.846372  0.185767  1
  Si  Si30  1  0.300420  0.652893  0.561472  1
  Si  Si31  1  0.702890  0.347006  0.063570  1
  Si  Si32  1  0.653753  0.296949  0.438260  1
  Si  Si33  1  0.348297  0.700050  0.944463  1
  Si  Si34  1  0.218413  0.157656  0.682568  1
  Pd  Pd35  1  0.067444  0.717894  0.442090  1
