# generated using pymatgen
data_YEr(BiO4)2
_symmetry_space_group_name_H-M   'P 1'
_cell_length_a   5.50536227
_cell_length_b   7.84953143
_cell_length_c   7.82115200
_cell_angle_alpha   83.15418413
_cell_angle_beta   90.56245942
_cell_angle_gamma   92.18129748
_symmetry_Int_Tables_number   1
_chemical_formula_structural   YEr(BiO4)2
_chemical_formula_sum   'Y2 Er2 Bi4 O16'
_cell_volume   335.32969726
_cell_formula_units_Z   2
loop_
 _symmetry_equiv_pos_site_id
 _symmetry_equiv_pos_as_xyz
  1  'x, y, z'
loop_
 _atom_site_type_symbol
 _atom_site_label
 _atom_site_symmetry_multiplicity
 _atom_site_fract_x
 _atom_site_fract_y
 _atom_site_fract_z
 _atom_site_occupancy
  Y  Y0  1  0.255212  0.125712  0.622194  1
  Y  Y1  1  0.744788  0.874288  0.377806  1
  Er  Er2  1  0.218238  0.150530  0.116605  1
  Er  Er3  1  0.781762  0.849470  0.883395  1
  Bi  Bi4  1  0.238753  0.663167  0.180451  1
  Bi  Bi5  1  0.761247  0.336833  0.819549  1
  Bi  Bi6  1  0.725788  0.337550  0.321322  1
  Bi  Bi7  1  0.274212  0.662450  0.678678  1
  O  O8  1  0.090006  0.417898  0.675715  1
  O  O9  1  0.909994  0.582102  0.324285  1
  O  O10  1  0.582598  0.321929  0.573496  1
  O  O11  1  0.417402  0.678071  0.426504  1
  O  O12  1  0.902767  0.329088  0.075149  1
  O  O13  1  0.097233  0.670912  0.924851  1
  O  O14  1  0.395067  0.417473  0.184381  1
  O  O15  1  0.604933  0.582527  0.815619  1
  O  O16  1  0.033698  0.894593  0.166139  1
  O  O17  1  0.966302  0.105407  0.833861  1
  O  O18  1  0.502043  0.103629  0.323356  1
  O  O19  1  0.497957  0.896371  0.676644  1
  O  O20  1  0.456193  0.179306  0.889201  1
  O  O21  1  0.543807  0.820694  0.110799  1
  O  O22  1  0.997731  0.157598  0.387464  1
  O  O23  1  0.002269  0.842402  0.612536  1
