# generated using pymatgen
data_TiNb3Si2(B2Ru5)2
_symmetry_space_group_name_H-M   'P 1'
_cell_length_a   9.26459232
_cell_length_b   9.26459232
_cell_length_c   2.95959100
_cell_angle_alpha   90.00000000
_cell_angle_beta   90.00000000
_cell_angle_gamma   89.68809648
_symmetry_Int_Tables_number   1
_chemical_formula_structural   TiNb3Si2(B2Ru5)2
_chemical_formula_sum   'Ti1 Nb3 Si2 B4 Ru10'
_cell_volume   254.02583611
_cell_formula_units_Z   1
loop_
 _symmetry_equiv_pos_site_id
 _symmetry_equiv_pos_as_xyz
  1  'x, y, z'
loop_
 _atom_site_type_symbol
 _atom_site_label
 _atom_site_symmetry_multiplicity
 _atom_site_fract_x
 _atom_site_fract_y
 _atom_site_fract_z
 _atom_site_occupancy
  Ti  Ti0  1  0.823580  0.676420  0.000000  1
  Nb  Nb1  1  0.175070  0.324930  0.000000  1
  Nb  Nb2  1  0.323386  0.822363  0.000000  1
  Nb  Nb3  1  0.677637  0.176614  0.000000  1
  Si  Si4  1  0.500850  0.500445  0.000000  1
  Si  Si5  1  0.999555  0.999150  0.000000  1
  B  B6  1  0.626219  0.873781  0.000000  1
  B  B7  1  0.375191  0.124809  0.000000  1
  B  B8  1  0.123485  0.624624  0.000000  1
  B  B9  1  0.875376  0.376515  0.000000  1
  Ru  Ru10  1  0.569160  0.710370  0.500000  1
  Ru  Ru11  1  0.433033  0.289170  0.500000  1
  Ru  Ru12  1  0.067071  0.789254  0.500000  1
  Ru  Ru13  1  0.933544  0.211016  0.500000  1
  Ru  Ru14  1  0.288984  0.566456  0.500000  1
  Ru  Ru15  1  0.710746  0.432929  0.500000  1
  Ru  Ru16  1  0.210830  0.066967  0.500000  1
  Ru  Ru17  1  0.789630  0.930840  0.500000  1
  Ru  Ru18  1  0.500297  0.999703  0.500000  1
  Ru  Ru19  1  0.996355  0.503645  0.500000  1
