# generated using pymatgen
data_Hf6ZnAuC2
_symmetry_space_group_name_H-M   'P 1'
_cell_length_a   6.00133950
_cell_length_b   6.00134039
_cell_length_c   9.00734800
_cell_angle_alpha   90.00000000
_cell_angle_beta   90.00000000
_cell_angle_gamma   147.69405738
_symmetry_Int_Tables_number   1
_chemical_formula_structural   Hf6ZnAuC2
_chemical_formula_sum   'Hf6 Zn1 Au1 C2'
_cell_volume   173.37735209
_cell_formula_units_Z   1
loop_
 _symmetry_equiv_pos_site_id
 _symmetry_equiv_pos_as_xyz
  1  'x, y, z'
loop_
 _atom_site_type_symbol
 _atom_site_label
 _atom_site_symmetry_multiplicity
 _atom_site_fract_x
 _atom_site_fract_y
 _atom_site_fract_z
 _atom_site_occupancy
  Hf  Hf0  1  0.629221  0.370779  0.953897  1
  Hf  Hf1  1  0.372815  0.627185  0.451093  1
  Hf  Hf2  1  0.372815  0.627185  0.048907  1
  Hf  Hf3  1  0.629221  0.370779  0.546103  1
  Hf  Hf4  1  0.954472  0.045528  0.750000  1
  Hf  Hf5  1  0.046265  0.953735  0.250000  1
  Zn  Zn6  1  0.745867  0.254133  0.250000  1
  Au  Au7  1  0.250414  0.749586  0.750000  1
  C  C8  1  0.999454  0.000546  0.001084  1
  C  C9  1  0.999454  0.000546  0.498916  1
