# generated using pymatgen
data_Er2Ga10OsRu2
_symmetry_space_group_name_H-M   'P 1'
_cell_length_a   8.89306000
_cell_length_b   8.89306000
_cell_length_c   6.39081600
_cell_angle_alpha   90.00000000
_cell_angle_beta   90.00000000
_cell_angle_gamma   90.00000000
_symmetry_Int_Tables_number   1
_chemical_formula_structural   Er2Ga10OsRu2
_chemical_formula_sum   'Er4 Ga20 Os2 Ru4'
_cell_volume   505.42737288
_cell_formula_units_Z   2
loop_
 _symmetry_equiv_pos_site_id
 _symmetry_equiv_pos_as_xyz
  1  'x, y, z'
loop_
 _atom_site_type_symbol
 _atom_site_label
 _atom_site_symmetry_multiplicity
 _atom_site_fract_x
 _atom_site_fract_y
 _atom_site_fract_z
 _atom_site_occupancy
  Er  Er0  1  0.682920  0.182920  0.000000  1
  Er  Er1  1  0.317080  0.817080  0.000000  1
  Er  Er2  1  0.817080  0.682920  0.000000  1
  Er  Er3  1  0.182920  0.317080  0.000000  1
  Ga  Ga4  1  0.938644  0.206925  0.293093  1
  Ga  Ga5  1  0.706925  0.438644  0.293093  1
  Ga  Ga6  1  0.500000  0.000000  0.284583  1
  Ga  Ga7  1  0.561356  0.706925  0.706907  1
  Ga  Ga8  1  0.293075  0.561356  0.706907  1
  Ga  Ga9  1  0.793075  0.938644  0.293093  1
  Ga  Ga10  1  0.938644  0.206925  0.706907  1
  Ga  Ga11  1  0.293075  0.561356  0.293093  1
  Ga  Ga12  1  0.061356  0.793075  0.293093  1
  Ga  Ga13  1  0.706925  0.438644  0.706907  1
  Ga  Ga14  1  0.438644  0.293075  0.706907  1
  Ga  Ga15  1  0.061356  0.793075  0.706907  1
  Ga  Ga16  1  0.206925  0.061356  0.706907  1
  Ga  Ga17  1  0.793075  0.938644  0.706907  1
  Ga  Ga18  1  0.206925  0.061356  0.293093  1
  Ga  Ga19  1  0.000000  0.500000  0.715417  1
  Ga  Ga20  1  0.000000  0.500000  0.284583  1
  Ga  Ga21  1  0.561356  0.706925  0.293093  1
  Ga  Ga22  1  0.438644  0.293075  0.293093  1
  Ga  Ga23  1  0.500000  0.000000  0.715417  1
  Os  Os24  1  0.000000  0.000000  0.000000  1
  Os  Os25  1  0.500000  0.500000  0.000000  1
  Ru  Ru26  1  0.678319  0.178319  0.500000  1
  Ru  Ru27  1  0.821681  0.678319  0.500000  1
  Ru  Ru28  1  0.178319  0.321681  0.500000  1
  Ru  Ru29  1  0.321681  0.821681  0.500000  1
