# generated using pymatgen
data_Y3Er3Co16(TcP6)2
_symmetry_space_group_name_H-M   'P 1'
_cell_length_a   3.70475700
_cell_length_b   10.51259901
_cell_length_c   12.21120501
_cell_angle_alpha   90.00386795
_cell_angle_beta   90.00000000
_cell_angle_gamma   90.00000000
_symmetry_Int_Tables_number   1
_chemical_formula_structural   Y3Er3Co16(TcP6)2
_chemical_formula_sum   'Y3 Er3 Co16 Tc2 P12'
_cell_volume   475.58521814
_cell_formula_units_Z   1
loop_
 _symmetry_equiv_pos_site_id
 _symmetry_equiv_pos_as_xyz
  1  'x, y, z'
loop_
 _atom_site_type_symbol
 _atom_site_label
 _atom_site_symmetry_multiplicity
 _atom_site_fract_x
 _atom_site_fract_y
 _atom_site_fract_z
 _atom_site_occupancy
  Y  Y0  1  0.000000  0.500053  0.523756  1
  Y  Y1  1  0.500000  0.999986  0.476112  1
  Y  Y2  1  0.000000  0.317803  0.794012  1
  Er  Er3  1  0.500000  0.817735  0.206098  1
  Er  Er4  1  0.500000  0.182217  0.206084  1
  Er  Er5  1  0.000000  0.682348  0.794016  1
  Co  Co6  1  0.500000  0.500786  0.702984  1
  Co  Co7  1  0.000000  0.999975  0.296662  1
  Co  Co8  1  0.000000  0.500293  0.987296  1
  Co  Co9  1  0.500000  0.999763  0.013133  1
  Co  Co10  1  0.500000  0.332222  0.990264  1
  Co  Co11  1  0.500000  0.668006  0.989852  1
  Co  Co12  1  0.000000  0.167575  0.010532  1
  Co  Co13  1  0.000000  0.832170  0.010284  1
  Co  Co14  1  0.500000  0.296373  0.430569  1
  Co  Co15  1  0.500000  0.703662  0.430735  1
  Co  Co16  1  0.000000  0.203472  0.568798  1
  Co  Co17  1  0.000000  0.796385  0.569222  1
  Co  Co18  1  0.500000  0.878565  0.708201  1
  Co  Co19  1  0.500000  0.120692  0.707847  1
  Co  Co20  1  0.000000  0.621336  0.291814  1
  Co  Co21  1  0.000000  0.378657  0.291774  1
  Tc  Tc22  1  0.500000  0.500095  0.156324  1
  Tc  Tc23  1  0.000000  0.999778  0.843751  1
  P  P24  1  0.500000  0.500774  0.880948  1
  P  P25  1  0.000000  0.999926  0.119470  1
  P  P26  1  0.500000  0.500007  0.348410  1
  P  P27  1  0.000000  0.000046  0.651545  1
  P  P28  1  0.500000  0.311563  0.615930  1
  P  P29  1  0.500000  0.688531  0.616789  1
  P  P30  1  0.000000  0.188324  0.383062  1
  P  P31  1  0.000000  0.811608  0.383153  1
  P  P32  1  0.500000  0.845543  0.892333  1
  P  P33  1  0.500000  0.153691  0.892868  1
  P  P34  1  0.000000  0.654518  0.107747  1
  P  P35  1  0.000000  0.345523  0.107623  1
