# generated using pymatgen
data_La3Pr4Y(MgIr)2
_symmetry_space_group_name_H-M   'P 1'
_cell_length_a   10.05225600
_cell_length_b   10.11797615
_cell_length_c   10.11390404
_cell_angle_alpha   59.58392305
_cell_angle_beta   60.22817368
_cell_angle_gamma   60.18789191
_symmetry_Int_Tables_number   1
_chemical_formula_structural   La3Pr4Y(MgIr)2
_chemical_formula_sum   'La6 Pr8 Y2 Mg4 Ir4'
_cell_volume   727.32190021
_cell_formula_units_Z   2
loop_
 _symmetry_equiv_pos_site_id
 _symmetry_equiv_pos_as_xyz
  1  'x, y, z'
loop_
 _atom_site_type_symbol
 _atom_site_label
 _atom_site_symmetry_multiplicity
 _atom_site_fract_x
 _atom_site_fract_y
 _atom_site_fract_z
 _atom_site_occupancy
  La  La0  1  0.342750  0.350628  0.345657  1
  La  La1  1  0.350628  0.342750  0.960965  1
  La  La2  1  0.345657  0.960965  0.342750  1
  La  La3  1  0.960965  0.345657  0.350628  1
  La  La4  1  0.815317  0.184683  0.184683  1
  La  La5  1  0.184683  0.815317  0.815317  1
  Pr  Pr6  1  0.187969  0.187969  0.812031  1
  Pr  Pr7  1  0.812031  0.812031  0.187969  1
  Pr  Pr8  1  0.936537  0.563463  0.563463  1
  Pr  Pr9  1  0.563463  0.936537  0.936537  1
  Pr  Pr10  1  0.561339  0.938661  0.561339  1
  Pr  Pr11  1  0.938661  0.561339  0.938661  1
  Pr  Pr12  1  0.561696  0.561696  0.938304  1
  Pr  Pr13  1  0.938304  0.938304  0.561696  1
  Y  Y14  1  0.189791  0.810209  0.189791  1
  Y  Y15  1  0.810209  0.189791  0.810209  1
  Mg  Mg16  1  0.581249  0.577109  0.579328  1
  Mg  Mg17  1  0.577109  0.581249  0.262314  1
  Mg  Mg18  1  0.579328  0.262314  0.581249  1
  Mg  Mg19  1  0.262314  0.579328  0.577109  1
  Ir  Ir20  1  0.137409  0.139664  0.145201  1
  Ir  Ir21  1  0.139664  0.137409  0.577725  1
  Ir  Ir22  1  0.145201  0.577725  0.137409  1
  Ir  Ir23  1  0.577725  0.145201  0.139664  1
