# generated using pymatgen
data_ReHg3Te2F6
_symmetry_space_group_name_H-M   'P 1'
_cell_length_a   8.02404084
_cell_length_b   8.02404185
_cell_length_c   5.43869200
_cell_angle_alpha   90.69588872
_cell_angle_beta   90.69589594
_cell_angle_gamma   59.59008983
_symmetry_Int_Tables_number   1
_chemical_formula_structural   ReHg3Te2F6
_chemical_formula_sum   'Re1 Hg3 Te2 F6'
_cell_volume   301.96746250
_cell_formula_units_Z   1
loop_
 _symmetry_equiv_pos_site_id
 _symmetry_equiv_pos_as_xyz
  1  'x, y, z'
loop_
 _atom_site_type_symbol
 _atom_site_label
 _atom_site_symmetry_multiplicity
 _atom_site_fract_x
 _atom_site_fract_y
 _atom_site_fract_z
 _atom_site_occupancy
  Re  Re0  1  0.000000  0.000000  0.499999  1
  Hg  Hg1  1  0.500000  0.000000  0.000000  1
  Hg  Hg2  1  0.000000  0.500000  0.000000  1
  Hg  Hg3  1  0.500000  0.500000  0.000000  1
  Te  Te4  1  0.667343  0.667343  0.257807  1
  Te  Te5  1  0.332657  0.332657  0.742193  1
  F  F6  1  0.883093  0.883093  0.287681  1
  F  F7  1  0.881773  0.235961  0.295824  1
  F  F8  1  0.235961  0.881773  0.295824  1
  F  F9  1  0.764038  0.118227  0.704176  1
  F  F10  1  0.118227  0.764038  0.704176  1
  F  F11  1  0.116908  0.116908  0.712319  1
