# generated using pymatgen
data_CeY15ZnCd3Ir4
_symmetry_space_group_name_H-M   'P 1'
_cell_length_a   9.64833445
_cell_length_b   9.64833369
_cell_length_c   9.64833394
_cell_angle_alpha   59.74146834
_cell_angle_beta   59.74147099
_cell_angle_gamma   59.74147300
_symmetry_Int_Tables_number   1
_chemical_formula_structural   CeY15ZnCd3Ir4
_chemical_formula_sum   'Ce1 Y15 Zn1 Cd3 Ir4'
_cell_volume   631.37117861
_cell_formula_units_Z   1
loop_
 _symmetry_equiv_pos_site_id
 _symmetry_equiv_pos_as_xyz
  1  'x, y, z'
loop_
 _atom_site_type_symbol
 _atom_site_label
 _atom_site_symmetry_multiplicity
 _atom_site_fract_x
 _atom_site_fract_y
 _atom_site_fract_z
 _atom_site_occupancy
  Ce  Ce0  1  0.344500  0.344500  0.344500  1
  Y  Y1  1  0.352514  0.352514  0.945071  1
  Y  Y2  1  0.352514  0.945071  0.352514  1
  Y  Y3  1  0.945071  0.352514  0.352514  1
  Y  Y4  1  0.811251  0.189824  0.189824  1
  Y  Y5  1  0.189875  0.809674  0.809674  1
  Y  Y6  1  0.189824  0.811251  0.189824  1
  Y  Y7  1  0.809674  0.189875  0.809674  1
  Y  Y8  1  0.189824  0.189824  0.811251  1
  Y  Y9  1  0.809674  0.809674  0.189875  1
  Y  Y10  1  0.935984  0.563213  0.563213  1
  Y  Y11  1  0.561197  0.938529  0.938529  1
  Y  Y12  1  0.563213  0.935984  0.563213  1
  Y  Y13  1  0.938529  0.561197  0.938529  1
  Y  Y14  1  0.563213  0.563213  0.935984  1
  Y  Y15  1  0.938529  0.938529  0.561197  1
  Zn  Zn16  1  0.580403  0.580403  0.580403  1
  Cd  Cd17  1  0.580360  0.580360  0.258892  1
  Cd  Cd18  1  0.580360  0.258892  0.580360  1
  Cd  Cd19  1  0.258892  0.580360  0.580360  1
  Ir  Ir20  1  0.142913  0.142913  0.142913  1
  Ir  Ir21  1  0.144177  0.144177  0.573330  1
  Ir  Ir22  1  0.144177  0.573330  0.144177  1
  Ir  Ir23  1  0.573330  0.144177  0.144177  1
