# generated using pymatgen
data_TbSm3Y2(Si3Ru)8
_symmetry_space_group_name_H-M   'P 1'
_cell_length_a   10.13075663
_cell_length_b   10.13075652
_cell_length_c   8.17618409
_cell_angle_alpha   90.04860163
_cell_angle_beta   89.95139584
_cell_angle_gamma   132.42443882
_symmetry_Int_Tables_number   1
_chemical_formula_structural   TbSm3Y2(Si3Ru)8
_chemical_formula_sum   'Tb1 Sm3 Y2 Si24 Ru8'
_cell_volume   619.42573913
_cell_formula_units_Z   1
loop_
 _symmetry_equiv_pos_site_id
 _symmetry_equiv_pos_as_xyz
  1  'x, y, z'
loop_
 _atom_site_type_symbol
 _atom_site_label
 _atom_site_symmetry_multiplicity
 _atom_site_fract_x
 _atom_site_fract_y
 _atom_site_fract_z
 _atom_site_occupancy
  Tb  Tb0  1  0.002441  0.502441  0.750000  1
  Sm  Sm1  1  0.502519  0.002519  0.750000  1
  Sm  Sm2  1  0.997445  0.497445  0.250000  1
  Sm  Sm3  1  0.497146  0.997146  0.250000  1
  Y  Y4  1  0.499987  0.499984  0.500056  1
  Y  Y5  1  0.999984  0.999987  0.999944  1
  Si  Si6  1  0.795221  0.206110  0.500904  1
  Si  Si7  1  0.293786  0.704618  0.999100  1
  Si  Si8  1  0.204618  0.793786  0.500900  1
  Si  Si9  1  0.706110  0.295221  0.999096  1
  Si  Si10  1  0.332651  0.332551  0.833208  1
  Si  Si11  1  0.667342  0.667388  0.166904  1
  Si  Si12  1  0.167388  0.167342  0.333096  1
  Si  Si13  1  0.832551  0.832651  0.666792  1
  Si  Si14  1  0.121180  0.887658  0.727890  1
  Si  Si15  1  0.112574  0.878844  0.271596  1
  Si  Si16  1  0.611614  0.377716  0.228230  1
  Si  Si17  1  0.622145  0.388445  0.771707  1
  Si  Si18  1  0.877716  0.111614  0.271770  1
  Si  Si19  1  0.888445  0.122145  0.728293  1
  Si  Si20  1  0.387658  0.621180  0.772110  1
  Si  Si21  1  0.378844  0.612574  0.228404  1
  Si  Si22  1  0.345284  0.111939  0.504881  1
  Si  Si23  1  0.888461  0.655892  0.496036  1
  Si  Si24  1  0.387927  0.154600  0.005024  1
  Si  Si25  1  0.844503  0.611623  0.994204  1
  Si  Si26  1  0.654600  0.887927  0.494976  1
  Si  Si27  1  0.111623  0.344503  0.505796  1
  Si  Si28  1  0.611939  0.845284  0.995119  1
  Si  Si29  1  0.155892  0.388461  0.003964  1
  Ru  Ru30  1  0.669553  0.333417  0.500495  1
  Ru  Ru31  1  0.166637  0.830524  0.998900  1
  Ru  Ru32  1  0.330524  0.666637  0.501100  1
  Ru  Ru33  1  0.833417  0.169553  0.999505  1
  Ru  Ru34  1  0.125917  0.125864  0.626467  1
  Ru  Ru35  1  0.874157  0.874334  0.373341  1
  Ru  Ru36  1  0.374334  0.374157  0.126659  1
  Ru  Ru37  1  0.625864  0.625917  0.873533  1
