# generated using pymatgen
data_Sm2Lu4FeCo17P12
_symmetry_space_group_name_H-M   'P 1'
_cell_length_a   3.68370800
_cell_length_b   10.49340100
_cell_length_c   12.14734400
_cell_angle_alpha   90.00000000
_cell_angle_beta   90.00000000
_cell_angle_gamma   90.00000000
_symmetry_Int_Tables_number   1
_chemical_formula_structural   Sm2Lu4FeCo17P12
_chemical_formula_sum   'Sm2 Lu4 Fe1 Co17 P12'
_cell_volume   469.55102963
_cell_formula_units_Z   1
loop_
 _symmetry_equiv_pos_site_id
 _symmetry_equiv_pos_as_xyz
  1  'x, y, z'
loop_
 _atom_site_type_symbol
 _atom_site_label
 _atom_site_symmetry_multiplicity
 _atom_site_fract_x
 _atom_site_fract_y
 _atom_site_fract_z
 _atom_site_occupancy
  Sm  Sm0  1  0.000000  0.500000  0.523049  1
  Sm  Sm1  1  0.500000  0.000000  0.476612  1
  Lu  Lu2  1  0.500000  0.818061  0.205094  1
  Lu  Lu3  1  0.500000  0.181939  0.205094  1
  Lu  Lu4  1  0.000000  0.682042  0.795550  1
  Lu  Lu5  1  0.000000  0.317958  0.795550  1
  Fe  Fe6  1  0.500000  0.500000  0.156307  1
  Co  Co7  1  0.000000  0.000000  0.841499  1
  Co  Co8  1  0.500000  0.500000  0.705916  1
  Co  Co9  1  0.000000  0.000000  0.293842  1
  Co  Co10  1  0.000000  0.500000  0.986366  1
  Co  Co11  1  0.500000  0.000000  0.013815  1
  Co  Co12  1  0.500000  0.332610  0.994236  1
  Co  Co13  1  0.500000  0.667390  0.994236  1
  Co  Co14  1  0.000000  0.166974  0.005952  1
  Co  Co15  1  0.000000  0.833026  0.005952  1
  Co  Co16  1  0.500000  0.296411  0.429620  1
  Co  Co17  1  0.500000  0.703589  0.429620  1
  Co  Co18  1  0.000000  0.203549  0.570681  1
  Co  Co19  1  0.000000  0.796451  0.570681  1
  Co  Co20  1  0.500000  0.878532  0.711442  1
  Co  Co21  1  0.500000  0.121468  0.711442  1
  Co  Co22  1  0.000000  0.621938  0.288719  1
  Co  Co23  1  0.000000  0.378062  0.288719  1
  P  P24  1  0.500000  0.500000  0.882647  1
  P  P25  1  0.000000  0.000000  0.117309  1
  P  P26  1  0.500000  0.500000  0.341337  1
  P  P27  1  0.000000  0.000000  0.658144  1
  P  P28  1  0.500000  0.309373  0.618468  1
  P  P29  1  0.500000  0.690627  0.618468  1
  P  P30  1  0.000000  0.190901  0.381647  1
  P  P31  1  0.000000  0.809099  0.381647  1
  P  P32  1  0.500000  0.846460  0.892692  1
  P  P33  1  0.500000  0.153540  0.892692  1
  P  P34  1  0.000000  0.653803  0.107478  1
  P  P35  1  0.000000  0.346197  0.107478  1
