# generated using pymatgen
data_Y4Al18Ir5Pd
_symmetry_space_group_name_H-M   'P 1'
_cell_length_a   7.57483528
_cell_length_b   7.57483584
_cell_length_c   9.49609560
_cell_angle_alpha   90.02060163
_cell_angle_beta   90.02059942
_cell_angle_gamma   119.57880743
_symmetry_Int_Tables_number   1
_chemical_formula_structural   Y4Al18Ir5Pd
_chemical_formula_sum   'Y4 Al18 Ir5 Pd1'
_cell_volume   473.85956896
_cell_formula_units_Z   1
loop_
 _symmetry_equiv_pos_site_id
 _symmetry_equiv_pos_as_xyz
  1  'x, y, z'
loop_
 _atom_site_type_symbol
 _atom_site_label
 _atom_site_symmetry_multiplicity
 _atom_site_fract_x
 _atom_site_fract_y
 _atom_site_fract_z
 _atom_site_occupancy
  Y  Y0  1  0.995113  0.670760  0.250910  1
  Y  Y1  1  0.005034  0.329538  0.749082  1
  Y  Y2  1  0.670462  0.994966  0.250918  1
  Y  Y3  1  0.329240  0.004887  0.749090  1
  Al  Al4  1  0.128572  0.127838  0.250576  1
  Al  Al5  1  0.872162  0.871428  0.749424  1
  Al  Al6  1  0.004286  0.335284  0.076071  1
  Al  Al7  1  0.002135  0.668563  0.924274  1
  Al  Al8  1  0.999581  0.664929  0.573590  1
  Al  Al9  1  0.335071  0.000419  0.426410  1
  Al  Al10  1  0.000519  0.334641  0.425596  1
  Al  Al11  1  0.665359  0.999481  0.574404  1
  Al  Al12  1  0.664716  0.995714  0.923929  1
  Al  Al13  1  0.331437  0.997865  0.075726  1
  Al  Al14  1  0.333183  0.333134  0.551210  1
  Al  Al15  1  0.666866  0.666817  0.448790  1
  Al  Al16  1  0.666249  0.669170  0.054416  1
  Al  Al17  1  0.330830  0.333751  0.945584  1
  Al  Al18  1  0.340004  0.548374  0.250488  1
  Al  Al19  1  0.660055  0.452976  0.747572  1
  Al  Al20  1  0.547024  0.339945  0.252428  1
  Al  Al21  1  0.451626  0.659996  0.749512  1
  Ir  Ir22  1  0.328311  0.671689  0.000000  1
  Ir  Ir23  1  0.328358  0.671642  0.500000  1
  Ir  Ir24  1  0.671736  0.328264  0.500000  1
  Ir  Ir25  1  0.999786  0.000214  0.000000  1
  Ir  Ir26  1  0.000123  0.999877  0.500000  1
  Pd  Pd27  1  0.672160  0.327840  0.000000  1
