# generated using pymatgen
data_Er20Sn3Bi5Os4
_symmetry_space_group_name_H-M   'P 1'
_cell_length_a   7.82558053
_cell_length_b   9.02466539
_cell_length_c   12.28990803
_cell_angle_alpha   90.02670725
_cell_angle_beta   90.15765524
_cell_angle_gamma   90.02159002
_symmetry_Int_Tables_number   1
_chemical_formula_structural   Er20Sn3Bi5Os4
_chemical_formula_sum   'Er20 Sn3 Bi5 Os4'
_cell_volume   867.94975192
_cell_formula_units_Z   1
loop_
 _symmetry_equiv_pos_site_id
 _symmetry_equiv_pos_as_xyz
  1  'x, y, z'
loop_
 _atom_site_type_symbol
 _atom_site_label
 _atom_site_symmetry_multiplicity
 _atom_site_fract_x
 _atom_site_fract_y
 _atom_site_fract_z
 _atom_site_occupancy
  Er  Er0  1  0.659135  0.758541  0.711030  1
  Er  Er1  1  0.338709  0.246053  0.290917  1
  Er  Er2  1  0.159294  0.242825  0.786980  1
  Er  Er3  1  0.845303  0.754847  0.210431  1
  Er  Er4  1  0.125405  0.757098  0.807185  1
  Er  Er5  1  0.880519  0.245047  0.192177  1
  Er  Er6  1  0.625534  0.242778  0.693465  1
  Er  Er7  1  0.370641  0.753491  0.309818  1
  Er  Er8  1  0.553944  0.753433  0.994532  1
  Er  Er9  1  0.444056  0.247111  0.001560  1
  Er  Er10  1  0.053050  0.243781  0.504034  1
  Er  Er11  1  0.946219  0.756049  0.495802  1
  Er  Er12  1  0.827078  0.460159  0.932117  1
  Er  Er13  1  0.175063  0.539397  0.066453  1
  Er  Er14  1  0.325665  0.538579  0.567692  1
  Er  Er15  1  0.172757  0.960816  0.068660  1
  Er  Er16  1  0.673224  0.460646  0.433466  1
  Er  Er17  1  0.825270  0.038431  0.926926  1
  Er  Er18  1  0.677350  0.038823  0.435339  1
  Er  Er19  1  0.322902  0.961219  0.570250  1
  Sn  Sn20  1  0.931070  0.005353  0.669516  1
  Sn  Sn21  1  0.069057  0.994665  0.329236  1
  Sn  Sn22  1  0.430766  0.994656  0.831080  1
  Bi  Bi23  1  0.068067  0.505585  0.329295  1
  Bi  Bi24  1  0.568843  0.006466  0.172618  1
  Bi  Bi25  1  0.930553  0.494722  0.670715  1
  Bi  Bi26  1  0.569935  0.494039  0.171827  1
  Bi  Bi27  1  0.431507  0.506324  0.827440  1
  Os  Os28  1  0.926014  0.749427  0.991581  1
  Os  Os29  1  0.074218  0.250092  0.006461  1
  Os  Os30  1  0.426690  0.249924  0.508705  1
  Os  Os31  1  0.572161  0.749623  0.492690  1
