# generated using pymatgen
data_NdDy3(WN3)4
_symmetry_space_group_name_H-M   'P 1'
_cell_length_a   7.34769656
_cell_length_b   7.34769730
_cell_length_c   6.29598001
_cell_angle_alpha   74.34856395
_cell_angle_beta   74.34857435
_cell_angle_gamma   82.34982843
_symmetry_Int_Tables_number   1
_chemical_formula_structural   NdDy3(WN3)4
_chemical_formula_sum   'Nd1 Dy3 W4 N12'
_cell_volume   314.50340370
_cell_formula_units_Z   1
loop_
 _symmetry_equiv_pos_site_id
 _symmetry_equiv_pos_as_xyz
  1  'x, y, z'
loop_
 _atom_site_type_symbol
 _atom_site_label
 _atom_site_symmetry_multiplicity
 _atom_site_fract_x
 _atom_site_fract_y
 _atom_site_fract_z
 _atom_site_occupancy
  Nd  Nd0  1  0.703607  0.296393  0.750000  1
  Dy  Dy1  1  0.091472  0.908528  0.750000  1
  Dy  Dy2  1  0.291939  0.708061  0.250000  1
  Dy  Dy3  1  0.912920  0.087080  0.250000  1
  W  W4  1  0.379227  0.200382  0.238243  1
  W  W5  1  0.618616  0.799578  0.765188  1
  W  W6  1  0.799618  0.620773  0.261757  1
  W  W7  1  0.200422  0.381384  0.734812  1
  N  N8  1  0.622516  0.111151  0.166068  1
  N  N9  1  0.353857  0.361406  0.445625  1
  N  N10  1  0.006500  0.214648  0.849971  1
  N  N11  1  0.376125  0.891470  0.842679  1
  N  N12  1  0.785352  0.993500  0.650029  1
  N  N13  1  0.108530  0.623875  0.657321  1
  N  N14  1  0.888849  0.377484  0.333932  1
  N  N15  1  0.646213  0.645568  0.549349  1
  N  N16  1  0.638594  0.646143  0.054375  1
  N  N17  1  0.354432  0.353787  0.950651  1
  N  N18  1  0.001170  0.779959  0.150722  1
  N  N19  1  0.220041  0.998830  0.349278  1
