# generated using pymatgen
data_RbTl7Bi4Mo4(PO8)4
_symmetry_space_group_name_H-M   'P 1'
_cell_length_a   12.59606440
_cell_length_b   12.59606420
_cell_length_c   12.59606500
_cell_angle_alpha   147.11714017
_cell_angle_beta   119.97538928
_cell_angle_gamma   70.15905236
_symmetry_Int_Tables_number   1
_chemical_formula_structural   RbTl7Bi4Mo4(PO8)4
_chemical_formula_sum   'Rb1 Tl7 Bi4 Mo4 P4 O32'
_cell_volume   926.14326973
_cell_formula_units_Z   1
loop_
 _symmetry_equiv_pos_site_id
 _symmetry_equiv_pos_as_xyz
  1  'x, y, z'
loop_
 _atom_site_type_symbol
 _atom_site_label
 _atom_site_symmetry_multiplicity
 _atom_site_fract_x
 _atom_site_fract_y
 _atom_site_fract_z
 _atom_site_occupancy
  Rb  Rb0  1  0.423204  0.306643  0.047544  1
  Tl  Tl1  1  0.239018  0.622030  0.545769  1
  Tl  Tl2  1  0.260436  0.806845  0.381997  1
  Tl  Tl3  1  0.923491  0.877746  0.116876  1
  Tl  Tl4  1  0.576530  0.693205  0.954145  1
  Tl  Tl5  1  0.762005  0.377877  0.455351  1
  Tl  Tl6  1  0.739087  0.193424  0.616804  1
  Tl  Tl7  1  0.075835  0.122232  0.883289  1
  Bi  Bi8  1  0.170526  0.750072  0.920483  1
  Bi  Bi9  1  0.330203  0.249996  0.580180  1
  Bi  Bi10  1  0.829401  0.249903  0.079459  1
  Bi  Bi11  1  0.670219  0.750152  0.420050  1
  Mo  Mo12  1  0.086655  0.336820  0.750035  1
  Mo  Mo13  1  0.413212  0.163111  0.250051  1
  Mo  Mo14  1  0.913336  0.663286  0.250108  1
  Mo  Mo15  1  0.587021  0.836707  0.750054  1
  P  P16  1  0.926697  0.749913  0.676639  1
  P  P17  1  0.573131  0.249687  0.822570  1
  P  P18  1  0.073229  0.250029  0.323268  1
  P  P19  1  0.426796  0.750254  0.177085  1
  O  O20  1  0.940654  0.713784  0.774079  1
  O  O21  1  0.559872  0.334262  0.773803  1
  O  O22  1  0.060276  0.786063  0.726745  1
  O  O23  1  0.439580  0.165052  0.723042  1
  O  O24  1  0.059183  0.286055  0.225665  1
  O  O25  1  0.440602  0.666743  0.226858  1
  O  O26  1  0.939608  0.213978  0.273190  1
  O  O27  1  0.560383  0.833831  0.274526  1
  O  O28  1  0.102460  0.589316  0.919366  1
  O  O29  1  0.397729  0.316963  0.487013  1
  O  O30  1  0.329923  0.910571  0.013031  1
  O  O31  1  0.170188  0.183117  0.581112  1
  O  O32  1  0.897738  0.410850  0.080903  1
  O  O33  1  0.602574  0.683183  0.513415  1
  O  O34  1  0.670028  0.089347  0.986955  1
  O  O35  1  0.829997  0.816814  0.419244  1
  O  O36  1  0.359031  0.591387  0.930736  1
  O  O37  1  0.140918  0.071509  0.232123  1
  O  O38  1  0.339224  0.908984  0.267606  1
  O  O39  1  0.160559  0.428592  0.569477  1
  O  O40  1  0.640256  0.408020  0.068712  1
  O  O41  1  0.859010  0.928467  0.767726  1
  O  O42  1  0.661041  0.091328  0.732297  1
  O  O43  1  0.839240  0.571483  0.430410  1
  O  O44  1  0.926208  0.225324  0.576162  1
  O  O45  1  0.573604  0.149924  0.298737  1
  O  O46  1  0.351024  0.274400  0.201125  1
  O  O47  1  0.148482  0.350196  0.923566  1
  O  O48  1  0.073699  0.775009  0.423821  1
  O  O49  1  0.426714  0.850470  0.701544  1
  O  O50  1  0.648922  0.725055  0.798789  1
  O  O51  1  0.851243  0.649993  0.076462  1
