# generated using pymatgen
data_ErTm(Si2Rh3)2
_symmetry_space_group_name_H-M   'P 1'
_cell_length_a   6.60988939
_cell_length_b   6.60988961
_cell_length_c   6.60988916
_cell_angle_alpha   130.41406831
_cell_angle_beta   114.08287773
_cell_angle_gamma   86.76883813
_symmetry_Int_Tables_number   1
_chemical_formula_structural   ErTm(Si2Rh3)2
_chemical_formula_sum   'Er1 Tm1 Si4 Rh6'
_cell_volume   191.52528915
_cell_formula_units_Z   1
loop_
 _symmetry_equiv_pos_site_id
 _symmetry_equiv_pos_as_xyz
  1  'x, y, z'
loop_
 _atom_site_type_symbol
 _atom_site_label
 _atom_site_symmetry_multiplicity
 _atom_site_fract_x
 _atom_site_fract_y
 _atom_site_fract_z
 _atom_site_occupancy
  Er  Er0  1  0.250000  0.953705  0.703705  1
  Tm  Tm1  1  0.750000  0.047739  0.297739  1
  Si  Si2  1  0.578613  0.385647  0.807034  1
  Si  Si3  1  0.921387  0.728421  0.807034  1
  Si  Si4  1  0.421429  0.614561  0.193132  1
  Si  Si5  1  0.078571  0.271702  0.193132  1
  Rh  Rh6  1  0.212714  0.499201  0.712592  1
  Rh  Rh7  1  0.786609  0.499201  0.286488  1
  Rh  Rh8  1  0.500259  0.500033  0.500291  1
  Rh  Rh9  1  0.999741  0.500033  0.999774  1
  Rh  Rh10  1  0.713391  0.999879  0.712592  1
  Rh  Rh11  1  0.287286  0.999879  0.286488  1
