# generated using pymatgen
data_La16Tb3YbSn16
_symmetry_space_group_name_H-M   'P 1'
_cell_length_a   8.41245600
_cell_length_b   8.55810400
_cell_length_c   16.30635000
_cell_angle_alpha   90.00000000
_cell_angle_beta   90.00000000
_cell_angle_gamma   89.99904932
_symmetry_Int_Tables_number   1
_chemical_formula_structural   La16Tb3YbSn16
_chemical_formula_sum   'La16 Tb3 Yb1 Sn16'
_cell_volume   1173.97034167
_cell_formula_units_Z   1
loop_
 _symmetry_equiv_pos_site_id
 _symmetry_equiv_pos_as_xyz
  1  'x, y, z'
loop_
 _atom_site_type_symbol
 _atom_site_label
 _atom_site_symmetry_multiplicity
 _atom_site_fract_x
 _atom_site_fract_y
 _atom_site_fract_z
 _atom_site_occupancy
  La  La0  1  0.369452  0.839253  0.881334  1
  La  La1  1  0.872385  0.658834  0.618778  1
  La  La2  1  0.631013  0.158405  0.381091  1
  La  La3  1  0.131297  0.340032  0.119921  1
  La  La4  1  0.631013  0.158405  0.118909  1
  La  La5  1  0.131297  0.340032  0.380079  1
  La  La6  1  0.369452  0.839253  0.618666  1
  La  La7  1  0.872385  0.658834  0.881222  1
  La  La8  1  0.517887  0.317777  0.901948  1
  La  La9  1  0.019762  0.183915  0.598618  1
  La  La10  1  0.478666  0.680786  0.400627  1
  La  La11  1  0.979645  0.818440  0.098936  1
  La  La12  1  0.478666  0.680786  0.099373  1
  La  La13  1  0.979645  0.818440  0.401064  1
  La  La14  1  0.517887  0.317777  0.598052  1
  La  La15  1  0.019762  0.183915  0.901382  1
  Tb  Tb16  1  0.700850  0.998399  0.750000  1
  Tb  Tb17  1  0.797407  0.498550  0.250000  1
  Tb  Tb18  1  0.297569  0.001380  0.250000  1
  Yb  Yb19  1  0.202208  0.504077  0.750000  1
  Sn  Sn20  1  0.288704  0.032558  0.046115  1
  Sn  Sn21  1  0.789051  0.466369  0.454223  1
  Sn  Sn22  1  0.711976  0.967492  0.547128  1
  Sn  Sn23  1  0.211444  0.534771  0.957410  1
  Sn  Sn24  1  0.711976  0.967492  0.952872  1
  Sn  Sn25  1  0.211444  0.534771  0.542590  1
  Sn  Sn26  1  0.288704  0.032558  0.453885  1
  Sn  Sn27  1  0.789051  0.466369  0.045777  1
  Sn  Sn28  1  0.570731  0.615986  0.750000  1
  Sn  Sn29  1  0.066433  0.892607  0.750000  1
  Sn  Sn30  1  0.435678  0.382013  0.250000  1
  Sn  Sn31  1  0.933726  0.116620  0.250000  1
  Sn  Sn32  1  0.326650  0.141132  0.750000  1
  Sn  Sn33  1  0.816448  0.352821  0.750000  1
  Sn  Sn34  1  0.674709  0.851736  0.250000  1
  Sn  Sn35  1  0.175030  0.647410  0.250000  1
