# generated using pymatgen
data_ErLu7Ga3Ir
_symmetry_space_group_name_H-M   'P 1'
_cell_length_a   9.87558920
_cell_length_b   9.87558924
_cell_length_c   6.86294408
_cell_angle_alpha   89.98527476
_cell_angle_beta   90.01472268
_cell_angle_gamma   119.98254293
_symmetry_Int_Tables_number   1
_chemical_formula_structural   ErLu7Ga3Ir
_chemical_formula_sum   'Er2 Lu14 Ga6 Ir2'
_cell_volume   579.75362880
_cell_formula_units_Z   2
loop_
 _symmetry_equiv_pos_site_id
 _symmetry_equiv_pos_as_xyz
  1  'x, y, z'
loop_
 _atom_site_type_symbol
 _atom_site_label
 _atom_site_symmetry_multiplicity
 _atom_site_fract_x
 _atom_site_fract_y
 _atom_site_fract_z
 _atom_site_occupancy
  Er  Er0  1  0.933873  0.466980  0.795192  1
  Er  Er1  1  0.533020  0.066127  0.795192  1
  Lu  Lu2  1  0.999925  0.000075  0.266819  1
  Lu  Lu3  1  0.999979  0.000021  0.766901  1
  Lu  Lu4  1  0.171251  0.828749  0.992311  1
  Lu  Lu5  1  0.828792  0.171208  0.490772  1
  Lu  Lu6  1  0.171663  0.342675  0.991919  1
  Lu  Lu7  1  0.657325  0.828337  0.991919  1
  Lu  Lu8  1  0.342652  0.171581  0.491106  1
  Lu  Lu9  1  0.828419  0.657348  0.491106  1
  Lu  Lu10  1  0.333511  0.666489  0.662719  1
  Lu  Lu11  1  0.666441  0.333559  0.163255  1
  Lu  Lu12  1  0.466251  0.533749  0.294980  1
  Lu  Lu13  1  0.533549  0.466451  0.794968  1
  Lu  Lu14  1  0.466177  0.932221  0.295029  1
  Lu  Lu15  1  0.067779  0.533823  0.295029  1
  Ga  Ga16  1  0.163644  0.836356  0.541927  1
  Ga  Ga17  1  0.836618  0.163382  0.042948  1
  Ga  Ga18  1  0.163592  0.327309  0.542272  1
  Ga  Ga19  1  0.672691  0.836408  0.542272  1
  Ga  Ga20  1  0.327059  0.163700  0.042448  1
  Ga  Ga21  1  0.836300  0.672941  0.042448  1
  Ir  Ir22  1  0.333317  0.666683  0.056873  1
  Ir  Ir23  1  0.666174  0.333826  0.555716  1
