# generated using pymatgen
data_Ca(CoO2)3
_symmetry_space_group_name_H-M   'P 1'
_cell_length_a   4.90640105
_cell_length_b   5.72146102
_cell_length_c   8.50560000
_cell_angle_alpha   90.00030818
_cell_angle_beta   89.99997643
_cell_angle_gamma   73.48635836
_symmetry_Int_Tables_number   1
_chemical_formula_structural   Ca(CoO2)3
_chemical_formula_sum   'Ca2 Co6 O12'
_cell_volume   228.91869699
_cell_formula_units_Z   2
loop_
 _symmetry_equiv_pos_site_id
 _symmetry_equiv_pos_as_xyz
  1  'x, y, z'
loop_
 _atom_site_type_symbol
 _atom_site_label
 _atom_site_symmetry_multiplicity
 _atom_site_fract_x
 _atom_site_fract_y
 _atom_site_fract_z
 _atom_site_occupancy
  Ca  Ca0  1  0.000001  0.500000  0.173838  1
  Ca  Ca1  1  0.499999  0.500000  0.663808  1
  Co  Co2  1  0.500000  0.000000  0.166949  1
  Co  Co3  1  0.500000  0.999999  0.834108  1
  Co  Co4  1  0.500000  0.000000  0.498345  1
  Co  Co5  1  0.000000  0.000000  0.665953  1
  Co  Co6  1  0.000000  0.000000  0.334190  1
  Co  Co7  1  0.000000  0.000000  0.999054  1
  O  O8  1  0.779769  0.179381  0.163875  1
  O  O9  1  0.272422  0.179968  0.667296  1
  O  O10  1  0.220231  0.820620  0.163874  1
  O  O11  1  0.727578  0.820031  0.667295  1
  O  O12  1  0.265733  0.181146  0.000738  1
  O  O13  1  0.774818  0.181627  0.504059  1
  O  O14  1  0.272625  0.182763  0.331760  1
  O  O15  1  0.773013  0.181835  0.830821  1
  O  O16  1  0.727375  0.817237  0.331758  1
  O  O17  1  0.226986  0.818165  0.830820  1
  O  O18  1  0.734268  0.818854  0.000737  1
  O  O19  1  0.225182  0.818372  0.504057  1
