# generated using pymatgen
data_DyLu9Si5As
_symmetry_space_group_name_H-M   'P 1'
_cell_length_a   8.23249900
_cell_length_b   8.26147025
_cell_length_c   6.14770000
_cell_angle_alpha   90.00000000
_cell_angle_beta   90.00000000
_cell_angle_gamma   119.88407592
_symmetry_Int_Tables_number   1
_chemical_formula_structural   DyLu9Si5As
_chemical_formula_sum   'Dy1 Lu9 Si5 As1'
_cell_volume   362.52541242
_cell_formula_units_Z   1
loop_
 _symmetry_equiv_pos_site_id
 _symmetry_equiv_pos_as_xyz
  1  'x, y, z'
loop_
 _atom_site_type_symbol
 _atom_site_label
 _atom_site_symmetry_multiplicity
 _atom_site_fract_x
 _atom_site_fract_y
 _atom_site_fract_z
 _atom_site_occupancy
  Dy  Dy0  1  0.759423  0.000000  0.750000  1
  Lu  Lu1  1  0.669085  0.336535  0.001197  1
  Lu  Lu2  1  0.332549  0.663465  0.498803  1
  Lu  Lu3  1  0.332549  0.663465  0.001197  1
  Lu  Lu4  1  0.669085  0.336535  0.498803  1
  Lu  Lu5  1  0.757280  0.756207  0.250000  1
  Lu  Lu6  1  0.001074  0.243793  0.250000  1
  Lu  Lu7  1  0.996327  0.753987  0.750000  1
  Lu  Lu8  1  0.242340  0.246013  0.750000  1
  Lu  Lu9  1  0.241369  0.000000  0.250000  1
  Si  Si10  1  0.394742  0.393266  0.250000  1
  Si  Si11  1  0.001474  0.606734  0.250000  1
  Si  Si12  1  0.001434  0.396930  0.750000  1
  Si  Si13  1  0.604505  0.603070  0.750000  1
  Si  Si14  1  0.606932  0.000000  0.250000  1
  As  As15  1  0.389832  0.000000  0.750000  1
