# generated using pymatgen
data_Nd3Th5Zn8Ru3Rh5
_symmetry_space_group_name_H-M   'P 1'
_cell_length_a   3.92272600
_cell_length_b   7.53670283
_cell_length_c   16.54821702
_cell_angle_alpha   90.34950691
_cell_angle_beta   90.00000000
_cell_angle_gamma   90.00000000
_symmetry_Int_Tables_number   1
_chemical_formula_structural   Nd3Th5Zn8Ru3Rh5
_chemical_formula_sum   'Nd3 Th5 Zn8 Ru3 Rh5'
_cell_volume   489.22933810
_cell_formula_units_Z   1
loop_
 _symmetry_equiv_pos_site_id
 _symmetry_equiv_pos_as_xyz
  1  'x, y, z'
loop_
 _atom_site_type_symbol
 _atom_site_label
 _atom_site_symmetry_multiplicity
 _atom_site_fract_x
 _atom_site_fract_y
 _atom_site_fract_z
 _atom_site_occupancy
  Nd  Nd0  1  0.750000  0.445587  0.215423  1
  Nd  Nd1  1  0.250000  0.054673  0.712678  1
  Nd  Nd2  1  0.250000  0.553926  0.785172  1
  Th  Th3  1  0.250000  0.173463  0.938865  1
  Th  Th4  1  0.250000  0.669099  0.560410  1
  Th  Th5  1  0.750000  0.320993  0.438691  1
  Th  Th6  1  0.750000  0.949956  0.283970  1
  Th  Th7  1  0.750000  0.825780  0.063971  1
  Zn  Zn8  1  0.750000  0.008069  0.560394  1
  Zn  Zn9  1  0.250000  0.613268  0.345503  1
  Zn  Zn10  1  0.750000  0.379717  0.653454  1
  Zn  Zn11  1  0.250000  0.496624  0.061626  1
  Zn  Zn12  1  0.750000  0.508081  0.939294  1
  Zn  Zn13  1  0.250000  0.993543  0.442756  1
  Zn  Zn14  1  0.250000  0.122944  0.152564  1
  Zn  Zn15  1  0.750000  0.880574  0.844804  1
  Ru  Ru16  1  0.250000  0.233670  0.318250  1
  Ru  Ru17  1  0.250000  0.261178  0.558978  1
  Ru  Ru18  1  0.250000  0.760884  0.184597  1
  Rh  Rh19  1  0.750000  0.743202  0.438961  1
  Rh  Rh20  1  0.750000  0.248912  0.820441  1
  Rh  Rh21  1  0.750000  0.750675  0.680554  1
  Rh  Rh22  1  0.750000  0.245513  0.057921  1
  Rh  Rh23  1  0.250000  0.759671  0.940723  1
