# generated using pymatgen
data_Tm4Al18(PtRh)3
_symmetry_space_group_name_H-M   'P 1'
_cell_length_a   7.57331971
_cell_length_b   7.57331628
_cell_length_c   9.36821606
_cell_angle_alpha   89.98950284
_cell_angle_beta   89.98951288
_cell_angle_gamma   119.55550101
_symmetry_Int_Tables_number   1
_chemical_formula_structural   Tm4Al18(PtRh)3
_chemical_formula_sum   'Tm4 Al18 Pt3 Rh3'
_cell_volume   467.39896501
_cell_formula_units_Z   1
loop_
 _symmetry_equiv_pos_site_id
 _symmetry_equiv_pos_as_xyz
  1  'x, y, z'
loop_
 _atom_site_type_symbol
 _atom_site_label
 _atom_site_symmetry_multiplicity
 _atom_site_fract_x
 _atom_site_fract_y
 _atom_site_fract_z
 _atom_site_occupancy
  Tm  Tm0  1  0.995997  0.670779  0.250471  1
  Tm  Tm1  1  0.005248  0.330420  0.749765  1
  Tm  Tm2  1  0.669579  0.994752  0.250235  1
  Tm  Tm3  1  0.329221  0.004002  0.749529  1
  Al  Al4  1  0.124560  0.125329  0.250658  1
  Al  Al5  1  0.874671  0.875440  0.749342  1
  Al  Al6  1  0.999532  0.331131  0.077116  1
  Al  Al7  1  0.999592  0.669218  0.922456  1
  Al  Al8  1  0.996658  0.664625  0.576055  1
  Al  Al9  1  0.335375  0.003342  0.423945  1
  Al  Al10  1  0.995654  0.331149  0.424095  1
  Al  Al11  1  0.668851  0.004347  0.575905  1
  Al  Al12  1  0.668869  0.000468  0.922884  1
  Al  Al13  1  0.330782  0.000408  0.077544  1
  Al  Al14  1  0.331727  0.328077  0.554276  1
  Al  Al15  1  0.671923  0.668274  0.445724  1
  Al  Al16  1  0.670978  0.671009  0.057295  1
  Al  Al17  1  0.328991  0.329022  0.942704  1
  Al  Al18  1  0.339899  0.545387  0.250539  1
  Al  Al19  1  0.659540  0.450786  0.746321  1
  Al  Al20  1  0.549214  0.340460  0.253679  1
  Al  Al21  1  0.454613  0.660101  0.749461  1
  Pt  Pt22  1  0.672354  0.327646  0.000000  1
  Pt  Pt23  1  0.326961  0.673039  0.000000  1
  Pt  Pt24  1  0.327104  0.672896  0.500000  1
  Rh  Rh25  1  0.672270  0.327730  0.500000  1
  Rh  Rh26  1  0.999684  0.000317  0.000000  1
  Rh  Rh27  1  0.000155  0.999845  0.500000  1
