# generated using pymatgen
data_Sr2Dy3Pb4
_symmetry_space_group_name_H-M   'P 1'
_cell_length_a   8.12589300
_cell_length_b   8.69191900
_cell_length_c   16.26589900
_cell_angle_alpha   90.00000000
_cell_angle_beta   90.00000000
_cell_angle_gamma   90.00000000
_symmetry_Int_Tables_number   1
_chemical_formula_structural   Sr2Dy3Pb4
_chemical_formula_sum   'Sr8 Dy12 Pb16'
_cell_volume   1148.85400115
_cell_formula_units_Z   4
loop_
 _symmetry_equiv_pos_site_id
 _symmetry_equiv_pos_as_xyz
  1  'x, y, z'
loop_
 _atom_site_type_symbol
 _atom_site_label
 _atom_site_symmetry_multiplicity
 _atom_site_fract_x
 _atom_site_fract_y
 _atom_site_fract_z
 _atom_site_occupancy
  Sr  Sr0  1  0.493899  0.680720  0.591094  1
  Sr  Sr1  1  0.993899  0.819280  0.908906  1
  Sr  Sr2  1  0.506101  0.319280  0.091094  1
  Sr  Sr3  1  0.006101  0.180720  0.408906  1
  Sr  Sr4  1  0.506101  0.319280  0.408906  1
  Sr  Sr5  1  0.006101  0.180720  0.091094  1
  Sr  Sr6  1  0.493899  0.680720  0.908906  1
  Sr  Sr7  1  0.993899  0.819280  0.591094  1
  Dy  Dy8  1  0.668031  0.157390  0.623799  1
  Dy  Dy9  1  0.168031  0.342610  0.876201  1
  Dy  Dy10  1  0.331969  0.842610  0.123799  1
  Dy  Dy11  1  0.831969  0.657390  0.376201  1
  Dy  Dy12  1  0.331969  0.842610  0.376201  1
  Dy  Dy13  1  0.831969  0.657390  0.123799  1
  Dy  Dy14  1  0.668031  0.157390  0.876201  1
  Dy  Dy15  1  0.168031  0.342610  0.623799  1
  Dy  Dy16  1  0.827437  0.505213  0.750000  1
  Dy  Dy17  1  0.327437  0.994787  0.750000  1
  Dy  Dy18  1  0.172563  0.494787  0.250000  1
  Dy  Dy19  1  0.672563  0.005213  0.250000  1
  Pb  Pb20  1  0.675244  0.956338  0.455326  1
  Pb  Pb21  1  0.175244  0.543662  0.044674  1
  Pb  Pb22  1  0.324756  0.043662  0.955326  1
  Pb  Pb23  1  0.824756  0.456338  0.544674  1
  Pb  Pb24  1  0.324756  0.043662  0.544674  1
  Pb  Pb25  1  0.824756  0.456338  0.955326  1
  Pb  Pb26  1  0.675244  0.956338  0.044674  1
  Pb  Pb27  1  0.175244  0.543662  0.455326  1
  Pb  Pb28  1  0.468805  0.361164  0.750000  1
  Pb  Pb29  1  0.968805  0.138836  0.750000  1
  Pb  Pb30  1  0.531195  0.638836  0.250000  1
  Pb  Pb31  1  0.031195  0.861164  0.250000  1
  Pb  Pb32  1  0.695788  0.858494  0.750000  1
  Pb  Pb33  1  0.195788  0.641506  0.750000  1
  Pb  Pb34  1  0.304212  0.141506  0.250000  1
  Pb  Pb35  1  0.804212  0.358494  0.250000  1
