# generated using pymatgen
data_CeNd5Al20(SiRu2)4
_symmetry_space_group_name_H-M   'P 1'
_cell_length_a   8.80407300
_cell_length_b   8.81255780
_cell_length_c   9.67990700
_cell_angle_alpha   90.00000000
_cell_angle_beta   90.00000000
_cell_angle_gamma   119.96815191
_symmetry_Int_Tables_number   1
_chemical_formula_structural   CeNd5Al20(SiRu2)4
_chemical_formula_sum   'Ce1 Nd5 Al20 Si4 Ru8'
_cell_volume   650.61896066
_cell_formula_units_Z   1
loop_
 _symmetry_equiv_pos_site_id
 _symmetry_equiv_pos_as_xyz
  1  'x, y, z'
loop_
 _atom_site_type_symbol
 _atom_site_label
 _atom_site_symmetry_multiplicity
 _atom_site_fract_x
 _atom_site_fract_y
 _atom_site_fract_z
 _atom_site_occupancy
  Ce  Ce0  1  0.194461  0.388920  0.250000  1
  Nd  Nd1  1  0.807138  0.614279  0.750000  1
  Nd  Nd2  1  0.613427  0.805806  0.250000  1
  Nd  Nd3  1  0.387193  0.193627  0.750000  1
  Nd  Nd4  1  0.192381  0.805806  0.250000  1
  Nd  Nd5  1  0.806431  0.193627  0.750000  1
  Al  Al6  1  0.164436  0.328871  0.574262  1
  Al  Al7  1  0.835301  0.670603  0.425764  1
  Al  Al8  1  0.670925  0.834563  0.575070  1
  Al  Al9  1  0.835301  0.670603  0.074236  1
  Al  Al10  1  0.328402  0.164517  0.423952  1
  Al  Al11  1  0.164436  0.328871  0.925738  1
  Al  Al12  1  0.163639  0.834563  0.575070  1
  Al  Al13  1  0.328402  0.164517  0.076048  1
  Al  Al14  1  0.836114  0.164517  0.423952  1
  Al  Al15  1  0.670925  0.834563  0.924930  1
  Al  Al16  1  0.836114  0.164517  0.076048  1
  Al  Al17  1  0.163639  0.834563  0.924930  1
  Al  Al18  1  0.564246  0.128492  0.250000  1
  Al  Al19  1  0.435197  0.870395  0.750000  1
  Al  Al20  1  0.870938  0.434577  0.250000  1
  Al  Al21  1  0.128603  0.563813  0.750000  1
  Al  Al22  1  0.563640  0.434577  0.250000  1
  Al  Al23  1  0.435209  0.563813  0.750000  1
  Al  Al24  1  0.001597  0.003193  0.250000  1
  Al  Al25  1  0.000338  0.000676  0.750000  1
  Si  Si26  1  0.334056  0.668114  0.030404  1
  Si  Si27  1  0.667024  0.334047  0.970975  1
  Si  Si28  1  0.667024  0.334047  0.529025  1
  Si  Si29  1  0.334056  0.668114  0.469596  1
  Ru  Ru30  1  0.500186  0.000372  0.999578  1
  Ru  Ru31  1  0.001181  0.499794  0.002291  1
  Ru  Ru32  1  0.500186  0.000372  0.500422  1
  Ru  Ru33  1  0.498613  0.499794  0.002291  1
  Ru  Ru34  1  0.001181  0.499794  0.497709  1
  Ru  Ru35  1  0.498613  0.499794  0.497709  1
  Ru  Ru36  1  0.999722  0.999445  0.000261  1
  Ru  Ru37  1  0.999722  0.999445  0.499739  1
