# generated using pymatgen
data_K13TiNb(In3As5)2
_symmetry_space_group_name_H-M   'P 1'
_cell_length_a   9.40500036
_cell_length_b   9.39090803
_cell_length_c   13.37671532
_cell_angle_alpha   80.31871496
_cell_angle_beta   77.83987849
_cell_angle_gamma   62.71042701
_symmetry_Int_Tables_number   1
_chemical_formula_structural   K13TiNb(In3As5)2
_chemical_formula_sum   'K13 Ti1 Nb1 In6 As10'
_cell_volume   1022.90779828
_cell_formula_units_Z   1
loop_
 _symmetry_equiv_pos_site_id
 _symmetry_equiv_pos_as_xyz
  1  'x, y, z'
loop_
 _atom_site_type_symbol
 _atom_site_label
 _atom_site_symmetry_multiplicity
 _atom_site_fract_x
 _atom_site_fract_y
 _atom_site_fract_z
 _atom_site_occupancy
  K  K0  1  0.496120  0.869547  0.351797  1
  K  K1  1  0.503929  0.132116  0.642733  1
  K  K2  1  0.853483  0.584201  0.887179  1
  K  K3  1  0.145190  0.411295  0.117554  1
  K  K4  1  0.090615  0.781994  0.426635  1
  K  K5  1  0.909813  0.217714  0.566857  1
  K  K6  1  0.749522  0.681248  0.590748  1
  K  K7  1  0.256067  0.318335  0.400830  1
  K  K8  1  0.500177  0.494693  0.004068  1
  K  K9  1  0.320770  0.932391  0.089728  1
  K  K10  1  0.679157  0.069693  0.917789  1
  K  K11  1  0.883594  0.861741  0.167394  1
  K  K12  1  0.108328  0.144310  0.838629  1
  Ti  Ti13  1  0.619446  0.259982  0.223283  1
  Nb  Nb14  1  0.382851  0.740666  0.776799  1
  In  In15  1  0.014380  0.819631  0.707363  1
  In  In16  1  0.985453  0.176937  0.292197  1
  In  In17  1  0.606256  0.443908  0.405512  1
  In  In18  1  0.394040  0.553838  0.590783  1
  In  In19  1  0.726389  0.572118  0.161227  1
  In  In20  1  0.274999  0.426659  0.837368  1
  As  As21  1  0.425438  0.558911  0.248586  1
  As  As22  1  0.574896  0.443379  0.751770  1
  As  As23  1  0.134024  0.749824  0.900193  1
  As  As24  1  0.868890  0.247870  0.098767  1
  As  As25  1  0.708075  0.118532  0.395204  1
  As  As26  1  0.289958  0.881717  0.606146  1
  As  As27  1  0.864959  0.515250  0.355260  1
  As  As28  1  0.131661  0.485934  0.647611  1
  As  As29  1  0.508231  0.870550  0.843010  1
  As  As30  1  0.493288  0.135016  0.156979  1
