# generated using pymatgen
data_Er12Co2Cu3Sn
_symmetry_space_group_name_H-M   'P 1'
_cell_length_a   8.29452719
_cell_length_b   8.29452689
_cell_length_c   8.29452739
_cell_angle_alpha   109.98656433
_cell_angle_beta   112.03954037
_cell_angle_gamma   106.43658214
_symmetry_Int_Tables_number   1
_chemical_formula_structural   Er12Co2Cu3Sn
_chemical_formula_sum   'Er12 Co2 Cu3 Sn1'
_cell_volume   438.22469265
_cell_formula_units_Z   1
loop_
 _symmetry_equiv_pos_site_id
 _symmetry_equiv_pos_as_xyz
  1  'x, y, z'
loop_
 _atom_site_type_symbol
 _atom_site_label
 _atom_site_symmetry_multiplicity
 _atom_site_fract_x
 _atom_site_fract_y
 _atom_site_fract_z
 _atom_site_occupancy
  Er  Er0  1  0.288578  0.180727  0.469305  1
  Er  Er1  1  0.711422  0.819273  0.530695  1
  Er  Er2  1  0.288578  0.819273  0.107851  1
  Er  Er3  1  0.711422  0.180727  0.892149  1
  Er  Er4  1  0.617203  0.310977  0.306226  1
  Er  Er5  1  0.382797  0.689023  0.693774  1
  Er  Er6  1  0.004753  0.310977  0.693774  1
  Er  Er7  1  0.995247  0.689023  0.306226  1
  Er  Er8  1  0.227383  0.421969  0.194586  1
  Er  Er9  1  0.772617  0.578031  0.805414  1
  Er  Er10  1  0.227383  0.032796  0.805414  1
  Er  Er11  1  0.772617  0.967204  0.194586  1
  Co  Co12  1  0.386402  0.886402  0.500000  1
  Co  Co13  1  0.613598  0.113598  0.500000  1
  Cu  Cu14  1  0.000000  0.362502  0.362502  1
  Cu  Cu15  1  0.000000  0.637498  0.637498  1
  Cu  Cu16  1  0.000000  0.000000  0.000000  1
  Sn  Sn17  1  0.500000  0.500000  0.000000  1
