# generated using pymatgen
data_Pr3ThIr8
_symmetry_space_group_name_H-M   'P 1'
_cell_length_a   9.44184299
_cell_length_b   9.44184264
_cell_length_c   9.44184300
_cell_angle_alpha   33.72693805
_cell_angle_beta   33.72694123
_cell_angle_gamma   33.72693736
_symmetry_Int_Tables_number   1
_chemical_formula_structural   Pr3ThIr8
_chemical_formula_sum   'Pr3 Th1 Ir8'
_cell_volume   231.20070882
_cell_formula_units_Z   1
loop_
 _symmetry_equiv_pos_site_id
 _symmetry_equiv_pos_as_xyz
  1  'x, y, z'
loop_
 _atom_site_type_symbol
 _atom_site_label
 _atom_site_symmetry_multiplicity
 _atom_site_fract_x
 _atom_site_fract_y
 _atom_site_fract_z
 _atom_site_occupancy
  Pr  Pr0  1  0.625383  0.625383  0.625383  1
  Pr  Pr1  1  0.998675  0.998675  0.998675  1
  Pr  Pr2  1  0.501358  0.501358  0.501358  1
  Th  Th3  1  0.124809  0.124809  0.124809  1
  Ir  Ir4  1  0.562045  0.562045  0.065633  1
  Ir  Ir5  1  0.062676  0.062676  0.559684  1
  Ir  Ir6  1  0.562045  0.065633  0.562045  1
  Ir  Ir7  1  0.062676  0.559684  0.062676  1
  Ir  Ir8  1  0.812537  0.812537  0.812537  1
  Ir  Ir9  1  0.312484  0.312484  0.312484  1
  Ir  Ir10  1  0.065633  0.562045  0.562045  1
  Ir  Ir11  1  0.559684  0.062676  0.062676  1
