# generated using pymatgen
data_TlAg2Hg(Pt2O7)2
_symmetry_space_group_name_H-M   'P 1'
_cell_length_a   7.29397470
_cell_length_b   7.23959291
_cell_length_c   7.23959338
_cell_angle_alpha   59.78985778
_cell_angle_beta   60.13138128
_cell_angle_gamma   60.13138026
_symmetry_Int_Tables_number   1
_chemical_formula_structural   TlAg2Hg(Pt2O7)2
_chemical_formula_sum   'Tl1 Ag2 Hg1 Pt4 O14'
_cell_volume   270.42072316
_cell_formula_units_Z   1
loop_
 _symmetry_equiv_pos_site_id
 _symmetry_equiv_pos_as_xyz
  1  'x, y, z'
loop_
 _atom_site_type_symbol
 _atom_site_label
 _atom_site_symmetry_multiplicity
 _atom_site_fract_x
 _atom_site_fract_y
 _atom_site_fract_z
 _atom_site_occupancy
  Tl  Tl0  1  0.625000  0.125000  0.125000  1
  Ag  Ag1  1  0.125000  0.625000  0.125000  1
  Ag  Ag2  1  0.125000  0.125000  0.625000  1
  Hg  Hg3  1  0.125000  0.125000  0.125000  1
  Pt  Pt4  1  0.625000  0.625000  0.125000  1
  Pt  Pt5  1  0.625000  0.625000  0.625000  1
  Pt  Pt6  1  0.625000  0.125000  0.625000  1
  Pt  Pt7  1  0.125000  0.625000  0.625000  1
  O  O8  1  0.705432  0.290413  0.290413  1
  O  O9  1  0.704483  0.291970  0.710958  1
  O  O10  1  0.021465  0.981590  0.981590  1
  O  O11  1  0.294813  0.704134  0.292400  1
  O  O12  1  0.704483  0.710958  0.291970  1
  O  O13  1  0.952282  0.546793  0.546793  1
  O  O14  1  0.297718  0.703207  0.703207  1
  O  O15  1  0.228535  0.268410  0.268410  1
  O  O16  1  0.955187  0.545866  0.957600  1
  O  O17  1  0.545517  0.958030  0.539042  1
  O  O18  1  0.545517  0.539042  0.958030  1
  O  O19  1  0.955187  0.957600  0.545866  1
  O  O20  1  0.544568  0.959587  0.959587  1
  O  O21  1  0.294813  0.292400  0.704134  1
