# generated using pymatgen
data_Ca11Tl3C8
_symmetry_space_group_name_H-M   'P 1'
_cell_length_a   10.77573300
_cell_length_b   13.31538991
_cell_length_c   14.34877900
_cell_angle_alpha   74.31482757
_cell_angle_beta   90.00000000
_cell_angle_gamma   90.00000000
_symmetry_Int_Tables_number   1
_chemical_formula_structural   Ca11Tl3C8
_chemical_formula_sum   'Ca44 Tl12 C32'
_cell_volume   1982.14071028
_cell_formula_units_Z   4
loop_
 _symmetry_equiv_pos_site_id
 _symmetry_equiv_pos_as_xyz
  1  'x, y, z'
loop_
 _atom_site_type_symbol
 _atom_site_label
 _atom_site_symmetry_multiplicity
 _atom_site_fract_x
 _atom_site_fract_y
 _atom_site_fract_z
 _atom_site_occupancy
  Ca  Ca0  1  0.757671  0.983440  0.272230  1
  Ca  Ca1  1  0.257671  0.016560  0.227770  1
  Ca  Ca2  1  0.242329  0.016560  0.727770  1
  Ca  Ca3  1  0.742329  0.983440  0.772230  1
  Ca  Ca4  1  0.261068  0.976394  0.487029  1
  Ca  Ca5  1  0.761068  0.023606  0.012971  1
  Ca  Ca6  1  0.738932  0.023606  0.512971  1
  Ca  Ca7  1  0.238932  0.976394  0.987029  1
  Ca  Ca8  1  0.504030  0.888428  0.146646  1
  Ca  Ca9  1  0.004030  0.111572  0.353354  1
  Ca  Ca10  1  0.495970  0.111572  0.853354  1
  Ca  Ca11  1  0.995970  0.888428  0.646646  1
  Ca  Ca12  1  0.004038  0.851500  0.166235  1
  Ca  Ca13  1  0.504038  0.148500  0.333765  1
  Ca  Ca14  1  0.995962  0.148500  0.833765  1
  Ca  Ca15  1  0.495962  0.851500  0.666235  1
  Ca  Ca16  1  0.693941  0.736047  0.043953  1
  Ca  Ca17  1  0.193941  0.263953  0.456047  1
  Ca  Ca18  1  0.306059  0.263953  0.956047  1
  Ca  Ca19  1  0.806059  0.736047  0.543953  1
  Ca  Ca20  1  0.306017  0.730302  0.340684  1
  Ca  Ca21  1  0.806017  0.269698  0.159316  1
  Ca  Ca22  1  0.693983  0.269698  0.659316  1
  Ca  Ca23  1  0.193983  0.730302  0.840684  1
  Ca  Ca24  1  0.341031  0.694764  0.070899  1
  Ca  Ca25  1  0.841031  0.305236  0.429101  1
  Ca  Ca26  1  0.658969  0.305236  0.929101  1
  Ca  Ca27  1  0.158969  0.694764  0.570899  1
  Ca  Ca28  1  0.005784  0.605666  0.099168  1
  Ca  Ca29  1  0.505784  0.394334  0.400832  1
  Ca  Ca30  1  0.994216  0.394334  0.900832  1
  Ca  Ca31  1  0.494216  0.605666  0.599168  1
  Ca  Ca32  1  0.247396  0.494976  0.267176  1
  Ca  Ca33  1  0.747396  0.505024  0.232824  1
  Ca  Ca34  1  0.752604  0.505024  0.732824  1
  Ca  Ca35  1  0.252604  0.494976  0.767176  1
  Ca  Ca36  1  0.491581  0.392336  0.151705  1
  Ca  Ca37  1  0.991581  0.607664  0.348295  1
  Ca  Ca38  1  0.508419  0.607664  0.848295  1
  Ca  Ca39  1  0.008419  0.392336  0.651705  1
  Ca  Ca40  1  0.163630  0.296198  0.170360  1
  Ca  Ca41  1  0.663630  0.703802  0.329640  1
  Ca  Ca42  1  0.836370  0.703802  0.829640  1
  Ca  Ca43  1  0.336370  0.296198  0.670360  1
  Tl  Tl44  1  0.515460  0.870417  0.417480  1
  Tl  Tl45  1  0.015460  0.129583  0.082520  1
  Tl  Tl46  1  0.484540  0.129583  0.582520  1
  Tl  Tl47  1  0.984540  0.870417  0.917480  1
  Tl  Tl48  1  0.017348  0.856270  0.397782  1
  Tl  Tl49  1  0.517348  0.143730  0.102218  1
  Tl  Tl50  1  0.982652  0.143730  0.602218  1
  Tl  Tl51  1  0.482652  0.856270  0.897782  1
  Tl  Tl52  1  0.245353  0.497806  0.001013  1
  Tl  Tl53  1  0.745353  0.502194  0.498987  1
  Tl  Tl54  1  0.754647  0.502194  0.998987  1
  Tl  Tl55  1  0.254647  0.497806  0.501013  1
  C  C56  1  0.344750  0.319935  0.297148  1
  C  C57  1  0.844750  0.680065  0.202852  1
  C  C58  1  0.655250  0.680065  0.702852  1
  C  C59  1  0.155250  0.319935  0.797148  1
  C  C60  1  0.794357  0.774481  0.183573  1
  C  C61  1  0.294357  0.225519  0.316427  1
  C  C62  1  0.205643  0.225519  0.816427  1
  C  C63  1  0.705643  0.774481  0.683573  1
  C  C64  1  0.739333  0.867007  0.159289  1
  C  C65  1  0.239333  0.132993  0.340711  1
  C  C66  1  0.260667  0.132993  0.840711  1
  C  C67  1  0.760667  0.867007  0.659289  1
  C  C68  1  0.270461  0.857824  0.159050  1
  C  C69  1  0.770461  0.142176  0.340950  1
  C  C70  1  0.729539  0.142176  0.840950  1
  C  C71  1  0.229539  0.857824  0.659050  1
  C  C72  1  0.210939  0.766959  0.180269  1
  C  C73  1  0.710939  0.233041  0.319731  1
  C  C74  1  0.789061  0.233041  0.819731  1
  C  C75  1  0.289061  0.766959  0.680269  1
  C  C76  1  0.157706  0.673691  0.208930  1
  C  C77  1  0.657706  0.326309  0.291070  1
  C  C78  1  0.842294  0.326309  0.791070  1
  C  C79  1  0.342294  0.673691  0.708930  1
  C  C80  1  0.489949  0.570749  0.234479  1
  C  C81  1  0.989949  0.429251  0.265521  1
  C  C82  1  0.510051  0.429251  0.765521  1
  C  C83  1  0.010051  0.570749  0.734479  1
  C  C84  1  0.515474  0.667452  0.201267  1
  C  C85  1  0.015474  0.332548  0.298733  1
  C  C86  1  0.484526  0.332548  0.798733  1
  C  C87  1  0.984526  0.667452  0.701267  1
