# generated using pymatgen
data_Ho16InAg(HgRh2)2
_symmetry_space_group_name_H-M   'P 1'
_cell_length_a   9.55676787
_cell_length_b   9.54342633
_cell_length_c   9.55415800
_cell_angle_alpha   59.96279456
_cell_angle_beta   60.00903338
_cell_angle_gamma   59.93768627
_symmetry_Int_Tables_number   1
_chemical_formula_structural   Ho16InAg(HgRh2)2
_chemical_formula_sum   'Ho16 In1 Ag1 Hg2 Rh4'
_cell_volume   615.73705262
_cell_formula_units_Z   1
loop_
 _symmetry_equiv_pos_site_id
 _symmetry_equiv_pos_as_xyz
  1  'x, y, z'
loop_
 _atom_site_type_symbol
 _atom_site_label
 _atom_site_symmetry_multiplicity
 _atom_site_fract_x
 _atom_site_fract_y
 _atom_site_fract_z
 _atom_site_occupancy
  Ho  Ho0  1  0.189574  0.183342  0.813542  1
  Ho  Ho1  1  0.601298  0.600071  0.198899  1
  Ho  Ho2  1  0.437811  0.060765  0.440206  1
  Ho  Ho3  1  0.439931  0.439172  0.060448  1
  Ho  Ho4  1  0.813254  0.184329  0.814367  1
  Ho  Ho5  1  0.188536  0.812134  0.185681  1
  Ho  Ho6  1  0.437811  0.060765  0.061218  1
  Ho  Ho7  1  0.188536  0.812134  0.813649  1
  Ho  Ho8  1  0.059283  0.439148  0.060386  1
  Ho  Ho9  1  0.813391  0.812797  0.186906  1
  Ho  Ho10  1  0.195882  0.601828  0.601145  1
  Ho  Ho11  1  0.059283  0.439148  0.441183  1
  Ho  Ho12  1  0.060495  0.061437  0.439034  1
  Ho  Ho13  1  0.813254  0.184329  0.188050  1
  Ho  Ho14  1  0.603408  0.195791  0.600401  1
  Ho  Ho15  1  0.601298  0.600071  0.599732  1
  In  In16  1  0.828923  0.507523  0.831777  1
  Ag  Ag17  1  0.501086  0.832878  0.833018  1
  Hg  Hg18  1  0.833390  0.835684  0.835708  1
  Hg  Hg19  1  0.833390  0.835684  0.495219  1
  Rh  Rh20  1  0.393151  0.821908  0.392471  1
  Rh  Rh21  1  0.392400  0.392926  0.392735  1
  Rh  Rh22  1  0.822214  0.393212  0.392288  1
  Rh  Rh23  1  0.392400  0.392926  0.821940  1
