# generated using pymatgen
data_TbMnPt3Au
_symmetry_space_group_name_H-M   'P 1'
_cell_length_a   5.21781745
_cell_length_b   5.21781655
_cell_length_c   5.21781666
_cell_angle_alpha   63.06942018
_cell_angle_beta   63.06942490
_cell_angle_gamma   63.06942532
_symmetry_Int_Tables_number   1
_chemical_formula_structural   TbMnPt3Au
_chemical_formula_sum   'Tb1 Mn1 Pt3 Au1'
_cell_volume   107.29164401
_cell_formula_units_Z   1
loop_
 _symmetry_equiv_pos_site_id
 _symmetry_equiv_pos_as_xyz
  1  'x, y, z'
loop_
 _atom_site_type_symbol
 _atom_site_label
 _atom_site_symmetry_multiplicity
 _atom_site_fract_x
 _atom_site_fract_y
 _atom_site_fract_z
 _atom_site_occupancy
  Tb  Tb0  1  0.004969  0.004969  0.004969  1
  Mn  Mn1  1  0.622710  0.622710  0.622710  1
  Pt  Pt2  1  0.623104  0.623104  0.124397  1
  Pt  Pt3  1  0.623104  0.124397  0.623104  1
  Pt  Pt4  1  0.124397  0.623104  0.623104  1
  Au  Au5  1  0.251712  0.251712  0.251712  1
