# generated using pymatgen
data_Ca7NpP6
_symmetry_space_group_name_H-M   'P 1'
_cell_length_a   7.42666074
_cell_length_b   7.50027354
_cell_length_c   7.50812600
_cell_angle_alpha   109.69253810
_cell_angle_beta   109.33990948
_cell_angle_gamma   109.26929255
_symmetry_Int_Tables_number   1
_chemical_formula_structural   Ca7NpP6
_chemical_formula_sum   'Ca7 Np1 P6'
_cell_volume   322.38414106
_cell_formula_units_Z   1
loop_
 _symmetry_equiv_pos_site_id
 _symmetry_equiv_pos_as_xyz
  1  'x, y, z'
loop_
 _atom_site_type_symbol
 _atom_site_label
 _atom_site_symmetry_multiplicity
 _atom_site_fract_x
 _atom_site_fract_y
 _atom_site_fract_z
 _atom_site_occupancy
  Ca  Ca0  1  0.499431  0.999848  0.638453  1
  Ca  Ca1  1  0.368220  0.365220  0.375128  1
  Ca  Ca2  1  0.993400  0.125432  0.490259  1
  Ca  Ca3  1  0.860677  0.861455  0.861571  1
  Ca  Ca4  1  0.999292  0.638732  0.500214  1
  Ca  Ca5  1  0.639351  0.500231  0.999968  1
  Ca  Ca6  1  0.502224  0.009358  0.134169  1
  Np  Np7  1  0.145309  0.499549  0.000628  1
  P  P8  1  0.884364  0.258478  0.120607  1
  P  P9  1  0.126214  0.862071  0.241664  1
  P  P10  1  0.366842  0.622929  0.758661  1
  P  P11  1  0.243040  0.136140  0.877045  1
  P  P12  1  0.764356  0.379646  0.638099  1
  P  P13  1  0.607279  0.740914  0.363534  1
