# generated using pymatgen
data_YbFe3P12Pt
_symmetry_space_group_name_H-M   'P 1'
_cell_length_a   6.81438087
_cell_length_b   6.82874148
_cell_length_c   6.82874189
_cell_angle_alpha   109.51378635
_cell_angle_beta   109.42862005
_cell_angle_gamma   109.42862449
_symmetry_Int_Tables_number   1
_chemical_formula_structural   YbFe3P12Pt
_chemical_formula_sum   'Yb1 Fe3 P12 Pt1'
_cell_volume   244.74505418
_cell_formula_units_Z   1
loop_
 _symmetry_equiv_pos_site_id
 _symmetry_equiv_pos_as_xyz
  1  'x, y, z'
loop_
 _atom_site_type_symbol
 _atom_site_label
 _atom_site_symmetry_multiplicity
 _atom_site_fract_x
 _atom_site_fract_y
 _atom_site_fract_z
 _atom_site_occupancy
  Yb  Yb0  1  0.000000  0.000000  0.000000  1
  Fe  Fe1  1  0.500000  0.500000  0.500000  1
  Fe  Fe2  1  0.000000  0.500000  0.000000  1
  Fe  Fe3  1  0.000000  0.000000  0.500000  1
  P  P4  1  0.129006  0.787178  0.630056  1
  P  P5  1  0.150119  0.497616  0.348626  1
  P  P6  1  0.849881  0.502384  0.651374  1
  P  P7  1  0.347498  0.148991  0.497616  1
  P  P8  1  0.801493  0.651374  0.148991  1
  P  P9  1  0.870994  0.212822  0.369944  1
  P  P10  1  0.658171  0.157121  0.787178  1
  P  P11  1  0.501050  0.630056  0.842879  1
  P  P12  1  0.652502  0.851009  0.502384  1
  P  P13  1  0.498950  0.369944  0.157121  1
  P  P14  1  0.341829  0.842879  0.212822  1
  P  P15  1  0.198507  0.348626  0.851009  1
  Pt  Pt16  1  0.500000  0.000000  0.000000  1
