# generated using pymatgen
data_Ho2PaIn3CuPd2
_symmetry_space_group_name_H-M   'P 1'
_cell_length_a   7.61663432
_cell_length_b   7.69458874
_cell_length_c   3.86574100
_cell_angle_alpha   90.00000000
_cell_angle_beta   90.00000000
_cell_angle_gamma   120.33914282
_symmetry_Int_Tables_number   1
_chemical_formula_structural   Ho2PaIn3CuPd2
_chemical_formula_sum   'Ho2 Pa1 In3 Cu1 Pd2'
_cell_volume   195.53187520
_cell_formula_units_Z   1
loop_
 _symmetry_equiv_pos_site_id
 _symmetry_equiv_pos_as_xyz
  1  'x, y, z'
loop_
 _atom_site_type_symbol
 _atom_site_label
 _atom_site_symmetry_multiplicity
 _atom_site_fract_x
 _atom_site_fract_y
 _atom_site_fract_z
 _atom_site_occupancy
  Ho  Ho0  1  0.406518  0.407984  0.000000  1
  Ho  Ho1  1  0.593482  0.001467  0.000000  1
  Pa  Pa2  1  0.000000  0.587710  0.000000  1
  In  In3  1  0.740365  0.748496  0.500000  1
  In  In4  1  0.000000  0.243830  0.500000  1
  In  In5  1  0.259635  0.008129  0.500000  1
  Cu  Cu6  1  0.000000  0.989200  0.000000  1
  Pd  Pd7  1  0.317555  0.665370  0.500000  1
  Pd  Pd8  1  0.682445  0.347814  0.500000  1
