# generated using pymatgen
data_Rb3Y(IO3)6
_symmetry_space_group_name_H-M   'P 1'
_cell_length_a   7.26143736
_cell_length_b   7.26552489
_cell_length_c   11.04442188
_cell_angle_alpha   87.54331947
_cell_angle_beta   107.41572634
_cell_angle_gamma   107.69669825
_symmetry_Int_Tables_number   1
_chemical_formula_structural   Rb3Y(IO3)6
_chemical_formula_sum   'Rb3 Y1 I6 O18'
_cell_volume   528.92032696
_cell_formula_units_Z   1
loop_
 _symmetry_equiv_pos_site_id
 _symmetry_equiv_pos_as_xyz
  1  'x, y, z'
loop_
 _atom_site_type_symbol
 _atom_site_label
 _atom_site_symmetry_multiplicity
 _atom_site_fract_x
 _atom_site_fract_y
 _atom_site_fract_z
 _atom_site_occupancy
  Rb  Rb0  1  0.000000  0.000000  0.000000  1
  Rb  Rb1  1  0.831765  0.029811  0.601403  1
  Rb  Rb2  1  0.168235  0.970189  0.398597  1
  Y  Y3  1  0.500000  0.500000  0.000000  1
  I  I4  1  0.033054  0.475595  0.192038  1
  I  I5  1  0.966946  0.524405  0.807962  1
  I  I6  1  0.561584  0.962926  0.193872  1
  I  I7  1  0.438416  0.037074  0.806128  1
  I  I8  1  0.414793  0.553668  0.633863  1
  I  I9  1  0.585207  0.446332  0.366137  1
  O  O10  1  0.840803  0.541008  0.055773  1
  O  O11  1  0.159197  0.458992  0.944227  1
  O  O12  1  0.957418  0.548947  0.320803  1
  O  O13  1  0.042582  0.451053  0.679197  1
  O  O14  1  0.925494  0.211586  0.184461  1
  O  O15  1  0.074506  0.788414  0.815539  1
  O  O16  1  0.574226  0.820793  0.060827  1
  O  O17  1  0.425774  0.179207  0.939173  1
  O  O18  1  0.296121  0.853361  0.188317  1
  O  O19  1  0.703879  0.146639  0.811683  1
  O  O20  1  0.691782  0.845790  0.327324  1
  O  O21  1  0.308218  0.154210  0.672676  1
  O  O22  1  0.520449  0.596514  0.808965  1
  O  O23  1  0.479551  0.403486  0.191035  1
  O  O24  1  0.662511  0.571966  0.611425  1
  O  O25  1  0.337489  0.428034  0.388575  1
  O  O26  1  0.408417  0.799685  0.599777  1
  O  O27  1  0.591583  0.200315  0.400223  1
