# generated using pymatgen
data_Rb4Li2YGaSb4
_symmetry_space_group_name_H-M   'P 1'
_cell_length_a   11.04674907
_cell_length_b   11.04674896
_cell_length_c   7.04216900
_cell_angle_alpha   90.00000000
_cell_angle_beta   90.00000000
_cell_angle_gamma   101.53763951
_symmetry_Int_Tables_number   1
_chemical_formula_structural   Rb4Li2YGaSb4
_chemical_formula_sum   'Rb8 Li4 Y2 Ga2 Sb8'
_cell_volume   841.99590782
_cell_formula_units_Z   2
loop_
 _symmetry_equiv_pos_site_id
 _symmetry_equiv_pos_as_xyz
  1  'x, y, z'
loop_
 _atom_site_type_symbol
 _atom_site_label
 _atom_site_symmetry_multiplicity
 _atom_site_fract_x
 _atom_site_fract_y
 _atom_site_fract_z
 _atom_site_occupancy
  Rb  Rb0  1  0.569673  0.930327  0.750000  1
  Rb  Rb1  1  0.930327  0.569673  0.250000  1
  Rb  Rb2  1  0.420791  0.079209  0.250000  1
  Rb  Rb3  1  0.079209  0.420791  0.750000  1
  Rb  Rb4  1  0.667698  0.320590  0.774996  1
  Rb  Rb5  1  0.832302  0.179410  0.274996  1
  Rb  Rb6  1  0.320590  0.667698  0.225004  1
  Rb  Rb7  1  0.179410  0.832302  0.725004  1
  Li  Li8  1  0.617425  0.617425  0.000000  1
  Li  Li9  1  0.882575  0.882575  0.500000  1
  Li  Li10  1  0.374822  0.374822  0.000000  1
  Li  Li11  1  0.125178  0.125178  0.500000  1
  Y  Y12  1  0.874986  0.874986  0.000000  1
  Y  Y13  1  0.625014  0.625014  0.500000  1
  Ga  Ga14  1  0.132625  0.132625  0.000000  1
  Ga  Ga15  1  0.367375  0.367375  0.500000  1
  Sb  Sb16  1  0.339655  0.160345  0.750000  1
  Sb  Sb17  1  0.160345  0.339655  0.250000  1
  Sb  Sb18  1  0.651324  0.848676  0.250000  1
  Sb  Sb19  1  0.848676  0.651324  0.750000  1
  Sb  Sb20  1  0.916236  0.104983  0.768867  1
  Sb  Sb21  1  0.583764  0.395017  0.268867  1
  Sb  Sb22  1  0.104983  0.916236  0.231133  1
  Sb  Sb23  1  0.395017  0.583764  0.731133  1
