# generated using pymatgen
data_Rb4Lu5Zr3Se16
_symmetry_space_group_name_H-M   'P 1'
_cell_length_a   6.88912957
_cell_length_b   7.91535221
_cell_length_c   16.98329707
_cell_angle_alpha   90.00474157
_cell_angle_beta   89.92408645
_cell_angle_gamma   89.97374682
_symmetry_Int_Tables_number   1
_chemical_formula_structural   Rb4Lu5Zr3Se16
_chemical_formula_sum   'Rb4 Lu5 Zr3 Se16'
_cell_volume   926.09635612
_cell_formula_units_Z   1
loop_
 _symmetry_equiv_pos_site_id
 _symmetry_equiv_pos_as_xyz
  1  'x, y, z'
loop_
 _atom_site_type_symbol
 _atom_site_label
 _atom_site_symmetry_multiplicity
 _atom_site_fract_x
 _atom_site_fract_y
 _atom_site_fract_z
 _atom_site_occupancy
  Rb  Rb0  1  0.347738  0.000220  0.000843  1
  Rb  Rb1  1  0.652262  0.499780  0.499157  1
  Rb  Rb2  1  0.030861  0.000206  0.499265  1
  Rb  Rb3  1  0.969139  0.499794  0.000735  1
  Lu  Lu4  1  0.000673  0.001861  0.248477  1
  Lu  Lu5  1  0.000960  0.000023  0.751427  1
  Lu  Lu6  1  0.999327  0.498139  0.251523  1
  Lu  Lu7  1  0.999040  0.499977  0.748573  1
  Lu  Lu8  1  0.500000  0.250000  0.250000  1
  Zr  Zr9  1  0.500000  0.750000  0.750000  1
  Zr  Zr10  1  0.500000  0.750000  0.250000  1
  Zr  Zr11  1  0.500000  0.250000  0.750000  1
  Se  Se12  1  0.833832  0.248175  0.345990  1
  Se  Se13  1  0.824086  0.751690  0.657002  1
  Se  Se14  1  0.175945  0.748323  0.156153  1
  Se  Se15  1  0.175925  0.251717  0.842970  1
  Se  Se16  1  0.166168  0.251825  0.154010  1
  Se  Se17  1  0.175914  0.748310  0.842998  1
  Se  Se18  1  0.824055  0.751677  0.343847  1
  Se  Se19  1  0.824075  0.248283  0.657030  1
  Se  Se20  1  0.664461  0.992057  0.156628  1
  Se  Se21  1  0.659947  0.999964  0.841198  1
  Se  Se22  1  0.335539  0.507943  0.343372  1
  Se  Se23  1  0.340053  0.500036  0.658802  1
  Se  Se24  1  0.339422  0.991917  0.342444  1
  Se  Se25  1  0.343752  0.000006  0.659673  1
  Se  Se26  1  0.660578  0.508083  0.157556  1
  Se  Se27  1  0.656248  0.499994  0.840327  1
