# generated using pymatgen
data_Li5Co16(P4Rh)3
_symmetry_space_group_name_H-M   'P 1'
_cell_length_a   11.74250400
_cell_length_b   11.74250557
_cell_length_c   3.61248000
_cell_angle_alpha   90.00000000
_cell_angle_beta   90.00000000
_cell_angle_gamma   120.00000122
_symmetry_Int_Tables_number   1
_chemical_formula_structural   Li5Co16(P4Rh)3
_chemical_formula_sum   'Li5 Co16 P12 Rh3'
_cell_volume   431.37757951
_cell_formula_units_Z   1
loop_
 _symmetry_equiv_pos_site_id
 _symmetry_equiv_pos_as_xyz
  1  'x, y, z'
loop_
 _atom_site_type_symbol
 _atom_site_label
 _atom_site_symmetry_multiplicity
 _atom_site_fract_x
 _atom_site_fract_y
 _atom_site_fract_z
 _atom_site_occupancy
  Li  Li0  1  0.666667  0.333333  0.000000  1
  Li  Li1  1  0.333333  0.666667  0.000000  1
  Li  Li2  1  0.818614  0.818614  0.500000  1
  Li  Li3  1  0.181386  0.000000  0.500000  1
  Li  Li4  1  0.000000  0.181386  0.500000  1
  Co  Co5  1  0.873337  0.353804  0.500000  1
  Co  Co6  1  0.646196  0.519533  0.500000  1
  Co  Co7  1  0.480467  0.126663  0.500000  1
  Co  Co8  1  0.353804  0.873337  0.500000  1
  Co  Co9  1  0.519533  0.646196  0.500000  1
  Co  Co10  1  0.126663  0.480467  0.500000  1
  Co  Co11  1  0.805115  0.179852  0.000000  1
  Co  Co12  1  0.820148  0.625262  0.000000  1
  Co  Co13  1  0.374738  0.194885  0.000000  1
  Co  Co14  1  0.179852  0.805115  0.000000  1
  Co  Co15  1  0.625262  0.820148  0.000000  1
  Co  Co16  1  0.194885  0.374738  0.000000  1
  Co  Co17  1  0.280964  0.280964  0.500000  1
  Co  Co18  1  0.719036  0.000000  0.500000  1
  Co  Co19  1  0.000000  0.719036  0.500000  1
  Co  Co20  1  0.000000  0.000000  0.000000  1
  P  P21  1  0.685164  0.169784  0.500000  1
  P  P22  1  0.830216  0.515381  0.500000  1
  P  P23  1  0.484619  0.314836  0.500000  1
  P  P24  1  0.169784  0.685164  0.500000  1
  P  P25  1  0.515381  0.830216  0.500000  1
  P  P26  1  0.314836  0.484619  0.500000  1
  P  P27  1  0.177234  0.177234  0.000000  1
  P  P28  1  0.822766  0.000000  0.000000  1
  P  P29  1  0.000000  0.822766  0.000000  1
  P  P30  1  0.644445  0.644445  0.000000  1
  P  P31  1  0.355555  0.000000  0.000000  1
  P  P32  1  0.000000  0.355555  0.000000  1
  Rh  Rh33  1  0.450279  0.450279  0.000000  1
  Rh  Rh34  1  0.549721  0.000000  0.000000  1
  Rh  Rh35  1  0.000000  0.549721  0.000000  1
