# generated using pymatgen
data_Nd16MgAg3Pt4
_symmetry_space_group_name_H-M   'P 1'
_cell_length_a   9.93071275
_cell_length_b   10.04557776
_cell_length_c   10.04557800
_cell_angle_alpha   59.99999920
_cell_angle_beta   59.61663439
_cell_angle_gamma   59.61663654
_symmetry_Int_Tables_number   1
_chemical_formula_structural   Nd16MgAg3Pt4
_chemical_formula_sum   'Nd16 Mg1 Ag3 Pt4'
_cell_volume   704.48908948
_cell_formula_units_Z   1
loop_
 _symmetry_equiv_pos_site_id
 _symmetry_equiv_pos_as_xyz
  1  'x, y, z'
loop_
 _atom_site_type_symbol
 _atom_site_label
 _atom_site_symmetry_multiplicity
 _atom_site_fract_x
 _atom_site_fract_y
 _atom_site_fract_z
 _atom_site_occupancy
  Nd  Nd0  1  0.352638  0.350308  0.350308  1
  Nd  Nd1  1  0.352638  0.350308  0.946748  1
  Nd  Nd2  1  0.352638  0.946748  0.350308  1
  Nd  Nd3  1  0.934408  0.355198  0.355198  1
  Nd  Nd4  1  0.808977  0.191118  0.191118  1
  Nd  Nd5  1  0.188587  0.810183  0.810183  1
  Nd  Nd6  1  0.188587  0.810183  0.191047  1
  Nd  Nd7  1  0.808977  0.191118  0.808787  1
  Nd  Nd8  1  0.188587  0.191047  0.810183  1
  Nd  Nd9  1  0.808977  0.808787  0.191118  1
  Nd  Nd10  1  0.931940  0.565545  0.565545  1
  Nd  Nd11  1  0.564050  0.935352  0.935352  1
  Nd  Nd12  1  0.564050  0.935352  0.565245  1
  Nd  Nd13  1  0.931940  0.565545  0.936969  1
  Nd  Nd14  1  0.564050  0.565245  0.935352  1
  Nd  Nd15  1  0.931940  0.936969  0.565545  1
  Mg  Mg16  1  0.290951  0.569683  0.569683  1
  Ag  Ag17  1  0.579967  0.586030  0.586030  1
  Ag  Ag18  1  0.579967  0.586030  0.247974  1
  Ag  Ag19  1  0.579967  0.247974  0.586030  1
  Pt  Pt20  1  0.141667  0.144569  0.144569  1
  Pt  Pt21  1  0.141667  0.144569  0.569196  1
  Pt  Pt22  1  0.141667  0.569196  0.144569  1
  Pt  Pt23  1  0.571164  0.142946  0.142946  1
