# generated using pymatgen
data_Mg2In10TcIr3
_symmetry_space_group_name_H-M   'P 1'
_cell_length_a   7.12425456
_cell_length_b   7.12425472
_cell_length_c   7.26521800
_cell_angle_alpha   90.00000000
_cell_angle_beta   90.00000000
_cell_angle_gamma   89.54232382
_symmetry_Int_Tables_number   1
_chemical_formula_structural   Mg2In10TcIr3
_chemical_formula_sum   'Mg2 In10 Tc1 Ir3'
_cell_volume   368.73440549
_cell_formula_units_Z   1
loop_
 _symmetry_equiv_pos_site_id
 _symmetry_equiv_pos_as_xyz
  1  'x, y, z'
loop_
 _atom_site_type_symbol
 _atom_site_label
 _atom_site_symmetry_multiplicity
 _atom_site_fract_x
 _atom_site_fract_y
 _atom_site_fract_z
 _atom_site_occupancy
  Mg  Mg0  1  0.000561  0.501094  0.500000  1
  Mg  Mg1  1  0.501094  0.000561  0.500000  1
  In  In2  1  0.340208  0.340208  0.267219  1
  In  In3  1  0.160269  0.844968  0.758764  1
  In  In4  1  0.160269  0.844968  0.241236  1
  In  In5  1  0.001448  0.499050  0.000000  1
  In  In6  1  0.844968  0.160269  0.241236  1
  In  In7  1  0.844968  0.160269  0.758764  1
  In  In8  1  0.499050  0.001448  0.000000  1
  In  In9  1  0.658446  0.658446  0.271134  1
  In  In10  1  0.658446  0.658446  0.728866  1
  In  In11  1  0.340208  0.340208  0.732781  1
  Tc  Tc12  1  0.150834  0.150834  0.000000  1
  Ir  Ir13  1  0.652210  0.346124  0.500000  1
  Ir  Ir14  1  0.346124  0.652210  0.500000  1
  Ir  Ir15  1  0.840899  0.840899  0.000000  1
