# generated using pymatgen
data_Zr4Nb2Si3GeMo2
_symmetry_space_group_name_H-M   'P 1'
_cell_length_a   3.58921100
_cell_length_b   7.04726926
_cell_length_c   8.42594689
_cell_angle_alpha   90.17552829
_cell_angle_beta   90.00000000
_cell_angle_gamma   90.00000000
_symmetry_Int_Tables_number   1
_chemical_formula_structural   Zr4Nb2Si3GeMo2
_chemical_formula_sum   'Zr4 Nb2 Si3 Ge1 Mo2'
_cell_volume   213.12604947
_cell_formula_units_Z   1
loop_
 _symmetry_equiv_pos_site_id
 _symmetry_equiv_pos_as_xyz
  1  'x, y, z'
loop_
 _atom_site_type_symbol
 _atom_site_label
 _atom_site_symmetry_multiplicity
 _atom_site_fract_x
 _atom_site_fract_y
 _atom_site_fract_z
 _atom_site_occupancy
  Zr  Zr0  1  0.250000  0.049738  0.333534  1
  Zr  Zr1  1  0.250000  0.542397  0.163435  1
  Zr  Zr2  1  0.750000  0.958310  0.669935  1
  Zr  Zr3  1  0.750000  0.457737  0.831869  1
  Nb  Nb4  1  0.250000  0.129775  0.940249  1
  Nb  Nb5  1  0.250000  0.626376  0.562519  1
  Si  Si6  1  0.250000  0.254020  0.635618  1
  Si  Si7  1  0.250000  0.754794  0.864753  1
  Si  Si8  1  0.750000  0.244523  0.142096  1
  Ge  Ge9  1  0.750000  0.746795  0.357900  1
  Mo  Mo10  1  0.750000  0.869840  0.058097  1
  Mo  Mo11  1  0.750000  0.365695  0.439994  1
