# generated using pymatgen
data_Sr8Yb5Dy7Pt16
_symmetry_space_group_name_H-M   'P 1'
_cell_length_a   7.70262661
_cell_length_b   7.82777092
_cell_length_c   14.88501360
_cell_angle_alpha   90.03223639
_cell_angle_beta   89.99572264
_cell_angle_gamma   90.04543791
_symmetry_Int_Tables_number   1
_chemical_formula_structural   Sr8Yb5Dy7Pt16
_chemical_formula_sum   'Sr8 Yb5 Dy7 Pt16'
_cell_volume   897.48248708
_cell_formula_units_Z   1
loop_
 _symmetry_equiv_pos_site_id
 _symmetry_equiv_pos_as_xyz
  1  'x, y, z'
loop_
 _atom_site_type_symbol
 _atom_site_label
 _atom_site_symmetry_multiplicity
 _atom_site_fract_x
 _atom_site_fract_y
 _atom_site_fract_z
 _atom_site_occupancy
  Sr  Sr0  1  0.499795  0.325231  0.903630  1
  Sr  Sr1  1  0.997829  0.176264  0.596908  1
  Sr  Sr2  1  0.501625  0.676674  0.403659  1
  Sr  Sr3  1  0.000987  0.822564  0.094657  1
  Sr  Sr4  1  0.501568  0.676538  0.095787  1
  Sr  Sr5  1  0.001466  0.823310  0.403698  1
  Sr  Sr6  1  0.498938  0.323574  0.597279  1
  Sr  Sr7  1  0.998262  0.177606  0.903446  1
  Yb  Yb8  1  0.839729  0.666178  0.876995  1
  Yb  Yb9  1  0.175975  0.492961  0.751129  1
  Yb  Yb10  1  0.679431  0.006453  0.750906  1
  Yb  Yb11  1  0.821859  0.508446  0.249576  1
  Yb  Yb12  1  0.321501  0.991452  0.249536  1
  Dy  Dy13  1  0.340190  0.833882  0.875983  1
  Dy  Dy14  1  0.840494  0.666363  0.624085  1
  Dy  Dy15  1  0.659202  0.166861  0.375882  1
  Dy  Dy16  1  0.159935  0.332739  0.123970  1
  Dy  Dy17  1  0.660534  0.166540  0.123843  1
  Dy  Dy18  1  0.159593  0.332955  0.376026  1
  Dy  Dy19  1  0.340044  0.832345  0.624164  1
  Pt  Pt20  1  0.333696  0.045708  0.044215  1
  Pt  Pt21  1  0.835815  0.453801  0.456058  1
  Pt  Pt22  1  0.663720  0.953190  0.543562  1
  Pt  Pt23  1  0.168585  0.543963  0.957672  1
  Pt  Pt24  1  0.660754  0.961614  0.957121  1
  Pt  Pt25  1  0.163515  0.545722  0.543372  1
  Pt  Pt26  1  0.336271  0.046256  0.456207  1
  Pt  Pt27  1  0.838409  0.451665  0.045897  1
  Pt  Pt28  1  0.542372  0.635808  0.748866  1
  Pt  Pt29  1  0.047142  0.865091  0.746589  1
  Pt  Pt30  1  0.455961  0.363918  0.249970  1
  Pt  Pt31  1  0.956107  0.135166  0.250589  1
  Pt  Pt32  1  0.305541  0.117873  0.751015  1
  Pt  Pt33  1  0.801048  0.381531  0.747839  1
  Pt  Pt34  1  0.696050  0.883591  0.249936  1
  Pt  Pt35  1  0.196057  0.616167  0.249931  1
