# generated using pymatgen
data_Ca2TbHo(Ga2Ag)4
_symmetry_space_group_name_H-M   'P 1'
_cell_length_a   4.36649100
_cell_length_b   7.00872851
_cell_length_c   10.43367202
_cell_angle_alpha   90.07507858
_cell_angle_beta   90.00000000
_cell_angle_gamma   90.00000000
_symmetry_Int_Tables_number   1
_chemical_formula_structural   Ca2TbHo(Ga2Ag)4
_chemical_formula_sum   'Ca2 Tb1 Ho1 Ga8 Ag4'
_cell_volume   319.30712851
_cell_formula_units_Z   1
loop_
 _symmetry_equiv_pos_site_id
 _symmetry_equiv_pos_as_xyz
  1  'x, y, z'
loop_
 _atom_site_type_symbol
 _atom_site_label
 _atom_site_symmetry_multiplicity
 _atom_site_fract_x
 _atom_site_fract_y
 _atom_site_fract_z
 _atom_site_occupancy
  Ca  Ca0  1  0.750000  0.224519  0.174358  1
  Ca  Ca1  1  0.750000  0.724343  0.325455  1
  Tb  Tb2  1  0.250000  0.279403  0.673079  1
  Ho  Ho3  1  0.250000  0.779070  0.827879  1
  Ga  Ga4  1  0.250000  0.926179  0.149309  1
  Ga  Ga5  1  0.750000  0.072293  0.843593  1
  Ga  Ga6  1  0.750000  0.574590  0.656639  1
  Ga  Ga7  1  0.250000  0.426187  0.350814  1
  Ga  Ga8  1  0.250000  0.702161  0.536593  1
  Ga  Ga9  1  0.750000  0.297463  0.467696  1
  Ga  Ga10  1  0.750000  0.797523  0.031793  1
  Ga  Ga11  1  0.250000  0.199978  0.964074  1
  Ag  Ag12  1  0.250000  0.542870  0.096021  1
  Ag  Ag13  1  0.750000  0.455626  0.901490  1
  Ag  Ag14  1  0.750000  0.955277  0.598248  1
  Ag  Ag15  1  0.250000  0.042516  0.402960  1
