# generated using pymatgen
data_InNi21B6As
_symmetry_space_group_name_H-M   'P 1'
_cell_length_a   7.43645170
_cell_length_b   7.43645126
_cell_length_c   7.43645200
_cell_angle_alpha   59.99999670
_cell_angle_beta   59.99999867
_cell_angle_gamma   60.00000228
_symmetry_Int_Tables_number   1
_chemical_formula_structural   InNi21B6As
_chemical_formula_sum   'In1 Ni21 B6 As1'
_cell_volume   290.79187701
_cell_formula_units_Z   1
loop_
 _symmetry_equiv_pos_site_id
 _symmetry_equiv_pos_as_xyz
  1  'x, y, z'
loop_
 _atom_site_type_symbol
 _atom_site_label
 _atom_site_symmetry_multiplicity
 _atom_site_fract_x
 _atom_site_fract_y
 _atom_site_fract_z
 _atom_site_occupancy
  In  In0  1  0.750000  0.750000  0.750000  1
  Ni  Ni1  1  0.868872  0.377043  0.377043  1
  Ni  Ni2  1  0.170765  0.609745  0.609745  1
  Ni  Ni3  1  0.609745  0.609745  0.609745  1
  Ni  Ni4  1  0.609745  0.609745  0.170765  1
  Ni  Ni5  1  0.377043  0.868872  0.377043  1
  Ni  Ni6  1  0.664744  0.337508  0.998874  1
  Ni  Ni7  1  0.998874  0.337508  0.664744  1
  Ni  Ni8  1  0.377043  0.377043  0.377043  1
  Ni  Ni9  1  0.998874  0.998874  0.337508  1
  Ni  Ni10  1  0.998874  0.998874  0.664744  1
  Ni  Ni11  1  0.998874  0.337508  0.998874  1
  Ni  Ni12  1  0.664744  0.998874  0.337508  1
  Ni  Ni13  1  0.337508  0.998874  0.998874  1
  Ni  Ni14  1  0.998874  0.664744  0.998874  1
  Ni  Ni15  1  0.337508  0.998874  0.664744  1
  Ni  Ni16  1  0.998874  0.664744  0.337508  1
  Ni  Ni17  1  0.337508  0.664744  0.998874  1
  Ni  Ni18  1  0.609745  0.170765  0.609745  1
  Ni  Ni19  1  0.000000  0.000000  0.000000  1
  Ni  Ni20  1  0.664744  0.998874  0.998874  1
  Ni  Ni21  1  0.377043  0.377043  0.868872  1
  B  B22  1  0.728148  0.728148  0.271852  1
  B  B23  1  0.728148  0.271852  0.728148  1
  B  B24  1  0.271852  0.728148  0.728148  1
  B  B25  1  0.271852  0.271852  0.728148  1
  B  B26  1  0.271852  0.728148  0.271852  1
  B  B27  1  0.728148  0.271852  0.271852  1
  As  As28  1  0.250000  0.250000  0.250000  1
