# generated using pymatgen
data_TbDy3Mn3Os5
_symmetry_space_group_name_H-M   'P 1'
_cell_length_a   5.33143659
_cell_length_b   5.29512855
_cell_length_c   9.24306226
_cell_angle_alpha   73.35518224
_cell_angle_beta   90.07716849
_cell_angle_gamma   119.77498067
_symmetry_Int_Tables_number   1
_chemical_formula_structural   TbDy3Mn3Os5
_chemical_formula_sum   'Tb1 Dy3 Mn3 Os5'
_cell_volume   213.86188578
_cell_formula_units_Z   1
loop_
 _symmetry_equiv_pos_site_id
 _symmetry_equiv_pos_as_xyz
  1  'x, y, z'
loop_
 _atom_site_type_symbol
 _atom_site_label
 _atom_site_symmetry_multiplicity
 _atom_site_fract_x
 _atom_site_fract_y
 _atom_site_fract_z
 _atom_site_occupancy
  Tb  Tb0  1  0.877138  0.750726  0.375686  1
  Dy  Dy1  1  0.380075  0.752812  0.874451  1
  Dy  Dy2  1  0.994629  0.996967  0.000697  1
  Dy  Dy3  1  0.498004  0.999441  0.499120  1
  Mn  Mn4  1  0.687636  0.374999  0.937640  1
  Mn  Mn5  1  0.941523  0.377120  0.187284  1
  Mn  Mn6  1  0.433469  0.372928  0.687613  1
  Os  Os7  1  0.440454  0.372786  0.184901  1
  Os  Os8  1  0.934552  0.377263  0.690073  1
  Os  Os9  1  0.440454  0.882766  0.184901  1
  Os  Os10  1  0.934552  0.867213  0.690073  1
  Os  Os11  1  0.187514  0.374977  0.437559  1
