# generated using pymatgen
data_Pr5Nd3Sc12Ga3Si13
_symmetry_space_group_name_H-M   'P 1'
_cell_length_a   7.28573022
_cell_length_b   7.56229247
_cell_length_c   14.38741830
_cell_angle_alpha   90.02839211
_cell_angle_beta   90.08496205
_cell_angle_gamma   90.11186210
_symmetry_Int_Tables_number   1
_chemical_formula_structural   Pr5Nd3Sc12Ga3Si13
_chemical_formula_sum   'Pr5 Nd3 Sc12 Ga3 Si13'
_cell_volume   792.69855518
_cell_formula_units_Z   1
loop_
 _symmetry_equiv_pos_site_id
 _symmetry_equiv_pos_as_xyz
  1  'x, y, z'
loop_
 _atom_site_type_symbol
 _atom_site_label
 _atom_site_symmetry_multiplicity
 _atom_site_fract_x
 _atom_site_fract_y
 _atom_site_fract_z
 _atom_site_occupancy
  Pr  Pr0  1  0.489540  0.675162  0.598196  1
  Pr  Pr1  1  0.986746  0.828427  0.597885  1
  Pr  Pr2  1  0.988016  0.828352  0.899690  1
  Pr  Pr3  1  0.510322  0.326374  0.099025  1
  Pr  Pr4  1  0.010671  0.173708  0.099283  1
  Nd  Nd5  1  0.012057  0.172625  0.401130  1
  Nd  Nd6  1  0.513757  0.325909  0.400738  1
  Nd  Nd7  1  0.488171  0.672583  0.899197  1
  Sc  Sc8  1  0.332691  0.173948  0.626028  1
  Sc  Sc9  1  0.669986  0.824016  0.375215  1
  Sc  Sc10  1  0.661045  0.002524  0.749839  1
  Sc  Sc11  1  0.172261  0.676962  0.374568  1
  Sc  Sc12  1  0.829764  0.322290  0.873499  1
  Sc  Sc13  1  0.826231  0.323793  0.624934  1
  Sc  Sc14  1  0.838806  0.501649  0.252559  1
  Sc  Sc15  1  0.338527  0.997755  0.252101  1
  Sc  Sc16  1  0.330427  0.176516  0.873378  1
  Sc  Sc17  1  0.170451  0.673740  0.126605  1
  Sc  Sc18  1  0.670285  0.826247  0.126408  1
  Sc  Sc19  1  0.160422  0.497382  0.751562  1
  Ga  Ga20  1  0.155650  0.458481  0.539151  1
  Ga  Ga21  1  0.844706  0.541260  0.038665  1
  Ga  Ga22  1  0.345333  0.958259  0.038671  1
  Si  Si23  1  0.288313  0.881705  0.749709  1
  Si  Si24  1  0.466365  0.624221  0.250856  1
  Si  Si25  1  0.034451  0.126142  0.749742  1
  Si  Si26  1  0.533797  0.376870  0.749585  1
  Si  Si27  1  0.965847  0.875716  0.250985  1
  Si  Si28  1  0.712284  0.118161  0.251560  1
  Si  Si29  1  0.154106  0.461011  0.959628  1
  Si  Si30  1  0.650872  0.039102  0.538261  1
  Si  Si31  1  0.348404  0.963676  0.460399  1
  Si  Si32  1  0.846745  0.537782  0.459927  1
  Si  Si33  1  0.788307  0.617482  0.750076  1
  Si  Si34  1  0.212156  0.381411  0.251701  1
  Si  Si35  1  0.652487  0.038757  0.959243  1
