# generated using pymatgen
data_YHo(CoH4)2
_symmetry_space_group_name_H-M   'P 1'
_cell_length_a   6.03728333
_cell_length_b   6.03728333
_cell_length_c   4.71391100
_cell_angle_alpha   90.00000000
_cell_angle_beta   90.00000000
_cell_angle_gamma   145.62671239
_symmetry_Int_Tables_number   1
_chemical_formula_structural   YHo(CoH4)2
_chemical_formula_sum   'Y1 Ho1 Co2 H8'
_cell_volume   97.00446418
_cell_formula_units_Z   1
loop_
 _symmetry_equiv_pos_site_id
 _symmetry_equiv_pos_as_xyz
  1  'x, y, z'
loop_
 _atom_site_type_symbol
 _atom_site_label
 _atom_site_symmetry_multiplicity
 _atom_site_fract_x
 _atom_site_fract_y
 _atom_site_fract_z
 _atom_site_occupancy
  Y  Y0  1  0.132524  0.867476  0.250000  1
  Ho  Ho1  1  0.867444  0.132556  0.750000  1
  Co  Co2  1  0.597266  0.402734  0.750000  1
  Co  Co3  1  0.402416  0.597584  0.250000  1
  H  H4  1  0.088891  0.911109  0.750000  1
  H  H5  1  0.910415  0.089585  0.250000  1
  H  H6  1  0.693024  0.306976  0.503145  1
  H  H7  1  0.307748  0.692252  0.499416  1
  H  H8  1  0.693024  0.306976  0.996855  1
  H  H9  1  0.307748  0.692252  0.000584  1
  H  H10  1  0.499750  0.500250  0.999687  1
  H  H11  1  0.499750  0.500250  0.500313  1
