# generated using pymatgen
data_Nd8Ho12Si15Pt
_symmetry_space_group_name_H-M   'P 1'
_cell_length_a   7.52757624
_cell_length_b   7.77322328
_cell_length_c   14.76825890
_cell_angle_alpha   89.89873810
_cell_angle_beta   89.77293913
_cell_angle_gamma   90.27384033
_symmetry_Int_Tables_number   1
_chemical_formula_structural   Nd8Ho12Si15Pt
_chemical_formula_sum   'Nd8 Ho12 Si15 Pt1'
_cell_volume   864.12493974
_cell_formula_units_Z   1
loop_
 _symmetry_equiv_pos_site_id
 _symmetry_equiv_pos_as_xyz
  1  'x, y, z'
loop_
 _atom_site_type_symbol
 _atom_site_label
 _atom_site_symmetry_multiplicity
 _atom_site_fract_x
 _atom_site_fract_y
 _atom_site_fract_z
 _atom_site_occupancy
  Nd  Nd0  1  0.976054  0.819145  0.098400  1
  Nd  Nd1  1  0.474872  0.678748  0.401875  1
  Nd  Nd2  1  0.526178  0.324051  0.900522  1
  Nd  Nd3  1  0.026056  0.180151  0.598364  1
  Nd  Nd4  1  0.024887  0.179222  0.901588  1
  Nd  Nd5  1  0.526483  0.320760  0.598498  1
  Nd  Nd6  1  0.475831  0.678492  0.100053  1
  Nd  Nd7  1  0.973992  0.820188  0.400795  1
  Ho  Ho8  1  0.650170  0.992782  0.249798  1
  Ho  Ho9  1  0.149970  0.509562  0.248371  1
  Ho  Ho10  1  0.847318  0.491660  0.755295  1
  Ho  Ho11  1  0.348551  0.009935  0.750977  1
  Ho  Ho12  1  0.679603  0.817446  0.879917  1
  Ho  Ho13  1  0.179329  0.680268  0.622152  1
  Ho  Ho14  1  0.820795  0.329763  0.120876  1
  Ho  Ho15  1  0.317610  0.177317  0.376182  1
  Ho  Ho16  1  0.321101  0.177707  0.123858  1
  Ho  Ho17  1  0.819730  0.320614  0.376913  1
  Ho  Ho18  1  0.177202  0.674600  0.878332  1
  Ho  Ho19  1  0.681490  0.821183  0.622850  1
  Si  Si20  1  0.767500  0.623530  0.251343  1
  Si  Si21  1  0.269562  0.877440  0.250810  1
  Si  Si22  1  0.731458  0.119676  0.749486  1
  Si  Si23  1  0.231730  0.379411  0.747445  1
  Si  Si24  1  0.022367  0.112986  0.249250  1
  Si  Si25  1  0.525113  0.388255  0.251273  1
  Si  Si26  1  0.471103  0.612734  0.747109  1
  Si  Si27  1  0.974895  0.888071  0.748748  1
  Si  Si28  1  0.355737  0.969595  0.539320  1
  Si  Si29  1  0.644275  0.030847  0.041163  1
  Si  Si30  1  0.145220  0.468366  0.460156  1
  Si  Si31  1  0.152996  0.467544  0.041969  1
  Si  Si32  1  0.644158  0.030834  0.459994  1
  Si  Si33  1  0.354739  0.968416  0.961027  1
  Si  Si34  1  0.856187  0.530998  0.539035  1
  Pt  Pt35  1  0.855737  0.527706  0.956255  1
