# generated using pymatgen
data_Sc4Zn4Rh7Au
_symmetry_space_group_name_H-M   'P 1'
_cell_length_a   6.01577752
_cell_length_b   6.01577138
_cell_length_c   6.84804100
_cell_angle_alpha   90.00177286
_cell_angle_beta   90.00234094
_cell_angle_gamma   89.15012373
_symmetry_Int_Tables_number   1
_chemical_formula_structural   Sc4Zn4Rh7Au
_chemical_formula_sum   'Sc4 Zn4 Rh7 Au1'
_cell_volume   247.80020554
_cell_formula_units_Z   1
loop_
 _symmetry_equiv_pos_site_id
 _symmetry_equiv_pos_as_xyz
  1  'x, y, z'
loop_
 _atom_site_type_symbol
 _atom_site_label
 _atom_site_symmetry_multiplicity
 _atom_site_fract_x
 _atom_site_fract_y
 _atom_site_fract_z
 _atom_site_occupancy
  Sc  Sc0  1  0.757946  0.257865  0.994391  1
  Sc  Sc1  1  0.242051  0.742135  0.994391  1
  Sc  Sc2  1  0.757825  0.257862  0.505610  1
  Sc  Sc3  1  0.242174  0.742135  0.505617  1
  Zn  Zn4  1  0.247522  0.252478  0.994374  1
  Zn  Zn5  1  0.752477  0.747522  0.994375  1
  Zn  Zn6  1  0.247557  0.252471  0.505622  1
  Zn  Zn7  1  0.752448  0.747531  0.505629  1
  Rh  Rh8  1  0.500005  0.499993  0.249960  1
  Rh  Rh9  1  0.999994  0.000007  0.250040  1
  Rh  Rh10  1  0.999994  0.499999  0.250030  1
  Rh  Rh11  1  0.999994  0.000006  0.749968  1
  Rh  Rh12  1  0.999995  0.499992  0.749971  1
  Rh  Rh13  1  0.500008  0.000005  0.750048  1
  Rh  Rh14  1  0.500008  0.500001  0.750037  1
  Au  Au15  1  0.500000  0.999998  0.249937  1
