# generated using pymatgen
data_KRb(GaSb)3
_symmetry_space_group_name_H-M   'P 1'
_cell_length_a   4.48972900
_cell_length_b   7.47606400
_cell_length_c   29.71261300
_cell_angle_alpha   90.00000000
_cell_angle_beta   90.00000000
_cell_angle_gamma   90.00000000
_symmetry_Int_Tables_number   1
_chemical_formula_structural   KRb(GaSb)3
_chemical_formula_sum   'K4 Rb4 Ga12 Sb12'
_cell_volume   997.31875166
_cell_formula_units_Z   4
loop_
 _symmetry_equiv_pos_site_id
 _symmetry_equiv_pos_as_xyz
  1  'x, y, z'
loop_
 _atom_site_type_symbol
 _atom_site_label
 _atom_site_symmetry_multiplicity
 _atom_site_fract_x
 _atom_site_fract_y
 _atom_site_fract_z
 _atom_site_occupancy
  K  K0  1  0.250000  0.239817  0.811169  1
  K  K1  1  0.750000  0.760183  0.188831  1
  K  K2  1  0.750000  0.739817  0.688831  1
  K  K3  1  0.250000  0.260183  0.311169  1
  Rb  Rb4  1  0.250000  0.229672  0.496554  1
  Rb  Rb5  1  0.750000  0.770328  0.503446  1
  Rb  Rb6  1  0.750000  0.729672  0.003446  1
  Rb  Rb7  1  0.250000  0.270328  0.996554  1
  Ga  Ga8  1  0.250000  0.552286  0.623928  1
  Ga  Ga9  1  0.750000  0.447714  0.376072  1
  Ga  Ga10  1  0.750000  0.052286  0.876072  1
  Ga  Ga11  1  0.250000  0.947714  0.123928  1
  Ga  Ga12  1  0.250000  0.078854  0.206426  1
  Ga  Ga13  1  0.750000  0.921146  0.793574  1
  Ga  Ga14  1  0.750000  0.578854  0.293574  1
  Ga  Ga15  1  0.250000  0.421146  0.706426  1
  Ga  Ga16  1  0.750000  0.399189  0.128677  1
  Ga  Ga17  1  0.250000  0.600811  0.871323  1
  Ga  Ga18  1  0.250000  0.899189  0.371323  1
  Ga  Ga19  1  0.750000  0.100811  0.628677  1
  Sb  Sb20  1  0.750000  0.204560  0.719018  1
  Sb  Sb21  1  0.250000  0.795440  0.280982  1
  Sb  Sb22  1  0.250000  0.704560  0.780982  1
  Sb  Sb23  1  0.750000  0.295440  0.219018  1
  Sb  Sb24  1  0.250000  0.913096  0.601432  1
  Sb  Sb25  1  0.750000  0.086904  0.398568  1
  Sb  Sb26  1  0.750000  0.413096  0.898568  1
  Sb  Sb27  1  0.250000  0.586904  0.101432  1
  Sb  Sb28  1  0.750000  0.413217  0.584332  1
  Sb  Sb29  1  0.250000  0.586783  0.415668  1
  Sb  Sb30  1  0.250000  0.913217  0.915668  1
  Sb  Sb31  1  0.750000  0.086783  0.084332  1
