# generated using pymatgen
data_Tm16Sc4Ir7Pt5
_symmetry_space_group_name_H-M   'P 1'
_cell_length_a   10.76782948
_cell_length_b   10.76782948
_cell_length_c   6.19988925
_cell_angle_alpha   90.02293201
_cell_angle_beta   90.02293201
_cell_angle_gamma   89.85796917
_symmetry_Int_Tables_number   1
_chemical_formula_structural   Tm16Sc4Ir7Pt5
_chemical_formula_sum   'Tm16 Sc4 Ir7 Pt5'
_cell_volume   718.85097661
_cell_formula_units_Z   1
loop_
 _symmetry_equiv_pos_site_id
 _symmetry_equiv_pos_as_xyz
  1  'x, y, z'
loop_
 _atom_site_type_symbol
 _atom_site_label
 _atom_site_symmetry_multiplicity
 _atom_site_fract_x
 _atom_site_fract_y
 _atom_site_fract_z
 _atom_site_occupancy
  Tm  Tm0  1  0.292477  0.087891  0.374008  1
  Tm  Tm1  1  0.292619  0.911849  0.873686  1
  Tm  Tm2  1  0.707840  0.085036  0.873929  1
  Tm  Tm3  1  0.707397  0.911630  0.373907  1
  Tm  Tm4  1  0.583771  0.787231  0.877526  1
  Tm  Tm5  1  0.582627  0.210223  0.374430  1
  Tm  Tm6  1  0.416017  0.788317  0.377057  1
  Tm  Tm7  1  0.413317  0.210703  0.878977  1
  Tm  Tm8  1  0.212769  0.416229  0.622474  1
  Tm  Tm9  1  0.211683  0.583983  0.122943  1
  Tm  Tm10  1  0.789777  0.417373  0.125570  1
  Tm  Tm11  1  0.789297  0.586683  0.621023  1
  Tm  Tm12  1  0.912109  0.707523  0.125992  1
  Tm  Tm13  1  0.914964  0.292160  0.626071  1
  Tm  Tm14  1  0.088151  0.707381  0.626314  1
  Tm  Tm15  1  0.088370  0.292603  0.126093  1
  Sc  Sc16  1  0.999998  0.999911  0.499712  1
  Sc  Sc17  1  0.000089  0.000002  0.000288  1
  Sc  Sc18  1  0.497896  0.501632  0.001653  1
  Sc  Sc19  1  0.498368  0.502104  0.498347  1
  Ir  Ir20  1  0.649548  0.648747  0.249928  1
  Ir  Ir21  1  0.351253  0.350452  0.250072  1
  Ir  Ir22  1  0.350278  0.649722  0.750000  1
  Ir  Ir23  1  0.500236  0.000289  0.121802  1
  Ir  Ir24  1  0.500107  0.000468  0.623006  1
  Ir  Ir25  1  0.999532  0.499893  0.876994  1
  Ir  Ir26  1  0.999711  0.499764  0.378198  1
  Pt  Pt27  1  0.850836  0.149164  0.250000  1
  Pt  Pt28  1  0.851301  0.851418  0.750055  1
  Pt  Pt29  1  0.148582  0.148699  0.749945  1
  Pt  Pt30  1  0.148731  0.851269  0.250000  1
  Pt  Pt31  1  0.650350  0.349650  0.750000  1
