# generated using pymatgen
data_Hf3Al12Fe3Co
_symmetry_space_group_name_H-M   'P 1'
_cell_length_a   8.48917112
_cell_length_b   8.48916996
_cell_length_c   9.06602549
_cell_angle_alpha   90.14367081
_cell_angle_beta   89.85633001
_cell_angle_gamma   120.08702924
_symmetry_Int_Tables_number   1
_chemical_formula_structural   Hf3Al12Fe3Co
_chemical_formula_sum   'Hf6 Al24 Fe6 Co2'
_cell_volume   565.32050215
_cell_formula_units_Z   2
loop_
 _symmetry_equiv_pos_site_id
 _symmetry_equiv_pos_as_xyz
  1  'x, y, z'
loop_
 _atom_site_type_symbol
 _atom_site_label
 _atom_site_symmetry_multiplicity
 _atom_site_fract_x
 _atom_site_fract_y
 _atom_site_fract_z
 _atom_site_occupancy
  Hf  Hf0  1  0.803055  0.196945  0.749716  1
  Hf  Hf1  1  0.196945  0.803055  0.250284  1
  Hf  Hf2  1  0.395048  0.198407  0.749751  1
  Hf  Hf3  1  0.604952  0.801593  0.250249  1
  Hf  Hf4  1  0.801593  0.604952  0.749751  1
  Hf  Hf5  1  0.198407  0.395048  0.250249  1
  Al  Al6  1  0.666302  0.333698  0.976520  1
  Al  Al7  1  0.333698  0.666302  0.023480  1
  Al  Al8  1  0.333222  0.666778  0.476641  1
  Al  Al9  1  0.666778  0.333222  0.523359  1
  Al  Al10  1  0.838261  0.161739  0.424804  1
  Al  Al11  1  0.161739  0.838261  0.575196  1
  Al  Al12  1  0.323435  0.161335  0.424804  1
  Al  Al13  1  0.161413  0.838587  0.924075  1
  Al  Al14  1  0.676565  0.838665  0.575196  1
  Al  Al15  1  0.838587  0.161413  0.075925  1
  Al  Al16  1  0.838665  0.676565  0.424804  1
  Al  Al17  1  0.676903  0.837725  0.924288  1
  Al  Al18  1  0.161335  0.323435  0.575196  1
  Al  Al19  1  0.323097  0.162275  0.075712  1
  Al  Al20  1  0.162275  0.323097  0.924288  1
  Al  Al21  1  0.837725  0.676903  0.075712  1
  Al  Al22  1  0.443524  0.556476  0.750513  1
  Al  Al23  1  0.556476  0.443524  0.249487  1
  Al  Al24  1  0.112756  0.556420  0.750062  1
  Al  Al25  1  0.887244  0.443580  0.249938  1
  Al  Al26  1  0.443580  0.887244  0.750062  1
  Al  Al27  1  0.556420  0.112756  0.249938  1
  Al  Al28  1  0.999969  0.000031  0.749900  1
  Al  Al29  1  0.000031  0.999969  0.250100  1
  Fe  Fe30  1  0.500000  0.500000  0.000000  1
  Fe  Fe31  1  0.500000  0.500000  0.500000  1
  Fe  Fe32  1  0.000000  0.500000  0.500000  1
  Fe  Fe33  1  0.500000  0.000000  0.500000  1
  Fe  Fe34  1  0.000000  0.000000  0.000000  1
  Fe  Fe35  1  0.000000  0.000000  0.500000  1
  Co  Co36  1  0.000000  0.500000  0.000000  1
  Co  Co37  1  0.500000  0.000000  0.000000  1
