# generated using pymatgen
data_DyHo(Er2Ir)2
_symmetry_space_group_name_H-M   'P 1'
_cell_length_a   6.36181100
_cell_length_b   7.22472200
_cell_length_c   9.11980700
_cell_angle_alpha   90.00000000
_cell_angle_beta   90.00000000
_cell_angle_gamma   90.00000000
_symmetry_Int_Tables_number   1
_chemical_formula_structural   DyHo(Er2Ir)2
_chemical_formula_sum   'Dy2 Ho2 Er8 Ir4'
_cell_volume   419.16745020
_cell_formula_units_Z   2
loop_
 _symmetry_equiv_pos_site_id
 _symmetry_equiv_pos_as_xyz
  1  'x, y, z'
loop_
 _atom_site_type_symbol
 _atom_site_label
 _atom_site_symmetry_multiplicity
 _atom_site_fract_x
 _atom_site_fract_y
 _atom_site_fract_z
 _atom_site_occupancy
  Dy  Dy0  1  0.870438  0.534076  0.250000  1
  Dy  Dy1  1  0.629562  0.034076  0.250000  1
  Ho  Ho2  1  0.129397  0.465845  0.750000  1
  Ho  Ho3  1  0.370603  0.965845  0.750000  1
  Er  Er4  1  0.328478  0.676778  0.062162  1
  Er  Er5  1  0.171522  0.176778  0.437838  1
  Er  Er6  1  0.671815  0.323090  0.562808  1
  Er  Er7  1  0.828185  0.823090  0.937192  1
  Er  Er8  1  0.671815  0.323090  0.937192  1
  Er  Er9  1  0.828185  0.823090  0.562808  1
  Er  Er10  1  0.328478  0.676778  0.437838  1
  Er  Er11  1  0.171522  0.176778  0.062162  1
  Ir  Ir12  1  0.045986  0.883519  0.250000  1
  Ir  Ir13  1  0.454014  0.383519  0.250000  1
  Ir  Ir14  1  0.955840  0.116822  0.750000  1
  Ir  Ir15  1  0.544160  0.616822  0.750000  1
