# generated using pymatgen
data_DyEr2Tm2Bi3
_symmetry_space_group_name_H-M   'P 1'
_cell_length_a   8.20185300
_cell_length_b   9.45455000
_cell_length_c   11.94471100
_cell_angle_alpha   90.00000000
_cell_angle_beta   90.00000000
_cell_angle_gamma   90.00000000
_symmetry_Int_Tables_number   1
_chemical_formula_structural   DyEr2Tm2Bi3
_chemical_formula_sum   'Dy4 Er8 Tm8 Bi12'
_cell_volume   926.25057531
_cell_formula_units_Z   4
loop_
 _symmetry_equiv_pos_site_id
 _symmetry_equiv_pos_as_xyz
  1  'x, y, z'
loop_
 _atom_site_type_symbol
 _atom_site_label
 _atom_site_symmetry_multiplicity
 _atom_site_fract_x
 _atom_site_fract_y
 _atom_site_fract_z
 _atom_site_occupancy
  Dy  Dy0  1  0.312371  0.250053  0.218383  1
  Dy  Dy1  1  0.812371  0.249947  0.281617  1
  Dy  Dy2  1  0.687629  0.750053  0.781617  1
  Dy  Dy3  1  0.187629  0.749947  0.718383  1
  Er  Er4  1  0.352622  0.750001  0.216951  1
  Er  Er5  1  0.852622  0.749999  0.283049  1
  Er  Er6  1  0.647378  0.250001  0.783049  1
  Er  Er7  1  0.147378  0.249999  0.716951  1
  Er  Er8  1  0.692714  0.565448  0.059158  1
  Er  Er9  1  0.192714  0.934552  0.440842  1
  Er  Er10  1  0.307286  0.065448  0.940842  1
  Er  Er11  1  0.807286  0.434552  0.559158  1
  Tm  Tm12  1  0.307340  0.434396  0.940833  1
  Tm  Tm13  1  0.807340  0.065604  0.559167  1
  Tm  Tm14  1  0.692660  0.934396  0.059167  1
  Tm  Tm15  1  0.192660  0.565604  0.440833  1
  Tm  Tm16  1  0.476090  0.249965  0.488886  1
  Tm  Tm17  1  0.976090  0.250035  0.011114  1
  Tm  Tm18  1  0.523910  0.749965  0.511114  1
  Tm  Tm19  1  0.023910  0.750035  0.988886  1
  Bi  Bi20  1  0.405247  0.749765  0.958163  1
  Bi  Bi21  1  0.905247  0.750235  0.541837  1
  Bi  Bi22  1  0.594753  0.249765  0.041837  1
  Bi  Bi23  1  0.094753  0.250235  0.458163  1
  Bi  Bi24  1  0.565264  0.994903  0.326009  1
  Bi  Bi25  1  0.065264  0.505097  0.173991  1
  Bi  Bi26  1  0.434736  0.494903  0.673991  1
  Bi  Bi27  1  0.934736  0.005097  0.826009  1
  Bi  Bi28  1  0.434819  0.005064  0.673994  1
  Bi  Bi29  1  0.934819  0.494936  0.826006  1
  Bi  Bi30  1  0.565181  0.505064  0.326006  1
  Bi  Bi31  1  0.065181  0.994936  0.173994  1
