# generated using pymatgen
data_NaCa20SmGa14
_symmetry_space_group_name_H-M   'P 1'
_cell_length_a   11.39768016
_cell_length_b   11.39768156
_cell_length_c   11.39768085
_cell_angle_alpha   59.61014259
_cell_angle_beta   59.61013829
_cell_angle_gamma   59.61014412
_symmetry_Int_Tables_number   1
_chemical_formula_structural   NaCa20SmGa14
_chemical_formula_sum   'Na1 Ca20 Sm1 Ga14'
_cell_volume   1037.69392288
_cell_formula_units_Z   1
loop_
 _symmetry_equiv_pos_site_id
 _symmetry_equiv_pos_as_xyz
  1  'x, y, z'
loop_
 _atom_site_type_symbol
 _atom_site_label
 _atom_site_symmetry_multiplicity
 _atom_site_fract_x
 _atom_site_fract_y
 _atom_site_fract_z
 _atom_site_occupancy
  Na  Na0  1  0.500096  0.500096  0.500096  1
  Ca  Ca1  1  0.999421  0.999421  0.999421  1
  Ca  Ca2  1  0.387991  0.871104  0.871104  1
  Ca  Ca3  1  0.871104  0.387991  0.871104  1
  Ca  Ca4  1  0.871104  0.871104  0.387991  1
  Ca  Ca5  1  0.129464  0.612431  0.129464  1
  Ca  Ca6  1  0.129464  0.129464  0.612431  1
  Ca  Ca7  1  0.612431  0.129464  0.129464  1
  Ca  Ca8  1  0.870641  0.870641  0.870641  1
  Ca  Ca9  1  0.500503  0.832847  0.500503  1
  Ca  Ca10  1  0.832847  0.500503  0.500503  1
  Ca  Ca11  1  0.500163  0.832754  0.166694  1
  Ca  Ca12  1  0.166694  0.500163  0.832754  1
  Ca  Ca13  1  0.832754  0.500163  0.166694  1
  Ca  Ca14  1  0.500503  0.500503  0.832847  1
  Ca  Ca15  1  0.166694  0.832754  0.500163  1
  Ca  Ca16  1  0.500163  0.166694  0.832754  1
  Ca  Ca17  1  0.499131  0.499131  0.167594  1
  Ca  Ca18  1  0.832754  0.166694  0.500163  1
  Ca  Ca19  1  0.167594  0.499131  0.499131  1
  Ca  Ca20  1  0.499131  0.167594  0.499131  1
  Sm  Sm21  1  0.128763  0.128763  0.128763  1
  Ga  Ga22  1  0.216935  0.788510  0.216935  1
  Ga  Ga23  1  0.217354  0.781488  0.781488  1
  Ga  Ga24  1  0.788510  0.216935  0.216935  1
  Ga  Ga25  1  0.781488  0.781488  0.217354  1
  Ga  Ga26  1  0.216935  0.216935  0.788510  1
  Ga  Ga27  1  0.781488  0.217354  0.781488  1
  Ga  Ga28  1  0.308897  0.308896  0.308896  1
  Ga  Ga29  1  0.928166  0.690286  0.690286  1
  Ga  Ga30  1  0.690286  0.928166  0.690286  1
  Ga  Ga31  1  0.690286  0.690286  0.928166  1
  Ga  Ga32  1  0.309166  0.071233  0.309166  1
  Ga  Ga33  1  0.309166  0.309166  0.071233  1
  Ga  Ga34  1  0.071233  0.309166  0.309166  1
  Ga  Ga35  1  0.690679  0.690679  0.690678  1
