# generated using pymatgen
data_PrNd9Sn20IrPd7
_symmetry_space_group_name_H-M   'P 1'
_cell_length_a   14.27288202
_cell_length_b   14.29250720
_cell_length_c   4.66607200
_cell_angle_alpha   90.00000000
_cell_angle_beta   90.00000000
_cell_angle_gamma   90.01273241
_symmetry_Int_Tables_number   1
_chemical_formula_structural   PrNd9Sn20IrPd7
_chemical_formula_sum   'Pr1 Nd9 Sn20 Ir1 Pd7'
_cell_volume   951.85658938
_cell_formula_units_Z   1
loop_
 _symmetry_equiv_pos_site_id
 _symmetry_equiv_pos_as_xyz
  1  'x, y, z'
loop_
 _atom_site_type_symbol
 _atom_site_label
 _atom_site_symmetry_multiplicity
 _atom_site_fract_x
 _atom_site_fract_y
 _atom_site_fract_z
 _atom_site_occupancy
  Pr  Pr0  1  0.609262  0.892091  0.500000  1
  Nd  Nd1  1  0.500225  0.498669  0.000000  1
  Nd  Nd2  1  0.999447  0.996064  0.000000  1
  Nd  Nd3  1  0.680255  0.179871  0.500000  1
  Nd  Nd4  1  0.319671  0.819050  0.500000  1
  Nd  Nd5  1  0.179748  0.320747  0.500000  1
  Nd  Nd6  1  0.822961  0.681711  0.500000  1
  Nd  Nd7  1  0.892425  0.393587  0.500000  1
  Nd  Nd8  1  0.105107  0.610761  0.500000  1
  Nd  Nd9  1  0.391594  0.108087  0.500000  1
  Sn  Sn10  1  0.568890  0.068870  0.000000  1
  Sn  Sn11  1  0.429867  0.931209  0.000000  1
  Sn  Sn12  1  0.069209  0.432796  0.000000  1
  Sn  Sn13  1  0.930875  0.572092  0.000000  1
  Sn  Sn14  1  0.653170  0.700888  0.000000  1
  Sn  Sn15  1  0.347679  0.298308  0.000000  1
  Sn  Sn16  1  0.151522  0.796908  0.000000  1
  Sn  Sn17  1  0.848274  0.200671  0.000000  1
  Sn  Sn18  1  0.299149  0.652534  0.000000  1
  Sn  Sn19  1  0.701682  0.347074  0.000000  1
  Sn  Sn20  1  0.200345  0.151880  0.000000  1
  Sn  Sn21  1  0.800722  0.847365  0.000000  1
  Sn  Sn22  1  0.662899  0.501449  0.500000  1
  Sn  Sn23  1  0.336936  0.499897  0.500000  1
  Sn  Sn24  1  0.161330  0.996629  0.500000  1
  Sn  Sn25  1  0.837331  0.999814  0.500000  1
  Sn  Sn26  1  0.499793  0.662063  0.500000  1
  Sn  Sn27  1  0.501186  0.337696  0.500000  1
  Sn  Sn28  1  0.001352  0.162048  0.500000  1
  Sn  Sn29  1  0.996468  0.837140  0.500000  1
  Ir  Ir30  1  0.967669  0.756780  0.000000  1
  Pd  Pd31  1  0.745081  0.531082  0.000000  1
  Pd  Pd32  1  0.255875  0.467646  0.000000  1
  Pd  Pd33  1  0.243496  0.967766  0.000000  1
  Pd  Pd34  1  0.755464  0.031683  0.000000  1
  Pd  Pd35  1  0.468941  0.745460  0.000000  1
  Pd  Pd36  1  0.532282  0.255009  0.000000  1
  Pd  Pd37  1  0.031816  0.246607  0.000000  1
