# generated using pymatgen
data_YHo6FeBr12
_symmetry_space_group_name_H-M   'P 1'
_cell_length_a   9.18708190
_cell_length_b   9.23530107
_cell_length_c   9.11127000
_cell_angle_alpha   106.73821979
_cell_angle_beta   106.79023622
_cell_angle_gamma   106.98860585
_symmetry_Int_Tables_number   1
_chemical_formula_structural   YHo6FeBr12
_chemical_formula_sum   'Y1 Ho6 Fe1 Br12'
_cell_volume   646.60706410
_cell_formula_units_Z   1
loop_
 _symmetry_equiv_pos_site_id
 _symmetry_equiv_pos_as_xyz
  1  'x, y, z'
loop_
 _atom_site_type_symbol
 _atom_site_label
 _atom_site_symmetry_multiplicity
 _atom_site_fract_x
 _atom_site_fract_y
 _atom_site_fract_z
 _atom_site_occupancy
  Y  Y0  1  0.694754  0.978684  0.902690  1
  Ho  Ho1  1  0.979476  0.906594  0.706659  1
  Ho  Ho2  1  0.500267  0.499726  0.499937  1
  Ho  Ho3  1  0.097863  0.302740  0.019201  1
  Ho  Ho4  1  0.302537  0.021273  0.096499  1
  Ho  Ho5  1  0.903027  0.697731  0.981172  1
  Ho  Ho6  1  0.020485  0.093598  0.293669  1
  Fe  Fe7  1  0.000214  0.000245  0.000212  1
  Br  Br8  1  0.068871  0.219244  0.676559  1
  Br  Br9  1  0.384344  0.167678  0.461137  1
  Br  Br10  1  0.615693  0.831523  0.537405  1
  Br  Br11  1  0.222200  0.678792  0.071611  1
  Br  Br12  1  0.779067  0.322926  0.928873  1
  Br  Br13  1  0.680604  0.073023  0.225164  1
  Br  Br14  1  0.536981  0.612566  0.833729  1
  Br  Br15  1  0.834092  0.541797  0.616388  1
  Br  Br16  1  0.931100  0.780623  0.323350  1
  Br  Br17  1  0.318506  0.926830  0.775792  1
  Br  Br18  1  0.463331  0.386022  0.166161  1
  Br  Br19  1  0.166589  0.458383  0.383791  1
