# generated using pymatgen
data_Er4Al24IrPt8
_symmetry_space_group_name_H-M   'P 1'
_cell_length_a   7.51327214
_cell_length_b   7.51249219
_cell_length_c   13.14312011
_cell_angle_alpha   100.90081150
_cell_angle_beta   95.42846791
_cell_angle_gamma   60.15104161
_symmetry_Int_Tables_number   1
_chemical_formula_structural   Er4Al24IrPt8
_chemical_formula_sum   'Er4 Al24 Ir1 Pt8'
_cell_volume   631.81978327
_cell_formula_units_Z   1
loop_
 _symmetry_equiv_pos_site_id
 _symmetry_equiv_pos_as_xyz
  1  'x, y, z'
loop_
 _atom_site_type_symbol
 _atom_site_label
 _atom_site_symmetry_multiplicity
 _atom_site_fract_x
 _atom_site_fract_y
 _atom_site_fract_z
 _atom_site_occupancy
  Er  Er0  1  0.331628  0.062213  0.191563  1
  Er  Er1  1  0.001593  0.731874  0.191358  1
  Er  Er2  1  0.998633  0.267720  0.808596  1
  Er  Er3  1  0.667986  0.938061  0.808617  1
  Al  Al4  1  0.331562  0.680252  0.045533  1
  Al  Al5  1  0.663038  0.020512  0.054867  1
  Al  Al6  1  0.004178  0.351932  0.055198  1
  Al  Al7  1  0.664879  0.601479  0.183080  1
  Al  Al8  1  0.456363  0.396338  0.181764  1
  Al  Al9  1  0.869568  0.192561  0.184161  1
  Al  Al10  1  0.993506  0.443292  0.328249  1
  Al  Al11  1  0.665620  0.116997  0.327882  1
  Al  Al12  1  0.340089  0.769305  0.329514  1
  Al  Al13  1  0.667691  0.478821  0.438229  1
  Al  Al14  1  0.333678  0.146790  0.441207  1
  Al  Al15  1  0.999757  0.813932  0.440915  1
  Al  Al16  1  0.000545  0.186346  0.559111  1
  Al  Al17  1  0.666562  0.853493  0.559039  1
  Al  Al18  1  0.332189  0.521007  0.561609  1
  Al  Al19  1  0.660069  0.230833  0.670471  1
  Al  Al20  1  0.334531  0.883016  0.671772  1
  Al  Al21  1  0.006634  0.556990  0.672066  1
  Al  Al22  1  0.131072  0.808081  0.815817  1
  Al  Al23  1  0.541631  0.603937  0.816558  1
  Al  Al24  1  0.335841  0.397079  0.818535  1
  Al  Al25  1  0.001860  0.644814  0.945101  1
  Al  Al26  1  0.333474  0.985570  0.944783  1
  Al  Al27  1  0.665175  0.316202  0.954432  1
  Ir  Ir28  1  0.328797  0.328805  0.999982  1
  Pt  Pt29  1  0.999895  0.999794  0.000060  1
  Pt  Pt30  1  0.671480  0.671479  0.999959  1
  Pt  Pt31  1  0.008759  0.111679  0.361463  1
  Pt  Pt32  1  0.667080  0.795900  0.361349  1
  Pt  Pt33  1  0.324799  0.453745  0.362162  1
  Pt  Pt34  1  0.675390  0.546232  0.637352  1
  Pt  Pt35  1  0.333089  0.204414  0.639134  1
  Pt  Pt36  1  0.991365  0.888503  0.638511  1
