# generated using pymatgen
data_La2MgSiGe
_symmetry_space_group_name_H-M   'P 1'
_cell_length_a   7.56311458
_cell_length_b   7.56311458
_cell_length_c   4.49662300
_cell_angle_alpha   90.00000000
_cell_angle_beta   90.00000000
_cell_angle_gamma   89.60216964
_symmetry_Int_Tables_number   1
_chemical_formula_structural   La2MgSiGe
_chemical_formula_sum   'La4 Mg2 Si2 Ge2'
_cell_volume   257.20379259
_cell_formula_units_Z   2
loop_
 _symmetry_equiv_pos_site_id
 _symmetry_equiv_pos_as_xyz
  1  'x, y, z'
loop_
 _atom_site_type_symbol
 _atom_site_label
 _atom_site_symmetry_multiplicity
 _atom_site_fract_x
 _atom_site_fract_y
 _atom_site_fract_z
 _atom_site_occupancy
  La  La0  1  0.678322  0.178322  0.500000  1
  La  La1  1  0.321678  0.821678  0.500000  1
  La  La2  1  0.181719  0.318281  0.500000  1
  La  La3  1  0.818281  0.681719  0.500000  1
  Mg  Mg4  1  0.000000  0.000000  0.000000  1
  Mg  Mg5  1  0.500000  0.500000  0.000000  1
  Si  Si6  1  0.613276  0.886724  0.000000  1
  Si  Si7  1  0.386724  0.113276  0.000000  1
  Ge  Ge8  1  0.119409  0.619409  0.000000  1
  Ge  Ge9  1  0.880591  0.380591  0.000000  1
