# generated using pymatgen
data_Ca(ZrS2)8
_symmetry_space_group_name_H-M   'P 1'
_cell_length_a   7.32662000
_cell_length_b   7.32661946
_cell_length_c   13.61144800
_cell_angle_alpha   90.00000000
_cell_angle_beta   90.00000000
_cell_angle_gamma   119.99999340
_symmetry_Int_Tables_number   1
_chemical_formula_structural   Ca(ZrS2)8
_chemical_formula_sum   'Ca1 Zr8 S16'
_cell_volume   632.76477015
_cell_formula_units_Z   1
loop_
 _symmetry_equiv_pos_site_id
 _symmetry_equiv_pos_as_xyz
  1  'x, y, z'
loop_
 _atom_site_type_symbol
 _atom_site_label
 _atom_site_symmetry_multiplicity
 _atom_site_fract_x
 _atom_site_fract_y
 _atom_site_fract_z
 _atom_site_occupancy
  Ca  Ca0  1  0.000000  0.000000  0.000000  1
  Zr  Zr1  1  0.501641  0.498359  0.744772  1
  Zr  Zr2  1  0.498359  0.501641  0.255228  1
  Zr  Zr3  1  0.501641  0.003281  0.744772  1
  Zr  Zr4  1  0.498359  0.996719  0.255228  1
  Zr  Zr5  1  0.996719  0.498359  0.744772  1
  Zr  Zr6  1  0.003281  0.501641  0.255228  1
  Zr  Zr7  1  0.000000  0.000000  0.734029  1
  Zr  Zr8  1  0.000000  0.000000  0.265971  1
  S  S9  1  0.835998  0.671996  0.144967  1
  S  S10  1  0.830974  0.661949  0.633930  1
  S  S11  1  0.835998  0.164002  0.144967  1
  S  S12  1  0.830974  0.169026  0.633930  1
  S  S13  1  0.333333  0.666667  0.144420  1
  S  S14  1  0.333333  0.666667  0.639274  1
  S  S15  1  0.328004  0.164002  0.144967  1
  S  S16  1  0.338051  0.169026  0.633930  1
  S  S17  1  0.671996  0.835998  0.855033  1
  S  S18  1  0.661949  0.830974  0.366070  1
  S  S19  1  0.666667  0.333333  0.855580  1
  S  S20  1  0.666667  0.333333  0.360726  1
  S  S21  1  0.164002  0.835998  0.855033  1
  S  S22  1  0.169026  0.830974  0.366070  1
  S  S23  1  0.164002  0.328004  0.855033  1
  S  S24  1  0.169026  0.338051  0.366070  1
