# generated using pymatgen
data_Y12Er4Cd4Ir3Rh
_symmetry_space_group_name_H-M   'P 1'
_cell_length_a   9.64929543
_cell_length_b   9.64929506
_cell_length_c   9.64929600
_cell_angle_alpha   60.00278105
_cell_angle_beta   60.00277931
_cell_angle_gamma   60.00278487
_symmetry_Int_Tables_number   1
_chemical_formula_structural   Y12Er4Cd4Ir3Rh
_chemical_formula_sum   'Y12 Er4 Cd4 Ir3 Rh1'
_cell_volume   635.32977636
_cell_formula_units_Z   1
loop_
 _symmetry_equiv_pos_site_id
 _symmetry_equiv_pos_as_xyz
  1  'x, y, z'
loop_
 _atom_site_type_symbol
 _atom_site_label
 _atom_site_symmetry_multiplicity
 _atom_site_fract_x
 _atom_site_fract_y
 _atom_site_fract_z
 _atom_site_occupancy
  Y  Y0  1  0.808188  0.190200  0.190200  1
  Y  Y1  1  0.189274  0.809822  0.809822  1
  Y  Y2  1  0.190200  0.808188  0.190200  1
  Y  Y3  1  0.809822  0.189274  0.809822  1
  Y  Y4  1  0.190200  0.190200  0.808188  1
  Y  Y5  1  0.809822  0.809822  0.189274  1
  Y  Y6  1  0.939391  0.561617  0.561617  1
  Y  Y7  1  0.562948  0.937852  0.937852  1
  Y  Y8  1  0.561617  0.939391  0.561617  1
  Y  Y9  1  0.937852  0.562948  0.937852  1
  Y  Y10  1  0.561617  0.561617  0.939391  1
  Y  Y11  1  0.937852  0.937852  0.562948  1
  Er  Er12  1  0.347682  0.347682  0.347682  1
  Er  Er13  1  0.349279  0.349279  0.954678  1
  Er  Er14  1  0.349279  0.954678  0.349279  1
  Er  Er15  1  0.954678  0.349279  0.349279  1
  Cd  Cd16  1  0.580038  0.580038  0.580038  1
  Cd  Cd17  1  0.580806  0.580806  0.257005  1
  Cd  Cd18  1  0.580806  0.257005  0.580806  1
  Cd  Cd19  1  0.257005  0.580806  0.580806  1
  Ir  Ir20  1  0.143393  0.143393  0.571768  1
  Ir  Ir21  1  0.143393  0.571768  0.143393  1
  Ir  Ir22  1  0.571768  0.143393  0.143393  1
  Rh  Rh23  1  0.143092  0.143092  0.143092  1
