# generated using pymatgen
data_Ba2AlPtBr
_symmetry_space_group_name_H-M   'P 1'
_cell_length_a   4.38942500
_cell_length_b   4.38942527
_cell_length_c   19.30136700
_cell_angle_alpha   90.00000000
_cell_angle_beta   90.00000000
_cell_angle_gamma   120.00002060
_symmetry_Int_Tables_number   1
_chemical_formula_structural   Ba2AlPtBr
_chemical_formula_sum   'Ba4 Al2 Pt2 Br2'
_cell_volume   322.05785954
_cell_formula_units_Z   2
loop_
 _symmetry_equiv_pos_site_id
 _symmetry_equiv_pos_as_xyz
  1  'x, y, z'
loop_
 _atom_site_type_symbol
 _atom_site_label
 _atom_site_symmetry_multiplicity
 _atom_site_fract_x
 _atom_site_fract_y
 _atom_site_fract_z
 _atom_site_occupancy
  Ba  Ba0  1  0.000000  0.000000  0.379897  1
  Ba  Ba1  1  0.000000  0.000000  0.879897  1
  Ba  Ba2  1  0.000000  0.000000  0.620899  1
  Ba  Ba3  1  0.000000  0.000000  0.120899  1
  Al  Al4  1  0.333333  0.666667  0.500575  1
  Al  Al5  1  0.666667  0.333333  0.000575  1
  Pt  Pt6  1  0.666667  0.333333  0.499400  1
  Pt  Pt7  1  0.333333  0.666667  0.999400  1
  Br  Br8  1  0.333333  0.666667  0.249229  1
  Br  Br9  1  0.666667  0.333333  0.749229  1
