# generated using pymatgen
data_Na(ZrSe2)8
_symmetry_space_group_name_H-M   'P 1'
_cell_length_a   7.61318100
_cell_length_b   7.61318012
_cell_length_c   14.84388300
_cell_angle_alpha   90.00000000
_cell_angle_beta   90.00000000
_cell_angle_gamma   119.99999079
_symmetry_Int_Tables_number   1
_chemical_formula_structural   Na(ZrSe2)8
_chemical_formula_sum   'Na1 Zr8 Se16'
_cell_volume   745.09295067
_cell_formula_units_Z   1
loop_
 _symmetry_equiv_pos_site_id
 _symmetry_equiv_pos_as_xyz
  1  'x, y, z'
loop_
 _atom_site_type_symbol
 _atom_site_label
 _atom_site_symmetry_multiplicity
 _atom_site_fract_x
 _atom_site_fract_y
 _atom_site_fract_z
 _atom_site_occupancy
  Na  Na0  1  0.000000  0.000000  0.000000  1
  Zr  Zr1  1  0.500832  0.499168  0.742707  1
  Zr  Zr2  1  0.499168  0.500832  0.257293  1
  Zr  Zr3  1  0.500832  0.001663  0.742707  1
  Zr  Zr4  1  0.499168  0.998337  0.257293  1
  Zr  Zr5  1  0.998337  0.499168  0.742707  1
  Zr  Zr6  1  0.001663  0.500832  0.257293  1
  Zr  Zr7  1  0.000000  0.000000  0.738980  1
  Zr  Zr8  1  0.000000  0.000000  0.261020  1
  Se  Se9  1  0.834015  0.668029  0.149216  1
  Se  Se10  1  0.832547  0.665094  0.634643  1
  Se  Se11  1  0.834015  0.165985  0.149216  1
  Se  Se12  1  0.832547  0.167453  0.634643  1
  Se  Se13  1  0.333333  0.666667  0.149225  1
  Se  Se14  1  0.333333  0.666667  0.636920  1
  Se  Se15  1  0.331971  0.165985  0.149216  1
  Se  Se16  1  0.334906  0.167453  0.634643  1
  Se  Se17  1  0.668029  0.834015  0.850784  1
  Se  Se18  1  0.665094  0.832547  0.365357  1
  Se  Se19  1  0.666667  0.333333  0.850775  1
  Se  Se20  1  0.666667  0.333333  0.363080  1
  Se  Se21  1  0.165985  0.834015  0.850784  1
  Se  Se22  1  0.167453  0.832547  0.365357  1
  Se  Se23  1  0.165985  0.331971  0.850784  1
  Se  Se24  1  0.167453  0.334906  0.365357  1
