# generated using pymatgen
data_Dy8Lu2Os3Rh
_symmetry_space_group_name_H-M   'P 1'
_cell_length_a   6.34014767
_cell_length_b   7.31092685
_cell_length_c   8.39625300
_cell_angle_alpha   96.88142030
_cell_angle_beta   112.27353175
_cell_angle_gamma   89.89054230
_symmetry_Int_Tables_number   1
_chemical_formula_structural   Dy8Lu2Os3Rh
_chemical_formula_sum   'Dy8 Lu2 Os3 Rh1'
_cell_volume   357.15146787
_cell_formula_units_Z   1
loop_
 _symmetry_equiv_pos_site_id
 _symmetry_equiv_pos_as_xyz
  1  'x, y, z'
loop_
 _atom_site_type_symbol
 _atom_site_label
 _atom_site_symmetry_multiplicity
 _atom_site_fract_x
 _atom_site_fract_y
 _atom_site_fract_z
 _atom_site_occupancy
  Dy  Dy0  1  0.522969  0.082803  0.812966  1
  Dy  Dy1  1  0.471878  0.915445  0.181127  1
  Dy  Dy2  1  0.707706  0.419124  0.181492  1
  Dy  Dy3  1  0.290227  0.582033  0.816904  1
  Dy  Dy4  1  0.299238  0.316883  0.436239  1
  Dy  Dy5  1  0.705274  0.685761  0.565969  1
  Dy  Dy6  1  0.859885  0.186657  0.568829  1
  Dy  Dy7  1  0.139875  0.812688  0.435545  1
  Lu  Lu8  1  0.077700  0.251371  0.999306  1
  Lu  Lu9  1  0.923495  0.747455  0.998167  1
  Os  Os10  1  0.318165  0.575740  0.216322  1
  Os  Os11  1  0.681562  0.423667  0.785685  1
  Os  Os12  1  0.103492  0.925583  0.784346  1
  Rh  Rh13  1  0.898533  0.074792  0.217100  1
