# generated using pymatgen
data_NaAc(PO3)4
_symmetry_space_group_name_H-M   'P 1'
_cell_length_a   13.42166600
_cell_length_b   7.36023060
_cell_length_c   12.53471200
_cell_angle_alpha   54.33528611
_cell_angle_beta   90.00000000
_cell_angle_gamma   90.00000000
_symmetry_Int_Tables_number   1
_chemical_formula_structural   NaAc(PO3)4
_chemical_formula_sum   'Na4 Ac4 P16 O48'
_cell_volume   1006.01620547
_cell_formula_units_Z   4
loop_
 _symmetry_equiv_pos_site_id
 _symmetry_equiv_pos_as_xyz
  1  'x, y, z'
loop_
 _atom_site_type_symbol
 _atom_site_label
 _atom_site_symmetry_multiplicity
 _atom_site_fract_x
 _atom_site_fract_y
 _atom_site_fract_z
 _atom_site_occupancy
  Na  Na0  1  0.279800  0.934184  0.567157  1
  Na  Na1  1  0.779800  0.065816  0.932843  1
  Na  Na2  1  0.720200  0.065816  0.432843  1
  Na  Na3  1  0.220200  0.934184  0.067157  1
  Ac  Ac4  1  0.216743  0.539633  0.975355  1
  Ac  Ac5  1  0.716743  0.460367  0.524645  1
  Ac  Ac6  1  0.783257  0.460367  0.024645  1
  Ac  Ac7  1  0.283257  0.539633  0.475355  1
  P  P8  1  0.413471  0.581128  0.193877  1
  P  P9  1  0.913471  0.418872  0.306123  1
  P  P10  1  0.586529  0.418872  0.806123  1
  P  P11  1  0.086529  0.581128  0.693877  1
  P  P12  1  0.373559  0.330358  0.809024  1
  P  P13  1  0.873559  0.669642  0.690976  1
  P  P14  1  0.626441  0.669642  0.190976  1
  P  P15  1  0.126441  0.330358  0.309024  1
  P  P16  1  0.386808  0.121126  0.267250  1
  P  P17  1  0.886808  0.878874  0.232750  1
  P  P18  1  0.613192  0.878874  0.732750  1
  P  P19  1  0.113192  0.121126  0.767250  1
  P  P20  1  0.403200  0.006169  0.740220  1
  P  P21  1  0.903201  0.993831  0.759780  1
  P  P22  1  0.596800  0.993831  0.259780  1
  P  P23  1  0.096800  0.006169  0.240220  1
  O  O24  1  0.396182  0.646618  0.285429  1
  O  O25  1  0.896182  0.353382  0.214571  1
  O  O26  1  0.603818  0.353382  0.714571  1
  O  O27  1  0.103818  0.646618  0.785429  1
  O  O28  1  0.359455  0.921409  0.402165  1
  O  O29  1  0.859455  0.078591  0.097835  1
  O  O30  1  0.640545  0.078591  0.597835  1
  O  O31  1  0.140545  0.921409  0.902165  1
  O  O32  1  0.396900  0.187607  0.595293  1
  O  O33  1  0.896900  0.812393  0.904707  1
  O  O34  1  0.603100  0.812393  0.404707  1
  O  O35  1  0.103100  0.187607  0.095293  1
  O  O36  1  0.380564  0.093722  0.828736  1
  O  O37  1  0.880564  0.906278  0.671264  1
  O  O38  1  0.619436  0.906278  0.171264  1
  O  O39  1  0.119436  0.093722  0.328736  1
  O  O40  1  0.131995  0.519396  0.166105  1
  O  O41  1  0.338617  0.804215  0.789090  1
  O  O42  1  0.631995  0.480604  0.333895  1
  O  O43  1  0.368005  0.519396  0.666105  1
  O  O44  1  0.477169  0.339152  0.871915  1
  O  O45  1  0.977169  0.660848  0.628085  1
  O  O46  1  0.522831  0.660848  0.128085  1
  O  O47  1  0.022831  0.339152  0.371915  1
  O  O48  1  0.984597  0.924051  0.287020  1
  O  O49  1  0.484597  0.075949  0.212980  1
  O  O50  1  0.015403  0.075949  0.712980  1
  O  O51  1  0.515403  0.924051  0.787020  1
  O  O52  1  0.159239  0.664322  0.583589  1
  O  O53  1  0.659239  0.335678  0.916411  1
  O  O54  1  0.840761  0.335678  0.416411  1
  O  O55  1  0.340761  0.664322  0.083589  1
  O  O56  1  0.189080  0.208206  0.660571  1
  O  O57  1  0.689080  0.791794  0.839429  1
  O  O58  1  0.810920  0.791794  0.339429  1
  O  O59  1  0.310920  0.208206  0.160571  1
  O  O60  1  0.207790  0.300508  0.400403  1
  O  O61  1  0.707790  0.699492  0.099597  1
  O  O62  1  0.792210  0.699492  0.599597  1
  O  O63  1  0.292210  0.300508  0.900403  1
  O  O64  1  0.076778  0.312206  0.783475  1
  O  O65  1  0.576778  0.687794  0.716525  1
  O  O66  1  0.923222  0.687794  0.216525  1
  O  O67  1  0.423222  0.312206  0.283475  1
  O  O68  1  0.161383  0.804215  0.289090  1
  O  O69  1  0.661383  0.195785  0.210910  1
  O  O70  1  0.838617  0.195785  0.710910  1
  O  O71  1  0.868005  0.480604  0.833895  1
