# generated using pymatgen
data_YTm3Co4(SnH)4
_symmetry_space_group_name_H-M   'P 1'
_cell_length_a   4.24395500
_cell_length_b   7.06511243
_cell_length_c   8.12618384
_cell_angle_alpha   89.90457935
_cell_angle_beta   90.00000000
_cell_angle_gamma   90.00000000
_symmetry_Int_Tables_number   1
_chemical_formula_structural   YTm3Co4(SnH)4
_chemical_formula_sum   'Y1 Tm3 Co4 Sn4 H4'
_cell_volume   243.65531456
_cell_formula_units_Z   1
loop_
 _symmetry_equiv_pos_site_id
 _symmetry_equiv_pos_as_xyz
  1  'x, y, z'
loop_
 _atom_site_type_symbol
 _atom_site_label
 _atom_site_symmetry_multiplicity
 _atom_site_fract_x
 _atom_site_fract_y
 _atom_site_fract_z
 _atom_site_occupancy
  Y  Y0  1  0.750000  0.513177  0.813154  1
  Tm  Tm1  1  0.750000  0.013147  0.684615  1
  Tm  Tm2  1  0.250000  0.986399  0.314873  1
  Tm  Tm3  1  0.250000  0.487240  0.184872  1
  Co  Co4  1  0.750000  0.773680  0.105406  1
  Co  Co5  1  0.250000  0.224674  0.897048  1
  Co  Co6  1  0.250000  0.728839  0.601650  1
  Co  Co7  1  0.750000  0.272599  0.396216  1
  Sn  Sn8  1  0.750000  0.655922  0.424417  1
  Sn  Sn9  1  0.250000  0.344233  0.572112  1
  Sn  Sn10  1  0.250000  0.845463  0.926439  1
  Sn  Sn11  1  0.750000  0.154691  0.075164  1
  H  H12  1  0.250000  0.446790  0.921464  1
  H  H13  1  0.750000  0.551590  0.083029  1
  H  H14  1  0.750000  0.050401  0.419677  1
  H  H15  1  0.250000  0.951154  0.579865  1
