# generated using pymatgen
data_Ho4Er4ZnIn3
_symmetry_space_group_name_H-M   'P 1'
_cell_length_a   10.57918530
_cell_length_b   10.57918534
_cell_length_c   6.72833415
_cell_angle_alpha   90.02345121
_cell_angle_beta   89.97655338
_cell_angle_gamma   120.00959855
_symmetry_Int_Tables_number   1
_chemical_formula_structural   Ho4Er4ZnIn3
_chemical_formula_sum   'Ho8 Er8 Zn2 In6'
_cell_volume   652.07953646
_cell_formula_units_Z   2
loop_
 _symmetry_equiv_pos_site_id
 _symmetry_equiv_pos_as_xyz
  1  'x, y, z'
loop_
 _atom_site_type_symbol
 _atom_site_label
 _atom_site_symmetry_multiplicity
 _atom_site_fract_x
 _atom_site_fract_y
 _atom_site_fract_z
 _atom_site_occupancy
  Ho  Ho0  1  0.172833  0.827167  0.727445  1
  Ho  Ho1  1  0.827403  0.654383  0.227164  1
  Ho  Ho2  1  0.345617  0.172597  0.227164  1
  Ho  Ho3  1  0.827094  0.172906  0.226771  1
  Ho  Ho4  1  0.666713  0.333287  0.858772  1
  Ho  Ho5  1  0.333321  0.666679  0.359146  1
  Ho  Ho6  1  0.999757  0.000243  0.492972  1
  Ho  Ho7  1  0.999834  0.000166  0.991720  1
  Er  Er8  1  0.521044  0.041189  0.509298  1
  Er  Er9  1  0.958811  0.478956  0.509298  1
  Er  Er10  1  0.520442  0.479558  0.508649  1
  Er  Er11  1  0.479545  0.958240  0.008853  1
  Er  Er12  1  0.041760  0.520455  0.008853  1
  Er  Er13  1  0.479259  0.520741  0.007814  1
  Er  Er14  1  0.172764  0.345859  0.726691  1
  Er  Er15  1  0.654141  0.827236  0.726691  1
  Zn  Zn16  1  0.666583  0.333417  0.294843  1
  Zn  Zn17  1  0.333581  0.666419  0.793709  1
  In  In18  1  0.834372  0.670273  0.741599  1
  In  In19  1  0.329727  0.165628  0.741599  1
  In  In20  1  0.835160  0.164840  0.741309  1
  In  In21  1  0.165371  0.329799  0.242379  1
  In  In22  1  0.670201  0.834629  0.242379  1
  In  In23  1  0.164667  0.835333  0.242921  1
