# generated using pymatgen
data_Na2Dy3P12Ir9Ru10
_symmetry_space_group_name_H-M   'P 1'
_cell_length_a   12.53898131
_cell_length_b   12.49309329
_cell_length_c   3.99287700
_cell_angle_alpha   90.00000000
_cell_angle_beta   90.00000000
_cell_angle_gamma   119.70546843
_symmetry_Int_Tables_number   1
_chemical_formula_structural   Na2Dy3P12Ir9Ru10
_chemical_formula_sum   'Na2 Dy3 P12 Ir9 Ru10'
_cell_volume   543.28799248
_cell_formula_units_Z   1
loop_
 _symmetry_equiv_pos_site_id
 _symmetry_equiv_pos_as_xyz
  1  'x, y, z'
loop_
 _atom_site_type_symbol
 _atom_site_label
 _atom_site_symmetry_multiplicity
 _atom_site_fract_x
 _atom_site_fract_y
 _atom_site_fract_z
 _atom_site_occupancy
  Na  Na0  1  0.814397  0.000599  0.500000  1
  Na  Na1  1  0.183508  0.185767  0.500000  1
  Dy  Dy2  1  0.667907  0.332890  0.000000  1
  Dy  Dy3  1  0.333058  0.666900  0.000000  1
  Dy  Dy4  1  0.000564  0.820250  0.500000  1
  P  P5  1  0.631638  0.996784  0.000000  1
  P  P6  1  0.363714  0.369144  0.000000  1
  P  P7  1  0.006240  0.636496  0.000000  1
  P  P8  1  0.689251  0.520321  0.500000  1
  P  P9  1  0.830713  0.304549  0.500000  1
  P  P10  1  0.313541  0.831978  0.500000  1
  P  P11  1  0.519886  0.688355  0.500000  1
  P  P12  1  0.182479  0.003261  0.000000  1
  P  P13  1  0.817550  0.818339  0.000000  1
  P  P14  1  0.997474  0.184121  0.000000  1
  P  P15  1  0.477269  0.167081  0.500000  1
  P  P16  1  0.168726  0.479902  0.500000  1
  Ir  Ir17  1  0.621528  0.803000  0.000000  1
  Ir  Ir18  1  0.183426  0.380904  0.000000  1
  Ir  Ir19  1  0.377308  0.185867  0.000000  1
  Ir  Ir20  1  0.194304  0.820230  0.000000  1
  Ir  Ir21  1  0.811498  0.625815  0.000000  1
  Ir  Ir22  1  0.867942  0.503981  0.500000  1
  Ir  Ir23  1  0.493758  0.361734  0.500000  1
  Ir  Ir24  1  0.634858  0.127341  0.500000  1
  Ir  Ir25  1  0.999007  0.998464  0.000000  1
  Ru  Ru26  1  0.127934  0.639460  0.500000  1
  Ru  Ru27  1  0.363409  0.489087  0.500000  1
  Ru  Ru28  1  0.510609  0.871332  0.500000  1
  Ru  Ru29  1  0.716713  0.713859  0.500000  1
  Ru  Ru30  1  0.001417  0.283622  0.500000  1
  Ru  Ru31  1  0.450164  0.998504  0.000000  1
  Ru  Ru32  1  0.551354  0.544140  0.000000  1
  Ru  Ru33  1  0.998472  0.451899  0.000000  1
  Ru  Ru34  1  0.814231  0.193783  0.000000  1
  Ru  Ru35  1  0.284152  0.000243  0.500000  1
