# generated using pymatgen
data_Sr8Ho9Tm3Sn16
_symmetry_space_group_name_H-M   'P 1'
_cell_length_a   8.04476900
_cell_length_b   8.54659741
_cell_length_c   16.24487600
_cell_angle_alpha   90.00000000
_cell_angle_beta   90.00000000
_cell_angle_gamma   89.88107892
_symmetry_Int_Tables_number   1
_chemical_formula_structural   Sr8Ho9Tm3Sn16
_chemical_formula_sum   'Sr8 Ho9 Tm3 Sn16'
_cell_volume   1116.92057225
_cell_formula_units_Z   1
loop_
 _symmetry_equiv_pos_site_id
 _symmetry_equiv_pos_as_xyz
  1  'x, y, z'
loop_
 _atom_site_type_symbol
 _atom_site_label
 _atom_site_symmetry_multiplicity
 _atom_site_fract_x
 _atom_site_fract_y
 _atom_site_fract_z
 _atom_site_occupancy
  Sr  Sr0  1  0.504360  0.679744  0.594061  1
  Sr  Sr1  1  0.005208  0.822359  0.907141  1
  Sr  Sr2  1  0.494545  0.320363  0.093639  1
  Sr  Sr3  1  0.994414  0.179974  0.406535  1
  Sr  Sr4  1  0.494545  0.320363  0.406361  1
  Sr  Sr5  1  0.994414  0.179974  0.093465  1
  Sr  Sr6  1  0.504360  0.679744  0.905939  1
  Sr  Sr7  1  0.005208  0.822359  0.592859  1
  Ho  Ho8  1  0.674507  0.164271  0.624158  1
  Ho  Ho9  1  0.175544  0.334555  0.875804  1
  Ho  Ho10  1  0.325281  0.833852  0.123566  1
  Ho  Ho11  1  0.825599  0.664829  0.376471  1
  Ho  Ho12  1  0.325281  0.833852  0.376434  1
  Ho  Ho13  1  0.825599  0.664829  0.123529  1
  Ho  Ho14  1  0.674507  0.164271  0.875842  1
  Ho  Ho15  1  0.175544  0.334555  0.624196  1
  Ho  Ho16  1  0.840172  0.505851  0.750000  1
  Tm  Tm17  1  0.340175  0.994072  0.750000  1
  Tm  Tm18  1  0.160139  0.493697  0.250000  1
  Tm  Tm19  1  0.659906  0.005322  0.250000  1
  Sn  Sn20  1  0.663259  0.958817  0.456972  1
  Sn  Sn21  1  0.162931  0.540682  0.042432  1
  Sn  Sn22  1  0.337297  0.041147  0.956974  1
  Sn  Sn23  1  0.836551  0.459733  0.543875  1
  Sn  Sn24  1  0.337297  0.041147  0.543026  1
  Sn  Sn25  1  0.836551  0.459733  0.956125  1
  Sn  Sn26  1  0.663259  0.958817  0.043028  1
  Sn  Sn27  1  0.162931  0.540682  0.457568  1
  Sn  Sn28  1  0.476689  0.366734  0.750000  1
  Sn  Sn29  1  0.976401  0.136284  0.750000  1
  Sn  Sn30  1  0.523585  0.634500  0.250000  1
  Sn  Sn31  1  0.023451  0.863880  0.250000  1
  Sn  Sn32  1  0.713070  0.868974  0.750000  1
  Sn  Sn33  1  0.210884  0.630275  0.750000  1
  Sn  Sn34  1  0.288417  0.128747  0.250000  1
  Sn  Sn35  1  0.788118  0.371012  0.250000  1
