# generated using pymatgen
data_La3Yb4Co4Sn13
_symmetry_space_group_name_H-M   'P 1'
_cell_length_a   11.25327800
_cell_length_b   11.25327800
_cell_length_c   4.63157000
_cell_angle_alpha   90.00000000
_cell_angle_beta   90.00000000
_cell_angle_gamma   90.00000000
_symmetry_Int_Tables_number   1
_chemical_formula_structural   La3Yb4Co4Sn13
_chemical_formula_sum   'La3 Yb4 Co4 Sn13'
_cell_volume   586.52472934
_cell_formula_units_Z   1
loop_
 _symmetry_equiv_pos_site_id
 _symmetry_equiv_pos_as_xyz
  1  'x, y, z'
loop_
 _atom_site_type_symbol
 _atom_site_label
 _atom_site_symmetry_multiplicity
 _atom_site_fract_x
 _atom_site_fract_y
 _atom_site_fract_z
 _atom_site_occupancy
  La  La0  1  0.000000  0.000000  0.000000  1
  La  La1  1  0.500000  0.000000  0.500000  1
  La  La2  1  0.000000  0.500000  0.500000  1
  Yb  Yb3  1  0.338201  0.670171  0.500000  1
  Yb  Yb4  1  0.661799  0.329829  0.500000  1
  Yb  Yb5  1  0.329829  0.338201  0.500000  1
  Yb  Yb6  1  0.670171  0.661799  0.500000  1
  Co  Co7  1  0.119159  0.723630  0.000000  1
  Co  Co8  1  0.880841  0.276370  0.000000  1
  Co  Co9  1  0.276370  0.119159  0.000000  1
  Co  Co10  1  0.723630  0.880841  0.000000  1
  Sn  Sn11  1  0.284164  0.887250  0.000000  1
  Sn  Sn12  1  0.715836  0.112750  0.000000  1
  Sn  Sn13  1  0.112750  0.284164  0.000000  1
  Sn  Sn14  1  0.887250  0.715836  0.000000  1
  Sn  Sn15  1  0.078801  0.802030  0.500000  1
  Sn  Sn16  1  0.921199  0.197970  0.500000  1
  Sn  Sn17  1  0.197970  0.078801  0.500000  1
  Sn  Sn18  1  0.802030  0.921199  0.500000  1
  Sn  Sn19  1  0.521257  0.782242  0.000000  1
  Sn  Sn20  1  0.478743  0.217758  0.000000  1
  Sn  Sn21  1  0.217758  0.521257  0.000000  1
  Sn  Sn22  1  0.782242  0.478743  0.000000  1
  Sn  Sn23  1  0.500000  0.500000  0.000000  1
