# generated using pymatgen
data_PrEr3TmBi3
_symmetry_space_group_name_H-M   'P 1'
_cell_length_a   8.20813800
_cell_length_b   9.46778300
_cell_length_c   11.95154600
_cell_angle_alpha   90.00000000
_cell_angle_beta   90.00000000
_cell_angle_gamma   90.00000000
_symmetry_Int_Tables_number   1
_chemical_formula_structural   PrEr3TmBi3
_chemical_formula_sum   'Pr4 Er12 Tm4 Bi12'
_cell_volume   928.78893364
_cell_formula_units_Z   4
loop_
 _symmetry_equiv_pos_site_id
 _symmetry_equiv_pos_as_xyz
  1  'x, y, z'
loop_
 _atom_site_type_symbol
 _atom_site_label
 _atom_site_symmetry_multiplicity
 _atom_site_fract_x
 _atom_site_fract_y
 _atom_site_fract_z
 _atom_site_occupancy
  Pr  Pr0  1  0.314362  0.250000  0.219567  1
  Pr  Pr1  1  0.814362  0.250000  0.280433  1
  Pr  Pr2  1  0.685638  0.750000  0.780433  1
  Pr  Pr3  1  0.185638  0.750000  0.719567  1
  Er  Er4  1  0.352282  0.750000  0.217571  1
  Er  Er5  1  0.852282  0.750000  0.282429  1
  Er  Er6  1  0.647718  0.250000  0.782429  1
  Er  Er7  1  0.147718  0.250000  0.717571  1
  Er  Er8  1  0.692141  0.565258  0.059953  1
  Er  Er9  1  0.192141  0.934742  0.440047  1
  Er  Er10  1  0.307859  0.065258  0.940047  1
  Er  Er11  1  0.807859  0.434742  0.559953  1
  Er  Er12  1  0.307859  0.434742  0.940047  1
  Er  Er13  1  0.807859  0.065258  0.559953  1
  Er  Er14  1  0.692141  0.934742  0.059953  1
  Er  Er15  1  0.192141  0.565258  0.440047  1
  Tm  Tm16  1  0.476253  0.250000  0.488643  1
  Tm  Tm17  1  0.976253  0.250000  0.011357  1
  Tm  Tm18  1  0.523747  0.750000  0.511357  1
  Tm  Tm19  1  0.023747  0.750000  0.988643  1
  Bi  Bi20  1  0.403661  0.750000  0.962420  1
  Bi  Bi21  1  0.903661  0.750000  0.537580  1
  Bi  Bi22  1  0.596339  0.250000  0.037580  1
  Bi  Bi23  1  0.096339  0.250000  0.462420  1
  Bi  Bi24  1  0.564470  0.990669  0.327792  1
  Bi  Bi25  1  0.064470  0.509331  0.172208  1
  Bi  Bi26  1  0.435530  0.490669  0.672208  1
  Bi  Bi27  1  0.935530  0.009331  0.827792  1
  Bi  Bi28  1  0.435530  0.009331  0.672208  1
  Bi  Bi29  1  0.935530  0.490669  0.827792  1
  Bi  Bi30  1  0.564470  0.509331  0.327792  1
  Bi  Bi31  1  0.064470  0.990669  0.172208  1
