# generated using pymatgen
data_Eu2Th(AgSn)4
_symmetry_space_group_name_H-M   'P 1'
_cell_length_a   8.97532253
_cell_length_b   8.97532259
_cell_length_c   8.97532446
_cell_angle_alpha   149.34640010
_cell_angle_beta   130.82090149
_cell_angle_gamma   59.07189084
_symmetry_Int_Tables_number   1
_chemical_formula_structural   Eu2Th(AgSn)4
_chemical_formula_sum   'Eu2 Th1 Ag4 Sn4'
_cell_volume   276.75980186
_cell_formula_units_Z   1
loop_
 _symmetry_equiv_pos_site_id
 _symmetry_equiv_pos_as_xyz
  1  'x, y, z'
loop_
 _atom_site_type_symbol
 _atom_site_label
 _atom_site_symmetry_multiplicity
 _atom_site_fract_x
 _atom_site_fract_y
 _atom_site_fract_z
 _atom_site_occupancy
  Eu  Eu0  1  0.500096  0.000096  0.500000  1
  Eu  Eu1  1  0.128993  0.128993  0.000000  1
  Th  Th2  1  0.869951  0.869951  0.000000  1
  Ag  Ag3  1  0.476020  0.670228  0.805793  1
  Ag  Ag4  1  0.864435  0.670228  0.194207  1
  Ag  Ag5  1  0.135091  0.330046  0.805044  1
  Ag  Ag6  1  0.525003  0.330046  0.194956  1
  Sn  Sn7  1  0.285252  0.785252  0.500000  1
  Sn  Sn8  1  0.717544  0.217544  0.500000  1
  Sn  Sn9  1  0.806830  0.498808  0.308022  1
  Sn  Sn10  1  0.190786  0.498808  0.691978  1
