# generated using pymatgen
data_Dy16Cd4IrRu2Rh
_symmetry_space_group_name_H-M   'P 1'
_cell_length_a   9.64177426
_cell_length_b   9.62671710
_cell_length_c   9.67444900
_cell_angle_alpha   59.83584907
_cell_angle_beta   59.88783699
_cell_angle_gamma   59.73112715
_symmetry_Int_Tables_number   1
_chemical_formula_structural   Dy16Cd4IrRu2Rh
_chemical_formula_sum   'Dy16 Cd4 Ir1 Ru2 Rh1'
_cell_volume   632.33842742
_cell_formula_units_Z   1
loop_
 _symmetry_equiv_pos_site_id
 _symmetry_equiv_pos_as_xyz
  1  'x, y, z'
loop_
 _atom_site_type_symbol
 _atom_site_label
 _atom_site_symmetry_multiplicity
 _atom_site_fract_x
 _atom_site_fract_y
 _atom_site_fract_z
 _atom_site_occupancy
  Dy  Dy0  1  0.598126  0.597658  0.598217  1
  Dy  Dy1  1  0.598126  0.597658  0.205999  1
  Dy  Dy2  1  0.597020  0.208598  0.597191  1
  Dy  Dy3  1  0.208217  0.596726  0.597529  1
  Dy  Dy4  1  0.061973  0.438213  0.439761  1
  Dy  Dy5  1  0.438314  0.062340  0.059780  1
  Dy  Dy6  1  0.438314  0.062340  0.439566  1
  Dy  Dy7  1  0.061973  0.438213  0.060053  1
  Dy  Dy8  1  0.438353  0.438092  0.061778  1
  Dy  Dy9  1  0.059710  0.060135  0.440077  1
  Dy  Dy10  1  0.187736  0.810387  0.813689  1
  Dy  Dy11  1  0.810335  0.188059  0.188651  1
  Dy  Dy12  1  0.810335  0.188059  0.812955  1
  Dy  Dy13  1  0.187736  0.810387  0.188188  1
  Dy  Dy14  1  0.812853  0.811910  0.187618  1
  Dy  Dy15  1  0.188936  0.188782  0.811141  1
  Cd  Cd16  1  0.830433  0.830406  0.830844  1
  Cd  Cd17  1  0.830433  0.830406  0.508317  1
  Cd  Cd18  1  0.830441  0.507603  0.830978  1
  Cd  Cd19  1  0.507538  0.830408  0.831027  1
  Ir  Ir20  1  0.826717  0.393505  0.389889  1
  Ru  Ru21  1  0.391619  0.391458  0.388235  1
  Ru  Ru22  1  0.391619  0.391458  0.828688  1
  Rh  Rh23  1  0.393145  0.827199  0.389828  1
