# generated using pymatgen
data_Dy2Er3RuRh
_symmetry_space_group_name_H-M   'P 1'
_cell_length_a   6.35196952
_cell_length_b   7.23738536
_cell_length_c   8.47467692
_cell_angle_alpha   96.80205108
_cell_angle_beta   112.00957867
_cell_angle_gamma   90.00000062
_symmetry_Int_Tables_number   1
_chemical_formula_structural   Dy2Er3RuRh
_chemical_formula_sum   'Dy4 Er6 Ru2 Rh2'
_cell_volume   358.24215870
_cell_formula_units_Z   2
loop_
 _symmetry_equiv_pos_site_id
 _symmetry_equiv_pos_as_xyz
  1  'x, y, z'
loop_
 _atom_site_type_symbol
 _atom_site_label
 _atom_site_symmetry_multiplicity
 _atom_site_fract_x
 _atom_site_fract_y
 _atom_site_fract_z
 _atom_site_occupancy
  Dy  Dy0  1  0.791874  0.582235  0.811154  1
  Dy  Dy1  1  0.980720  0.917765  0.188846  1
  Dy  Dy2  1  0.210519  0.414899  0.186304  1
  Dy  Dy3  1  0.024215  0.085101  0.813696  1
  Er  Er4  1  0.207383  0.683865  0.565723  1
  Er  Er5  1  0.641660  0.816135  0.434277  1
  Er  Er6  1  0.792618  0.312540  0.436751  1
  Er  Er7  1  0.355868  0.187460  0.563249  1
  Er  Er8  1  0.420291  0.750000  0.000000  1
  Er  Er9  1  0.577774  0.250000  0.000000  1
  Ru  Ru10  1  0.399013  0.074579  0.220973  1
  Ru  Ru11  1  0.178041  0.425421  0.779027  1
  Rh  Rh12  1  0.598771  0.924264  0.777517  1
  Rh  Rh13  1  0.821253  0.575736  0.222483  1
