# generated using pymatgen
data_Er4Sc2AlInPt4
_symmetry_space_group_name_H-M   'P 1'
_cell_length_a   4.41109300
_cell_length_b   7.15163986
_cell_length_c   8.16799491
_cell_angle_alpha   90.44625945
_cell_angle_beta   90.00000000
_cell_angle_gamma   90.00000000
_symmetry_Int_Tables_number   1
_chemical_formula_structural   Er4Sc2AlInPt4
_chemical_formula_sum   'Er4 Sc2 Al1 In1 Pt4'
_cell_volume   257.66423232
_cell_formula_units_Z   1
loop_
 _symmetry_equiv_pos_site_id
 _symmetry_equiv_pos_as_xyz
  1  'x, y, z'
loop_
 _atom_site_type_symbol
 _atom_site_label
 _atom_site_symmetry_multiplicity
 _atom_site_fract_x
 _atom_site_fract_y
 _atom_site_fract_z
 _atom_site_occupancy
  Er  Er0  1  0.250000  0.456638  0.173528  1
  Er  Er1  1  0.750000  0.515869  0.821279  1
  Er  Er2  1  0.750000  0.049575  0.679083  1
  Er  Er3  1  0.250000  0.986314  0.337174  1
  Sc  Sc4  1  0.250000  0.865590  0.935568  1
  Sc  Sc5  1  0.750000  0.633621  0.434513  1
  Al  Al6  1  0.250000  0.363569  0.562911  1
  In  In7  1  0.750000  0.138187  0.068429  1
  Pt  Pt8  1  0.250000  0.737364  0.614444  1
  Pt  Pt9  1  0.750000  0.263643  0.395543  1
  Pt  Pt10  1  0.750000  0.741620  0.111086  1
  Pt  Pt11  1  0.250000  0.248009  0.866441  1
