# generated using pymatgen
data_Er8Si8PdPt7
_symmetry_space_group_name_H-M   'P 1'
_cell_length_a   4.26017100
_cell_length_b   7.46457772
_cell_length_c   13.94460435
_cell_angle_alpha   89.94967563
_cell_angle_beta   90.00000000
_cell_angle_gamma   90.00000000
_symmetry_Int_Tables_number   1
_chemical_formula_structural   Er8Si8PdPt7
_chemical_formula_sum   'Er8 Si8 Pd1 Pt7'
_cell_volume   443.44351161
_cell_formula_units_Z   1
loop_
 _symmetry_equiv_pos_site_id
 _symmetry_equiv_pos_as_xyz
  1  'x, y, z'
loop_
 _atom_site_type_symbol
 _atom_site_label
 _atom_site_symmetry_multiplicity
 _atom_site_fract_x
 _atom_site_fract_y
 _atom_site_fract_z
 _atom_site_occupancy
  Er  Er0  1  0.000000  0.300101  0.999869  1
  Er  Er1  1  0.500000  0.700392  0.499725  1
  Er  Er2  1  0.000000  0.293924  0.500064  1
  Er  Er3  1  0.500000  0.705182  0.000245  1
  Er  Er4  1  0.000000  0.204090  0.249559  1
  Er  Er5  1  0.500000  0.795749  0.250172  1
  Er  Er6  1  0.000000  0.203588  0.750139  1
  Er  Er7  1  0.500000  0.795410  0.750117  1
  Si  Si8  1  0.000000  0.907327  0.591850  1
  Si  Si9  1  0.500000  0.094596  0.907135  1
  Si  Si10  1  0.000000  0.906230  0.407441  1
  Si  Si11  1  0.500000  0.094093  0.092457  1
  Si  Si12  1  0.000000  0.593756  0.146875  1
  Si  Si13  1  0.500000  0.406093  0.352066  1
  Si  Si14  1  0.000000  0.593917  0.856012  1
  Si  Si15  1  0.500000  0.403655  0.645594  1
  Pd  Pd16  1  0.000000  0.580746  0.656511  1
  Pt  Pt17  1  0.500000  0.074923  0.608491  1
  Pt  Pt18  1  0.000000  0.923943  0.891121  1
  Pt  Pt19  1  0.500000  0.076137  0.391490  1
  Pt  Pt20  1  0.000000  0.923877  0.108432  1
  Pt  Pt21  1  0.500000  0.420276  0.154975  1
  Pt  Pt22  1  0.000000  0.579840  0.346806  1
  Pt  Pt23  1  0.500000  0.422155  0.842853  1
