# generated using pymatgen
data_Ba4InFeO8
_symmetry_space_group_name_H-M   'P 1'
_cell_length_a   7.28667866
_cell_length_b   7.28667927
_cell_length_c   5.87577100
_cell_angle_alpha   90.00000000
_cell_angle_beta   90.00000000
_cell_angle_gamma   132.54186690
_symmetry_Int_Tables_number   1
_chemical_formula_structural   Ba4InFeO8
_chemical_formula_sum   'Ba4 In1 Fe1 O8'
_cell_volume   229.86032174
_cell_formula_units_Z   1
loop_
 _symmetry_equiv_pos_site_id
 _symmetry_equiv_pos_as_xyz
  1  'x, y, z'
loop_
 _atom_site_type_symbol
 _atom_site_label
 _atom_site_symmetry_multiplicity
 _atom_site_fract_x
 _atom_site_fract_y
 _atom_site_fract_z
 _atom_site_occupancy
  Ba  Ba0  1  0.357876  0.642124  0.000000  1
  Ba  Ba1  1  0.856083  0.143917  0.500000  1
  Ba  Ba2  1  0.143917  0.856083  0.500000  1
  Ba  Ba3  1  0.642124  0.357876  0.000000  1
  In  In4  1  0.000000  0.000000  0.000000  1
  Fe  Fe5  1  0.500000  0.500000  0.500000  1
  O  O6  1  0.266026  0.266026  0.731443  1
  O  O7  1  0.733974  0.733974  0.268557  1
  O  O8  1  0.733974  0.733974  0.731443  1
  O  O9  1  0.266026  0.266026  0.268557  1
  O  O10  1  0.158755  0.841245  0.000000  1
  O  O11  1  0.649163  0.350837  0.500000  1
  O  O12  1  0.350837  0.649163  0.500000  1
  O  O13  1  0.841245  0.158755  0.000000  1
