# generated using pymatgen
data_La4Pd6O19
_symmetry_space_group_name_H-M   'P 1'
_cell_length_a   7.85927849
_cell_length_b   7.85927859
_cell_length_c   7.85927800
_cell_angle_alpha   109.47121654
_cell_angle_beta   109.47121679
_cell_angle_gamma   109.47122788
_symmetry_Int_Tables_number   1
_chemical_formula_structural   La4Pd6O19
_chemical_formula_sum   'La4 Pd6 O19'
_cell_volume   373.70260553
_cell_formula_units_Z   1
loop_
 _symmetry_equiv_pos_site_id
 _symmetry_equiv_pos_as_xyz
  1  'x, y, z'
loop_
 _atom_site_type_symbol
 _atom_site_label
 _atom_site_symmetry_multiplicity
 _atom_site_fract_x
 _atom_site_fract_y
 _atom_site_fract_z
 _atom_site_occupancy
  La  La0  1  0.000000  0.000000  0.321352  1
  La  La1  1  0.000000  0.321352  0.000000  1
  La  La2  1  0.678648  0.678648  0.678648  1
  La  La3  1  0.321352  0.000000  0.000000  1
  Pd  Pd4  1  0.340935  0.500000  0.840935  1
  Pd  Pd5  1  0.840935  0.340935  0.500000  1
  Pd  Pd6  1  0.500000  0.159065  0.659065  1
  Pd  Pd7  1  0.159065  0.659065  0.500000  1
  Pd  Pd8  1  0.500000  0.840935  0.340935  1
  Pd  Pd9  1  0.659065  0.500000  0.159065  1
  O  O10  1  0.340213  0.000000  0.340213  1
  O  O11  1  0.340213  0.340213  0.000000  1
  O  O12  1  0.000000  0.659787  0.659787  1
  O  O13  1  0.659787  0.659787  0.000000  1
  O  O14  1  0.000000  0.340213  0.340213  1
  O  O15  1  0.659787  0.000000  0.659787  1
  O  O16  1  0.000000  0.000000  0.000000  1
  O  O17  1  0.361713  0.322602  0.608507  1
  O  O18  1  0.039112  0.285905  0.677398  1
  O  O19  1  0.753205  0.391493  0.714095  1
  O  O20  1  0.391493  0.714095  0.753205  1
  O  O21  1  0.246795  0.960888  0.638287  1
  O  O22  1  0.608507  0.361713  0.322602  1
  O  O23  1  0.322602  0.608507  0.361713  1
  O  O24  1  0.677398  0.039112  0.285905  1
  O  O25  1  0.960888  0.638287  0.246795  1
  O  O26  1  0.714095  0.753205  0.391493  1
  O  O27  1  0.638287  0.246795  0.960888  1
  O  O28  1  0.285905  0.677398  0.039112  1
