# generated using pymatgen
data_Y5ReMoC7
_symmetry_space_group_name_H-M   'P 1'
_cell_length_a   8.39456513
_cell_length_b   8.39456333
_cell_length_c   3.43766800
_cell_angle_alpha   90.00000000
_cell_angle_beta   90.00000000
_cell_angle_gamma   122.56798345
_symmetry_Int_Tables_number   1
_chemical_formula_structural   Y5ReMoC7
_chemical_formula_sum   'Y5 Re1 Mo1 C7'
_cell_volume   204.15532883
_cell_formula_units_Z   1
loop_
 _symmetry_equiv_pos_site_id
 _symmetry_equiv_pos_as_xyz
  1  'x, y, z'
loop_
 _atom_site_type_symbol
 _atom_site_label
 _atom_site_symmetry_multiplicity
 _atom_site_fract_x
 _atom_site_fract_y
 _atom_site_fract_z
 _atom_site_occupancy
  Y  Y0  1  0.498935  0.501065  0.000000  1
  Y  Y1  1  0.075644  0.334139  0.500000  1
  Y  Y2  1  0.925995  0.666501  0.500000  1
  Y  Y3  1  0.665861  0.924356  0.500000  1
  Y  Y4  1  0.333499  0.074005  0.500000  1
  Re  Re5  1  0.286964  0.713036  0.000000  1
  Mo  Mo6  1  0.713497  0.286503  0.000000  1
  C  C7  1  0.624817  0.375183  0.500000  1
  C  C8  1  0.372549  0.627451  0.500000  1
  C  C9  1  0.999899  0.000101  0.000000  1
  C  C10  1  0.168499  0.167540  0.000000  1
  C  C11  1  0.832460  0.831501  0.000000  1
  C  C12  1  0.002552  0.501173  0.000000  1
  C  C13  1  0.498827  0.997448  0.000000  1
