# generated using pymatgen
data_LaNd4Sm(CI5)2
_symmetry_space_group_name_H-M   'P 1'
_cell_length_a   7.97568991
_cell_length_b   9.74017683
_cell_length_c   9.85621183
_cell_angle_alpha   107.14041240
_cell_angle_beta   97.18160314
_cell_angle_gamma   104.60764261
_symmetry_Int_Tables_number   1
_chemical_formula_structural   LaNd4Sm(CI5)2
_chemical_formula_sum   'La1 Nd4 Sm1 C2 I10'
_cell_volume   691.37077001
_cell_formula_units_Z   1
loop_
 _symmetry_equiv_pos_site_id
 _symmetry_equiv_pos_as_xyz
  1  'x, y, z'
loop_
 _atom_site_type_symbol
 _atom_site_label
 _atom_site_symmetry_multiplicity
 _atom_site_fract_x
 _atom_site_fract_y
 _atom_site_fract_z
 _atom_site_occupancy
  La  La0  1  0.378918  0.138352  0.186145  1
  Nd  Nd1  1  0.029843  0.735903  0.923531  1
  Nd  Nd2  1  0.105016  0.039350  0.777899  1
  Nd  Nd3  1  0.967188  0.263001  0.074346  1
  Nd  Nd4  1  0.891928  0.958496  0.220177  1
  Sm  Sm5  1  0.629152  0.865488  0.819003  1
  C  C6  1  0.087361  0.030362  0.041820  1
  C  C7  1  0.912136  0.969486  0.958264  1
  I  I8  1  0.190580  0.734161  0.647456  1
  I  I9  1  0.912206  0.630745  0.177755  1
  I  I10  1  0.086649  0.368449  0.821058  1
  I  I11  1  0.742924  0.913191  0.540910  1
  I  I12  1  0.248747  0.083457  0.464737  1
  I  I13  1  0.653069  0.545075  0.725316  1
  I  I14  1  0.458989  0.806507  0.086403  1
  I  I15  1  0.819789  0.268452  0.357119  1
  I  I16  1  0.341213  0.462891  0.274298  1
  I  I17  1  0.544291  0.186636  0.903763  1
