# generated using pymatgen
data_Y2TaB6W
_symmetry_space_group_name_H-M   'P 1'
_cell_length_a   3.16618600
_cell_length_b   5.50158971
_cell_length_c   6.95867178
_cell_angle_alpha   78.34033297
_cell_angle_beta   90.00000000
_cell_angle_gamma   90.00000000
_symmetry_Int_Tables_number   1
_chemical_formula_structural   Y2TaB6W
_chemical_formula_sum   'Y2 Ta1 B6 W1'
_cell_volume   118.71229366
_cell_formula_units_Z   1
loop_
 _symmetry_equiv_pos_site_id
 _symmetry_equiv_pos_as_xyz
  1  'x, y, z'
loop_
 _atom_site_type_symbol
 _atom_site_label
 _atom_site_symmetry_multiplicity
 _atom_site_fract_x
 _atom_site_fract_y
 _atom_site_fract_z
 _atom_site_occupancy
  Y  Y0  1  0.750000  0.825544  0.708533  1
  Y  Y1  1  0.250000  0.179338  0.288841  1
  Ta  Ta2  1  0.750000  0.690801  0.221602  1
  B  B3  1  0.250000  0.572526  0.481036  1
  B  B4  1  0.750000  0.416424  0.529843  1
  B  B5  1  0.250000  0.586109  0.990747  1
  B  B6  1  0.750000  0.413745  0.004029  1
  B  B7  1  0.250000  0.920211  0.990762  1
  B  B8  1  0.750000  0.084604  0.004332  1
  W  W9  1  0.250000  0.310699  0.780275  1
