# generated using pymatgen
data_Sr20PtAu15
_symmetry_space_group_name_H-M   'P 1'
_cell_length_a   8.34879415
_cell_length_b   8.43233137
_cell_length_c   16.24553000
_cell_angle_alpha   90.00000000
_cell_angle_beta   90.00000000
_cell_angle_gamma   89.71606617
_symmetry_Int_Tables_number   1
_chemical_formula_structural   Sr20PtAu15
_chemical_formula_sum   'Sr20 Pt1 Au15'
_cell_volume   1143.66800086
_cell_formula_units_Z   1
loop_
 _symmetry_equiv_pos_site_id
 _symmetry_equiv_pos_as_xyz
  1  'x, y, z'
loop_
 _atom_site_type_symbol
 _atom_site_label
 _atom_site_symmetry_multiplicity
 _atom_site_fract_x
 _atom_site_fract_y
 _atom_site_fract_z
 _atom_site_occupancy
  Sr  Sr0  1  0.336083  0.831449  0.880015  1
  Sr  Sr1  1  0.835314  0.670346  0.619281  1
  Sr  Sr2  1  0.664112  0.166531  0.378710  1
  Sr  Sr3  1  0.166405  0.338017  0.123175  1
  Sr  Sr4  1  0.664112  0.166531  0.121290  1
  Sr  Sr5  1  0.166405  0.338017  0.376825  1
  Sr  Sr6  1  0.336083  0.831449  0.619985  1
  Sr  Sr7  1  0.835314  0.670346  0.880719  1
  Sr  Sr8  1  0.491834  0.322079  0.901550  1
  Sr  Sr9  1  0.992173  0.179320  0.596622  1
  Sr  Sr10  1  0.502947  0.677303  0.396693  1
  Sr  Sr11  1  0.014131  0.813066  0.104314  1
  Sr  Sr12  1  0.502947  0.677303  0.103307  1
  Sr  Sr13  1  0.014131  0.813066  0.395686  1
  Sr  Sr14  1  0.491834  0.322079  0.598450  1
  Sr  Sr15  1  0.992173  0.179320  0.903378  1
  Sr  Sr16  1  0.170265  0.489481  0.750000  1
  Sr  Sr17  1  0.670936  0.012678  0.750000  1
  Sr  Sr18  1  0.836185  0.508556  0.250000  1
  Sr  Sr19  1  0.326571  0.981878  0.250000  1
  Pt  Pt20  1  0.209811  0.627310  0.250000  1
  Au  Au21  1  0.328719  0.023434  0.047314  1
  Au  Au22  1  0.828096  0.476378  0.452994  1
  Au  Au23  1  0.666840  0.982204  0.548073  1
  Au  Au24  1  0.168327  0.520636  0.952913  1
  Au  Au25  1  0.666840  0.982204  0.951927  1
  Au  Au26  1  0.168327  0.520636  0.547087  1
  Au  Au27  1  0.328719  0.023434  0.452686  1
  Au  Au28  1  0.828096  0.476378  0.047006  1
  Au  Au29  1  0.541067  0.612644  0.750000  1
  Au  Au30  1  0.040918  0.887940  0.750000  1
  Au  Au31  1  0.461331  0.392869  0.250000  1
  Au  Au32  1  0.960316  0.113081  0.250000  1
  Au  Au33  1  0.290968  0.128163  0.750000  1
  Au  Au34  1  0.792075  0.373556  0.750000  1
  Au  Au35  1  0.709595  0.870318  0.250000  1
