# generated using pymatgen
data_TbHoTm2Ga12Fe
_symmetry_space_group_name_H-M   'P 1'
_cell_length_a   7.37552583
_cell_length_b   7.39816537
_cell_length_c   7.42481834
_cell_angle_alpha   109.52194562
_cell_angle_beta   109.39869325
_cell_angle_gamma   109.28501229
_symmetry_Int_Tables_number   1
_chemical_formula_structural   TbHoTm2Ga12Fe
_chemical_formula_sum   'Tb1 Ho1 Tm2 Ga12 Fe1'
_cell_volume   312.67234655
_cell_formula_units_Z   1
loop_
 _symmetry_equiv_pos_site_id
 _symmetry_equiv_pos_as_xyz
  1  'x, y, z'
loop_
 _atom_site_type_symbol
 _atom_site_label
 _atom_site_symmetry_multiplicity
 _atom_site_fract_x
 _atom_site_fract_y
 _atom_site_fract_z
 _atom_site_occupancy
  Tb  Tb0  1  0.500000  0.000000  0.000000  1
  Ho  Ho1  1  0.000000  0.500000  0.000000  1
  Tm  Tm2  1  0.000000  0.000000  0.500000  1
  Tm  Tm3  1  0.500000  0.500000  0.500000  1
  Ga  Ga4  1  0.750338  0.250338  0.500677  1
  Ga  Ga5  1  0.750317  0.501046  0.250705  1
  Ga  Ga6  1  0.499614  0.250341  0.749295  1
  Ga  Ga7  1  0.249683  0.498954  0.749295  1
  Ga  Ga8  1  0.249662  0.749662  0.499323  1
  Ga  Ga9  1  0.500386  0.749659  0.250705  1
  Ga  Ga10  1  0.716200  0.715685  0.000000  1
  Ga  Ga11  1  0.283738  0.000424  0.284706  1
  Ga  Ga12  1  0.000969  0.284282  0.284706  1
  Ga  Ga13  1  0.283800  0.284315  0.000000  1
  Ga  Ga14  1  0.716262  0.999576  0.715294  1
  Ga  Ga15  1  0.999031  0.715718  0.715294  1
  Fe  Fe16  1  0.000000  0.000000  0.000000  1
