# generated using pymatgen
data_Tb5Dy(MoO7)2
_symmetry_space_group_name_H-M   'P 1'
_cell_length_a   6.49288921
_cell_length_b   6.51865929
_cell_length_c   7.49124608
_cell_angle_alpha   89.97254999
_cell_angle_beta   89.95140790
_cell_angle_gamma   108.63437385
_symmetry_Int_Tables_number   1
_chemical_formula_structural   Tb5Dy(MoO7)2
_chemical_formula_sum   'Tb5 Dy1 Mo2 O14'
_cell_volume   300.44466966
_cell_formula_units_Z   1
loop_
 _symmetry_equiv_pos_site_id
 _symmetry_equiv_pos_as_xyz
  1  'x, y, z'
loop_
 _atom_site_type_symbol
 _atom_site_label
 _atom_site_symmetry_multiplicity
 _atom_site_fract_x
 _atom_site_fract_y
 _atom_site_fract_z
 _atom_site_occupancy
  Tb  Tb0  1  0.000449  0.534574  0.245653  1
  Tb  Tb1  1  0.463862  0.999617  0.254179  1
  Tb  Tb2  1  0.466744  0.465693  0.999216  1
  Tb  Tb3  1  0.532748  0.535291  0.499589  1
  Tb  Tb4  1  0.999602  0.464234  0.740341  1
  Dy  Dy5  1  0.538135  0.000718  0.760431  1
  Mo  Mo6  1  0.001227  0.000876  0.499978  1
  Mo  Mo7  1  0.999259  0.998963  0.999401  1
  O  O8  1  0.925434  0.075600  0.750199  1
  O  O9  1  0.635417  0.360093  0.748621  1
  O  O10  1  0.301256  0.045554  0.543979  1
  O  O11  1  0.942941  0.694244  0.959369  1
  O  O12  1  0.629657  0.368204  0.250475  1
  O  O13  1  0.912846  0.668432  0.523233  1
  O  O14  1  0.329372  0.084042  0.974496  1
  O  O15  1  0.082854  0.324208  0.025856  1
  O  O16  1  0.677327  0.921357  0.474654  1
  O  O17  1  0.371156  0.633456  0.751093  1
  O  O18  1  0.688193  0.945859  0.037772  1
  O  O19  1  0.063364  0.314438  0.462982  1
  O  O20  1  0.364308  0.638657  0.248831  1
  O  O21  1  0.073845  0.925890  0.249654  1
