# generated using pymatgen
data_Dy2ErCoSn6
_symmetry_space_group_name_H-M   'P 1'
_cell_length_a   8.46378946
_cell_length_b   8.46378880
_cell_length_c   13.13875900
_cell_angle_alpha   90.00000000
_cell_angle_beta   90.00000000
_cell_angle_gamma   148.80810105
_symmetry_Int_Tables_number   1
_chemical_formula_structural   Dy2ErCoSn6
_chemical_formula_sum   'Dy4 Er2 Co2 Sn12'
_cell_volume   487.45554146
_cell_formula_units_Z   2
loop_
 _symmetry_equiv_pos_site_id
 _symmetry_equiv_pos_as_xyz
  1  'x, y, z'
loop_
 _atom_site_type_symbol
 _atom_site_label
 _atom_site_symmetry_multiplicity
 _atom_site_fract_x
 _atom_site_fract_y
 _atom_site_fract_z
 _atom_site_occupancy
  Dy  Dy0  1  0.899631  0.100369  0.093388  1
  Dy  Dy1  1  0.100369  0.899631  0.593388  1
  Dy  Dy2  1  0.100369  0.899631  0.906612  1
  Dy  Dy3  1  0.899631  0.100369  0.406612  1
  Er  Er4  1  0.900210  0.099790  0.750000  1
  Er  Er5  1  0.099790  0.900210  0.250000  1
  Co  Co6  1  0.298837  0.701163  0.250000  1
  Co  Co7  1  0.701163  0.298837  0.750000  1
  Sn  Sn8  1  0.755379  0.244621  0.571245  1
  Sn  Sn9  1  0.427472  0.572528  0.576575  1
  Sn  Sn10  1  0.572528  0.427472  0.423425  1
  Sn  Sn11  1  0.732861  0.267139  0.250000  1
  Sn  Sn12  1  0.267139  0.732861  0.750000  1
  Sn  Sn13  1  0.244621  0.755379  0.071245  1
  Sn  Sn14  1  0.244621  0.755379  0.428755  1
  Sn  Sn15  1  0.572528  0.427472  0.076575  1
  Sn  Sn16  1  0.453609  0.546391  0.250000  1
  Sn  Sn17  1  0.546391  0.453609  0.750000  1
  Sn  Sn18  1  0.755379  0.244621  0.928755  1
  Sn  Sn19  1  0.427472  0.572528  0.923425  1
