# generated using pymatgen
data_Nd4Tc3B16W
_symmetry_space_group_name_H-M   'P 1'
_cell_length_a   3.68127300
_cell_length_b   6.08734799
_cell_length_c   11.78450631
_cell_angle_alpha   89.94058801
_cell_angle_beta   90.00000000
_cell_angle_gamma   90.00000000
_symmetry_Int_Tables_number   1
_chemical_formula_structural   Nd4Tc3B16W
_chemical_formula_sum   'Nd4 Tc3 B16 W1'
_cell_volume   264.08109643
_cell_formula_units_Z   1
loop_
 _symmetry_equiv_pos_site_id
 _symmetry_equiv_pos_as_xyz
  1  'x, y, z'
loop_
 _atom_site_type_symbol
 _atom_site_label
 _atom_site_symmetry_multiplicity
 _atom_site_fract_x
 _atom_site_fract_y
 _atom_site_fract_z
 _atom_site_occupancy
  Nd  Nd0  1  0.500000  0.374116  0.152176  1
  Nd  Nd1  1  0.500000  0.624660  0.847633  1
  Nd  Nd2  1  0.500000  0.125203  0.649209  1
  Nd  Nd3  1  0.500000  0.874666  0.351302  1
  Tc  Tc4  1  0.500000  0.369114  0.413915  1
  Tc  Tc5  1  0.500000  0.631586  0.587086  1
  Tc  Tc6  1  0.500000  0.126620  0.915625  1
  B  B7  1  0.000000  0.114777  0.044781  1
  B  B8  1  0.000000  0.888784  0.952315  1
  B  B9  1  0.000000  0.388374  0.545877  1
  B  B10  1  0.000000  0.611592  0.454578  1
  B  B11  1  0.000000  0.140761  0.468113  1
  B  B12  1  0.000000  0.859584  0.532128  1
  B  B13  1  0.000000  0.360987  0.966723  1
  B  B14  1  0.000000  0.637035  0.031475  1
  B  B15  1  0.000000  0.025437  0.191118  1
  B  B16  1  0.000000  0.977158  0.809293  1
  B  B17  1  0.000000  0.475339  0.689258  1
  B  B18  1  0.000000  0.523517  0.310998  1
  B  B19  1  0.000000  0.219263  0.317208  1
  B  B20  1  0.000000  0.781685  0.683028  1
  B  B21  1  0.000000  0.281830  0.816666  1
  B  B22  1  0.000000  0.715667  0.185151  1
  W  W23  1  0.500000  0.872249  0.084344  1
