# generated using pymatgen
data_TbYb12Er7Sn16
_symmetry_space_group_name_H-M   'P 1'
_cell_length_a   7.81595016
_cell_length_b   8.40140715
_cell_length_c   15.99352926
_cell_angle_alpha   89.98666217
_cell_angle_beta   89.98396183
_cell_angle_gamma   89.98321035
_symmetry_Int_Tables_number   1
_chemical_formula_structural   TbYb12Er7Sn16
_chemical_formula_sum   'Tb1 Yb12 Er7 Sn16'
_cell_volume   1050.21465727
_cell_formula_units_Z   1
loop_
 _symmetry_equiv_pos_site_id
 _symmetry_equiv_pos_as_xyz
  1  'x, y, z'
loop_
 _atom_site_type_symbol
 _atom_site_label
 _atom_site_symmetry_multiplicity
 _atom_site_fract_x
 _atom_site_fract_y
 _atom_site_fract_z
 _atom_site_occupancy
  Tb  Tb0  1  0.667006  0.167581  0.622037  1
  Yb  Yb1  1  0.499377  0.686764  0.593285  1
  Yb  Yb2  1  0.999479  0.813154  0.906729  1
  Yb  Yb3  1  0.500570  0.313189  0.093287  1
  Yb  Yb4  1  0.000591  0.186841  0.406703  1
  Yb  Yb5  1  0.500473  0.313230  0.406626  1
  Yb  Yb6  1  0.000545  0.186827  0.093288  1
  Yb  Yb7  1  0.499440  0.686818  0.906731  1
  Yb  Yb8  1  0.999577  0.813091  0.593252  1
  Yb  Yb9  1  0.827986  0.511276  0.750077  1
  Yb  Yb10  1  0.327805  0.988767  0.750064  1
  Yb  Yb11  1  0.172100  0.488856  0.250012  1
  Yb  Yb12  1  0.672083  0.011121  0.249984  1
  Er  Er13  1  0.166996  0.332729  0.878009  1
  Er  Er14  1  0.332959  0.832627  0.122054  1
  Er  Er15  1  0.832962  0.667373  0.377878  1
  Er  Er16  1  0.332916  0.832632  0.377911  1
  Er  Er17  1  0.832945  0.667325  0.122044  1
  Er  Er18  1  0.667094  0.167303  0.877999  1
  Er  Er19  1  0.167017  0.332801  0.622044  1
  Sn  Sn20  1  0.673660  0.963928  0.459684  1
  Sn  Sn21  1  0.173767  0.535647  0.039906  1
  Sn  Sn22  1  0.326270  0.035595  0.960074  1
  Sn  Sn23  1  0.826892  0.464865  0.539747  1
  Sn  Sn24  1  0.325561  0.035366  0.539768  1
  Sn  Sn25  1  0.826207  0.464338  0.960094  1
  Sn  Sn26  1  0.673782  0.964357  0.039926  1
  Sn  Sn27  1  0.173777  0.535708  0.460061  1
  Sn  Sn28  1  0.463398  0.374249  0.750194  1
  Sn  Sn29  1  0.964208  0.126038  0.750294  1
  Sn  Sn30  1  0.536208  0.626157  0.249990  1
  Sn  Sn31  1  0.036203  0.873773  0.249995  1
  Sn  Sn32  1  0.709010  0.873824  0.750218  1
  Sn  Sn33  1  0.208748  0.625889  0.750042  1
  Sn  Sn34  1  0.291172  0.125826  0.250001  1
  Sn  Sn35  1  0.791215  0.374134  0.249994  1
