# generated using pymatgen
data_Lu12GaTcNi4
_symmetry_space_group_name_H-M   'P 1'
_cell_length_a   8.06662342
_cell_length_b   8.06662343
_cell_length_c   8.06662267
_cell_angle_alpha   111.73895409
_cell_angle_beta   109.73099114
_cell_angle_gamma   106.97875499
_symmetry_Int_Tables_number   1
_chemical_formula_structural   Lu12GaTcNi4
_chemical_formula_sum   'Lu12 Ga1 Tc1 Ni4'
_cell_volume   403.36686334
_cell_formula_units_Z   1
loop_
 _symmetry_equiv_pos_site_id
 _symmetry_equiv_pos_as_xyz
  1  'x, y, z'
loop_
 _atom_site_type_symbol
 _atom_site_label
 _atom_site_symmetry_multiplicity
 _atom_site_fract_x
 _atom_site_fract_y
 _atom_site_fract_z
 _atom_site_occupancy
  Lu  Lu0  1  0.421702  0.231651  0.190051  1
  Lu  Lu1  1  0.578298  0.768349  0.809949  1
  Lu  Lu2  1  0.041600  0.231651  0.809949  1
  Lu  Lu3  1  0.958400  0.768349  0.190051  1
  Lu  Lu4  1  0.179661  0.276528  0.456189  1
  Lu  Lu5  1  0.820339  0.723472  0.543811  1
  Lu  Lu6  1  0.179661  0.723472  0.903133  1
  Lu  Lu7  1  0.820339  0.276528  0.096867  1
  Lu  Lu8  1  0.323754  0.626278  0.302524  1
  Lu  Lu9  1  0.676246  0.373722  0.697476  1
  Lu  Lu10  1  0.323754  0.021230  0.697476  1
  Lu  Lu11  1  0.676246  0.978770  0.302524  1
  Ga  Ga12  1  0.500000  0.500000  0.000000  1
  Tc  Tc13  1  0.000000  0.000000  0.000000  1
  Ni  Ni14  1  0.353720  0.000000  0.353720  1
  Ni  Ni15  1  0.646280  0.000000  0.646280  1
  Ni  Ni16  1  0.122007  0.622007  0.500000  1
  Ni  Ni17  1  0.877993  0.377993  0.500000  1
