# generated using pymatgen
data_Nd2Ho3(BiPb)2
_symmetry_space_group_name_H-M   'P 1'
_cell_length_a   8.38247900
_cell_length_b   8.37128000
_cell_length_c   15.73344800
_cell_angle_alpha   90.00000000
_cell_angle_beta   90.00000000
_cell_angle_gamma   90.00000000
_symmetry_Int_Tables_number   1
_chemical_formula_structural   Nd2Ho3(BiPb)2
_chemical_formula_sum   'Nd8 Ho12 Bi8 Pb8'
_cell_volume   1104.04875290
_cell_formula_units_Z   4
loop_
 _symmetry_equiv_pos_site_id
 _symmetry_equiv_pos_as_xyz
  1  'x, y, z'
loop_
 _atom_site_type_symbol
 _atom_site_label
 _atom_site_symmetry_multiplicity
 _atom_site_fract_x
 _atom_site_fract_y
 _atom_site_fract_z
 _atom_site_occupancy
  Nd  Nd0  1  0.471489  0.677293  0.599740  1
  Nd  Nd1  1  0.971489  0.822707  0.900260  1
  Nd  Nd2  1  0.528511  0.322707  0.099740  1
  Nd  Nd3  1  0.028511  0.177293  0.400260  1
  Nd  Nd4  1  0.528511  0.322707  0.400260  1
  Nd  Nd5  1  0.028511  0.177293  0.099740  1
  Nd  Nd6  1  0.471489  0.677293  0.900260  1
  Nd  Nd7  1  0.971489  0.822707  0.599740  1
  Ho  Ho8  1  0.634644  0.156729  0.625285  1
  Ho  Ho9  1  0.134644  0.343271  0.874715  1
  Ho  Ho10  1  0.365356  0.843271  0.125285  1
  Ho  Ho11  1  0.865356  0.656729  0.374715  1
  Ho  Ho12  1  0.365356  0.843271  0.374715  1
  Ho  Ho13  1  0.865356  0.656729  0.125285  1
  Ho  Ho14  1  0.634644  0.156729  0.874715  1
  Ho  Ho15  1  0.134644  0.343271  0.625285  1
  Ho  Ho16  1  0.802655  0.501343  0.750000  1
  Ho  Ho17  1  0.302655  0.998657  0.750000  1
  Ho  Ho18  1  0.197345  0.498657  0.250000  1
  Ho  Ho19  1  0.697345  0.001343  0.250000  1
  Bi  Bi20  1  0.708996  0.960123  0.455961  1
  Bi  Bi21  1  0.208996  0.539877  0.044039  1
  Bi  Bi22  1  0.291004  0.039877  0.955961  1
  Bi  Bi23  1  0.791004  0.460123  0.544039  1
  Bi  Bi24  1  0.291004  0.039877  0.544039  1
  Bi  Bi25  1  0.791004  0.460123  0.955961  1
  Bi  Bi26  1  0.708996  0.960123  0.044039  1
  Bi  Bi27  1  0.208996  0.539877  0.455961  1
  Pb  Pb28  1  0.439965  0.370744  0.750000  1
  Pb  Pb29  1  0.939965  0.129256  0.750000  1
  Pb  Pb30  1  0.560035  0.629256  0.250000  1
  Pb  Pb31  1  0.060035  0.870744  0.250000  1
  Pb  Pb32  1  0.660816  0.849770  0.750000  1
  Pb  Pb33  1  0.160816  0.650230  0.750000  1
  Pb  Pb34  1  0.339184  0.150230  0.250000  1
  Pb  Pb35  1  0.839184  0.349770  0.250000  1
