# generated using pymatgen
data_K7Ce6F31
_symmetry_space_group_name_H-M   'P 1'
_cell_length_a   9.38174142
_cell_length_b   9.38174125
_cell_length_c   9.38174200
_cell_angle_alpha   106.99995732
_cell_angle_beta   106.99995700
_cell_angle_gamma   106.99995173
_symmetry_Int_Tables_number   1
_chemical_formula_structural   K7Ce6F31
_chemical_formula_sum   'K7 Ce6 F31'
_cell_volume   687.69621220
_cell_formula_units_Z   1
loop_
 _symmetry_equiv_pos_site_id
 _symmetry_equiv_pos_as_xyz
  1  'x, y, z'
loop_
 _atom_site_type_symbol
 _atom_site_label
 _atom_site_symmetry_multiplicity
 _atom_site_fract_x
 _atom_site_fract_y
 _atom_site_fract_z
 _atom_site_occupancy
  K  K0  1  0.186886  0.587760  0.729226  1
  K  K1  1  0.279409  0.823161  0.425659  1
  K  K2  1  0.425659  0.279409  0.823161  1
  K  K3  1  0.498981  0.498981  0.498981  1
  K  K4  1  0.587760  0.729226  0.186886  1
  K  K5  1  0.729226  0.186886  0.587760  1
  K  K6  1  0.823161  0.425659  0.279409  1
  Ce  Ce7  1  0.042779  0.125261  0.376013  1
  Ce  Ce8  1  0.125261  0.376013  0.042779  1
  Ce  Ce9  1  0.647278  0.954925  0.875272  1
  Ce  Ce10  1  0.376013  0.042779  0.125261  1
  Ce  Ce11  1  0.875272  0.647278  0.954925  1
  Ce  Ce12  1  0.954925  0.875272  0.647278  1
  F  F13  1  0.208257  0.954924  0.847332  1
  F  F14  1  0.056530  0.717144  0.530323  1
  F  F15  1  0.042151  0.156948  0.795818  1
  F  F16  1  0.027323  0.559719  0.150941  1
  F  F17  1  0.299649  0.477383  0.950208  1
  F  F18  1  0.452482  0.854502  0.982659  1
  F  F19  1  0.156948  0.795818  0.042151  1
  F  F20  1  0.091765  0.299452  0.247282  1
  F  F21  1  0.150941  0.027323  0.559719  1
  F  F22  1  0.262889  0.334916  0.569901  1
  F  F23  1  0.435528  0.743294  0.670134  1
  F  F24  1  0.334916  0.569901  0.262889  1
  F  F25  1  0.477383  0.950208  0.299649  1
  F  F26  1  0.247282  0.091765  0.299452  1
  F  F27  1  0.656350  0.720194  0.904251  1
  F  F28  1  0.299452  0.247282  0.091765  1
  F  F29  1  0.720194  0.904251  0.656350  1
  F  F30  1  0.530323  0.056530  0.717144  1
  F  F31  1  0.670134  0.435528  0.743294  1
  F  F32  1  0.917138  0.917138  0.917138  1
  F  F33  1  0.569901  0.262889  0.334916  1
  F  F34  1  0.743294  0.670134  0.435528  1
  F  F35  1  0.854502  0.982659  0.452482  1
  F  F36  1  0.904251  0.656350  0.720194  1
  F  F37  1  0.847332  0.208257  0.954924  1
  F  F38  1  0.559719  0.150941  0.027323  1
  F  F39  1  0.717144  0.530323  0.056530  1
  F  F40  1  0.982659  0.452482  0.854502  1
  F  F41  1  0.954924  0.847332  0.208257  1
  F  F42  1  0.950208  0.299649  0.477383  1
  F  F43  1  0.795818  0.042151  0.156948  1
