# generated using pymatgen
data_La4Mn3NiF28
_symmetry_space_group_name_H-M   'P 1'
_cell_length_a   5.65016900
_cell_length_b   9.11748012
_cell_length_c   12.17043850
_cell_angle_alpha   61.90813349
_cell_angle_beta   89.99734421
_cell_angle_gamma   89.99560382
_symmetry_Int_Tables_number   1
_chemical_formula_structural   La4Mn3NiF28
_chemical_formula_sum   'La4 Mn3 Ni1 F28'
_cell_volume   553.10355543
_cell_formula_units_Z   1
loop_
 _symmetry_equiv_pos_site_id
 _symmetry_equiv_pos_as_xyz
  1  'x, y, z'
loop_
 _atom_site_type_symbol
 _atom_site_label
 _atom_site_symmetry_multiplicity
 _atom_site_fract_x
 _atom_site_fract_y
 _atom_site_fract_z
 _atom_site_occupancy
  La  La0  1  0.760811  0.806360  0.266664  1
  La  La1  1  0.259816  0.192351  0.235238  1
  La  La2  1  0.239822  0.194985  0.734209  1
  La  La3  1  0.739855  0.806877  0.763038  1
  Mn  Mn4  1  0.743306  0.274475  0.956627  1
  Mn  Mn5  1  0.756573  0.274469  0.456671  1
  Mn  Mn6  1  0.256822  0.725583  0.043342  1
  Ni  Ni7  1  0.242404  0.725332  0.543765  1
  F  F8  1  0.978793  0.714004  0.464193  1
  F  F9  1  0.472827  0.286113  0.037701  1
  F  F10  1  0.026946  0.286002  0.537657  1
  F  F11  1  0.527292  0.714117  0.961886  1
  F  F12  1  0.068171  0.708260  0.926709  1
  F  F13  1  0.568615  0.291704  0.573171  1
  F  F14  1  0.931558  0.291867  0.073097  1
  F  F15  1  0.426777  0.707963  0.429618  1
  F  F16  1  0.736652  0.503527  0.863908  1
  F  F17  1  0.237170  0.501045  0.634365  1
  F  F18  1  0.263416  0.496488  0.135956  1
  F  F19  1  0.763044  0.503474  0.364250  1
  F  F20  1  0.740178  0.046825  0.045246  1
  F  F21  1  0.240629  0.948526  0.457288  1
  F  F22  1  0.259754  0.953285  0.954729  1
  F  F23  1  0.759744  0.047015  0.545083  1
  F  F24  1  0.060051  0.739061  0.660953  1
  F  F25  1  0.556874  0.260362  0.836752  1
  F  F26  1  0.943198  0.260162  0.336953  1
  F  F27  1  0.443673  0.739762  0.163402  1
  F  F28  1  0.008832  0.269970  0.870346  1
  F  F29  1  0.503137  0.729838  0.627566  1
  F  F30  1  0.991133  0.730158  0.129759  1
  F  F31  1  0.491056  0.269639  0.370541  1
  F  F32  1  0.096991  0.967492  0.227509  1
  F  F33  1  0.598197  0.033111  0.271440  1
  F  F34  1  0.902870  0.032051  0.771744  1
  F  F35  1  0.403015  0.967745  0.728624  1
