# generated using pymatgen
data_Sm2RuWC3
_symmetry_space_group_name_H-M   'P 1'
_cell_length_a   6.21104419
_cell_length_b   6.21104250
_cell_length_c   5.81821864
_cell_angle_alpha   65.92694479
_cell_angle_beta   65.92695434
_cell_angle_gamma   31.83200609
_symmetry_Int_Tables_number   1
_chemical_formula_structural   Sm2RuWC3
_chemical_formula_sum   'Sm2 Ru1 W1 C3'
_cell_volume   107.20483456
_cell_formula_units_Z   1
loop_
 _symmetry_equiv_pos_site_id
 _symmetry_equiv_pos_as_xyz
  1  'x, y, z'
loop_
 _atom_site_type_symbol
 _atom_site_label
 _atom_site_symmetry_multiplicity
 _atom_site_fract_x
 _atom_site_fract_y
 _atom_site_fract_z
 _atom_site_occupancy
  Sm  Sm0  1  0.606791  0.606791  0.188103  1
  Sm  Sm1  1  0.393269  0.393269  0.825757  1
  Ru  Ru2  1  0.840898  0.840898  0.315108  1
  W  W3  1  0.160866  0.160866  0.676427  1
  C  C4  1  0.750263  0.750263  0.726032  1
  C  C5  1  0.247867  0.247867  0.275052  1
  C  C6  1  0.000047  0.000047  0.993521  1
