# generated using pymatgen
data_La20Si15Tc
_symmetry_space_group_name_H-M   'P 1'
_cell_length_a   8.01096464
_cell_length_b   8.00814925
_cell_length_c   15.54995422
_cell_angle_alpha   89.64845509
_cell_angle_beta   89.81064186
_cell_angle_gamma   89.72256850
_symmetry_Int_Tables_number   1
_chemical_formula_structural   La20Si15Tc
_chemical_formula_sum   'La20 Si15 Tc1'
_cell_volume   997.54039833
_cell_formula_units_Z   1
loop_
 _symmetry_equiv_pos_site_id
 _symmetry_equiv_pos_as_xyz
  1  'x, y, z'
loop_
 _atom_site_type_symbol
 _atom_site_label
 _atom_site_symmetry_multiplicity
 _atom_site_fract_x
 _atom_site_fract_y
 _atom_site_fract_z
 _atom_site_occupancy
  La  La0  1  0.175206  0.191393  0.001223  1
  La  La1  1  0.515207  0.882246  0.053499  1
  La  La2  1  0.534715  0.359235  0.120219  1
  La  La3  1  0.969999  0.888630  0.121530  1
  La  La4  1  0.993488  0.381435  0.197319  1
  La  La5  1  0.301648  0.689541  0.247662  1
  La  La6  1  0.626532  0.011192  0.300259  1
  La  La7  1  0.126615  0.020711  0.373215  1
  La  La8  1  0.624911  0.482584  0.376128  1
  La  La9  1  0.121873  0.488419  0.448851  1
  La  La10  1  0.807162  0.807939  0.500148  1
  La  La11  1  0.489280  0.122029  0.551659  1
  La  La12  1  0.482509  0.629014  0.623531  1
  La  La13  1  0.018896  0.126733  0.625848  1
  La  La14  1  0.011005  0.624074  0.699051  1
  La  La15  1  0.694255  0.304406  0.752160  1
  La  La16  1  0.376312  0.988690  0.802134  1
  La  La17  1  0.869470  0.981897  0.877220  1
  La  La18  1  0.372315  0.517269  0.875015  1
  La  La19  1  0.872593  0.500263  0.952489  1
  Si  Si20  1  0.219342  0.584563  0.058279  1
  Si  Si21  1  0.295742  0.077414  0.191548  1
  Si  Si22  1  0.696170  0.670056  0.204267  1
  Si  Si23  1  0.334932  0.301731  0.296327  1
  Si  Si24  1  0.918427  0.715122  0.308208  1
  Si  Si25  1  0.419000  0.788295  0.439842  1
  Si  Si26  1  0.831366  0.196877  0.453891  1
  Si  Si27  1  0.194463  0.830619  0.545237  1
  Si  Si28  1  0.788979  0.420290  0.558972  1
  Si  Si29  1  0.711449  0.920689  0.692155  1
  Si  Si30  1  0.302626  0.333043  0.701857  1
  Si  Si31  1  0.668060  0.694872  0.797132  1
  Si  Si32  1  0.080337  0.288461  0.807929  1
  Si  Si33  1  0.580370  0.209692  0.938508  1
  Si  Si34  1  0.169401  0.801664  0.952025  1
  Tc  Tc35  1  0.805337  0.168905  0.054662  1
