# generated using pymatgen
data_Sr6TbDy(CoO6)2
_symmetry_space_group_name_H-M   'P 1'
_cell_length_a   6.78514090
_cell_length_b   6.78395813
_cell_length_c   6.78449016
_cell_angle_alpha   92.46765068
_cell_angle_beta   92.49318727
_cell_angle_gamma   92.47953405
_symmetry_Int_Tables_number   1
_chemical_formula_structural   Sr6TbDy(CoO6)2
_chemical_formula_sum   'Sr6 Tb1 Dy1 Co2 O12'
_cell_volume   311.38704859
_cell_formula_units_Z   1
loop_
 _symmetry_equiv_pos_site_id
 _symmetry_equiv_pos_as_xyz
  1  'x, y, z'
loop_
 _atom_site_type_symbol
 _atom_site_label
 _atom_site_symmetry_multiplicity
 _atom_site_fract_x
 _atom_site_fract_y
 _atom_site_fract_z
 _atom_site_occupancy
  Sr  Sr0  1  0.881825  0.249717  0.618142  1
  Sr  Sr1  1  0.249856  0.618906  0.881076  1
  Sr  Sr2  1  0.618316  0.881580  0.250294  1
  Sr  Sr3  1  0.750168  0.381130  0.118711  1
  Sr  Sr4  1  0.381573  0.118563  0.749634  1
  Sr  Sr5  1  0.118314  0.750392  0.381458  1
  Tb  Tb6  1  0.749804  0.749482  0.750705  1
  Dy  Dy7  1  0.250256  0.250591  0.249228  1
  Co  Co8  1  0.999937  0.000338  0.000159  1
  Co  Co9  1  0.500075  0.499661  0.499874  1
  O  O10  1  0.219086  0.413659  0.544545  1
  O  O11  1  0.414269  0.545683  0.218718  1
  O  O12  1  0.545074  0.218643  0.413261  1
  O  O13  1  0.914588  0.718908  0.047071  1
  O  O14  1  0.718259  0.045641  0.915115  1
  O  O15  1  0.045605  0.914272  0.718796  1
  O  O16  1  0.781606  0.585285  0.454493  1
  O  O17  1  0.585517  0.452834  0.781315  1
  O  O18  1  0.453672  0.780828  0.586223  1
  O  O19  1  0.085708  0.281563  0.954333  1
  O  O20  1  0.281128  0.955487  0.085713  1
  O  O21  1  0.955365  0.086837  0.281136  1
