# generated using pymatgen
data_Ho5Lu3(BeB14)2
_symmetry_space_group_name_H-M   'P 1'
_cell_length_a   7.16617381
_cell_length_b   7.16850181
_cell_length_c   7.32923100
_cell_angle_alpha   90.00000000
_cell_angle_beta   90.00000000
_cell_angle_gamma   89.88178454
_symmetry_Int_Tables_number   1
_chemical_formula_structural   Ho5Lu3(BeB14)2
_chemical_formula_sum   'Ho5 Lu3 Be2 B28'
_cell_volume   376.50714529
_cell_formula_units_Z   1
loop_
 _symmetry_equiv_pos_site_id
 _symmetry_equiv_pos_as_xyz
  1  'x, y, z'
loop_
 _atom_site_type_symbol
 _atom_site_label
 _atom_site_symmetry_multiplicity
 _atom_site_fract_x
 _atom_site_fract_y
 _atom_site_fract_z
 _atom_site_occupancy
  Ho  Ho0  1  0.694965  0.170564  0.500000  1
  Ho  Ho1  1  0.305138  0.829511  0.500000  1
  Ho  Ho2  1  0.804259  0.670987  0.000000  1
  Ho  Ho3  1  0.829104  0.695055  0.500000  1
  Ho  Ho4  1  0.170986  0.304799  0.500000  1
  Lu  Lu5  1  0.195299  0.329655  0.000000  1
  Lu  Lu6  1  0.669842  0.194508  0.000000  1
  Lu  Lu7  1  0.329457  0.804783  0.000000  1
  Be  Be8  1  0.000839  0.001460  0.000000  1
  Be  Be9  1  0.499897  0.499942  0.500000  1
  B  B10  1  0.174877  0.039003  0.224817  1
  B  B11  1  0.961365  0.174811  0.224982  1
  B  B12  1  0.040101  0.826161  0.225838  1
  B  B13  1  0.673999  0.460691  0.271154  1
  B  B14  1  0.324959  0.538073  0.270757  1
  B  B15  1  0.825925  0.962361  0.225482  1
  B  B16  1  0.537873  0.674133  0.270565  1
  B  B17  1  0.461210  0.324962  0.270522  1
  B  B18  1  0.825925  0.962361  0.774518  1
  B  B19  1  0.040101  0.826161  0.774162  1
  B  B20  1  0.961365  0.174811  0.775018  1
  B  B21  1  0.324959  0.538073  0.729243  1
  B  B22  1  0.673999  0.460691  0.728846  1
  B  B23  1  0.174877  0.039003  0.775183  1
  B  B24  1  0.461210  0.324962  0.729478  1
  B  B25  1  0.537873  0.674133  0.729435  1
  B  B26  1  0.088396  0.587786  0.247416  1
  B  B27  1  0.412034  0.088312  0.246629  1
  B  B28  1  0.587999  0.911667  0.246689  1
  B  B29  1  0.911855  0.411713  0.248049  1
  B  B30  1  0.911855  0.411713  0.751951  1
  B  B31  1  0.587999  0.911667  0.753311  1
  B  B32  1  0.412034  0.088312  0.753371  1
  B  B33  1  0.088396  0.587786  0.752584  1
  B  B34  1  0.000489  0.000484  0.387032  1
  B  B35  1  0.499027  0.499211  0.111396  1
  B  B36  1  0.000489  0.000484  0.612968  1
  B  B37  1  0.499027  0.499211  0.888604  1
