# generated using pymatgen
data_CeY5Si2(Pd3Pt2)2
_symmetry_space_group_name_H-M   'P 1'
_cell_length_a   8.24280889
_cell_length_b   8.24994217
_cell_length_c   8.24280810
_cell_angle_alpha   127.60292278
_cell_angle_beta   125.44074531
_cell_angle_gamma   79.02331372
_symmetry_Int_Tables_number   1
_chemical_formula_structural   CeY5Si2(Pd3Pt2)2
_chemical_formula_sum   'Ce1 Y5 Si2 Pd6 Pt4'
_cell_volume   350.01774076
_cell_formula_units_Z   1
loop_
 _symmetry_equiv_pos_site_id
 _symmetry_equiv_pos_as_xyz
  1  'x, y, z'
loop_
 _atom_site_type_symbol
 _atom_site_label
 _atom_site_symmetry_multiplicity
 _atom_site_fract_x
 _atom_site_fract_y
 _atom_site_fract_z
 _atom_site_occupancy
  Ce  Ce0  1  0.613388  0.750000  0.863388  1
  Y  Y1  1  0.226445  0.444128  0.772997  1
  Y  Y2  1  0.772822  0.543988  0.219180  1
  Y  Y3  1  0.828869  0.055872  0.782317  1
  Y  Y4  1  0.175192  0.956012  0.228834  1
  Y  Y5  1  0.392349  0.250000  0.142349  1
  Si  Si6  1  0.784782  0.250000  0.534782  1
  Si  Si7  1  0.215040  0.750000  0.465040  1
  Pd  Pd8  1  0.999966  0.502834  0.000452  1
  Pd  Pd9  1  0.997618  0.997166  0.497132  1
  Pd  Pd10  1  0.456670  0.689040  0.355943  1
  Pd  Pd11  1  0.542703  0.896851  0.227609  1
  Pd  Pd12  1  0.166902  0.810960  0.767630  1
  Pd  Pd13  1  0.830758  0.603149  0.645853  1
  Pt  Pt14  1  0.168151  0.403895  0.358220  1
  Pt  Pt15  1  0.829082  0.185284  0.230222  1
  Pt  Pt16  1  0.454325  0.096105  0.764257  1
  Pt  Pt17  1  0.544938  0.314716  0.643798  1
