# generated using pymatgen
data_Dy2Zn2HgPb
_symmetry_space_group_name_H-M   'P 1'
_cell_length_a   4.64911000
_cell_length_b   4.64910832
_cell_length_c   14.92629500
_cell_angle_alpha   90.00000000
_cell_angle_beta   90.00000000
_cell_angle_gamma   119.99999774
_symmetry_Int_Tables_number   1
_chemical_formula_structural   Dy2Zn2HgPb
_chemical_formula_sum   'Dy4 Zn4 Hg2 Pb2'
_cell_volume   279.39726398
_cell_formula_units_Z   2
loop_
 _symmetry_equiv_pos_site_id
 _symmetry_equiv_pos_as_xyz
  1  'x, y, z'
loop_
 _atom_site_type_symbol
 _atom_site_label
 _atom_site_symmetry_multiplicity
 _atom_site_fract_x
 _atom_site_fract_y
 _atom_site_fract_z
 _atom_site_occupancy
  Dy  Dy0  1  0.000000  0.000000  0.014113  1
  Dy  Dy1  1  0.000000  0.000000  0.250000  1
  Dy  Dy2  1  0.000000  0.000000  0.485887  1
  Dy  Dy3  1  0.000000  0.000000  0.750000  1
  Zn  Zn4  1  0.666666  0.333334  0.118426  1
  Zn  Zn5  1  0.666666  0.333334  0.381574  1
  Zn  Zn6  1  0.333334  0.666668  0.660486  1
  Zn  Zn7  1  0.333334  0.666668  0.839514  1
  Hg  Hg8  1  0.333334  0.666668  0.139361  1
  Hg  Hg9  1  0.333334  0.666668  0.360639  1
  Pb  Pb10  1  0.666666  0.333334  0.603596  1
  Pb  Pb11  1  0.666666  0.333334  0.896404  1
