# generated using pymatgen
data_ThU(SbAs)2
_symmetry_space_group_name_H-M   'P 1'
_cell_length_a   4.21072400
_cell_length_b   4.21072400
_cell_length_c   8.55665500
_cell_angle_alpha   90.00000000
_cell_angle_beta   90.00000000
_cell_angle_gamma   90.00000000
_symmetry_Int_Tables_number   1
_chemical_formula_structural   ThU(SbAs)2
_chemical_formula_sum   'Th1 U1 Sb2 As2'
_cell_volume   151.71117542
_cell_formula_units_Z   1
loop_
 _symmetry_equiv_pos_site_id
 _symmetry_equiv_pos_as_xyz
  1  'x, y, z'
loop_
 _atom_site_type_symbol
 _atom_site_label
 _atom_site_symmetry_multiplicity
 _atom_site_fract_x
 _atom_site_fract_y
 _atom_site_fract_z
 _atom_site_occupancy
  Th  Th0  1  0.000000  0.500000  0.699840  1
  U  U1  1  0.500000  0.000000  0.300209  1
  Sb  Sb2  1  0.500000  0.500000  0.008271  1
  Sb  Sb3  1  0.000000  0.000000  0.008271  1
  As  As4  1  0.000000  0.500000  0.349404  1
  As  As5  1  0.500000  0.000000  0.634004  1
