# generated using pymatgen
data_La3Sm5(Er3Si4)4
_symmetry_space_group_name_H-M   'P 1'
_cell_length_a   7.72471959
_cell_length_b   7.72617865
_cell_length_c   14.29154908
_cell_angle_alpha   89.98477954
_cell_angle_beta   89.94067168
_cell_angle_gamma   90.04432449
_symmetry_Int_Tables_number   1
_chemical_formula_structural   La3Sm5(Er3Si4)4
_chemical_formula_sum   'La3 Sm5 Er12 Si16'
_cell_volume   852.95554367
_cell_formula_units_Z   1
loop_
 _symmetry_equiv_pos_site_id
 _symmetry_equiv_pos_as_xyz
  1  'x, y, z'
loop_
 _atom_site_type_symbol
 _atom_site_label
 _atom_site_symmetry_multiplicity
 _atom_site_fract_x
 _atom_site_fract_y
 _atom_site_fract_z
 _atom_site_occupancy
  La  La0  1  0.510057  0.141379  0.207441  1
  La  La1  1  0.490250  0.857213  0.709522  1
  La  La2  1  0.357364  0.009105  0.458282  1
  Sm  Sm3  1  0.992479  0.640169  0.041267  1
  Sm  Sm4  1  0.006625  0.361497  0.543240  1
  Sm  Sm5  1  0.640742  0.993678  0.957967  1
  Sm  Sm6  1  0.138542  0.507620  0.793055  1
  Sm  Sm7  1  0.861645  0.491850  0.292078  1
  Er  Er8  1  0.361221  0.490672  0.375266  1
  Er  Er9  1  0.861415  0.007253  0.374492  1
  Er  Er10  1  0.990949  0.137286  0.124107  1
  Er  Er11  1  0.007847  0.861009  0.626339  1
  Er  Er12  1  0.638915  0.510398  0.875762  1
  Er  Er13  1  0.492435  0.361177  0.625028  1
  Er  Er14  1  0.509112  0.638644  0.123255  1
  Er  Er15  1  0.137412  0.993621  0.875207  1
  Er  Er16  1  0.684575  0.680892  0.500165  1
  Er  Er17  1  0.817238  0.184189  0.750714  1
  Er  Er18  1  0.181857  0.815114  0.249582  1
  Er  Er19  1  0.316470  0.318049  0.999972  1
  Si  Si20  1  0.061013  0.706716  0.437827  1
  Si  Si21  1  0.937312  0.291951  0.937738  1
  Si  Si22  1  0.714766  0.067913  0.561753  1
  Si  Si23  1  0.207010  0.439055  0.187263  1
  Si  Si24  1  0.792462  0.561873  0.688441  1
  Si  Si25  1  0.434036  0.214014  0.812557  1
  Si  Si26  1  0.568082  0.783966  0.311383  1
  Si  Si27  1  0.288459  0.933946  0.060833  1
  Si  Si28  1  0.848649  0.797253  0.812851  1
  Si  Si29  1  0.149472  0.205278  0.309065  1
  Si  Si30  1  0.801192  0.841148  0.189316  1
  Si  Si31  1  0.293840  0.649255  0.560064  1
  Si  Si32  1  0.704265  0.347244  0.058578  1
  Si  Si33  1  0.657929  0.299741  0.439984  1
  Si  Si34  1  0.344536  0.702330  0.939259  1
  Si  Si35  1  0.199827  0.157504  0.690348  1
