# generated using pymatgen
data_YTmLuFe9
_symmetry_space_group_name_H-M   'P 1'
_cell_length_a   5.07386900
_cell_length_b   5.07386836
_cell_length_c   16.02534100
_cell_angle_alpha   90.00000000
_cell_angle_beta   90.00000000
_cell_angle_gamma   119.99999765
_symmetry_Int_Tables_number   1
_chemical_formula_structural   YTmLuFe9
_chemical_formula_sum   'Y2 Tm2 Lu2 Fe18'
_cell_volume   357.28630288
_cell_formula_units_Z   2
loop_
 _symmetry_equiv_pos_site_id
 _symmetry_equiv_pos_as_xyz
  1  'x, y, z'
loop_
 _atom_site_type_symbol
 _atom_site_label
 _atom_site_symmetry_multiplicity
 _atom_site_fract_x
 _atom_site_fract_y
 _atom_site_fract_z
 _atom_site_occupancy
  Y  Y0  1  0.333333  0.666667  0.749976  1
  Y  Y1  1  0.666667  0.333333  0.250024  1
  Tm  Tm2  1  0.333333  0.666667  0.963399  1
  Tm  Tm3  1  0.666667  0.333333  0.036601  1
  Lu  Lu4  1  0.666667  0.333333  0.463436  1
  Lu  Lu5  1  0.333333  0.666667  0.536564  1
  Fe  Fe6  1  0.167409  0.832591  0.373786  1
  Fe  Fe7  1  0.167409  0.334818  0.373786  1
  Fe  Fe8  1  0.665182  0.832591  0.373786  1
  Fe  Fe9  1  0.832591  0.167409  0.626214  1
  Fe  Fe10  1  0.832591  0.665182  0.626214  1
  Fe  Fe11  1  0.334818  0.167409  0.626214  1
  Fe  Fe12  1  0.832643  0.167357  0.873684  1
  Fe  Fe13  1  0.832643  0.665286  0.873684  1
  Fe  Fe14  1  0.334714  0.167357  0.873684  1
  Fe  Fe15  1  0.167357  0.832643  0.126316  1
  Fe  Fe16  1  0.167357  0.334714  0.126316  1
  Fe  Fe17  1  0.665286  0.832643  0.126316  1
  Fe  Fe18  1  0.333333  0.666667  0.249975  1
  Fe  Fe19  1  0.666667  0.333333  0.750025  1
  Fe  Fe20  1  0.000000  0.000000  0.249987  1
  Fe  Fe21  1  0.000000  0.000000  0.750013  1
  Fe  Fe22  1  0.000000  0.000000  0.500000  1
  Fe  Fe23  1  0.000000  0.000000  0.000000  1
