# generated using pymatgen
data_Tm4Lu4VB24Ir2Rh
_symmetry_space_group_name_H-M   'P 1'
_cell_length_a   3.59702900
_cell_length_b   9.08996742
_cell_length_c   11.42188000
_cell_angle_alpha   90.10204238
_cell_angle_beta   90.00000000
_cell_angle_gamma   90.00000000
_symmetry_Int_Tables_number   1
_chemical_formula_structural   Tm4Lu4VB24Ir2Rh
_chemical_formula_sum   'Tm4 Lu4 V1 B24 Ir2 Rh1'
_cell_volume   373.45920639
_cell_formula_units_Z   1
loop_
 _symmetry_equiv_pos_site_id
 _symmetry_equiv_pos_as_xyz
  1  'x, y, z'
loop_
 _atom_site_type_symbol
 _atom_site_label
 _atom_site_symmetry_multiplicity
 _atom_site_fract_x
 _atom_site_fract_y
 _atom_site_fract_z
 _atom_site_occupancy
  Tm  Tm0  1  0.500000  0.322037  0.418687  1
  Tm  Tm1  1  0.500000  0.675111  0.586994  1
  Tm  Tm2  1  0.500000  0.183874  0.909437  1
  Tm  Tm3  1  0.500000  0.820713  0.084979  1
  Lu  Lu4  1  0.500000  0.445042  0.128384  1
  Lu  Lu5  1  0.500000  0.552594  0.872846  1
  Lu  Lu6  1  0.500000  0.057399  0.625203  1
  Lu  Lu7  1  0.500000  0.942218  0.373277  1
  V  V8  1  0.500000  0.361463  0.679304  1
  B  B9  1  0.000000  0.104189  0.469784  1
  B  B10  1  0.000000  0.892976  0.528538  1
  B  B11  1  0.000000  0.394733  0.972453  1
  B  B12  1  0.000000  0.605770  0.029591  1
  B  B13  1  0.000000  0.131047  0.316912  1
  B  B14  1  0.000000  0.868089  0.683827  1
  B  B15  1  0.000000  0.368565  0.816511  1
  B  B16  1  0.000000  0.632711  0.183174  1
  B  B17  1  0.000000  0.054213  0.065101  1
  B  B18  1  0.000000  0.947322  0.933857  1
  B  B19  1  0.000000  0.447968  0.565825  1
  B  B20  1  0.000000  0.552264  0.434044  1
  B  B21  1  0.000000  0.481293  0.288220  1
  B  B22  1  0.000000  0.519068  0.713564  1
  B  B23  1  0.000000  0.019146  0.786892  1
  B  B24  1  0.000000  0.981641  0.212392  1
  B  B25  1  0.000000  0.251409  0.079243  1
  B  B26  1  0.000000  0.749063  0.920667  1
  B  B27  1  0.000000  0.249555  0.579264  1
  B  B28  1  0.000000  0.749330  0.420223  1
  B  B29  1  0.000000  0.292940  0.235876  1
  B  B30  1  0.000000  0.706587  0.765714  1
  B  B31  1  0.000000  0.205466  0.735615  1
  B  B32  1  0.000000  0.794318  0.263656  1
  Ir  Ir33  1  0.500000  0.138500  0.178397  1
  Ir  Ir34  1  0.500000  0.861738  0.821830  1
  Rh  Rh35  1  0.500000  0.639647  0.319718  1
