# generated using pymatgen
data_Pr8Ga3Os
_symmetry_space_group_name_H-M   'P 1'
_cell_length_a   10.48739000
_cell_length_b   10.48739036
_cell_length_c   7.33471700
_cell_angle_alpha   90.00000000
_cell_angle_beta   90.00000000
_cell_angle_gamma   120.00000517
_symmetry_Int_Tables_number   1
_chemical_formula_structural   Pr8Ga3Os
_chemical_formula_sum   'Pr16 Ga6 Os2'
_cell_volume   698.63256159
_cell_formula_units_Z   2
loop_
 _symmetry_equiv_pos_site_id
 _symmetry_equiv_pos_as_xyz
  1  'x, y, z'
loop_
 _atom_site_type_symbol
 _atom_site_label
 _atom_site_symmetry_multiplicity
 _atom_site_fract_x
 _atom_site_fract_y
 _atom_site_fract_z
 _atom_site_occupancy
  Pr  Pr0  1  0.170285  0.829715  0.986917  1
  Pr  Pr1  1  0.340569  0.170285  0.486917  1
  Pr  Pr2  1  0.829715  0.659431  0.486917  1
  Pr  Pr3  1  0.170285  0.340569  0.986917  1
  Pr  Pr4  1  0.659431  0.829715  0.986917  1
  Pr  Pr5  1  0.829715  0.170285  0.486917  1
  Pr  Pr6  1  0.333333  0.666667  0.663867  1
  Pr  Pr7  1  0.666667  0.333333  0.163867  1
  Pr  Pr8  1  0.462447  0.537553  0.295826  1
  Pr  Pr9  1  0.924893  0.462447  0.795826  1
  Pr  Pr10  1  0.537553  0.075107  0.795826  1
  Pr  Pr11  1  0.462447  0.924893  0.295826  1
  Pr  Pr12  1  0.075107  0.537553  0.295826  1
  Pr  Pr13  1  0.537553  0.462447  0.795826  1
  Pr  Pr14  1  0.000000  0.000000  0.269133  1
  Pr  Pr15  1  0.000000  0.000000  0.769133  1
  Ga  Ga16  1  0.164390  0.835610  0.544335  1
  Ga  Ga17  1  0.328778  0.164390  0.044335  1
  Ga  Ga18  1  0.835610  0.671222  0.044335  1
  Ga  Ga19  1  0.164390  0.328778  0.544335  1
  Ga  Ga20  1  0.671222  0.835610  0.544335  1
  Ga  Ga21  1  0.835610  0.164390  0.044335  1
  Os  Os22  1  0.333333  0.666667  0.048763  1
  Os  Os23  1  0.666667  0.333333  0.548763  1
