# generated using pymatgen
data_Rb6Gd(AsBr6)3
_symmetry_space_group_name_H-M   'P 1'
_cell_length_a   7.76089900
_cell_length_b   7.76089952
_cell_length_c   19.74938700
_cell_angle_alpha   90.00000000
_cell_angle_beta   90.00000000
_cell_angle_gamma   120.00000205
_symmetry_Int_Tables_number   1
_chemical_formula_structural   Rb6Gd(AsBr6)3
_chemical_formula_sum   'Rb6 Gd1 As3 Br18'
_cell_volume   1030.16866347
_cell_formula_units_Z   1
loop_
 _symmetry_equiv_pos_site_id
 _symmetry_equiv_pos_as_xyz
  1  'x, y, z'
loop_
 _atom_site_type_symbol
 _atom_site_label
 _atom_site_symmetry_multiplicity
 _atom_site_fract_x
 _atom_site_fract_y
 _atom_site_fract_z
 _atom_site_occupancy
  Rb  Rb0  1  0.333333  0.666667  0.071337  1
  Rb  Rb1  1  0.666667  0.333333  0.930543  1
  Rb  Rb2  1  0.666667  0.333333  0.570318  1
  Rb  Rb3  1  0.333333  0.666667  0.412863  1
  Rb  Rb4  1  0.000000  0.000000  0.251311  1
  Rb  Rb5  1  0.000000  0.000000  0.764170  1
  Gd  Gd6  1  0.333333  0.666667  0.840351  1
  As  As7  1  0.333333  0.666667  0.648642  1
  As  As8  1  0.666667  0.333333  0.343193  1
  As  As9  1  0.666667  0.333333  0.158065  1
  Br  Br10  1  0.174018  0.348034  0.582221  1
  Br  Br11  1  0.826396  0.652789  0.413961  1
  Br  Br12  1  0.651966  0.825982  0.582221  1
  Br  Br13  1  0.824987  0.649973  0.089189  1
  Br  Br14  1  0.347211  0.173604  0.413961  1
  Br  Br15  1  0.163509  0.327019  0.918420  1
  Br  Br16  1  0.174018  0.825982  0.582221  1
  Br  Br17  1  0.350027  0.175013  0.089189  1
  Br  Br18  1  0.826396  0.173604  0.413961  1
  Br  Br19  1  0.672981  0.836491  0.918420  1
  Br  Br20  1  0.824987  0.175013  0.089189  1
  Br  Br21  1  0.163509  0.836491  0.918420  1
  Br  Br22  1  0.502585  0.005172  0.252924  1
  Br  Br23  1  0.499403  0.998807  0.746354  1
  Br  Br24  1  0.994828  0.497415  0.252924  1
  Br  Br25  1  0.001193  0.500597  0.746354  1
  Br  Br26  1  0.502585  0.497415  0.252924  1
  Br  Br27  1  0.499403  0.500597  0.746354  1
