# generated using pymatgen
data_Pa3Al3PtRh2
_symmetry_space_group_name_H-M   'P 1'
_cell_length_a   7.03264500
_cell_length_b   7.03264419
_cell_length_c   8.24976900
_cell_angle_alpha   90.00000000
_cell_angle_beta   90.00000000
_cell_angle_gamma   120.00000852
_symmetry_Int_Tables_number   1
_chemical_formula_structural   Pa3Al3PtRh2
_chemical_formula_sum   'Pa6 Al6 Pt2 Rh4'
_cell_volume   353.35376489
_cell_formula_units_Z   2
loop_
 _symmetry_equiv_pos_site_id
 _symmetry_equiv_pos_as_xyz
  1  'x, y, z'
loop_
 _atom_site_type_symbol
 _atom_site_label
 _atom_site_symmetry_multiplicity
 _atom_site_fract_x
 _atom_site_fract_y
 _atom_site_fract_z
 _atom_site_occupancy
  Pa  Pa0  1  0.000459  0.581522  0.744522  1
  Pa  Pa1  1  0.999541  0.581063  0.255478  1
  Pa  Pa2  1  0.581522  0.000459  0.255478  1
  Pa  Pa3  1  0.581063  0.999541  0.744522  1
  Pa  Pa4  1  0.418937  0.418478  0.255478  1
  Pa  Pa5  1  0.418478  0.418937  0.744522  1
  Al  Al6  1  0.000000  0.234980  0.500000  1
  Al  Al7  1  0.762380  0.762380  0.000000  1
  Al  Al8  1  0.000000  0.237620  0.000000  1
  Al  Al9  1  0.234980  0.000000  0.500000  1
  Al  Al10  1  0.237620  0.000000  0.000000  1
  Al  Al11  1  0.765020  0.765020  0.500000  1
  Pt  Pt12  1  0.666667  0.333333  0.999501  1
  Pt  Pt13  1  0.333333  0.666667  0.000499  1
  Rh  Rh14  1  0.333333  0.666667  0.499710  1
  Rh  Rh15  1  0.666667  0.333333  0.500290  1
  Rh  Rh16  1  0.000000  0.000000  0.248375  1
  Rh  Rh17  1  0.000000  0.000000  0.751625  1
