# generated using pymatgen
data_Dy3Ho3Al24Ru7Au
_symmetry_space_group_name_H-M   'P 1'
_cell_length_a   8.84555460
_cell_length_b   8.84452026
_cell_length_c   9.56103301
_cell_angle_alpha   89.85830149
_cell_angle_beta   90.13790735
_cell_angle_gamma   119.90718192
_symmetry_Int_Tables_number   1
_chemical_formula_structural   Dy3Ho3Al24Ru7Au
_chemical_formula_sum   'Dy3 Ho3 Al24 Ru7 Au1'
_cell_volume   648.39328166
_cell_formula_units_Z   1
loop_
 _symmetry_equiv_pos_site_id
 _symmetry_equiv_pos_as_xyz
  1  'x, y, z'
loop_
 _atom_site_type_symbol
 _atom_site_label
 _atom_site_symmetry_multiplicity
 _atom_site_fract_x
 _atom_site_fract_y
 _atom_site_fract_z
 _atom_site_occupancy
  Dy  Dy0  1  0.192370  0.386233  0.249757  1
  Dy  Dy1  1  0.807586  0.613734  0.750229  1
  Dy  Dy2  1  0.613760  0.807632  0.249769  1
  Ho  Ho3  1  0.386408  0.192411  0.750255  1
  Ho  Ho4  1  0.194473  0.805506  0.253135  1
  Ho  Ho5  1  0.805513  0.194467  0.746891  1
  Al  Al6  1  0.328104  0.671890  0.022644  1
  Al  Al7  1  0.671803  0.328072  0.977301  1
  Al  Al8  1  0.666623  0.333251  0.517085  1
  Al  Al9  1  0.333292  0.666705  0.482957  1
  Al  Al10  1  0.162286  0.324045  0.578247  1
  Al  Al11  1  0.837759  0.675935  0.421786  1
  Al  Al12  1  0.675948  0.837769  0.578224  1
  Al  Al13  1  0.849182  0.678309  0.080186  1
  Al  Al14  1  0.324066  0.162234  0.421839  1
  Al  Al15  1  0.150848  0.321678  0.919775  1
  Al  Al16  1  0.162647  0.837462  0.578911  1
  Al  Al17  1  0.321694  0.150815  0.080136  1
  Al  Al18  1  0.837393  0.162607  0.421119  1
  Al  Al19  1  0.678320  0.849183  0.919795  1
  Al  Al20  1  0.837416  0.162582  0.078085  1
  Al  Al21  1  0.162625  0.837485  0.921876  1
  Al  Al22  1  0.560602  0.121032  0.248453  1
  Al  Al23  1  0.439371  0.879088  0.751534  1
  Al  Al24  1  0.878984  0.439404  0.248460  1
  Al  Al25  1  0.121032  0.560608  0.751535  1
  Al  Al26  1  0.563681  0.436311  0.255624  1
  Al  Al27  1  0.436302  0.563564  0.744378  1
  Al  Al28  1  0.999447  0.000552  0.250132  1
  Al  Al29  1  0.000651  0.999505  0.749863  1
  Ru  Ru30  1  0.499968  0.000053  0.999936  1
  Ru  Ru31  1  0.999967  0.499981  0.999988  1
  Ru  Ru32  1  0.499977  0.000046  0.500044  1
  Ru  Ru33  1  0.999944  0.499974  0.500018  1
  Ru  Ru34  1  0.499962  0.499902  0.500065  1
  Ru  Ru35  1  0.000004  0.000001  0.999987  1
  Ru  Ru36  1  0.000006  0.000003  0.500012  1
  Au  Au37  1  0.499984  0.499972  0.999968  1
