# generated using pymatgen
data_CaDyTm2(ReN3)4
_symmetry_space_group_name_H-M   'P 1'
_cell_length_a   7.35543231
_cell_length_b   7.35543348
_cell_length_c   6.24662572
_cell_angle_alpha   73.30297791
_cell_angle_beta   73.30297165
_cell_angle_gamma   82.68502897
_symmetry_Int_Tables_number   1
_chemical_formula_structural   CaDyTm2(ReN3)4
_chemical_formula_sum   'Ca1 Dy1 Tm2 Re4 N12'
_cell_volume   309.69037439
_cell_formula_units_Z   1
loop_
 _symmetry_equiv_pos_site_id
 _symmetry_equiv_pos_as_xyz
  1  'x, y, z'
loop_
 _atom_site_type_symbol
 _atom_site_label
 _atom_site_symmetry_multiplicity
 _atom_site_fract_x
 _atom_site_fract_y
 _atom_site_fract_z
 _atom_site_occupancy
  Ca  Ca0  1  0.708809  0.291191  0.250000  1
  Dy  Dy1  1  0.288972  0.711028  0.750000  1
  Tm  Tm2  1  0.909669  0.090331  0.750000  1
  Tm  Tm3  1  0.091248  0.908752  0.250000  1
  Re  Re4  1  0.622403  0.795162  0.273574  1
  Re  Re5  1  0.204838  0.377597  0.226426  1
  Re  Re6  1  0.378074  0.202005  0.727401  1
  Re  Re7  1  0.797995  0.621926  0.772599  1
  N  N8  1  0.335477  0.366272  0.923806  1
  N  N9  1  0.013631  0.212678  0.346725  1
  N  N10  1  0.787322  0.986369  0.153275  1
  N  N11  1  0.214682  0.004662  0.843969  1
  N  N12  1  0.659909  0.642690  0.068348  1
  N  N13  1  0.879367  0.378298  0.820844  1
  N  N14  1  0.126599  0.627072  0.165134  1
  N  N15  1  0.995338  0.785318  0.656031  1
  N  N16  1  0.372928  0.873401  0.334866  1
  N  N17  1  0.633728  0.664523  0.576194  1
  N  N18  1  0.621702  0.120633  0.679156  1
  N  N19  1  0.357310  0.340091  0.431652  1
