# generated using pymatgen
data_AlGa3Ru2
_symmetry_space_group_name_H-M   'P 1'
_cell_length_a   6.02391089
_cell_length_b   5.00207586
_cell_length_c   4.75144905
_cell_angle_alpha   76.23595032
_cell_angle_beta   53.89970602
_cell_angle_gamma   50.00623985
_symmetry_Int_Tables_number   1
_chemical_formula_structural   AlGa3Ru2
_chemical_formula_sum   'Al1 Ga3 Ru2'
_cell_volume   86.30265528
_cell_formula_units_Z   1
loop_
 _symmetry_equiv_pos_site_id
 _symmetry_equiv_pos_as_xyz
  1  'x, y, z'
loop_
 _atom_site_type_symbol
 _atom_site_label
 _atom_site_symmetry_multiplicity
 _atom_site_fract_x
 _atom_site_fract_y
 _atom_site_fract_z
 _atom_site_occupancy
  Al  Al0  1  0.329022  0.670978  0.329022  1
  Ga  Ga1  1  0.579844  0.920156  0.579844  1
  Ga  Ga2  1  0.919168  0.580832  0.919168  1
  Ga  Ga3  1  0.670234  0.329766  0.670234  1
  Ru  Ru4  1  0.251664  0.248336  0.251664  1
  Ru  Ru5  1  0.000068  0.999932  0.000068  1
