# generated using pymatgen
data_Tb4Dy11Lu(CdCo)4
_symmetry_space_group_name_H-M   'P 1'
_cell_length_a   9.47840934
_cell_length_b   9.47807053
_cell_length_c   9.50308743
_cell_angle_alpha   59.93867635
_cell_angle_beta   59.90092604
_cell_angle_gamma   59.83402348
_symmetry_Int_Tables_number   1
_chemical_formula_structural   Tb4Dy11Lu(CdCo)4
_chemical_formula_sum   'Tb4 Dy11 Lu1 Cd4 Co4'
_cell_volume   602.18662271
_cell_formula_units_Z   1
loop_
 _symmetry_equiv_pos_site_id
 _symmetry_equiv_pos_as_xyz
  1  'x, y, z'
loop_
 _atom_site_type_symbol
 _atom_site_label
 _atom_site_symmetry_multiplicity
 _atom_site_fract_x
 _atom_site_fract_y
 _atom_site_fract_z
 _atom_site_occupancy
  Tb  Tb0  1  0.188847  0.810588  0.188014  1
  Tb  Tb1  1  0.596760  0.596904  0.209658  1
  Tb  Tb2  1  0.188432  0.188482  0.811237  1
  Tb  Tb3  1  0.063458  0.436702  0.061729  1
  Dy  Dy4  1  0.595604  0.595423  0.597521  1
  Dy  Dy5  1  0.188989  0.811267  0.812637  1
  Dy  Dy6  1  0.061545  0.061510  0.436940  1
  Dy  Dy7  1  0.437031  0.063435  0.061725  1
  Dy  Dy8  1  0.811221  0.188846  0.813033  1
  Dy  Dy9  1  0.438051  0.062650  0.436370  1
  Dy  Dy10  1  0.597155  0.210868  0.597243  1
  Dy  Dy11  1  0.811231  0.811769  0.189151  1
  Dy  Dy12  1  0.211056  0.597054  0.596892  1
  Dy  Dy13  1  0.810242  0.189058  0.188184  1
  Dy  Dy14  1  0.062422  0.437850  0.436803  1
  Lu  Lu15  1  0.438520  0.437956  0.060765  1
  Cd  Cd16  1  0.830320  0.830595  0.507941  1
  Cd  Cd17  1  0.829940  0.830186  0.830042  1
  Cd  Cd18  1  0.508230  0.829365  0.830452  1
  Cd  Cd19  1  0.829289  0.507941  0.830672  1
  Co  Co20  1  0.391034  0.390760  0.390788  1
  Co  Co21  1  0.827334  0.391586  0.391896  1
  Co  Co22  1  0.391639  0.827604  0.391828  1
  Co  Co23  1  0.391647  0.391596  0.828480  1
