# generated using pymatgen
data_GaSb11(PtRh)2
_symmetry_space_group_name_H-M   'P 1'
_cell_length_a   8.13581813
_cell_length_b   8.12399151
_cell_length_c   8.13399255
_cell_angle_alpha   109.22920574
_cell_angle_beta   109.56893521
_cell_angle_gamma   109.71202713
_symmetry_Int_Tables_number   1
_chemical_formula_structural   GaSb11(PtRh)2
_chemical_formula_sum   'Ga1 Sb11 Pt2 Rh2'
_cell_volume   413.35971088
_cell_formula_units_Z   1
loop_
 _symmetry_equiv_pos_site_id
 _symmetry_equiv_pos_as_xyz
  1  'x, y, z'
loop_
 _atom_site_type_symbol
 _atom_site_label
 _atom_site_symmetry_multiplicity
 _atom_site_fract_x
 _atom_site_fract_y
 _atom_site_fract_z
 _atom_site_occupancy
  Ga  Ga0  1  0.163937  0.823721  0.668330  1
  Sb  Sb1  1  0.845372  0.191250  0.339453  1
  Sb  Sb2  1  0.864287  0.520551  0.661891  1
  Sb  Sb3  1  0.152876  0.512278  0.352192  1
  Sb  Sb4  1  0.814059  0.654570  0.153258  1
  Sb  Sb5  1  0.182656  0.338403  0.847070  1
  Sb  Sb6  1  0.500286  0.660917  0.845855  1
  Sb  Sb7  1  0.490895  0.332095  0.149077  1
  Sb  Sb8  1  0.659126  0.150853  0.816069  1
  Sb  Sb9  1  0.332419  0.840999  0.174857  1
  Sb  Sb10  1  0.656529  0.844782  0.502636  1
  Sb  Sb11  1  0.344236  0.146482  0.496708  1
  Pt  Pt12  1  0.002035  0.996375  0.501539  1
  Pt  Pt13  1  0.498268  0.494394  0.498390  1
  Rh  Rh14  1  0.497286  0.997824  0.997293  1
  Rh  Rh15  1  0.995733  0.494507  0.995383  1
