# generated using pymatgen
data_YHo5Al24CuRu7
_symmetry_space_group_name_H-M   'P 1'
_cell_length_a   8.80951960
_cell_length_b   8.80941778
_cell_length_c   9.53596462
_cell_angle_alpha   89.76897490
_cell_angle_beta   90.22326756
_cell_angle_gamma   119.72183261
_symmetry_Int_Tables_number   1
_chemical_formula_structural   YHo5Al24CuRu7
_chemical_formula_sum   'Y1 Ho5 Al24 Cu1 Ru7'
_cell_volume   642.68866996
_cell_formula_units_Z   1
loop_
 _symmetry_equiv_pos_site_id
 _symmetry_equiv_pos_as_xyz
  1  'x, y, z'
loop_
 _atom_site_type_symbol
 _atom_site_label
 _atom_site_symmetry_multiplicity
 _atom_site_fract_x
 _atom_site_fract_y
 _atom_site_fract_z
 _atom_site_occupancy
  Y  Y0  1  0.191902  0.386285  0.248765  1
  Ho  Ho1  1  0.807997  0.613232  0.751119  1
  Ho  Ho2  1  0.613441  0.808201  0.248895  1
  Ho  Ho3  1  0.386749  0.191980  0.751087  1
  Ho  Ho4  1  0.194765  0.805464  0.251231  1
  Ho  Ho5  1  0.805241  0.194769  0.748779  1
  Al  Al6  1  0.332237  0.668098  0.020604  1
  Al  Al7  1  0.667837  0.332170  0.979142  1
  Al  Al8  1  0.666483  0.333530  0.516566  1
  Al  Al9  1  0.333617  0.666674  0.483633  1
  Al  Al10  1  0.163410  0.324554  0.578379  1
  Al  Al11  1  0.836604  0.675451  0.421879  1
  Al  Al12  1  0.675458  0.836568  0.578190  1
  Al  Al13  1  0.843319  0.676287  0.079475  1
  Al  Al14  1  0.324664  0.163289  0.421983  1
  Al  Al15  1  0.156645  0.323691  0.920266  1
  Al  Al16  1  0.162648  0.837297  0.578142  1
  Al  Al17  1  0.323796  0.156544  0.079374  1
  Al  Al18  1  0.837119  0.162584  0.422024  1
  Al  Al19  1  0.676301  0.843316  0.920470  1
  Al  Al20  1  0.836591  0.163099  0.077311  1
  Al  Al21  1  0.163168  0.836786  0.922515  1
  Al  Al22  1  0.560914  0.122069  0.248472  1
  Al  Al23  1  0.439060  0.877884  0.751536  1
  Al  Al24  1  0.877678  0.439161  0.248475  1
  Al  Al25  1  0.122118  0.560952  0.751529  1
  Al  Al26  1  0.561426  0.438971  0.249859  1
  Al  Al27  1  0.438890  0.561105  0.750176  1
  Al  Al28  1  0.998947  0.000154  0.250151  1
  Al  Al29  1  0.000739  0.999207  0.749839  1
  Cu  Cu30  1  0.500094  0.500046  0.999943  1
  Ru  Ru31  1  0.500062  0.000078  0.999965  1
  Ru  Ru32  1  0.999906  0.500071  0.999844  1
  Ru  Ru33  1  0.500062  0.000092  0.500045  1
  Ru  Ru34  1  0.999864  0.500068  0.500209  1
  Ru  Ru35  1  0.500142  0.500071  0.500156  1
  Ru  Ru36  1  0.000050  0.000076  0.000058  1
  Ru  Ru37  1  0.000057  0.000124  0.499912  1
