# generated using pymatgen
data_Ta4Nb11Co8RuN4
_symmetry_space_group_name_H-M   'P 1'
_cell_length_a   8.21216598
_cell_length_b   8.21216683
_cell_length_c   8.21457716
_cell_angle_alpha   59.50796959
_cell_angle_beta   59.50796693
_cell_angle_gamma   59.49357610
_symmetry_Int_Tables_number   1
_chemical_formula_structural   Ta4Nb11Co8RuN4
_chemical_formula_sum   'Ta4 Nb11 Co8 Ru1 N4'
_cell_volume   387.30280979
_cell_formula_units_Z   1
loop_
 _symmetry_equiv_pos_site_id
 _symmetry_equiv_pos_as_xyz
  1  'x, y, z'
loop_
 _atom_site_type_symbol
 _atom_site_label
 _atom_site_symmetry_multiplicity
 _atom_site_fract_x
 _atom_site_fract_y
 _atom_site_fract_z
 _atom_site_occupancy
  Ta  Ta0  1  0.124882  0.625612  0.625066  1
  Ta  Ta1  1  0.625612  0.124882  0.625066  1
  Ta  Ta2  1  0.624898  0.624898  0.124270  1
  Ta  Ta3  1  0.806625  0.806625  0.197265  1
  Nb  Nb4  1  0.185014  0.185014  0.814498  1
  Nb  Nb5  1  0.807162  0.196253  0.807422  1
  Nb  Nb6  1  0.184957  0.815014  0.184480  1
  Nb  Nb7  1  0.196253  0.807162  0.807422  1
  Nb  Nb8  1  0.815014  0.184957  0.184480  1
  Nb  Nb9  1  0.441817  0.441817  0.054364  1
  Nb  Nb10  1  0.065607  0.065607  0.434821  1
  Nb  Nb11  1  0.442606  0.053431  0.443809  1
  Nb  Nb12  1  0.064996  0.435142  0.064831  1
  Nb  Nb13  1  0.053431  0.442606  0.443809  1
  Nb  Nb14  1  0.435142  0.064996  0.064831  1
  Co  Co15  1  0.732788  0.425886  0.423428  1
  Co  Co16  1  0.425886  0.732788  0.423428  1
  Co  Co17  1  0.424779  0.424779  0.732497  1
  Co  Co18  1  0.418092  0.418092  0.418276  1
  Co  Co19  1  0.517875  0.825328  0.824783  1
  Co  Co20  1  0.825328  0.517875  0.824783  1
  Co  Co21  1  0.825663  0.825663  0.516046  1
  Co  Co22  1  0.832009  0.832009  0.834111  1
  Ru  Ru23  1  0.625551  0.625551  0.623928  1
  N  N24  1  0.626380  0.121947  0.125957  1
  N  N25  1  0.121947  0.626380  0.125957  1
  N  N26  1  0.124847  0.124847  0.625387  1
  N  N27  1  0.124839  0.124839  0.124987  1
