# generated using pymatgen
data_Sm2Er4FeI10
_symmetry_space_group_name_H-M   'P 1'
_cell_length_a   7.72271396
_cell_length_b   9.73400274
_cell_length_c   9.58265054
_cell_angle_alpha   106.56793440
_cell_angle_beta   95.97353754
_cell_angle_gamma   105.09910466
_symmetry_Int_Tables_number   1
_chemical_formula_structural   Sm2Er4FeI10
_chemical_formula_sum   'Sm2 Er4 Fe1 I10'
_cell_volume   654.11437298
_cell_formula_units_Z   1
loop_
 _symmetry_equiv_pos_site_id
 _symmetry_equiv_pos_as_xyz
  1  'x, y, z'
loop_
 _atom_site_type_symbol
 _atom_site_label
 _atom_site_symmetry_multiplicity
 _atom_site_fract_x
 _atom_site_fract_y
 _atom_site_fract_z
 _atom_site_occupancy
  Sm  Sm0  1  0.892225  0.959931  0.220409  1
  Sm  Sm1  1  0.107775  0.040069  0.779591  1
  Er  Er2  1  0.029818  0.716190  0.914618  1
  Er  Er3  1  0.970182  0.283810  0.085382  1
  Er  Er4  1  0.654360  0.876668  0.835151  1
  Er  Er5  1  0.345640  0.123332  0.164849  1
  Fe  Fe6  1  0.000000  0.000000  0.000000  1
  I  I7  1  0.650396  0.551396  0.729147  1
  I  I8  1  0.349604  0.448604  0.270853  1
  I  I9  1  0.739797  0.911950  0.543225  1
  I  I10  1  0.260203  0.088050  0.456775  1
  I  I11  1  0.085369  0.373825  0.820803  1
  I  I12  1  0.914631  0.626175  0.179197  1
  I  I13  1  0.454003  0.816923  0.092845  1
  I  I14  1  0.545997  0.183077  0.907155  1
  I  I15  1  0.222915  0.741758  0.656121  1
  I  I16  1  0.777085  0.258242  0.343879  1
