# generated using pymatgen
data_Hf4Zr(Re7Tc5)2
_symmetry_space_group_name_H-M   'P 1'
_cell_length_a   8.46635075
_cell_length_b   8.46635051
_cell_length_c   8.46187505
_cell_angle_alpha   109.46632562
_cell_angle_beta   109.46632679
_cell_angle_gamma   109.57824221
_symmetry_Int_Tables_number   1
_chemical_formula_structural   Hf4Zr(Re7Tc5)2
_chemical_formula_sum   'Hf4 Zr1 Re14 Tc10'
_cell_volume   466.35277207
_cell_formula_units_Z   1
loop_
 _symmetry_equiv_pos_site_id
 _symmetry_equiv_pos_as_xyz
  1  'x, y, z'
loop_
 _atom_site_type_symbol
 _atom_site_label
 _atom_site_symmetry_multiplicity
 _atom_site_fract_x
 _atom_site_fract_y
 _atom_site_fract_z
 _atom_site_occupancy
  Hf  Hf0  1  0.625560  0.999940  0.000282  1
  Hf  Hf1  1  0.999940  0.625560  0.000282  1
  Hf  Hf2  1  0.999217  0.999217  0.625023  1
  Hf  Hf3  1  0.374047  0.374047  0.372163  1
  Zr  Zr4  1  0.999329  0.999329  0.999660  1
  Re  Re5  1  0.279130  0.603795  0.603815  1
  Re  Re6  1  0.603795  0.279130  0.603815  1
  Re  Re7  1  0.376525  0.194638  0.999826  1
  Re  Re8  1  0.180662  0.806010  0.805762  1
  Re  Re9  1  0.376639  0.001067  0.195354  1
  Re  Re10  1  0.194638  0.376525  0.999826  1
  Re  Re11  1  0.001067  0.376639  0.195354  1
  Re  Re12  1  0.806010  0.180662  0.805762  1
  Re  Re13  1  0.805266  0.805266  0.181774  1
  Re  Re14  1  0.000958  0.194971  0.377020  1
  Re  Re15  1  0.194971  0.000958  0.377020  1
  Re  Re16  1  0.622833  0.622833  0.817580  1
  Re  Re17  1  0.816338  0.622762  0.622788  1
  Re  Re18  1  0.622762  0.816338  0.622788  1
  Tc  Tc19  1  0.396395  0.678040  0.000262  1
  Tc  Tc20  1  0.720105  0.323317  0.322288  1
  Tc  Tc21  1  0.396974  0.000481  0.677347  1
  Tc  Tc22  1  0.678040  0.396395  0.000262  1
  Tc  Tc23  1  0.000481  0.396974  0.677347  1
  Tc  Tc24  1  0.323317  0.720105  0.322288  1
  Tc  Tc25  1  0.322963  0.322963  0.720686  1
  Tc  Tc26  1  0.001155  0.677229  0.396875  1
  Tc  Tc27  1  0.677229  0.001155  0.396875  1
  Tc  Tc28  1  0.603654  0.603654  0.279878  1
