# generated using pymatgen
data_Ho3Lu2CoSb2
_symmetry_space_group_name_H-M   'P 1'
_cell_length_a   7.75022400
_cell_length_b   8.76016300
_cell_length_c   12.10593400
_cell_angle_alpha   90.00000000
_cell_angle_beta   90.00000000
_cell_angle_gamma   90.00000000
_symmetry_Int_Tables_number   1
_chemical_formula_structural   Ho3Lu2CoSb2
_chemical_formula_sum   'Ho12 Lu8 Co4 Sb8'
_cell_volume   821.91090727
_cell_formula_units_Z   4
loop_
 _symmetry_equiv_pos_site_id
 _symmetry_equiv_pos_as_xyz
  1  'x, y, z'
loop_
 _atom_site_type_symbol
 _atom_site_label
 _atom_site_symmetry_multiplicity
 _atom_site_fract_x
 _atom_site_fract_y
 _atom_site_fract_z
 _atom_site_occupancy
  Ho  Ho0  1  0.155483  0.750000  0.204111  1
  Ho  Ho1  1  0.655483  0.250000  0.295889  1
  Ho  Ho2  1  0.844517  0.250000  0.795889  1
  Ho  Ho3  1  0.344517  0.750000  0.704111  1
  Ho  Ho4  1  0.450919  0.750000  0.997737  1
  Ho  Ho5  1  0.950919  0.250000  0.502263  1
  Ho  Ho6  1  0.549081  0.250000  0.002263  1
  Ho  Ho7  1  0.049081  0.750000  0.497737  1
  Ho  Ho8  1  0.623121  0.750000  0.308464  1
  Ho  Ho9  1  0.123121  0.250000  0.191536  1
  Ho  Ho10  1  0.376879  0.250000  0.691536  1
  Ho  Ho11  1  0.876879  0.750000  0.808464  1
  Lu  Lu12  1  0.825153  0.962968  0.065105  1
  Lu  Lu13  1  0.325153  0.037032  0.434895  1
  Lu  Lu14  1  0.174847  0.462968  0.934895  1
  Lu  Lu15  1  0.674847  0.537032  0.565105  1
  Lu  Lu16  1  0.174847  0.037032  0.934895  1
  Lu  Lu17  1  0.674847  0.962968  0.565105  1
  Lu  Lu18  1  0.825153  0.537032  0.065105  1
  Lu  Lu19  1  0.325153  0.462968  0.434895  1
  Co  Co20  1  0.432956  0.750000  0.490928  1
  Co  Co21  1  0.932956  0.250000  0.009072  1
  Co  Co22  1  0.567044  0.250000  0.509072  1
  Co  Co23  1  0.067044  0.750000  0.990928  1
  Sb  Sb24  1  0.931420  0.991914  0.327299  1
  Sb  Sb25  1  0.431420  0.008086  0.172701  1
  Sb  Sb26  1  0.068580  0.491914  0.672701  1
  Sb  Sb27  1  0.568580  0.508086  0.827299  1
  Sb  Sb28  1  0.068580  0.008086  0.672701  1
  Sb  Sb29  1  0.568580  0.991914  0.827299  1
  Sb  Sb30  1  0.931420  0.508086  0.327299  1
  Sb  Sb31  1  0.431420  0.491914  0.172701  1
