# generated using pymatgen
data_Ta5Be3SiW
_symmetry_space_group_name_H-M   'P 1'
_cell_length_a   6.51727261
_cell_length_b   6.52730121
_cell_length_c   3.36897900
_cell_angle_alpha   90.00000000
_cell_angle_beta   90.00000000
_cell_angle_gamma   89.84416649
_symmetry_Int_Tables_number   1
_chemical_formula_structural   Ta5Be3SiW
_chemical_formula_sum   'Ta5 Be3 Si1 W1'
_cell_volume   143.31651495
_cell_formula_units_Z   1
loop_
 _symmetry_equiv_pos_site_id
 _symmetry_equiv_pos_as_xyz
  1  'x, y, z'
loop_
 _atom_site_type_symbol
 _atom_site_label
 _atom_site_symmetry_multiplicity
 _atom_site_fract_x
 _atom_site_fract_y
 _atom_site_fract_z
 _atom_site_occupancy
  Ta  Ta0  1  0.998440  0.003734  0.000000  1
  Ta  Ta1  1  0.674621  0.181740  0.500000  1
  Ta  Ta2  1  0.332003  0.826462  0.500000  1
  Ta  Ta3  1  0.183398  0.316592  0.500000  1
  Ta  Ta4  1  0.810613  0.675492  0.500000  1
  Be  Be5  1  0.877780  0.379734  0.000000  1
  Be  Be6  1  0.615160  0.884810  0.000000  1
  Be  Be7  1  0.386570  0.116880  0.000000  1
  Si  Si8  1  0.117406  0.616334  0.000000  1
  W  W9  1  0.504010  0.498223  0.000000  1
