# generated using pymatgen
data_Dy11Y5Cd3AgIr4
_symmetry_space_group_name_H-M   'P 1'
_cell_length_a   9.65184960
_cell_length_b   9.64731127
_cell_length_c   9.64731085
_cell_angle_alpha   59.89857241
_cell_angle_beta   59.88287006
_cell_angle_gamma   59.88287788
_symmetry_Int_Tables_number   1
_chemical_formula_structural   Dy11Y5Cd3AgIr4
_chemical_formula_sum   'Dy11 Y5 Cd3 Ag1 Ir4'
_cell_volume   633.58393073
_cell_formula_units_Z   1
loop_
 _symmetry_equiv_pos_site_id
 _symmetry_equiv_pos_as_xyz
  1  'x, y, z'
loop_
 _atom_site_type_symbol
 _atom_site_label
 _atom_site_symmetry_multiplicity
 _atom_site_fract_x
 _atom_site_fract_y
 _atom_site_fract_z
 _atom_site_occupancy
  Dy  Dy0  1  0.348730  0.348851  0.348851  1
  Dy  Dy1  1  0.349280  0.349512  0.953705  1
  Dy  Dy2  1  0.349280  0.953705  0.349512  1
  Dy  Dy3  1  0.953954  0.349262  0.349262  1
  Dy  Dy4  1  0.810222  0.189617  0.189617  1
  Dy  Dy5  1  0.187375  0.809592  0.809592  1
  Dy  Dy6  1  0.189335  0.810241  0.189774  1
  Dy  Dy7  1  0.809532  0.187553  0.809592  1
  Dy  Dy8  1  0.189335  0.189774  0.810241  1
  Dy  Dy9  1  0.809532  0.809592  0.187553  1
  Dy  Dy10  1  0.937944  0.560395  0.560395  1
  Y  Y11  1  0.561116  0.937189  0.937189  1
  Y  Y12  1  0.561273  0.937623  0.560688  1
  Y  Y13  1  0.936904  0.561273  0.936766  1
  Y  Y14  1  0.561273  0.560688  0.937623  1
  Y  Y15  1  0.936904  0.936766  0.561273  1
  Cd  Cd16  1  0.581730  0.581565  0.258175  1
  Cd  Cd17  1  0.581730  0.258175  0.581565  1
  Cd  Cd18  1  0.257929  0.581652  0.581652  1
  Ag  Ag19  1  0.583278  0.582825  0.582825  1
  Ir  Ir20  1  0.141839  0.141579  0.141579  1
  Ir  Ir21  1  0.142881  0.143519  0.575857  1
  Ir  Ir22  1  0.142881  0.575857  0.143519  1
  Ir  Ir23  1  0.575746  0.143196  0.143196  1
