# generated using pymatgen
data_CCl8
_symmetry_space_group_name_H-M   'P 1'
_cell_length_a   6.20955148
_cell_length_b   6.05972159
_cell_length_c   11.18476015
_cell_angle_alpha   94.20384327
_cell_angle_beta   93.75708476
_cell_angle_gamma   109.76022487
_symmetry_Int_Tables_number   1
_chemical_formula_structural   CCl8
_chemical_formula_sum   'C1 Cl8'
_cell_volume   393.18128078
_cell_formula_units_Z   1
loop_
 _symmetry_equiv_pos_site_id
 _symmetry_equiv_pos_as_xyz
  1  'x, y, z'
loop_
 _atom_site_type_symbol
 _atom_site_label
 _atom_site_symmetry_multiplicity
 _atom_site_fract_x
 _atom_site_fract_y
 _atom_site_fract_z
 _atom_site_occupancy
  C  C0  1  0.003664  0.547848  0.536098  1
  Cl  Cl1  1  0.256564  0.734842  0.481983  1
  Cl  Cl2  1  0.831806  0.712931  0.582276  1
  Cl  Cl3  1  0.846331  0.322279  0.420222  1
  Cl  Cl4  1  0.444585  0.382172  0.181922  1
  Cl  Cl5  1  0.743716  0.983675  0.945577  1
  Cl  Cl6  1  0.079467  0.411695  0.660583  1
  Cl  Cl7  1  0.160616  0.403094  0.096475  1
  Cl  Cl8  1  0.469985  0.784436  0.832736  1
