# generated using pymatgen
data_TbMnAgPt3
_symmetry_space_group_name_H-M   'P 1'
_cell_length_a   5.20696362
_cell_length_b   5.20696513
_cell_length_c   5.20696480
_cell_angle_alpha   63.53512804
_cell_angle_beta   63.53511436
_cell_angle_gamma   63.53511457
_symmetry_Int_Tables_number   1
_chemical_formula_structural   TbMnAgPt3
_chemical_formula_sum   'Tb1 Mn1 Ag1 Pt3'
_cell_volume   107.62633913
_cell_formula_units_Z   1
loop_
 _symmetry_equiv_pos_site_id
 _symmetry_equiv_pos_as_xyz
  1  'x, y, z'
loop_
 _atom_site_type_symbol
 _atom_site_label
 _atom_site_symmetry_multiplicity
 _atom_site_fract_x
 _atom_site_fract_y
 _atom_site_fract_z
 _atom_site_occupancy
  Tb  Tb0  1  0.004122  0.004122  0.004122  1
  Mn  Mn1  1  0.623230  0.623230  0.623230  1
  Ag  Ag2  1  0.251513  0.251513  0.251513  1
  Pt  Pt3  1  0.623046  0.623046  0.125043  1
  Pt  Pt4  1  0.623046  0.125043  0.623046  1
  Pt  Pt5  1  0.125043  0.623046  0.623046  1
