# generated using pymatgen
data_DyEr15(CdRh)4
_symmetry_space_group_name_H-M   'P 1'
_cell_length_a   9.53333699
_cell_length_b   9.53674041
_cell_length_c   9.53333739
_cell_angle_alpha   59.98818770
_cell_angle_beta   59.97086656
_cell_angle_gamma   59.98818718
_symmetry_Int_Tables_number   1
_chemical_formula_structural   DyEr15(CdRh)4
_chemical_formula_sum   'Dy1 Er15 Cd4 Rh4'
_cell_volume   612.63475160
_cell_formula_units_Z   1
loop_
 _symmetry_equiv_pos_site_id
 _symmetry_equiv_pos_as_xyz
  1  'x, y, z'
loop_
 _atom_site_type_symbol
 _atom_site_label
 _atom_site_symmetry_multiplicity
 _atom_site_fract_x
 _atom_site_fract_y
 _atom_site_fract_z
 _atom_site_occupancy
  Dy  Dy0  1  0.564167  0.935833  0.564167  1
  Er  Er1  1  0.563739  0.562907  0.937081  1
  Er  Er2  1  0.149890  0.549668  0.149890  1
  Er  Er3  1  0.688415  0.311902  0.311577  1
  Er  Er4  1  0.937081  0.562907  0.563739  1
  Er  Er5  1  0.936227  0.563773  0.936227  1
  Er  Er6  1  0.688415  0.688106  0.311577  1
  Er  Er7  1  0.563739  0.936273  0.937081  1
  Er  Er8  1  0.149890  0.150553  0.149890  1
  Er  Er9  1  0.311580  0.688420  0.311580  1
  Er  Er10  1  0.549050  0.150329  0.150292  1
  Er  Er11  1  0.311577  0.311902  0.688415  1
  Er  Er12  1  0.311577  0.688106  0.688415  1
  Er  Er13  1  0.150292  0.150329  0.549050  1
  Er  Er14  1  0.688501  0.311499  0.688501  1
  Er  Er15  1  0.937081  0.936273  0.563739  1
  Cd  Cd16  1  0.918781  0.918361  0.918781  1
  Cd  Cd17  1  0.242770  0.918868  0.919493  1
  Cd  Cd18  1  0.919493  0.918868  0.242770  1
  Cd  Cd19  1  0.918781  0.244076  0.918781  1
  Rh  Rh20  1  0.356792  0.357463  0.928282  1
  Rh  Rh21  1  0.356939  0.357763  0.356939  1
  Rh  Rh22  1  0.928282  0.357463  0.356792  1
  Rh  Rh23  1  0.356939  0.928357  0.356939  1
