# generated using pymatgen
data_Ac2Te3
_symmetry_space_group_name_H-M   'P 1'
_cell_length_a   4.70452800
_cell_length_b   12.48564000
_cell_length_c   12.93958400
_cell_angle_alpha   90.00000000
_cell_angle_beta   90.00000000
_cell_angle_gamma   90.00000000
_symmetry_Int_Tables_number   1
_chemical_formula_structural   Ac2Te3
_chemical_formula_sum   'Ac8 Te12'
_cell_volume   760.05878069
_cell_formula_units_Z   4
loop_
 _symmetry_equiv_pos_site_id
 _symmetry_equiv_pos_as_xyz
  1  'x, y, z'
loop_
 _atom_site_type_symbol
 _atom_site_label
 _atom_site_symmetry_multiplicity
 _atom_site_fract_x
 _atom_site_fract_y
 _atom_site_fract_z
 _atom_site_occupancy
  Ac  Ac0  1  0.250000  0.501882  0.693908  1
  Ac  Ac1  1  0.750000  0.498118  0.306092  1
  Ac  Ac2  1  0.750000  0.001882  0.806092  1
  Ac  Ac3  1  0.250000  0.998118  0.193908  1
  Ac  Ac4  1  0.250000  0.186446  0.510632  1
  Ac  Ac5  1  0.750000  0.813554  0.489368  1
  Ac  Ac6  1  0.750000  0.686446  0.989368  1
  Ac  Ac7  1  0.250000  0.313554  0.010632  1
  Te  Te8  1  0.250000  0.875450  0.953535  1
  Te  Te9  1  0.750000  0.124550  0.046465  1
  Te  Te10  1  0.750000  0.375450  0.546465  1
  Te  Te11  1  0.250000  0.624550  0.453535  1
  Te  Te12  1  0.250000  0.198691  0.773180  1
  Te  Te13  1  0.750000  0.801309  0.226820  1
  Te  Te14  1  0.750000  0.698691  0.726820  1
  Te  Te15  1  0.250000  0.301309  0.273180  1
  Te  Te16  1  0.250000  0.557436  0.121136  1
  Te  Te17  1  0.750000  0.442564  0.878864  1
  Te  Te18  1  0.750000  0.057436  0.378864  1
  Te  Te19  1  0.250000  0.942564  0.621136  1
