# generated using pymatgen
data_Lu2HgRh4Pb
_symmetry_space_group_name_H-M   'P 1'
_cell_length_a   6.18407800
_cell_length_b   6.18440231
_cell_length_c   7.19532300
_cell_angle_alpha   90.00007412
_cell_angle_beta   90.00032428
_cell_angle_gamma   90.11885515
_symmetry_Int_Tables_number   1
_chemical_formula_structural   Lu2HgRh4Pb
_chemical_formula_sum   'Lu4 Hg2 Rh8 Pb2'
_cell_volume   275.18328583
_cell_formula_units_Z   2
loop_
 _symmetry_equiv_pos_site_id
 _symmetry_equiv_pos_as_xyz
  1  'x, y, z'
loop_
 _atom_site_type_symbol
 _atom_site_label
 _atom_site_symmetry_multiplicity
 _atom_site_fract_x
 _atom_site_fract_y
 _atom_site_fract_z
 _atom_site_occupancy
  Lu  Lu0  1  0.249998  0.249995  0.999931  1
  Lu  Lu1  1  0.750000  0.750010  0.999928  1
  Lu  Lu2  1  0.250008  0.250000  0.500062  1
  Lu  Lu3  1  0.749996  0.749996  0.500074  1
  Hg  Hg4  1  0.749988  0.250017  0.000087  1
  Hg  Hg5  1  0.250002  0.750014  0.000097  1
  Rh  Rh6  1  0.999995  0.499999  0.254533  1
  Rh  Rh7  1  0.999996  0.000014  0.254588  1
  Rh  Rh8  1  0.500004  0.500007  0.254620  1
  Rh  Rh9  1  0.500016  0.000006  0.254549  1
  Rh  Rh10  1  0.499991  0.499996  0.745370  1
  Rh  Rh11  1  0.499985  0.999994  0.745445  1
  Rh  Rh12  1  0.000011  0.499993  0.745470  1
  Rh  Rh13  1  0.000014  0.999990  0.745420  1
  Pb  Pb14  1  0.749720  0.249956  0.499933  1
  Pb  Pb15  1  0.250275  0.750014  0.499890  1
