# generated using pymatgen
data_Pa(FeAs3)4
_symmetry_space_group_name_H-M   'P 1'
_cell_length_a   7.19895302
_cell_length_b   7.19895388
_cell_length_c   7.19895400
_cell_angle_alpha   109.47121817
_cell_angle_beta   109.47122058
_cell_angle_gamma   109.47122624
_symmetry_Int_Tables_number   1
_chemical_formula_structural   Pa(FeAs3)4
_chemical_formula_sum   'Pa1 Fe4 As12'
_cell_volume   287.20118115
_cell_formula_units_Z   1
loop_
 _symmetry_equiv_pos_site_id
 _symmetry_equiv_pos_as_xyz
  1  'x, y, z'
loop_
 _atom_site_type_symbol
 _atom_site_label
 _atom_site_symmetry_multiplicity
 _atom_site_fract_x
 _atom_site_fract_y
 _atom_site_fract_z
 _atom_site_occupancy
  Pa  Pa0  1  0.000000  0.000000  0.000000  1
  Fe  Fe1  1  0.500000  0.500000  0.500000  1
  Fe  Fe2  1  0.500000  0.000000  0.000000  1
  Fe  Fe3  1  0.000000  0.500000  0.000000  1
  Fe  Fe4  1  0.000000  0.000000  0.500000  1
  As  As5  1  0.843929  0.659342  0.503269  1
  As  As6  1  0.156071  0.340658  0.496731  1
  As  As7  1  0.156071  0.659342  0.815413  1
  As  As8  1  0.843929  0.340658  0.184587  1
  As  As9  1  0.659342  0.503269  0.843929  1
  As  As10  1  0.340658  0.496731  0.156071  1
  As  As11  1  0.659342  0.815413  0.156071  1
  As  As12  1  0.340658  0.184587  0.843929  1
  As  As13  1  0.503269  0.843929  0.659342  1
  As  As14  1  0.496731  0.156071  0.340658  1
  As  As15  1  0.184587  0.843929  0.340658  1
  As  As16  1  0.815413  0.156071  0.659342  1
