# generated using pymatgen
data_Pr2Sc3Sn3Hg
_symmetry_space_group_name_H-M   'P 1'
_cell_length_a   7.68915800
_cell_length_b   8.10180400
_cell_length_c   14.90441700
_cell_angle_alpha   90.00000000
_cell_angle_beta   90.00000000
_cell_angle_gamma   90.00000000
_symmetry_Int_Tables_number   1
_chemical_formula_structural   Pr2Sc3Sn3Hg
_chemical_formula_sum   'Pr8 Sc12 Sn12 Hg4'
_cell_volume   928.48632217
_cell_formula_units_Z   4
loop_
 _symmetry_equiv_pos_site_id
 _symmetry_equiv_pos_as_xyz
  1  'x, y, z'
loop_
 _atom_site_type_symbol
 _atom_site_label
 _atom_site_symmetry_multiplicity
 _atom_site_fract_x
 _atom_site_fract_y
 _atom_site_fract_z
 _atom_site_occupancy
  Pr  Pr0  1  0.506588  0.319344  0.908352  1
  Pr  Pr1  1  0.006588  0.180656  0.591648  1
  Pr  Pr2  1  0.493412  0.680656  0.408352  1
  Pr  Pr3  1  0.993412  0.819344  0.091648  1
  Pr  Pr4  1  0.493412  0.680656  0.091648  1
  Pr  Pr5  1  0.993412  0.819344  0.408352  1
  Pr  Pr6  1  0.506588  0.319344  0.591648  1
  Pr  Pr7  1  0.006588  0.180656  0.908352  1
  Sc  Sc8  1  0.341020  0.834706  0.871871  1
  Sc  Sc9  1  0.841020  0.665294  0.628129  1
  Sc  Sc10  1  0.658980  0.165294  0.371871  1
  Sc  Sc11  1  0.158980  0.334706  0.128129  1
  Sc  Sc12  1  0.658980  0.165294  0.128129  1
  Sc  Sc13  1  0.158980  0.334706  0.371871  1
  Sc  Sc14  1  0.341020  0.834706  0.628129  1
  Sc  Sc15  1  0.841020  0.665294  0.871871  1
  Sc  Sc16  1  0.181507  0.501497  0.750000  1
  Sc  Sc17  1  0.681507  0.998503  0.750000  1
  Sc  Sc18  1  0.818493  0.498503  0.250000  1
  Sc  Sc19  1  0.318493  0.001497  0.250000  1
  Sn  Sn20  1  0.320060  0.042435  0.043039  1
  Sn  Sn21  1  0.820060  0.457565  0.456961  1
  Sn  Sn22  1  0.679940  0.957565  0.543039  1
  Sn  Sn23  1  0.179940  0.542435  0.956961  1
  Sn  Sn24  1  0.679940  0.957565  0.956961  1
  Sn  Sn25  1  0.179940  0.542435  0.543039  1
  Sn  Sn26  1  0.320060  0.042435  0.456961  1
  Sn  Sn27  1  0.820060  0.457565  0.043039  1
  Sn  Sn28  1  0.307748  0.135362  0.750000  1
  Sn  Sn29  1  0.807748  0.364638  0.750000  1
  Sn  Sn30  1  0.692252  0.864638  0.250000  1
  Sn  Sn31  1  0.192252  0.635362  0.250000  1
  Hg  Hg32  1  0.537829  0.626056  0.750000  1
  Hg  Hg33  1  0.037829  0.873944  0.750000  1
  Hg  Hg34  1  0.462171  0.373944  0.250000  1
  Hg  Hg35  1  0.962171  0.126056  0.250000  1
