# generated using pymatgen
data_Nd3Al12Ru3Au
_symmetry_space_group_name_H-M   'P 1'
_cell_length_a   8.93770700
_cell_length_b   8.98761887
_cell_length_c   9.68481410
_cell_angle_alpha   90.11233537
_cell_angle_beta   90.00000000
_cell_angle_gamma   119.81646798
_symmetry_Int_Tables_number   1
_chemical_formula_structural   Nd3Al12Ru3Au
_chemical_formula_sum   'Nd6 Al24 Ru6 Au2'
_cell_volume   674.98136854
_cell_formula_units_Z   2
loop_
 _symmetry_equiv_pos_site_id
 _symmetry_equiv_pos_as_xyz
  1  'x, y, z'
loop_
 _atom_site_type_symbol
 _atom_site_label
 _atom_site_symmetry_multiplicity
 _atom_site_fract_x
 _atom_site_fract_y
 _atom_site_fract_z
 _atom_site_occupancy
  Nd  Nd0  1  0.190614  0.381228  0.247799  1
  Nd  Nd1  1  0.809386  0.618772  0.752201  1
  Nd  Nd2  1  0.617124  0.809283  0.252383  1
  Nd  Nd3  1  0.382876  0.190717  0.747617  1
  Nd  Nd4  1  0.192159  0.809283  0.252383  1
  Nd  Nd5  1  0.807841  0.190717  0.747617  1
  Al  Al6  1  0.339574  0.679149  0.019605  1
  Al  Al7  1  0.660426  0.320851  0.980395  1
  Al  Al8  1  0.666836  0.333671  0.519763  1
  Al  Al9  1  0.333164  0.666329  0.480237  1
  Al  Al10  1  0.163467  0.326933  0.570604  1
  Al  Al11  1  0.836533  0.673067  0.429396  1
  Al  Al12  1  0.672668  0.836160  0.574796  1
  Al  Al13  1  0.840932  0.681863  0.082336  1
  Al  Al14  1  0.327332  0.163840  0.425204  1
  Al  Al15  1  0.159068  0.318137  0.917664  1
  Al  Al16  1  0.163492  0.836160  0.574796  1
  Al  Al17  1  0.322912  0.150978  0.080628  1
  Al  Al18  1  0.836508  0.163840  0.425204  1
  Al  Al19  1  0.677088  0.849022  0.919372  1
  Al  Al20  1  0.828065  0.150978  0.080628  1
  Al  Al21  1  0.171935  0.849022  0.919372  1
  Al  Al22  1  0.561296  0.122592  0.249898  1
  Al  Al23  1  0.438704  0.877408  0.750102  1
  Al  Al24  1  0.871576  0.434942  0.257514  1
  Al  Al25  1  0.128424  0.565058  0.742486  1
  Al  Al26  1  0.563365  0.434942  0.257514  1
  Al  Al27  1  0.436635  0.565058  0.742486  1
  Al  Al28  1  0.001497  0.002993  0.250927  1
  Al  Al29  1  0.998503  0.997007  0.749073  1
  Ru  Ru30  1  0.500000  0.000000  0.000000  1
  Ru  Ru31  1  0.500000  0.000000  0.500000  1
  Ru  Ru32  1  0.000000  0.500000  0.500000  1
  Ru  Ru33  1  0.500000  0.500000  0.500000  1
  Ru  Ru34  1  0.000000  0.000000  0.000000  1
  Ru  Ru35  1  0.000000  0.000000  0.500000  1
  Au  Au36  1  0.000000  0.500000  0.000000  1
  Au  Au37  1  0.500000  0.500000  0.000000  1
