# generated using pymatgen
data_Ho3Al12(OsRh)2
_symmetry_space_group_name_H-M   'P 1'
_cell_length_a   8.75559200
_cell_length_b   8.82378289
_cell_length_c   9.54862300
_cell_angle_alpha   90.00000000
_cell_angle_beta   90.00000000
_cell_angle_gamma   119.74468478
_symmetry_Int_Tables_number   1
_chemical_formula_structural   Ho3Al12(OsRh)2
_chemical_formula_sum   'Ho6 Al24 Os4 Rh4'
_cell_volume   640.50612820
_cell_formula_units_Z   2
loop_
 _symmetry_equiv_pos_site_id
 _symmetry_equiv_pos_as_xyz
  1  'x, y, z'
loop_
 _atom_site_type_symbol
 _atom_site_label
 _atom_site_symmetry_multiplicity
 _atom_site_fract_x
 _atom_site_fract_y
 _atom_site_fract_z
 _atom_site_occupancy
  Ho  Ho0  1  0.191499  0.382998  0.250000  1
  Ho  Ho1  1  0.808501  0.617002  0.750000  1
  Ho  Ho2  1  0.613108  0.812558  0.250000  1
  Ho  Ho3  1  0.386892  0.187442  0.750000  1
  Ho  Ho4  1  0.199450  0.812558  0.250000  1
  Ho  Ho5  1  0.800550  0.187442  0.750000  1
  Al  Al6  1  0.333691  0.667382  0.025510  1
  Al  Al7  1  0.666309  0.332618  0.974490  1
  Al  Al8  1  0.666309  0.332618  0.525510  1
  Al  Al9  1  0.333691  0.667382  0.474490  1
  Al  Al10  1  0.162856  0.325711  0.577539  1
  Al  Al11  1  0.837144  0.674289  0.422461  1
  Al  Al12  1  0.672147  0.836440  0.577419  1
  Al  Al13  1  0.837144  0.674289  0.077539  1
  Al  Al14  1  0.327853  0.163560  0.422581  1
  Al  Al15  1  0.162856  0.325711  0.922461  1
  Al  Al16  1  0.164293  0.836440  0.577419  1
  Al  Al17  1  0.327853  0.163560  0.077419  1
  Al  Al18  1  0.835707  0.163560  0.422581  1
  Al  Al19  1  0.672147  0.836440  0.922581  1
  Al  Al20  1  0.835707  0.163560  0.077419  1
  Al  Al21  1  0.164293  0.836440  0.922581  1
  Al  Al22  1  0.563641  0.127283  0.250000  1
  Al  Al23  1  0.436359  0.872717  0.750000  1
  Al  Al24  1  0.878284  0.440171  0.250000  1
  Al  Al25  1  0.121716  0.559829  0.750000  1
  Al  Al26  1  0.561885  0.440171  0.250000  1
  Al  Al27  1  0.438115  0.559829  0.750000  1
  Al  Al28  1  0.001259  0.002519  0.250000  1
  Al  Al29  1  0.998741  0.997481  0.750000  1
  Os  Os30  1  0.500000  0.000000  0.000000  1
  Os  Os31  1  0.500000  0.000000  0.500000  1
  Os  Os32  1  0.000000  0.000000  0.000000  1
  Os  Os33  1  0.000000  0.000000  0.500000  1
  Rh  Rh34  1  0.000000  0.500000  0.000000  1
  Rh  Rh35  1  0.500000  0.500000  0.000000  1
  Rh  Rh36  1  0.000000  0.500000  0.500000  1
  Rh  Rh37  1  0.500000  0.500000  0.500000  1
