# generated using pymatgen
data_Tb5Ga6P6Ir19
_symmetry_space_group_name_H-M   'P 1'
_cell_length_a   12.98002100
_cell_length_b   12.98002131
_cell_length_c   3.98629100
_cell_angle_alpha   90.00000000
_cell_angle_beta   90.00000000
_cell_angle_gamma   120.00000175
_symmetry_Int_Tables_number   1
_chemical_formula_structural   Tb5Ga6P6Ir19
_chemical_formula_sum   'Tb5 Ga6 P6 Ir19'
_cell_volume   581.63485455
_cell_formula_units_Z   1
loop_
 _symmetry_equiv_pos_site_id
 _symmetry_equiv_pos_as_xyz
  1  'x, y, z'
loop_
 _atom_site_type_symbol
 _atom_site_label
 _atom_site_symmetry_multiplicity
 _atom_site_fract_x
 _atom_site_fract_y
 _atom_site_fract_z
 _atom_site_occupancy
  Tb  Tb0  1  0.666667  0.333333  0.000000  1
  Tb  Tb1  1  0.333333  0.666667  0.000000  1
  Tb  Tb2  1  0.816583  0.812324  0.500000  1
  Tb  Tb3  1  0.187676  0.004259  0.500000  1
  Tb  Tb4  1  0.995741  0.183417  0.500000  1
  Ga  Ga5  1  0.677142  0.158318  0.500000  1
  Ga  Ga6  1  0.841682  0.518824  0.500000  1
  Ga  Ga7  1  0.481176  0.322858  0.500000  1
  Ga  Ga8  1  0.635100  0.636775  0.000000  1
  Ga  Ga9  1  0.363225  0.998326  0.000000  1
  Ga  Ga10  1  0.001674  0.364900  0.000000  1
  P  P11  1  0.179949  0.697585  0.500000  1
  P  P12  1  0.517634  0.820051  0.500000  1
  P  P13  1  0.302415  0.482366  0.500000  1
  P  P14  1  0.175901  0.181534  0.000000  1
  P  P15  1  0.818466  0.994366  0.000000  1
  P  P16  1  0.005634  0.824099  0.000000  1
  Ir  Ir17  1  0.808644  0.169106  0.000000  1
  Ir  Ir18  1  0.830894  0.639538  0.000000  1
  Ir  Ir19  1  0.360462  0.191356  0.000000  1
  Ir  Ir20  1  0.182028  0.793763  0.000000  1
  Ir  Ir21  1  0.611735  0.817972  0.000000  1
  Ir  Ir22  1  0.206237  0.388265  0.000000  1
  Ir  Ir23  1  0.446336  0.440461  0.000000  1
  Ir  Ir24  1  0.559539  0.005875  0.000000  1
  Ir  Ir25  1  0.994125  0.553664  0.000000  1
  Ir  Ir26  1  0.268366  0.281035  0.500000  1
  Ir  Ir27  1  0.718965  0.987331  0.500000  1
  Ir  Ir28  1  0.012669  0.731634  0.500000  1
  Ir  Ir29  1  0.873095  0.348772  0.500000  1
  Ir  Ir30  1  0.651228  0.524323  0.500000  1
  Ir  Ir31  1  0.475677  0.126905  0.500000  1
  Ir  Ir32  1  0.371518  0.869216  0.500000  1
  Ir  Ir33  1  0.497699  0.628482  0.500000  1
  Ir  Ir34  1  0.130784  0.502301  0.500000  1
  Ir  Ir35  1  0.000000  0.000000  0.000000  1
