# generated using pymatgen
data_LiZn(Sn4Au3)2
_symmetry_space_group_name_H-M   'P 1'
_cell_length_a   4.62327400
_cell_length_b   4.62327387
_cell_length_c   20.71258800
_cell_angle_alpha   90.00000000
_cell_angle_beta   90.00000000
_cell_angle_gamma   120.00001527
_symmetry_Int_Tables_number   1
_chemical_formula_structural   LiZn(Sn4Au3)2
_chemical_formula_sum   'Li1 Zn1 Sn8 Au6'
_cell_volume   383.41066089
_cell_formula_units_Z   1
loop_
 _symmetry_equiv_pos_site_id
 _symmetry_equiv_pos_as_xyz
  1  'x, y, z'
loop_
 _atom_site_type_symbol
 _atom_site_label
 _atom_site_symmetry_multiplicity
 _atom_site_fract_x
 _atom_site_fract_y
 _atom_site_fract_z
 _atom_site_occupancy
  Li  Li0  1  0.333333  0.666667  0.211502  1
  Zn  Zn1  1  0.666667  0.333333  0.712245  1
  Sn  Sn2  1  0.000000  0.000000  0.799270  1
  Sn  Sn3  1  0.000000  0.000000  0.296440  1
  Sn  Sn4  1  0.000000  0.000000  0.525650  1
  Sn  Sn5  1  0.000000  0.000000  0.028331  1
  Sn  Sn6  1  0.666667  0.333333  0.127719  1
  Sn  Sn7  1  0.333333  0.666667  0.625920  1
  Sn  Sn8  1  0.666667  0.333333  0.407764  1
  Sn  Sn9  1  0.333333  0.666667  0.910058  1
  Au  Au10  1  0.666667  0.333333  0.842788  1
  Au  Au11  1  0.333333  0.666667  0.344294  1
  Au  Au12  1  0.666667  0.333333  0.982989  1
  Au  Au13  1  0.333333  0.666667  0.484348  1
  Au  Au14  1  0.000000  0.000000  0.665405  1
  Au  Au15  1  0.000000  0.000000  0.163736  1
