# generated using pymatgen
data_SrLi3YbEuPb3
_symmetry_space_group_name_H-M   'P 1'
_cell_length_a   5.03071300
_cell_length_b   5.03071253
_cell_length_c   11.45170800
_cell_angle_alpha   90.00000000
_cell_angle_beta   90.00000000
_cell_angle_gamma   119.99999653
_symmetry_Int_Tables_number   1
_chemical_formula_structural   SrLi3YbEuPb3
_chemical_formula_sum   'Sr1 Li3 Yb1 Eu1 Pb3'
_cell_volume   250.99204391
_cell_formula_units_Z   1
loop_
 _symmetry_equiv_pos_site_id
 _symmetry_equiv_pos_as_xyz
  1  'x, y, z'
loop_
 _atom_site_type_symbol
 _atom_site_label
 _atom_site_symmetry_multiplicity
 _atom_site_fract_x
 _atom_site_fract_y
 _atom_site_fract_z
 _atom_site_occupancy
  Sr  Sr0  1  0.666667  0.333333  0.331108  1
  Li  Li1  1  0.000000  0.000000  0.816490  1
  Li  Li2  1  0.333333  0.666667  0.514124  1
  Li  Li3  1  0.000000  0.000000  0.159780  1
  Yb  Yb4  1  0.666667  0.333333  0.997590  1
  Eu  Eu5  1  0.666667  0.333333  0.672697  1
  Pb  Pb6  1  0.333333  0.666667  0.141137  1
  Pb  Pb7  1  0.333333  0.666667  0.848932  1
  Pb  Pb8  1  0.000000  0.000000  0.518143  1
