# generated using pymatgen
data_Dy7Er(Si4Mo3)4
_symmetry_space_group_name_H-M   'P 1'
_cell_length_a   6.76991504
_cell_length_b   6.94902732
_cell_length_c   12.92698838
_cell_angle_alpha   89.98642137
_cell_angle_beta   89.99795204
_cell_angle_gamma   89.98125595
_symmetry_Int_Tables_number   1
_chemical_formula_structural   Dy7Er(Si4Mo3)4
_chemical_formula_sum   'Dy7 Er1 Si16 Mo12'
_cell_volume   608.14138667
_cell_formula_units_Z   1
loop_
 _symmetry_equiv_pos_site_id
 _symmetry_equiv_pos_as_xyz
  1  'x, y, z'
loop_
 _atom_site_type_symbol
 _atom_site_label
 _atom_site_symmetry_multiplicity
 _atom_site_fract_x
 _atom_site_fract_y
 _atom_site_fract_z
 _atom_site_occupancy
  Dy  Dy0  1  0.497251  0.332826  0.094004  1
  Dy  Dy1  1  0.997231  0.167123  0.406053  1
  Dy  Dy2  1  0.502796  0.667025  0.593990  1
  Dy  Dy3  1  0.002566  0.832785  0.906379  1
  Dy  Dy4  1  0.502592  0.667351  0.906332  1
  Dy  Dy5  1  0.002759  0.832935  0.594002  1
  Dy  Dy6  1  0.497165  0.332827  0.405592  1
  Er  Er7  1  0.996655  0.167353  0.094152  1
  Si  Si8  1  0.658687  0.042118  0.547494  1
  Si  Si9  1  0.158823  0.457455  0.952889  1
  Si  Si10  1  0.340051  0.958782  0.047677  1
  Si  Si11  1  0.841176  0.542174  0.452366  1
  Si  Si12  1  0.341329  0.957846  0.452244  1
  Si  Si13  1  0.841594  0.541047  0.047703  1
  Si  Si14  1  0.659011  0.042044  0.952937  1
  Si  Si15  1  0.158815  0.457994  0.547457  1
  Si  Si16  1  0.534978  0.365713  0.750273  1
  Si  Si17  1  0.034986  0.134030  0.750093  1
  Si  Si18  1  0.465266  0.634469  0.249727  1
  Si  Si19  1  0.965387  0.866630  0.249599  1
  Si  Si20  1  0.802688  0.628681  0.750256  1
  Si  Si21  1  0.302582  0.871132  0.750139  1
  Si  Si22  1  0.196804  0.370438  0.249509  1
  Si  Si23  1  0.698073  0.129006  0.249601  1
  Mo  Mo24  1  0.830638  0.334581  0.625401  1
  Mo  Mo25  1  0.330368  0.165211  0.874954  1
  Mo  Mo26  1  0.169357  0.665475  0.125300  1
  Mo  Mo27  1  0.669575  0.834868  0.374350  1
  Mo  Mo28  1  0.169267  0.665359  0.374316  1
  Mo  Mo29  1  0.669882  0.834990  0.125026  1
  Mo  Mo30  1  0.830907  0.334124  0.875033  1
  Mo  Mo31  1  0.330696  0.165309  0.625320  1
  Mo  Mo32  1  0.665826  0.999480  0.750182  1
  Mo  Mo33  1  0.165839  0.500388  0.750141  1
  Mo  Mo34  1  0.334098  0.001124  0.249701  1
  Mo  Mo35  1  0.834287  0.499306  0.249808  1
