# generated using pymatgen
data_Yb3(HoGe2)2
_symmetry_space_group_name_H-M   'P 1'
_cell_length_a   7.43937600
_cell_length_b   7.85755600
_cell_length_c   15.14311200
_cell_angle_alpha   90.00000000
_cell_angle_beta   90.00000000
_cell_angle_gamma   90.00000000
_symmetry_Int_Tables_number   1
_chemical_formula_structural   Yb3(HoGe2)2
_chemical_formula_sum   'Yb12 Ho8 Ge16'
_cell_volume   885.19535971
_cell_formula_units_Z   4
loop_
 _symmetry_equiv_pos_site_id
 _symmetry_equiv_pos_as_xyz
  1  'x, y, z'
loop_
 _atom_site_type_symbol
 _atom_site_label
 _atom_site_symmetry_multiplicity
 _atom_site_fract_x
 _atom_site_fract_y
 _atom_site_fract_z
 _atom_site_occupancy
  Yb  Yb0  1  0.978994  0.814432  0.404426  1
  Yb  Yb1  1  0.478994  0.685568  0.095574  1
  Yb  Yb2  1  0.521006  0.314432  0.595574  1
  Yb  Yb3  1  0.021006  0.185568  0.904426  1
  Yb  Yb4  1  0.021006  0.185568  0.595574  1
  Yb  Yb5  1  0.521006  0.314432  0.904426  1
  Yb  Yb6  1  0.478994  0.685568  0.404426  1
  Yb  Yb7  1  0.978994  0.814432  0.095574  1
  Yb  Yb8  1  0.347119  0.017975  0.750000  1
  Yb  Yb9  1  0.847119  0.482025  0.750000  1
  Yb  Yb10  1  0.152881  0.517975  0.250000  1
  Yb  Yb11  1  0.652881  0.982025  0.250000  1
  Ho  Ho12  1  0.318672  0.172790  0.121276  1
  Ho  Ho13  1  0.818672  0.327210  0.378724  1
  Ho  Ho14  1  0.181328  0.672790  0.878724  1
  Ho  Ho15  1  0.681328  0.827210  0.621276  1
  Ho  Ho16  1  0.318672  0.172790  0.378724  1
  Ho  Ho17  1  0.818672  0.327210  0.121276  1
  Ho  Ho18  1  0.181328  0.672790  0.621276  1
  Ho  Ho19  1  0.681328  0.827210  0.878724  1
  Ge  Ge20  1  0.846483  0.533389  0.540255  1
  Ge  Ge21  1  0.346483  0.966611  0.959745  1
  Ge  Ge22  1  0.653517  0.033389  0.459745  1
  Ge  Ge23  1  0.153517  0.466611  0.040255  1
  Ge  Ge24  1  0.153517  0.466611  0.459745  1
  Ge  Ge25  1  0.653517  0.033389  0.040255  1
  Ge  Ge26  1  0.346483  0.966611  0.540255  1
  Ge  Ge27  1  0.846483  0.533389  0.959745  1
  Ge  Ge28  1  0.977356  0.883297  0.750000  1
  Ge  Ge29  1  0.477356  0.616703  0.750000  1
  Ge  Ge30  1  0.522644  0.383297  0.250000  1
  Ge  Ge31  1  0.022644  0.116703  0.250000  1
  Ge  Ge32  1  0.234734  0.383794  0.750000  1
  Ge  Ge33  1  0.734734  0.116206  0.750000  1
  Ge  Ge34  1  0.265266  0.883794  0.250000  1
  Ge  Ge35  1  0.765266  0.616206  0.250000  1
