# generated using pymatgen
data_Gd3DyMg2Ir3
_symmetry_space_group_name_H-M   'P 1'
_cell_length_a   7.46190800
_cell_length_b   7.45867373
_cell_length_c   4.11140000
_cell_angle_alpha   90.00000000
_cell_angle_beta   90.00000000
_cell_angle_gamma   120.01434527
_symmetry_Int_Tables_number   1
_chemical_formula_structural   Gd3DyMg2Ir3
_chemical_formula_sum   'Gd3 Dy1 Mg2 Ir3'
_cell_volume   198.13858930
_cell_formula_units_Z   1
loop_
 _symmetry_equiv_pos_site_id
 _symmetry_equiv_pos_as_xyz
  1  'x, y, z'
loop_
 _atom_site_type_symbol
 _atom_site_label
 _atom_site_symmetry_multiplicity
 _atom_site_fract_x
 _atom_site_fract_y
 _atom_site_fract_z
 _atom_site_occupancy
  Gd  Gd0  1  0.391491  0.000000  0.499999  1
  Gd  Gd1  1  0.017844  0.431782  0.499999  1
  Gd  Gd2  1  0.586061  0.568218  0.499999  1
  Dy  Dy3  1  0.751482  0.000000  0.000000  1
  Mg  Mg4  1  0.247279  0.248579  0.000000  1
  Mg  Mg5  1  0.998700  0.751422  0.000000  1
  Ir  Ir6  1  0.668405  0.332645  0.000000  1
  Ir  Ir7  1  0.335759  0.667354  0.000000  1
  Ir  Ir8  1  0.002979  0.000000  0.499999  1
