# generated using pymatgen
data_Dy2Ho5Sn23Rh6
_symmetry_space_group_name_H-M   'P 1'
_cell_length_a   9.85062700
_cell_length_b   9.85062549
_cell_length_c   10.10329800
_cell_angle_alpha   90.00048900
_cell_angle_beta   89.99951186
_cell_angle_gamma   119.99884157
_symmetry_Int_Tables_number   1
_chemical_formula_structural   Dy2Ho5Sn23Rh6
_chemical_formula_sum   'Dy2 Ho5 Sn23 Rh6'
_cell_volume   849.03686294
_cell_formula_units_Z   1
loop_
 _symmetry_equiv_pos_site_id
 _symmetry_equiv_pos_as_xyz
  1  'x, y, z'
loop_
 _atom_site_type_symbol
 _atom_site_label
 _atom_site_symmetry_multiplicity
 _atom_site_fract_x
 _atom_site_fract_y
 _atom_site_fract_z
 _atom_site_occupancy
  Dy  Dy0  1  0.000000  0.000000  0.000000  1
  Dy  Dy1  1  0.520467  0.479533  0.692220  1
  Ho  Ho2  1  0.520449  0.040899  0.692222  1
  Ho  Ho3  1  0.959101  0.479551  0.692222  1
  Ho  Ho4  1  0.040900  0.520450  0.307778  1
  Ho  Ho5  1  0.479550  0.959100  0.307778  1
  Ho  Ho6  1  0.479550  0.520450  0.307770  1
  Sn  Sn7  1  0.666668  0.333332  0.179373  1
  Sn  Sn8  1  0.666682  0.333318  0.877144  1
  Sn  Sn9  1  0.333332  0.666668  0.122875  1
  Sn  Sn10  1  0.351108  0.351108  0.000006  1
  Sn  Sn11  1  0.000002  0.648889  0.999999  1
  Sn  Sn12  1  0.648889  0.000002  0.000001  1
  Sn  Sn13  1  0.648892  0.648892  0.000006  1
  Sn  Sn14  1  0.333329  0.666671  0.820630  1
  Sn  Sn15  1  0.444337  0.222158  0.455632  1
  Sn  Sn16  1  0.222168  0.777832  0.544356  1
  Sn  Sn17  1  0.222146  0.444336  0.544343  1
  Sn  Sn18  1  0.555664  0.777854  0.544343  1
  Sn  Sn19  1  0.119757  0.880243  0.281711  1
  Sn  Sn20  1  0.777842  0.555663  0.455632  1
  Sn  Sn21  1  0.777830  0.222170  0.455642  1
  Sn  Sn22  1  0.351111  0.999998  0.999999  1
  Sn  Sn23  1  0.119752  0.239510  0.281710  1
  Sn  Sn24  1  0.760490  0.880248  0.281710  1
  Sn  Sn25  1  0.239494  0.119732  0.718292  1
  Sn  Sn26  1  0.880268  0.760506  0.718292  1
  Sn  Sn27  1  0.880244  0.119756  0.718290  1
  Sn  Sn28  1  0.999999  0.000001  0.500001  1
  Sn  Sn29  1  0.999998  0.351111  0.000001  1
  Rh  Rh30  1  0.168665  0.831335  0.801601  1
  Rh  Rh31  1  0.168637  0.337319  0.801609  1
  Rh  Rh32  1  0.662681  0.831363  0.801609  1
  Rh  Rh33  1  0.337329  0.168666  0.198400  1
  Rh  Rh34  1  0.831334  0.662671  0.198400  1
  Rh  Rh35  1  0.831336  0.168664  0.198401  1
