# generated using pymatgen
data_Ho16Lu4Ir5Pt7
_symmetry_space_group_name_H-M   'P 1'
_cell_length_a   10.96283510
_cell_length_b   10.96283510
_cell_length_c   6.30384614
_cell_angle_alpha   90.01727535
_cell_angle_beta   90.01727535
_cell_angle_gamma   90.08441495
_symmetry_Int_Tables_number   1
_chemical_formula_structural   Ho16Lu4Ir5Pt7
_chemical_formula_sum   'Ho16 Lu4 Ir5 Pt7'
_cell_volume   757.61899922
_cell_formula_units_Z   1
loop_
 _symmetry_equiv_pos_site_id
 _symmetry_equiv_pos_as_xyz
  1  'x, y, z'
loop_
 _atom_site_type_symbol
 _atom_site_label
 _atom_site_symmetry_multiplicity
 _atom_site_fract_x
 _atom_site_fract_y
 _atom_site_fract_z
 _atom_site_occupancy
  Ho  Ho0  1  0.293557  0.086216  0.375282  1
  Ho  Ho1  1  0.293745  0.910548  0.875080  1
  Ho  Ho2  1  0.706611  0.086401  0.875278  1
  Ho  Ho3  1  0.706561  0.913287  0.375228  1
  Ho  Ho4  1  0.583674  0.792011  0.874230  1
  Ho  Ho5  1  0.586350  0.207016  0.375690  1
  Ho  Ho6  1  0.412230  0.791265  0.378955  1
  Ho  Ho7  1  0.413468  0.206071  0.875696  1
  Ho  Ho8  1  0.207989  0.416326  0.625770  1
  Ho  Ho9  1  0.208735  0.587770  0.121045  1
  Ho  Ho10  1  0.792984  0.413650  0.124310  1
  Ho  Ho11  1  0.793929  0.586532  0.624304  1
  Ho  Ho12  1  0.913784  0.706443  0.124718  1
  Ho  Ho13  1  0.913599  0.293389  0.624722  1
  Ho  Ho14  1  0.089452  0.706255  0.624920  1
  Ho  Ho15  1  0.086713  0.293439  0.124772  1
  Lu  Lu16  1  0.999942  0.999946  0.500210  1
  Lu  Lu17  1  0.000054  0.000058  0.999790  1
  Lu  Lu18  1  0.498323  0.501107  0.998960  1
  Lu  Lu19  1  0.498893  0.501677  0.501040  1
  Ir  Ir20  1  0.348893  0.651107  0.750000  1
  Ir  Ir21  1  0.500373  0.000802  0.122827  1
  Ir  Ir22  1  0.500143  0.000597  0.622168  1
  Ir  Ir23  1  0.999403  0.499857  0.877832  1
  Ir  Ir24  1  0.999198  0.499627  0.377173  1
  Pt  Pt25  1  0.848468  0.151532  0.250000  1
  Pt  Pt26  1  0.848451  0.848645  0.750162  1
  Pt  Pt27  1  0.151355  0.151549  0.749838  1
  Pt  Pt28  1  0.151060  0.848940  0.250000  1
  Pt  Pt29  1  0.651776  0.348224  0.750000  1
  Pt  Pt30  1  0.652155  0.651865  0.250183  1
  Pt  Pt31  1  0.348135  0.347845  0.249817  1
