# generated using pymatgen
data_Dy8MnSi16Tc11
_symmetry_space_group_name_H-M   'P 1'
_cell_length_a   6.77659318
_cell_length_b   6.79608020
_cell_length_c   12.69177300
_cell_angle_alpha   89.83802056
_cell_angle_beta   89.89136224
_cell_angle_gamma   89.82651771
_symmetry_Int_Tables_number   1
_chemical_formula_structural   Dy8MnSi16Tc11
_chemical_formula_sum   'Dy8 Mn1 Si16 Tc11'
_cell_volume   584.50429366
_cell_formula_units_Z   1
loop_
 _symmetry_equiv_pos_site_id
 _symmetry_equiv_pos_as_xyz
  1  'x, y, z'
loop_
 _atom_site_type_symbol
 _atom_site_label
 _atom_site_symmetry_multiplicity
 _atom_site_fract_x
 _atom_site_fract_y
 _atom_site_fract_z
 _atom_site_occupancy
  Dy  Dy0  1  0.006146  0.662627  0.028730  1
  Dy  Dy1  1  0.991382  0.340748  0.533075  1
  Dy  Dy2  1  0.662659  0.004477  0.968900  1
  Dy  Dy3  1  0.164546  0.496678  0.779382  1
  Dy  Dy4  1  0.837610  0.506573  0.280286  1
  Dy  Dy5  1  0.496592  0.164228  0.218047  1
  Dy  Dy6  1  0.504931  0.839642  0.719899  1
  Dy  Dy7  1  0.333909  0.997212  0.469770  1
  Mn  Mn8  1  0.691533  0.524511  0.882317  1
  Si  Si9  1  0.018042  0.728168  0.438141  1
  Si  Si10  1  0.975599  0.280035  0.934494  1
  Si  Si11  1  0.727643  0.017524  0.561088  1
  Si  Si12  1  0.220791  0.475796  0.185182  1
  Si  Si13  1  0.763605  0.514506  0.695065  1
  Si  Si14  1  0.486761  0.237163  0.813273  1
  Si  Si15  1  0.522880  0.780330  0.314444  1
  Si  Si16  1  0.279100  0.973910  0.063827  1
  Si  Si17  1  0.807288  0.884716  0.186093  1
  Si  Si18  1  0.306115  0.614811  0.563038  1
  Si  Si19  1  0.695059  0.386592  0.058818  1
  Si  Si20  1  0.614625  0.306116  0.435875  1
  Si  Si21  1  0.393727  0.688558  0.935781  1
  Si  Si22  1  0.114514  0.193957  0.312114  1
  Si  Si23  1  0.191975  0.112115  0.688245  1
  Si  Si24  1  0.882392  0.799256  0.815789  1
  Tc  Tc25  1  0.320131  0.483863  0.375877  1
  Tc  Tc26  1  0.813348  0.021272  0.369258  1
  Tc  Tc27  1  0.985533  0.180296  0.125416  1
  Tc  Tc28  1  0.015844  0.812532  0.631348  1
  Tc  Tc29  1  0.478231  0.312247  0.619349  1
  Tc  Tc30  1  0.179461  0.979182  0.874304  1
  Tc  Tc31  1  0.663241  0.666419  0.499702  1
  Tc  Tc32  1  0.835131  0.165863  0.752330  1
  Tc  Tc33  1  0.164692  0.835880  0.249960  1
  Tc  Tc34  1  0.337946  0.334831  0.996549  1
  Tc  Tc35  1  0.517020  0.677371  0.124231  1
