# generated using pymatgen
data_Zr4Al18(PdRu)3
_symmetry_space_group_name_H-M   'P 1'
_cell_length_a   7.49101385
_cell_length_b   7.49101416
_cell_length_c   9.28966431
_cell_angle_alpha   90.02939780
_cell_angle_beta   90.02939999
_cell_angle_gamma   119.61318058
_symmetry_Int_Tables_number   1
_chemical_formula_structural   Zr4Al18(PdRu)3
_chemical_formula_sum   'Zr4 Al18 Pd3 Ru3'
_cell_volume   453.20145552
_cell_formula_units_Z   1
loop_
 _symmetry_equiv_pos_site_id
 _symmetry_equiv_pos_as_xyz
  1  'x, y, z'
loop_
 _atom_site_type_symbol
 _atom_site_label
 _atom_site_symmetry_multiplicity
 _atom_site_fract_x
 _atom_site_fract_y
 _atom_site_fract_z
 _atom_site_occupancy
  Zr  Zr0  1  0.995107  0.671047  0.249436  1
  Zr  Zr1  1  0.009376  0.330557  0.750677  1
  Zr  Zr2  1  0.669443  0.990624  0.249323  1
  Zr  Zr3  1  0.328953  0.004893  0.750564  1
  Al  Al4  1  0.119610  0.121222  0.249552  1
  Al  Al5  1  0.878778  0.880390  0.750448  1
  Al  Al6  1  0.991691  0.328715  0.077305  1
  Al  Al7  1  0.998058  0.664037  0.924366  1
  Al  Al8  1  0.002764  0.671167  0.578718  1
  Al  Al9  1  0.328833  0.997236  0.421282  1
  Al  Al10  1  0.995815  0.329920  0.421416  1
  Al  Al11  1  0.670080  0.004185  0.578584  1
  Al  Al12  1  0.671285  0.008309  0.922695  1
  Al  Al13  1  0.335963  0.001942  0.075634  1
  Al  Al14  1  0.326513  0.326993  0.560140  1
  Al  Al15  1  0.673007  0.673487  0.439860  1
  Al  Al16  1  0.674744  0.668284  0.053339  1
  Al  Al17  1  0.331716  0.325256  0.946661  1
  Al  Al18  1  0.340526  0.553725  0.249469  1
  Al  Al19  1  0.656930  0.443928  0.753707  1
  Al  Al20  1  0.556072  0.343070  0.246293  1
  Al  Al21  1  0.446275  0.659474  0.750531  1
  Pd  Pd22  1  0.326910  0.673090  0.000000  1
  Pd  Pd23  1  0.326396  0.673604  0.500000  1
  Pd  Pd24  1  0.672194  0.327806  0.500000  1
  Ru  Ru25  1  0.672801  0.327199  0.000000  1
  Ru  Ru26  1  0.000959  0.999041  0.000000  1
  Ru  Ru27  1  0.999196  0.000804  0.500000  1
