# generated using pymatgen
data_Li3Tb8Pr8ScSi15Au
_symmetry_space_group_name_H-M   'P 1'
_cell_length_a   7.33105900
_cell_length_b   7.80808741
_cell_length_c   14.87897000
_cell_angle_alpha   90.00000000
_cell_angle_beta   90.00000000
_cell_angle_gamma   89.98132478
_symmetry_Int_Tables_number   1
_chemical_formula_structural   Li3Tb8Pr8ScSi15Au
_chemical_formula_sum   'Li3 Tb8 Pr8 Sc1 Si15 Au1'
_cell_volume   851.69525274
_cell_formula_units_Z   1
loop_
 _symmetry_equiv_pos_site_id
 _symmetry_equiv_pos_as_xyz
  1  'x, y, z'
loop_
 _atom_site_type_symbol
 _atom_site_label
 _atom_site_symmetry_multiplicity
 _atom_site_fract_x
 _atom_site_fract_y
 _atom_site_fract_z
 _atom_site_occupancy
  Li  Li0  1  0.654411  0.984454  0.750229  1
  Li  Li1  1  0.846129  0.485902  0.250304  1
  Li  Li2  1  0.346410  0.013380  0.250194  1
  Tb  Tb3  1  0.334259  0.175514  0.626196  1
  Tb  Tb4  1  0.673043  0.817096  0.372278  1
  Tb  Tb5  1  0.170058  0.676676  0.374129  1
  Tb  Tb6  1  0.819047  0.312014  0.875008  1
  Tb  Tb7  1  0.818097  0.317696  0.624389  1
  Tb  Tb8  1  0.326955  0.177266  0.875484  1
  Tb  Tb9  1  0.174638  0.680093  0.125089  1
  Tb  Tb10  1  0.675264  0.816946  0.127018  1
  Pr  Pr11  1  0.024785  0.187543  0.396446  1
  Pr  Pr12  1  0.526327  0.315841  0.395555  1
  Pr  Pr13  1  0.480892  0.687719  0.899318  1
  Pr  Pr14  1  0.484069  0.684571  0.602251  1
  Pr  Pr15  1  0.971622  0.824780  0.600626  1
  Pr  Pr16  1  0.973528  0.824591  0.899648  1
  Pr  Pr17  1  0.527138  0.313203  0.103919  1
  Pr  Pr18  1  0.025948  0.187344  0.102566  1
  Sc  Sc19  1  0.153474  0.509803  0.750356  1
  Si  Si20  1  0.265200  0.873063  0.750478  1
  Si  Si21  1  0.472932  0.593417  0.249013  1
  Si  Si22  1  0.030937  0.105930  0.750928  1
  Si  Si23  1  0.521874  0.407261  0.752894  1
  Si  Si24  1  0.976012  0.905121  0.249722  1
  Si  Si25  1  0.732970  0.115458  0.248924  1
  Si  Si26  1  0.849671  0.534970  0.032501  1
  Si  Si27  1  0.349938  0.965195  0.035974  1
  Si  Si28  1  0.144426  0.472150  0.957175  1
  Si  Si29  1  0.648062  0.034323  0.530729  1
  Si  Si30  1  0.349001  0.964603  0.463452  1
  Si  Si31  1  0.838271  0.537008  0.464649  1
  Si  Si32  1  0.779776  0.612099  0.751696  1
  Si  Si33  1  0.231359  0.384336  0.248488  1
  Si  Si34  1  0.647637  0.033833  0.968647  1
  Au  Au35  1  0.155842  0.468799  0.543727  1
