# generated using pymatgen
data_Mn2Re4TcAs12
_symmetry_space_group_name_H-M   'P 1'
_cell_length_a   3.09007600
_cell_length_b   13.00869700
_cell_length_c   15.90325300
_cell_angle_alpha   90.00000000
_cell_angle_beta   90.00000000
_cell_angle_gamma   90.00000000
_symmetry_Int_Tables_number   1
_chemical_formula_structural   Mn2Re4TcAs12
_chemical_formula_sum   'Mn4 Re8 Tc2 As24'
_cell_volume   639.27677566
_cell_formula_units_Z   2
loop_
 _symmetry_equiv_pos_site_id
 _symmetry_equiv_pos_as_xyz
  1  'x, y, z'
loop_
 _atom_site_type_symbol
 _atom_site_label
 _atom_site_symmetry_multiplicity
 _atom_site_fract_x
 _atom_site_fract_y
 _atom_site_fract_z
 _atom_site_occupancy
  Mn  Mn0  1  0.500000  0.123079  0.346298  1
  Mn  Mn1  1  0.500000  0.876921  0.653702  1
  Mn  Mn2  1  0.000000  0.376921  0.846298  1
  Mn  Mn3  1  0.000000  0.623079  0.153702  1
  Re  Re4  1  0.500000  0.313139  0.105690  1
  Re  Re5  1  0.500000  0.686861  0.894310  1
  Re  Re6  1  0.000000  0.186861  0.605690  1
  Re  Re7  1  0.000000  0.813139  0.394310  1
  Re  Re8  1  0.500000  0.911993  0.260869  1
  Re  Re9  1  0.500000  0.088007  0.739131  1
  Re  Re10  1  0.000000  0.588007  0.760869  1
  Re  Re11  1  0.000000  0.411993  0.239131  1
  Tc  Tc12  1  0.500000  0.500000  0.500000  1
  Tc  Tc13  1  0.000000  0.000000  0.000000  1
  As  As14  1  0.500000  0.903776  0.096481  1
  As  As15  1  0.500000  0.096224  0.903519  1
  As  As16  1  0.000000  0.596224  0.596481  1
  As  As17  1  0.000000  0.403776  0.403519  1
  As  As18  1  0.500000  0.566468  0.259737  1
  As  As19  1  0.500000  0.433532  0.740263  1
  As  As20  1  0.000000  0.933532  0.759737  1
  As  As21  1  0.000000  0.066468  0.240263  1
  As  As22  1  0.500000  0.651975  0.405317  1
  As  As23  1  0.500000  0.348025  0.594683  1
  As  As24  1  0.000000  0.848025  0.905317  1
  As  As25  1  0.000000  0.151975  0.094683  1
  As  As26  1  0.500000  0.963863  0.418528  1
  As  As27  1  0.500000  0.036137  0.581472  1
  As  As28  1  0.000000  0.536137  0.918528  1
  As  As29  1  0.000000  0.463863  0.081472  1
  As  As30  1  0.500000  0.708931  0.059091  1
  As  As31  1  0.500000  0.291069  0.940909  1
  As  As32  1  0.000000  0.791069  0.559091  1
  As  As33  1  0.000000  0.208931  0.440909  1
  As  As34  1  0.500000  0.733047  0.739829  1
  As  As35  1  0.500000  0.266953  0.260171  1
  As  As36  1  0.000000  0.766953  0.239829  1
  As  As37  1  0.000000  0.233047  0.760171  1
