# generated using pymatgen
data_NpRuI6
_symmetry_space_group_name_H-M   'P 1'
_cell_length_a   7.99231700
_cell_length_b   7.99231677
_cell_length_c   6.85583000
_cell_angle_alpha   90.00000000
_cell_angle_beta   90.00000000
_cell_angle_gamma   120.00000510
_symmetry_Int_Tables_number   1
_chemical_formula_structural   NpRuI6
_chemical_formula_sum   'Np1 Ru1 I6'
_cell_volume   379.25912513
_cell_formula_units_Z   1
loop_
 _symmetry_equiv_pos_site_id
 _symmetry_equiv_pos_as_xyz
  1  'x, y, z'
loop_
 _atom_site_type_symbol
 _atom_site_label
 _atom_site_symmetry_multiplicity
 _atom_site_fract_x
 _atom_site_fract_y
 _atom_site_fract_z
 _atom_site_occupancy
  Np  Np0  1  0.000000  0.000000  0.500000  1
  Ru  Ru1  1  0.000000  0.000000  0.000000  1
  I  I2  1  0.287106  0.000000  0.218592  1
  I  I3  1  0.712894  0.000000  0.781408  1
  I  I4  1  0.000000  0.287106  0.218592  1
  I  I5  1  0.287106  0.287106  0.781408  1
  I  I6  1  0.000000  0.712894  0.781408  1
  I  I7  1  0.712894  0.712894  0.218592  1
