# generated using pymatgen
data_NdSb11POs3Pt
_symmetry_space_group_name_H-M   'P 1'
_cell_length_a   8.10869600
_cell_length_b   8.09210939
_cell_length_c   8.15915351
_cell_angle_alpha   109.18411821
_cell_angle_beta   110.62174771
_cell_angle_gamma   108.68510810
_symmetry_Int_Tables_number   1
_chemical_formula_structural   NdSb11POs3Pt
_chemical_formula_sum   'Nd1 Sb11 P1 Os3 Pt1'
_cell_volume   411.64255032
_cell_formula_units_Z   1
loop_
 _symmetry_equiv_pos_site_id
 _symmetry_equiv_pos_as_xyz
  1  'x, y, z'
loop_
 _atom_site_type_symbol
 _atom_site_label
 _atom_site_symmetry_multiplicity
 _atom_site_fract_x
 _atom_site_fract_y
 _atom_site_fract_z
 _atom_site_occupancy
  Nd  Nd0  1  0.032261  0.997373  0.961186  1
  Sb  Sb1  1  0.675316  0.836820  0.162550  1
  Sb  Sb2  1  0.652610  0.503665  0.858022  1
  Sb  Sb3  1  0.344082  0.488065  0.137894  1
  Sb  Sb4  1  0.179305  0.844441  0.342826  1
  Sb  Sb5  1  0.816617  0.159245  0.667320  1
  Sb  Sb6  1  0.501846  0.853312  0.666880  1
  Sb  Sb7  1  0.489682  0.152209  0.339797  1
  Sb  Sb8  1  0.837826  0.330538  0.174008  1
  Sb  Sb9  1  0.156724  0.654094  0.817829  1
  Sb  Sb10  1  0.843545  0.653377  0.496948  1
  Sb  Sb11  1  0.151644  0.332782  0.497165  1
  P  P12  1  0.323357  0.168756  0.845264  1
  Os  Os13  1  0.017067  0.010696  0.531538  1
  Os  Os14  1  0.480130  0.010317  0.994499  1
  Os  Os15  1  0.998936  0.500184  0.002958  1
  Pt  Pt16  1  0.499050  0.504126  0.503315  1
