# generated using pymatgen
data_Gd3Th(CrN3)4
_symmetry_space_group_name_H-M   'P 1'
_cell_length_a   7.01699980
_cell_length_b   7.01699895
_cell_length_c   5.90697692
_cell_angle_alpha   77.51067434
_cell_angle_beta   77.51067800
_cell_angle_gamma   86.52181869
_symmetry_Int_Tables_number   1
_chemical_formula_structural   Gd3Th(CrN3)4
_chemical_formula_sum   'Gd3 Th1 Cr4 N12'
_cell_volume   277.21763628
_cell_formula_units_Z   1
loop_
 _symmetry_equiv_pos_site_id
 _symmetry_equiv_pos_as_xyz
  1  'x, y, z'
loop_
 _atom_site_type_symbol
 _atom_site_label
 _atom_site_symmetry_multiplicity
 _atom_site_fract_x
 _atom_site_fract_y
 _atom_site_fract_z
 _atom_site_occupancy
  Gd  Gd0  1  0.669496  0.330504  0.250000  1
  Gd  Gd1  1  0.090387  0.909613  0.250000  1
  Gd  Gd2  1  0.906806  0.093194  0.750000  1
  Th  Th3  1  0.328242  0.671758  0.750000  1
  Cr  Cr4  1  0.379629  0.196637  0.755554  1
  Cr  Cr5  1  0.622639  0.799964  0.241308  1
  Cr  Cr6  1  0.803363  0.620371  0.744446  1
  Cr  Cr7  1  0.200036  0.377361  0.258692  1
  N  N8  1  0.001363  0.773034  0.655519  1
  N  N9  1  0.871918  0.395099  0.851053  1
  N  N10  1  0.769796  0.998834  0.157422  1
  N  N11  1  0.133357  0.606215  0.145716  1
  N  N12  1  0.001166  0.230204  0.342578  1
  N  N13  1  0.226966  0.998637  0.844481  1
  N  N14  1  0.604901  0.128082  0.648947  1
  N  N15  1  0.624921  0.675965  0.994945  1
  N  N16  1  0.371815  0.324618  0.001803  1
  N  N17  1  0.393785  0.866643  0.354284  1
  N  N18  1  0.675382  0.628185  0.498197  1
  N  N19  1  0.324035  0.375079  0.505055  1
