# generated using pymatgen
data_Rb20Si4AsP11
_symmetry_space_group_name_H-M   'P 1'
_cell_length_a   5.60184000
_cell_length_b   14.05757255
_cell_length_c   15.46150161
_cell_angle_alpha   90.03212954
_cell_angle_beta   90.00000000
_cell_angle_gamma   90.00000000
_symmetry_Int_Tables_number   1
_chemical_formula_structural   Rb20Si4AsP11
_chemical_formula_sum   'Rb20 Si4 As1 P11'
_cell_volume   1217.56634622
_cell_formula_units_Z   1
loop_
 _symmetry_equiv_pos_site_id
 _symmetry_equiv_pos_as_xyz
  1  'x, y, z'
loop_
 _atom_site_type_symbol
 _atom_site_label
 _atom_site_symmetry_multiplicity
 _atom_site_fract_x
 _atom_site_fract_y
 _atom_site_fract_z
 _atom_site_occupancy
  Rb  Rb0  1  0.750000  0.448263  0.146938  1
  Rb  Rb1  1  0.250000  0.551888  0.852979  1
  Rb  Rb2  1  0.750000  0.947555  0.352651  1
  Rb  Rb3  1  0.250000  0.051587  0.647662  1
  Rb  Rb4  1  0.250000  0.276743  0.784496  1
  Rb  Rb5  1  0.750000  0.722855  0.215867  1
  Rb  Rb6  1  0.250000  0.776922  0.716165  1
  Rb  Rb7  1  0.750000  0.221436  0.283399  1
  Rb  Rb8  1  0.250000  0.851333  0.460741  1
  Rb  Rb9  1  0.750000  0.147860  0.540123  1
  Rb  Rb10  1  0.250000  0.351619  0.039598  1
  Rb  Rb11  1  0.750000  0.648433  0.960592  1
  Rb  Rb12  1  0.250000  0.615721  0.318674  1
  Rb  Rb13  1  0.750000  0.387550  0.681582  1
  Rb  Rb14  1  0.250000  0.112479  0.180690  1
  Rb  Rb15  1  0.750000  0.887484  0.818953  1
  Rb  Rb16  1  0.250000  0.566163  0.557561  1
  Rb  Rb17  1  0.750000  0.434822  0.443114  1
  Rb  Rb18  1  0.250000  0.066017  0.942089  1
  Rb  Rb19  1  0.750000  0.933857  0.057782  1
  Si  Si20  1  0.750000  0.238593  0.924845  1
  Si  Si21  1  0.250000  0.761415  0.074891  1
  Si  Si22  1  0.750000  0.739036  0.574902  1
  Si  Si23  1  0.250000  0.258654  0.427345  1
  As  As24  1  0.250000  0.365582  0.310575  1
  P  P25  1  0.250000  0.311086  0.561596  1
  P  P26  1  0.750000  0.688673  0.439523  1
  P  P27  1  0.250000  0.811750  0.939348  1
  P  P28  1  0.750000  0.188115  0.060292  1
  P  P29  1  0.250000  0.104226  0.403824  1
  P  P30  1  0.750000  0.894285  0.597070  1
  P  P31  1  0.250000  0.606118  0.096736  1
  P  P32  1  0.750000  0.394081  0.902879  1
  P  P33  1  0.750000  0.137693  0.814774  1
  P  P34  1  0.250000  0.862435  0.184981  1
  P  P35  1  0.750000  0.637670  0.684763  1
