# generated using pymatgen
data_Y8Tm3Lu9Pb16
_symmetry_space_group_name_H-M   'P 1'
_cell_length_a   8.13977200
_cell_length_b   8.21535347
_cell_length_c   15.48567600
_cell_angle_alpha   89.99609443
_cell_angle_beta   90.00040122
_cell_angle_gamma   89.98105104
_symmetry_Int_Tables_number   1
_chemical_formula_structural   Y8Tm3Lu9Pb16
_chemical_formula_sum   'Y8 Tm3 Lu9 Pb16'
_cell_volume   1035.54419331
_cell_formula_units_Z   1
loop_
 _symmetry_equiv_pos_site_id
 _symmetry_equiv_pos_as_xyz
  1  'x, y, z'
loop_
 _atom_site_type_symbol
 _atom_site_label
 _atom_site_symmetry_multiplicity
 _atom_site_fract_x
 _atom_site_fract_y
 _atom_site_fract_z
 _atom_site_occupancy
  Y  Y0  1  0.535128  0.322487  0.900620  1
  Y  Y1  1  0.035321  0.177401  0.599398  1
  Y  Y2  1  0.464877  0.677403  0.400644  1
  Y  Y3  1  0.964667  0.822468  0.099412  1
  Y  Y4  1  0.464909  0.677506  0.099419  1
  Y  Y5  1  0.964584  0.822516  0.400538  1
  Y  Y6  1  0.535119  0.322527  0.599395  1
  Y  Y7  1  0.035378  0.177480  0.900639  1
  Tm  Tm8  1  0.375621  0.841244  0.878479  1
  Tm  Tm9  1  0.875771  0.658666  0.621589  1
  Tm  Tm10  1  0.624370  0.158675  0.378338  1
  Lu  Lu11  1  0.124320  0.341400  0.121748  1
  Lu  Lu12  1  0.624507  0.158365  0.121572  1
  Lu  Lu13  1  0.124552  0.341464  0.378365  1
  Lu  Lu14  1  0.375444  0.841446  0.621672  1
  Lu  Lu15  1  0.875470  0.658608  0.878315  1
  Lu  Lu16  1  0.206910  0.505443  0.749978  1
  Lu  Lu17  1  0.706909  0.994397  0.750081  1
  Lu  Lu18  1  0.793262  0.494401  0.249809  1
  Lu  Lu19  1  0.292930  0.005702  0.249971  1
  Pb  Pb20  1  0.284263  0.035914  0.043273  1
  Pb  Pb21  1  0.784565  0.464878  0.456872  1
  Pb  Pb22  1  0.715016  0.965067  0.543255  1
  Pb  Pb23  1  0.215196  0.534642  0.957295  1
  Pb  Pb24  1  0.716729  0.964774  0.957242  1
  Pb  Pb25  1  0.216917  0.535415  0.542710  1
  Pb  Pb26  1  0.283201  0.035145  0.457296  1
  Pb  Pb27  1  0.784065  0.464287  0.042694  1
  Pb  Pb28  1  0.569511  0.627615  0.749813  1
  Pb  Pb29  1  0.069492  0.872484  0.750114  1
  Pb  Pb30  1  0.430283  0.372588  0.249672  1
  Pb  Pb31  1  0.930842  0.127865  0.249912  1
  Pb  Pb32  1  0.346804  0.154117  0.749833  1
  Pb  Pb33  1  0.846680  0.345863  0.750062  1
  Pb  Pb34  1  0.653158  0.845756  0.249940  1
  Pb  Pb35  1  0.153229  0.653988  0.250036  1
