# generated using pymatgen
data_Tb7Lu3IrRu3
_symmetry_space_group_name_H-M   'P 1'
_cell_length_a   6.35230869
_cell_length_b   7.24523100
_cell_length_c   8.46692438
_cell_angle_alpha   96.81009215
_cell_angle_beta   111.75554685
_cell_angle_gamma   89.98904574
_symmetry_Int_Tables_number   1
_chemical_formula_structural   Tb7Lu3IrRu3
_chemical_formula_sum   'Tb7 Lu3 Ir1 Ru3'
_cell_volume   358.96737239
_cell_formula_units_Z   1
loop_
 _symmetry_equiv_pos_site_id
 _symmetry_equiv_pos_as_xyz
  1  'x, y, z'
loop_
 _atom_site_type_symbol
 _atom_site_label
 _atom_site_symmetry_multiplicity
 _atom_site_fract_x
 _atom_site_fract_y
 _atom_site_fract_z
 _atom_site_occupancy
  Tb  Tb0  1  0.524269  0.082722  0.814497  1
  Tb  Tb1  1  0.475298  0.918348  0.184589  1
  Tb  Tb2  1  0.711731  0.416906  0.183941  1
  Tb  Tb3  1  0.290542  0.584640  0.812920  1
  Tb  Tb4  1  0.291021  0.312565  0.435057  1
  Tb  Tb5  1  0.707750  0.685168  0.567389  1
  Tb  Tb6  1  0.858653  0.184132  0.566046  1
  Lu  Lu7  1  0.139200  0.816761  0.432688  1
  Lu  Lu8  1  0.076677  0.248943  0.998803  1
  Lu  Lu9  1  0.924255  0.750773  0.001513  1
  Ir  Ir10  1  0.315967  0.576438  0.219444  1
  Ru  Ru11  1  0.679952  0.425252  0.783857  1
  Ru  Ru12  1  0.105180  0.923166  0.780879  1
  Ru  Ru13  1  0.899503  0.074186  0.218375  1
