# generated using pymatgen
data_Rb4SnAu8
_symmetry_space_group_name_H-M   'P 1'
_cell_length_a   11.26949805
_cell_length_b   11.26949720
_cell_length_c   10.59777933
_cell_angle_alpha   76.23811394
_cell_angle_beta   76.23811493
_cell_angle_gamma   36.29562555
_symmetry_Int_Tables_number   1
_chemical_formula_structural   Rb4SnAu8
_chemical_formula_sum   'Rb8 Sn2 Au16'
_cell_volume   771.35876202
_cell_formula_units_Z   2
loop_
 _symmetry_equiv_pos_site_id
 _symmetry_equiv_pos_as_xyz
  1  'x, y, z'
loop_
 _atom_site_type_symbol
 _atom_site_label
 _atom_site_symmetry_multiplicity
 _atom_site_fract_x
 _atom_site_fract_y
 _atom_site_fract_z
 _atom_site_occupancy
  Rb  Rb0  1  0.482436  0.482436  0.840519  1
  Rb  Rb1  1  0.517564  0.517564  0.159481  1
  Rb  Rb2  1  0.282991  0.282991  0.914893  1
  Rb  Rb3  1  0.717009  0.717009  0.085107  1
  Rb  Rb4  1  0.223858  0.223858  0.603602  1
  Rb  Rb5  1  0.776142  0.776142  0.396398  1
  Rb  Rb6  1  0.045398  0.045398  0.641313  1
  Rb  Rb7  1  0.954602  0.954602  0.358687  1
  Sn  Sn8  1  0.668474  0.668474  0.766374  1
  Sn  Sn9  1  0.331526  0.331526  0.233626  1
  Au  Au10  1  0.796338  0.796338  0.725892  1
  Au  Au11  1  0.203662  0.203662  0.274108  1
  Au  Au12  1  0.619350  0.619350  0.560470  1
  Au  Au13  1  0.380650  0.380650  0.439530  1
  Au  Au14  1  0.500000  0.500000  0.500000  1
  Au  Au15  1  0.000000  0.000000  0.000000  1
  Au  Au16  1  0.104929  0.104929  0.147326  1
  Au  Au17  1  0.895071  0.895071  0.852674  1
  Au  Au18  1  0.835169  0.374992  0.353166  1
  Au  Au19  1  0.625008  0.164831  0.646834  1
  Au  Au20  1  0.164831  0.625008  0.646834  1
  Au  Au21  1  0.374992  0.835169  0.353166  1
  Au  Au22  1  0.084931  0.679121  0.086022  1
  Au  Au23  1  0.320879  0.915069  0.913978  1
  Au  Au24  1  0.915069  0.320879  0.913978  1
  Au  Au25  1  0.679121  0.084931  0.086022  1
