# generated using pymatgen
data_ErSc9In8(CuPt)2
_symmetry_space_group_name_H-M   'P 1'
_cell_length_a   3.46524200
_cell_length_b   7.71494201
_cell_length_c   17.45424292
_cell_angle_alpha   89.85603706
_cell_angle_beta   90.00000000
_cell_angle_gamma   90.00000000
_symmetry_Int_Tables_number   1
_chemical_formula_structural   ErSc9In8(CuPt)2
_chemical_formula_sum   'Er1 Sc9 In8 Cu2 Pt2'
_cell_volume   466.62271989
_cell_formula_units_Z   1
loop_
 _symmetry_equiv_pos_site_id
 _symmetry_equiv_pos_as_xyz
  1  'x, y, z'
loop_
 _atom_site_type_symbol
 _atom_site_label
 _atom_site_symmetry_multiplicity
 _atom_site_fract_x
 _atom_site_fract_y
 _atom_site_fract_z
 _atom_site_occupancy
  Er  Er0  1  0.000000  0.740710  0.280702  1
  Sc  Sc1  1  0.000000  0.119207  0.416410  1
  Sc  Sc2  1  0.000000  0.881343  0.584299  1
  Sc  Sc3  1  0.000000  0.381928  0.915597  1
  Sc  Sc4  1  0.000000  0.618004  0.083473  1
  Sc  Sc5  1  0.000000  0.246408  0.219946  1
  Sc  Sc6  1  0.000000  0.752453  0.779853  1
  Sc  Sc7  1  0.000000  0.260806  0.720463  1
  Sc  Sc8  1  0.000000  0.000125  0.999863  1
  Sc  Sc9  1  0.000000  0.499985  0.500055  1
  In  In10  1  0.500000  0.415799  0.354067  1
  In  In11  1  0.500000  0.580962  0.646601  1
  In  In12  1  0.500000  0.076148  0.849972  1
  In  In13  1  0.500000  0.926436  0.148023  1
  In  In14  1  0.500000  0.291139  0.064740  1
  In  In15  1  0.500000  0.708388  0.934688  1
  In  In16  1  0.500000  0.206132  0.566937  1
  In  In17  1  0.500000  0.794802  0.435577  1
  Cu  Cu18  1  0.500000  0.031591  0.303327  1
  Cu  Cu19  1  0.500000  0.973188  0.697214  1
  Pt  Pt20  1  0.500000  0.471161  0.803656  1
  Pt  Pt21  1  0.500000  0.523284  0.194539  1
