# generated using pymatgen
data_Eu4Ga(Si2Pt)5
_symmetry_space_group_name_H-M   'P 1'
_cell_length_a   8.35688898
_cell_length_b   8.35688912
_cell_length_c   8.35688896
_cell_angle_alpha   137.33598010
_cell_angle_beta   105.36386679
_cell_angle_gamma   89.98347377
_symmetry_Int_Tables_number   1
_chemical_formula_structural   Eu4Ga(Si2Pt)5
_chemical_formula_sum   'Eu4 Ga1 Si10 Pt5'
_cell_volume   364.09476567
_cell_formula_units_Z   1
loop_
 _symmetry_equiv_pos_site_id
 _symmetry_equiv_pos_as_xyz
  1  'x, y, z'
loop_
 _atom_site_type_symbol
 _atom_site_label
 _atom_site_symmetry_multiplicity
 _atom_site_fract_x
 _atom_site_fract_y
 _atom_site_fract_z
 _atom_site_occupancy
  Eu  Eu0  1  0.110990  0.871357  0.234002  1
  Eu  Eu1  1  0.889010  0.123012  0.760367  1
  Eu  Eu2  1  0.637355  0.376988  0.265998  1
  Eu  Eu3  1  0.362645  0.628643  0.739633  1
  Ga  Ga4  1  0.500000  0.750000  0.250000  1
  Si  Si5  1  0.000000  0.750000  0.750000  1
  Si  Si6  1  0.000000  0.250000  0.250000  1
  Si  Si7  1  0.268276  0.018276  0.750000  1
  Si  Si8  1  0.731724  0.481724  0.750000  1
  Si  Si9  1  0.738999  0.988999  0.250000  1
  Si  Si10  1  0.261001  0.511001  0.250000  1
  Si  Si11  1  0.767552  0.613149  0.143805  1
  Si  Si12  1  0.232448  0.376254  0.845598  1
  Si  Si13  1  0.469344  0.123746  0.356195  1
  Si  Si14  1  0.530656  0.886851  0.654402  1
  Pt  Pt15  1  0.500000  0.250000  0.750000  1
  Pt  Pt16  1  0.021162  0.636201  0.389030  1
  Pt  Pt17  1  0.978838  0.367868  0.615039  1
  Pt  Pt18  1  0.247171  0.132132  0.110970  1
  Pt  Pt19  1  0.752829  0.863799  0.884961  1
