# generated using pymatgen
data_Tb3TmAl17GeIr6
_symmetry_space_group_name_H-M   'P 1'
_cell_length_a   7.55564601
_cell_length_b   7.55697913
_cell_length_c   9.46954700
_cell_angle_alpha   90.00000000
_cell_angle_beta   90.00000000
_cell_angle_gamma   119.57846157
_symmetry_Int_Tables_number   1
_chemical_formula_structural   Tb3TmAl17GeIr6
_chemical_formula_sum   'Tb3 Tm1 Al17 Ge1 Ir6'
_cell_volume   470.22832497
_cell_formula_units_Z   1
loop_
 _symmetry_equiv_pos_site_id
 _symmetry_equiv_pos_as_xyz
  1  'x, y, z'
loop_
 _atom_site_type_symbol
 _atom_site_label
 _atom_site_symmetry_multiplicity
 _atom_site_fract_x
 _atom_site_fract_y
 _atom_site_fract_z
 _atom_site_occupancy
  Tb  Tb0  1  0.994706  0.676891  0.250000  1
  Tb  Tb1  1  0.003395  0.328537  0.750000  1
  Tb  Tb2  1  0.677019  0.994527  0.250000  1
  Tm  Tm3  1  0.328383  0.003143  0.750000  1
  Al  Al4  1  0.872072  0.871446  0.750000  1
  Al  Al5  1  0.000737  0.338242  0.074068  1
  Al  Al6  1  0.998573  0.665399  0.924470  1
  Al  Al7  1  0.998573  0.665399  0.575530  1
  Al  Al8  1  0.338069  0.000672  0.426974  1
  Al  Al9  1  0.000737  0.338242  0.425932  1
  Al  Al10  1  0.663771  0.997790  0.575682  1
  Al  Al11  1  0.663771  0.997790  0.924318  1
  Al  Al12  1  0.338069  0.000672  0.073026  1
  Al  Al13  1  0.332582  0.331855  0.559740  1
  Al  Al14  1  0.663272  0.663243  0.449223  1
  Al  Al15  1  0.663272  0.663243  0.050777  1
  Al  Al16  1  0.332582  0.331855  0.940260  1
  Al  Al17  1  0.337383  0.554141  0.250000  1
  Al  Al18  1  0.660183  0.450404  0.750000  1
  Al  Al19  1  0.553958  0.337194  0.250000  1
  Al  Al20  1  0.451163  0.661532  0.750000  1
  Ge  Ge21  1  0.136815  0.136574  0.250000  1
  Ir  Ir22  1  0.669328  0.326381  0.999634  1
  Ir  Ir23  1  0.326584  0.669744  0.999679  1
  Ir  Ir24  1  0.326584  0.669744  0.500321  1
  Ir  Ir25  1  0.669328  0.326381  0.500366  1
  Ir  Ir26  1  0.999545  0.999479  0.000630  1
  Ir  Ir27  1  0.999545  0.999479  0.499370  1
