# generated using pymatgen
data_Ce2U(GaRu)3
_symmetry_space_group_name_H-M   'P 1'
_cell_length_a   6.84082840
_cell_length_b   6.84155327
_cell_length_c   4.15919800
_cell_angle_alpha   90.00000000
_cell_angle_beta   90.00000000
_cell_angle_gamma   116.75214199
_symmetry_Int_Tables_number   1
_chemical_formula_structural   Ce2U(GaRu)3
_chemical_formula_sum   'Ce2 U1 Ga3 Ru3'
_cell_volume   173.82251878
_cell_formula_units_Z   1
loop_
 _symmetry_equiv_pos_site_id
 _symmetry_equiv_pos_as_xyz
  1  'x, y, z'
loop_
 _atom_site_type_symbol
 _atom_site_label
 _atom_site_symmetry_multiplicity
 _atom_site_fract_x
 _atom_site_fract_y
 _atom_site_fract_z
 _atom_site_occupancy
  Ce  Ce0  1  0.422268  0.010213  0.500000  1
  Ce  Ce1  1  0.010126  0.422215  0.500000  1
  U  U2  1  0.611256  0.611288  0.500000  1
  Ga  Ga3  1  0.754005  0.024278  0.000000  1
  Ga  Ga4  1  0.024350  0.754114  0.000000  1
  Ga  Ga5  1  0.206403  0.206367  0.000000  1
  Ru  Ru6  1  0.375739  0.634872  0.000000  1
  Ru  Ru7  1  0.634883  0.375702  0.000000  1
  Ru  Ru8  1  0.960970  0.960951  0.500000  1
