# generated using pymatgen
data_CaAc3(TlAu2)2
_symmetry_space_group_name_H-M   'P 1'
_cell_length_a   8.36444800
_cell_length_b   8.36444856
_cell_length_c   4.16680800
_cell_angle_alpha   90.00000000
_cell_angle_beta   90.00000000
_cell_angle_gamma   90.65619531
_symmetry_Int_Tables_number   1
_chemical_formula_structural   CaAc3(TlAu2)2
_chemical_formula_sum   'Ca1 Ac3 Tl2 Au4'
_cell_volume   291.50741521
_cell_formula_units_Z   1
loop_
 _symmetry_equiv_pos_site_id
 _symmetry_equiv_pos_as_xyz
  1  'x, y, z'
loop_
 _atom_site_type_symbol
 _atom_site_label
 _atom_site_symmetry_multiplicity
 _atom_site_fract_x
 _atom_site_fract_y
 _atom_site_fract_z
 _atom_site_occupancy
  Ca  Ca0  1  0.324289  0.824289  0.500000  1
  Ac  Ac1  1  0.673385  0.173385  0.500000  1
  Ac  Ac2  1  0.178169  0.326185  0.500000  1
  Ac  Ac3  1  0.826185  0.678169  0.500000  1
  Tl  Tl4  1  0.007458  0.994964  0.000000  1
  Tl  Tl5  1  0.494964  0.507458  0.000000  1
  Au  Au6  1  0.129774  0.629774  0.000000  1
  Au  Au7  1  0.615438  0.872881  0.000000  1
  Au  Au8  1  0.372881  0.115438  0.000000  1
  Au  Au9  1  0.877458  0.377458  0.000000  1
