# generated using pymatgen
data_CsPr(AsRu)4
_symmetry_space_group_name_H-M   'P 1'
_cell_length_a   4.20036900
_cell_length_b   4.20036900
_cell_length_c   12.30140600
_cell_angle_alpha   90.00000000
_cell_angle_beta   90.00000000
_cell_angle_gamma   90.00000000
_symmetry_Int_Tables_number   1
_chemical_formula_structural   CsPr(AsRu)4
_chemical_formula_sum   'Cs1 Pr1 As4 Ru4'
_cell_volume   217.03493295
_cell_formula_units_Z   1
loop_
 _symmetry_equiv_pos_site_id
 _symmetry_equiv_pos_as_xyz
  1  'x, y, z'
loop_
 _atom_site_type_symbol
 _atom_site_label
 _atom_site_symmetry_multiplicity
 _atom_site_fract_x
 _atom_site_fract_y
 _atom_site_fract_z
 _atom_site_occupancy
  Cs  Cs0  1  0.500000  0.500000  0.500000  1
  Pr  Pr1  1  0.000000  0.000000  0.000000  1
  As  As2  1  0.000000  0.000000  0.685180  1
  As  As3  1  0.000000  0.000000  0.314820  1
  As  As4  1  0.500000  0.500000  0.884993  1
  As  As5  1  0.500000  0.500000  0.115007  1
  Ru  Ru6  1  0.500000  0.000000  0.789860  1
  Ru  Ru7  1  0.000000  0.500000  0.789860  1
  Ru  Ru8  1  0.500000  0.000000  0.210140  1
  Ru  Ru9  1  0.000000  0.500000  0.210140  1
