# generated using pymatgen
data_Pr6Co2P12RuRh15
_symmetry_space_group_name_H-M   'P 1'
_cell_length_a   3.93767800
_cell_length_b   11.29451058
_cell_length_c   12.96757381
_cell_angle_alpha   90.06054996
_cell_angle_beta   90.00000000
_cell_angle_gamma   90.00000000
_symmetry_Int_Tables_number   1
_chemical_formula_structural   Pr6Co2P12RuRh15
_chemical_formula_sum   'Pr6 Co2 P12 Ru1 Rh15'
_cell_volume   576.72144651
_cell_formula_units_Z   1
loop_
 _symmetry_equiv_pos_site_id
 _symmetry_equiv_pos_as_xyz
  1  'x, y, z'
loop_
 _atom_site_type_symbol
 _atom_site_label
 _atom_site_symmetry_multiplicity
 _atom_site_fract_x
 _atom_site_fract_y
 _atom_site_fract_z
 _atom_site_occupancy
  Pr  Pr0  1  0.000000  0.500221  0.519856  1
  Pr  Pr1  1  0.500000  0.999922  0.479887  1
  Pr  Pr2  1  0.500000  0.815915  0.201428  1
  Pr  Pr3  1  0.500000  0.184148  0.201950  1
  Pr  Pr4  1  0.000000  0.683051  0.798390  1
  Pr  Pr5  1  0.000000  0.316367  0.798031  1
  Co  Co6  1  0.000000  0.500941  0.984342  1
  Co  Co7  1  0.500000  0.999844  0.015206  1
  P  P8  1  0.500000  0.498167  0.887910  1
  P  P9  1  0.000000  0.999401  0.114003  1
  P  P10  1  0.500000  0.499503  0.345422  1
  P  P11  1  0.000000  0.000519  0.654143  1
  P  P12  1  0.500000  0.311888  0.618843  1
  P  P13  1  0.500000  0.687679  0.618635  1
  P  P14  1  0.000000  0.188107  0.381565  1
  P  P15  1  0.000000  0.812212  0.381756  1
  P  P16  1  0.500000  0.853600  0.896992  1
  P  P17  1  0.500000  0.150524  0.899155  1
  P  P18  1  0.000000  0.646212  0.102708  1
  P  P19  1  0.000000  0.351448  0.099167  1
  Ru  Ru20  1  0.500000  0.336555  0.996640  1
  Rh  Rh21  1  0.500000  0.501950  0.166447  1
  Rh  Rh22  1  0.000000  0.998946  0.832984  1
  Rh  Rh23  1  0.500000  0.500136  0.704704  1
  Rh  Rh24  1  0.000000  0.999918  0.295668  1
  Rh  Rh25  1  0.500000  0.663473  0.996159  1
  Rh  Rh26  1  0.000000  0.161012  0.004036  1
  Rh  Rh27  1  0.000000  0.837496  0.003234  1
  Rh  Rh28  1  0.500000  0.292798  0.430178  1
  Rh  Rh29  1  0.500000  0.707963  0.430132  1
  Rh  Rh30  1  0.000000  0.207362  0.569996  1
  Rh  Rh31  1  0.000000  0.792612  0.570552  1
  Rh  Rh32  1  0.500000  0.876784  0.712192  1
  Rh  Rh33  1  0.500000  0.123758  0.712233  1
  Rh  Rh34  1  0.000000  0.623705  0.288277  1
  Rh  Rh35  1  0.000000  0.375865  0.287178  1
