# generated using pymatgen
data_Be8Ni4PdRh3
_symmetry_space_group_name_H-M   'P 1'
_cell_length_a   5.41252801
_cell_length_b   3.83443800
_cell_length_c   7.67079801
_cell_angle_alpha   90.00000000
_cell_angle_beta   89.99283049
_cell_angle_gamma   90.00000000
_symmetry_Int_Tables_number   1
_chemical_formula_structural   Be8Ni4PdRh3
_chemical_formula_sum   'Be8 Ni4 Pd1 Rh3'
_cell_volume   159.19976438
_cell_formula_units_Z   1
loop_
 _symmetry_equiv_pos_site_id
 _symmetry_equiv_pos_as_xyz
  1  'x, y, z'
loop_
 _atom_site_type_symbol
 _atom_site_label
 _atom_site_symmetry_multiplicity
 _atom_site_fract_x
 _atom_site_fract_y
 _atom_site_fract_z
 _atom_site_occupancy
  Be  Be0  1  0.991996  0.750000  0.124994  1
  Be  Be1  1  0.508013  0.750000  0.125001  1
  Be  Be2  1  0.996629  0.250000  0.378436  1
  Be  Be3  1  0.503379  0.250000  0.378451  1
  Be  Be4  1  0.498930  0.750000  0.624992  1
  Be  Be5  1  0.001060  0.750000  0.624999  1
  Be  Be6  1  0.503395  0.250000  0.871573  1
  Be  Be7  1  0.996590  0.250000  0.871580  1
  Ni  Ni8  1  0.750001  0.250000  0.124980  1
  Ni  Ni9  1  0.250000  0.750000  0.373557  1
  Ni  Ni10  1  0.750010  0.250000  0.625002  1
  Ni  Ni11  1  0.249998  0.750000  0.876447  1
  Pd  Pd12  1  0.250013  0.250000  0.125014  1
  Rh  Rh13  1  0.750010  0.750000  0.374986  1
  Rh  Rh14  1  0.249990  0.250000  0.624975  1
  Rh  Rh15  1  0.749987  0.750000  0.875011  1
