# generated using pymatgen
data_Ho3TmTh6(Bi3C)2
_symmetry_space_group_name_H-M   'P 1'
_cell_length_a   9.33813600
_cell_length_b   9.33813737
_cell_length_c   6.45695900
_cell_angle_alpha   90.00000000
_cell_angle_beta   90.00000000
_cell_angle_gamma   120.00000225
_symmetry_Int_Tables_number   1
_chemical_formula_structural   Ho3TmTh6(Bi3C)2
_chemical_formula_sum   'Ho3 Tm1 Th6 Bi6 C2'
_cell_volume   487.61729788
_cell_formula_units_Z   1
loop_
 _symmetry_equiv_pos_site_id
 _symmetry_equiv_pos_as_xyz
  1  'x, y, z'
loop_
 _atom_site_type_symbol
 _atom_site_label
 _atom_site_symmetry_multiplicity
 _atom_site_fract_x
 _atom_site_fract_y
 _atom_site_fract_z
 _atom_site_occupancy
  Ho  Ho0  1  0.666667  0.333333  0.000000  1
  Ho  Ho1  1  0.333333  0.666667  0.000000  1
  Ho  Ho2  1  0.333333  0.666667  0.500000  1
  Tm  Tm3  1  0.666667  0.333333  0.500000  1
  Th  Th4  1  0.779717  0.779708  0.749993  1
  Th  Th5  1  0.220292  0.000009  0.749993  1
  Th  Th6  1  0.999991  0.220283  0.749993  1
  Th  Th7  1  0.220292  0.220283  0.250007  1
  Th  Th8  1  0.779717  0.000009  0.250007  1
  Th  Th9  1  0.999991  0.779708  0.250007  1
  Bi  Bi10  1  0.406458  0.406378  0.749921  1
  Bi  Bi11  1  0.593622  0.000080  0.749921  1
  Bi  Bi12  1  0.999920  0.593542  0.749921  1
  Bi  Bi13  1  0.593622  0.593542  0.250079  1
  Bi  Bi14  1  0.406458  0.000080  0.250079  1
  Bi  Bi15  1  0.999920  0.406378  0.250079  1
  C  C16  1  0.000000  0.000000  0.000000  1
  C  C17  1  0.000000  0.000000  0.500000  1
