# generated using pymatgen
data_CaZnCuSi2
_symmetry_space_group_name_H-M   'P 1'
_cell_length_a   5.88262169
_cell_length_b   5.88262213
_cell_length_c   5.88262177
_cell_angle_alpha   139.26144513
_cell_angle_beta   139.26144839
_cell_angle_gamma   58.97641847
_symmetry_Int_Tables_number   1
_chemical_formula_structural   CaZnCuSi2
_chemical_formula_sum   'Ca1 Zn1 Cu1 Si2'
_cell_volume   85.87204734
_cell_formula_units_Z   1
loop_
 _symmetry_equiv_pos_site_id
 _symmetry_equiv_pos_as_xyz
  1  'x, y, z'
loop_
 _atom_site_type_symbol
 _atom_site_label
 _atom_site_symmetry_multiplicity
 _atom_site_fract_x
 _atom_site_fract_y
 _atom_site_fract_z
 _atom_site_occupancy
  Ca  Ca0  1  0.000000  0.000000  0.000000  1
  Zn  Zn1  1  0.750000  0.250000  0.500000  1
  Cu  Cu2  1  0.250000  0.750000  0.500000  1
  Si  Si3  1  0.615366  0.615366  0.000000  1
  Si  Si4  1  0.384634  0.384634  0.000000  1
