# generated using pymatgen
data_Ta9TiN12
_symmetry_space_group_name_H-M   'P 1'
_cell_length_a   5.21413900
_cell_length_b   5.21413939
_cell_length_c   10.37519700
_cell_angle_alpha   90.00000000
_cell_angle_beta   90.00000000
_cell_angle_gamma   120.00000384
_symmetry_Int_Tables_number   1
_chemical_formula_structural   Ta9TiN12
_chemical_formula_sum   'Ta9 Ti1 N12'
_cell_volume   244.28241707
_cell_formula_units_Z   1
loop_
 _symmetry_equiv_pos_site_id
 _symmetry_equiv_pos_as_xyz
  1  'x, y, z'
loop_
 _atom_site_type_symbol
 _atom_site_label
 _atom_site_symmetry_multiplicity
 _atom_site_fract_x
 _atom_site_fract_y
 _atom_site_fract_z
 _atom_site_occupancy
  Ta  Ta0  1  0.677374  0.675945  0.751087  1
  Ta  Ta1  1  0.324055  0.001430  0.751087  1
  Ta  Ta2  1  0.998570  0.322626  0.751087  1
  Ta  Ta3  1  0.324055  0.322626  0.248913  1
  Ta  Ta4  1  0.677374  0.001430  0.248913  1
  Ta  Ta5  1  0.998570  0.675945  0.248913  1
  Ta  Ta6  1  0.333333  0.666667  0.000000  1
  Ta  Ta7  1  0.333333  0.666667  0.500000  1
  Ta  Ta8  1  0.666667  0.333333  0.500000  1
  Ti  Ti9  1  0.666667  0.333333  0.000000  1
  N  N10  1  0.660630  0.660942  0.378471  1
  N  N11  1  0.339058  0.999689  0.378471  1
  N  N12  1  0.000311  0.339370  0.378471  1
  N  N13  1  0.339058  0.339370  0.621529  1
  N  N14  1  0.660630  0.999689  0.621529  1
  N  N15  1  0.000311  0.660942  0.621529  1
  N  N16  1  0.343237  0.342546  0.879184  1
  N  N17  1  0.657454  0.000692  0.879184  1
  N  N18  1  0.999308  0.656763  0.879184  1
  N  N19  1  0.657454  0.656763  0.120816  1
  N  N20  1  0.343237  0.000692  0.120816  1
  N  N21  1  0.999308  0.342546  0.120816  1
