# generated using pymatgen
data_Dy11Cd2Ni4Hg7
_symmetry_space_group_name_H-M   'P 1'
_cell_length_a   3.60685900
_cell_length_b   12.95413001
_cell_length_c   12.98018815
_cell_angle_alpha   112.52675579
_cell_angle_beta   90.00000000
_cell_angle_gamma   90.00000000
_symmetry_Int_Tables_number   1
_chemical_formula_structural   Dy11Cd2Ni4Hg7
_chemical_formula_sum   'Dy11 Cd2 Ni4 Hg7'
_cell_volume   560.20849470
_cell_formula_units_Z   1
loop_
 _symmetry_equiv_pos_site_id
 _symmetry_equiv_pos_as_xyz
  1  'x, y, z'
loop_
 _atom_site_type_symbol
 _atom_site_label
 _atom_site_symmetry_multiplicity
 _atom_site_fract_x
 _atom_site_fract_y
 _atom_site_fract_z
 _atom_site_occupancy
  Dy  Dy0  1  0.000000  0.917977  0.583321  1
  Dy  Dy1  1  0.000000  0.080774  0.414550  1
  Dy  Dy2  1  0.000000  0.582912  0.918338  1
  Dy  Dy3  1  0.000000  0.416896  0.081816  1
  Dy  Dy4  1  0.000000  0.165117  0.837289  1
  Dy  Dy5  1  0.000000  0.834395  0.165061  1
  Dy  Dy6  1  0.000000  0.373130  0.627814  1
  Dy  Dy7  1  0.000000  0.628191  0.371750  1
  Dy  Dy8  1  0.000000  0.693186  0.693093  1
  Dy  Dy9  1  0.000000  0.307100  0.307004  1
  Dy  Dy10  1  0.000000  0.999705  0.000240  1
  Cd  Cd11  1  0.500000  0.156410  0.630332  1
  Cd  Cd12  1  0.500000  0.500448  0.499884  1
  Ni  Ni13  1  0.500000  0.746782  0.548964  1
  Ni  Ni14  1  0.500000  0.252014  0.452068  1
  Ni  Ni15  1  0.500000  0.549289  0.747495  1
  Ni  Ni16  1  0.500000  0.450762  0.252748  1
  Hg  Hg17  1  0.500000  0.846132  0.370606  1
  Hg  Hg18  1  0.500000  0.629889  0.154615  1
  Hg  Hg19  1  0.500000  0.368268  0.843422  1
  Hg  Hg20  1  0.500000  0.929230  0.781867  1
  Hg  Hg21  1  0.500000  0.071266  0.217305  1
  Hg  Hg22  1  0.500000  0.782110  0.928698  1
  Hg  Hg23  1  0.500000  0.218017  0.071720  1
