# generated using pymatgen
data_Nd12Ga3HgI12
_symmetry_space_group_name_H-M   'P 1'
_cell_length_a   10.95955571
_cell_length_b   10.95955641
_cell_length_c   10.95955600
_cell_angle_alpha   109.72666466
_cell_angle_beta   109.72667152
_cell_angle_gamma   109.72666506
_symmetry_Int_Tables_number   1
_chemical_formula_structural   Nd12Ga3HgI12
_chemical_formula_sum   'Nd12 Ga3 Hg1 I12'
_cell_volume   1003.64599467
_cell_formula_units_Z   1
loop_
 _symmetry_equiv_pos_site_id
 _symmetry_equiv_pos_as_xyz
  1  'x, y, z'
loop_
 _atom_site_type_symbol
 _atom_site_label
 _atom_site_symmetry_multiplicity
 _atom_site_fract_x
 _atom_site_fract_y
 _atom_site_fract_z
 _atom_site_occupancy
  Nd  Nd0  1  0.749997  0.235201  0.264778  1
  Nd  Nd1  1  0.486257  0.750008  0.013761  1
  Nd  Nd2  1  0.025646  0.266147  0.008321  1
  Nd  Nd3  1  0.266144  0.008318  0.025625  1
  Nd  Nd4  1  0.235214  0.264795  0.750011  1
  Nd  Nd5  1  0.264787  0.749977  0.235215  1
  Nd  Nd6  1  0.233848  0.474357  0.491674  1
  Nd  Nd7  1  0.474363  0.491692  0.233862  1
  Nd  Nd8  1  0.749997  0.013759  0.486257  1
  Nd  Nd9  1  0.491698  0.233880  0.474389  1
  Nd  Nd10  1  0.008297  0.025627  0.266117  1
  Nd  Nd11  1  0.013750  0.486231  0.749997  1
  Ga  Ga12  1  0.999021  0.250010  0.500994  1
  Ga  Ga13  1  0.250000  0.500978  0.999016  1
  Ga  Ga14  1  0.500967  0.999006  0.249978  1
  Hg  Hg15  1  0.249997  0.250007  0.249994  1
  I  I16  1  0.757292  0.742716  0.250005  1
  I  I17  1  0.506463  0.250009  0.993547  1
  I  I18  1  0.249999  0.993547  0.506457  1
  I  I19  1  0.514150  0.507650  0.758269  1
  I  I20  1  0.507657  0.758264  0.514142  1
  I  I21  1  0.758262  0.514140  0.507645  1
  I  I22  1  0.742715  0.249997  0.757291  1
  I  I23  1  0.250001  0.757277  0.742721  1
  I  I24  1  0.985854  0.741736  0.992353  1
  I  I25  1  0.993540  0.506447  0.249988  1
  I  I26  1  0.992347  0.985872  0.741740  1
  I  I27  1  0.741736  0.992352  0.985851  1
