# generated using pymatgen
data_Y10C4Cl17
_symmetry_space_group_name_H-M   'P 1'
_cell_length_a   8.42323673
_cell_length_b   9.12031575
_cell_length_c   11.37286800
_cell_angle_alpha   104.95878003
_cell_angle_beta   95.83019271
_cell_angle_gamma   110.30634656
_symmetry_Int_Tables_number   1
_chemical_formula_structural   Y10C4Cl17
_chemical_formula_sum   'Y10 C4 Cl17'
_cell_volume   773.80694954
_cell_formula_units_Z   1
loop_
 _symmetry_equiv_pos_site_id
 _symmetry_equiv_pos_as_xyz
  1  'x, y, z'
loop_
 _atom_site_type_symbol
 _atom_site_label
 _atom_site_symmetry_multiplicity
 _atom_site_fract_x
 _atom_site_fract_y
 _atom_site_fract_z
 _atom_site_occupancy
  Y  Y0  1  0.207707  0.095249  0.305997  1
  Y  Y1  1  0.792303  0.904746  0.694003  1
  Y  Y2  1  0.653892  0.489562  0.437845  1
  Y  Y3  1  0.346104  0.510434  0.562158  1
  Y  Y4  1  0.081731  0.423263  0.269182  1
  Y  Y5  1  0.918265  0.576728  0.730822  1
  Y  Y6  1  0.409363  0.368892  0.137102  1
  Y  Y7  1  0.590638  0.631113  0.862901  1
  Y  Y8  1  0.491040  0.784458  0.342658  1
  Y  Y9  1  0.508949  0.215538  0.657342  1
  C  C10  1  0.397823  0.530719  0.344833  1
  C  C11  1  0.602173  0.469280  0.655171  1
  C  C12  1  0.327820  0.361517  0.338784  1
  C  C13  1  0.672176  0.638473  0.661214  1
  Cl  Cl14  1  0.101822  0.348925  0.036043  1
  Cl  Cl15  1  0.898193  0.651118  0.963965  1
  Cl  Cl16  1  0.815019  0.824776  0.443343  1
  Cl  Cl17  1  0.184971  0.175210  0.556653  1
  Cl  Cl18  1  0.000005  0.500017  0.500002  1
  Cl  Cl19  1  0.300418  0.041281  0.089781  1
  Cl  Cl20  1  0.699583  0.958724  0.910215  1
  Cl  Cl21  1  0.901862  0.102116  0.246651  1
  Cl  Cl22  1  0.098144  0.897874  0.753357  1
  Cl  Cl23  1  0.549211  0.127973  0.408006  1
  Cl  Cl24  1  0.450793  0.872028  0.591991  1
  Cl  Cl25  1  0.741542  0.413312  0.209260  1
  Cl  Cl26  1  0.258461  0.586694  0.790745  1
  Cl  Cl27  1  0.160041  0.757484  0.283831  1
  Cl  Cl28  1  0.839952  0.242503  0.716142  1
  Cl  Cl29  1  0.535341  0.687107  0.110278  1
  Cl  Cl30  1  0.464660  0.312894  0.889727  1
