# generated using pymatgen
data_Tb4DyHo7Co5Bi
_symmetry_space_group_name_H-M   'P 1'
_cell_length_a   8.32372702
_cell_length_b   8.32372764
_cell_length_c   8.32048415
_cell_angle_alpha   110.96521125
_cell_angle_beta   110.59715274
_cell_angle_gamma   106.89868643
_symmetry_Int_Tables_number   1
_chemical_formula_structural   Tb4DyHo7Co5Bi
_chemical_formula_sum   'Tb4 Dy1 Ho7 Co5 Bi1'
_cell_volume   443.00765122
_cell_formula_units_Z   1
loop_
 _symmetry_equiv_pos_site_id
 _symmetry_equiv_pos_as_xyz
  1  'x, y, z'
loop_
 _atom_site_type_symbol
 _atom_site_label
 _atom_site_symmetry_multiplicity
 _atom_site_fract_x
 _atom_site_fract_y
 _atom_site_fract_z
 _atom_site_occupancy
  Tb  Tb0  1  0.598039  0.793509  0.804997  1
  Tb  Tb1  1  0.400494  0.205654  0.194451  1
  Tb  Tb2  1  0.988798  0.793959  0.194451  1
  Tb  Tb3  1  0.011490  0.206958  0.804997  1
  Dy  Dy4  1  0.816702  0.709608  0.526309  1
  Ho  Ho5  1  0.183123  0.290378  0.473501  1
  Ho  Ho6  1  0.183582  0.709185  0.892768  1
  Ho  Ho7  1  0.816999  0.290244  0.107240  1
  Ho  Ho8  1  0.687820  0.378361  0.690421  1
  Ho  Ho9  1  0.311584  0.621329  0.309307  1
  Ho  Ho10  1  0.687976  0.997722  0.309307  1
  Ho  Ho11  1  0.312060  0.002601  0.690421  1
  Co  Co12  1  0.623114  0.000109  0.623223  1
  Co  Co13  1  0.377009  0.000103  0.377112  1
  Co  Co14  1  0.112052  0.611010  0.500535  1
  Co  Co15  1  0.889525  0.388482  0.500535  1
  Co  Co16  1  0.999286  0.000818  0.000105  1
  Bi  Bi17  1  0.500349  0.499971  0.000323  1
