# generated using pymatgen
data_CeTm7(CdCo)2
_symmetry_space_group_name_H-M   'P 1'
_cell_length_a   9.37224446
_cell_length_b   9.37258081
_cell_length_c   9.44348389
_cell_angle_alpha   59.63683227
_cell_angle_beta   59.63394416
_cell_angle_gamma   59.83468417
_symmetry_Int_Tables_number   1
_chemical_formula_structural   CeTm7(CdCo)2
_chemical_formula_sum   'Ce2 Tm14 Cd4 Co4'
_cell_volume   582.59265329
_cell_formula_units_Z   2
loop_
 _symmetry_equiv_pos_site_id
 _symmetry_equiv_pos_as_xyz
  1  'x, y, z'
loop_
 _atom_site_type_symbol
 _atom_site_label
 _atom_site_symmetry_multiplicity
 _atom_site_fract_x
 _atom_site_fract_y
 _atom_site_fract_z
 _atom_site_occupancy
  Ce  Ce0  1  0.336369  0.336322  0.347516  1
  Ce  Ce1  1  0.338148  0.338114  0.974341  1
  Tm  Tm2  1  0.350903  0.951308  0.349302  1
  Tm  Tm3  1  0.951294  0.350873  0.349316  1
  Tm  Tm4  1  0.812979  0.188868  0.187355  1
  Tm  Tm5  1  0.187699  0.814830  0.811504  1
  Tm  Tm6  1  0.188850  0.813007  0.187349  1
  Tm  Tm7  1  0.814819  0.187715  0.811509  1
  Tm  Tm8  1  0.187502  0.187532  0.812942  1
  Tm  Tm9  1  0.814847  0.814860  0.185056  1
  Tm  Tm10  1  0.937782  0.563659  0.564313  1
  Tm  Tm11  1  0.562422  0.937853  0.937204  1
  Tm  Tm12  1  0.563646  0.937781  0.564333  1
  Tm  Tm13  1  0.937866  0.562424  0.937201  1
  Tm  Tm14  1  0.561173  0.561196  0.939122  1
  Tm  Tm15  1  0.938443  0.938434  0.561492  1
  Cd  Cd16  1  0.579811  0.579863  0.579984  1
  Cd  Cd17  1  0.579684  0.579715  0.257806  1
  Cd  Cd18  1  0.579307  0.255199  0.581913  1
  Cd  Cd19  1  0.255193  0.579345  0.581898  1
  Co  Co20  1  0.148590  0.148556  0.135025  1
  Co  Co21  1  0.150490  0.150450  0.567202  1
  Co  Co22  1  0.154165  0.567979  0.138155  1
  Co  Co23  1  0.568019  0.154117  0.138164  1
