# generated using pymatgen
data_MgSc4Ge(B2Ir5)2
_symmetry_space_group_name_H-M   'P 1'
_cell_length_a   9.44348300
_cell_length_b   9.44348300
_cell_length_c   3.08092800
_cell_angle_alpha   90.00000000
_cell_angle_beta   90.00000000
_cell_angle_gamma   90.00000000
_symmetry_Int_Tables_number   1
_chemical_formula_structural   MgSc4Ge(B2Ir5)2
_chemical_formula_sum   'Mg1 Sc4 Ge1 B4 Ir10'
_cell_volume   274.75522166
_cell_formula_units_Z   1
loop_
 _symmetry_equiv_pos_site_id
 _symmetry_equiv_pos_as_xyz
  1  'x, y, z'
loop_
 _atom_site_type_symbol
 _atom_site_label
 _atom_site_symmetry_multiplicity
 _atom_site_fract_x
 _atom_site_fract_y
 _atom_site_fract_z
 _atom_site_occupancy
  Mg  Mg0  1  0.000000  0.000000  0.000000  1
  Sc  Sc1  1  0.678173  0.173235  0.000000  1
  Sc  Sc2  1  0.321827  0.826765  0.000000  1
  Sc  Sc3  1  0.173235  0.321827  0.000000  1
  Sc  Sc4  1  0.826765  0.678173  0.000000  1
  Ge  Ge5  1  0.500000  0.500000  0.000000  1
  B  B6  1  0.122910  0.625693  0.000000  1
  B  B7  1  0.877090  0.374307  0.000000  1
  B  B8  1  0.625693  0.877090  0.000000  1
  B  B9  1  0.374307  0.122910  0.000000  1
  Ir  Ir10  1  0.220181  0.073443  0.500000  1
  Ir  Ir11  1  0.779819  0.926557  0.500000  1
  Ir  Ir12  1  0.073443  0.779819  0.500000  1
  Ir  Ir13  1  0.714861  0.432303  0.500000  1
  Ir  Ir14  1  0.926557  0.220181  0.500000  1
  Ir  Ir15  1  0.285139  0.567697  0.500000  1
  Ir  Ir16  1  0.567697  0.714861  0.500000  1
  Ir  Ir17  1  0.432303  0.285139  0.500000  1
  Ir  Ir18  1  0.500000  0.000000  0.500000  1
  Ir  Ir19  1  0.000000  0.500000  0.500000  1
