# generated using pymatgen
data_Dy5Tm11(AlRh)4
_symmetry_space_group_name_H-M   'P 1'
_cell_length_a   9.45122065
_cell_length_b   9.44835694
_cell_length_c   9.44835699
_cell_angle_alpha   60.08371900
_cell_angle_beta   59.94744781
_cell_angle_gamma   59.94744487
_symmetry_Int_Tables_number   1
_chemical_formula_structural   Dy5Tm11(AlRh)4
_chemical_formula_sum   'Dy5 Tm11 Al4 Rh4'
_cell_volume   596.50438624
_cell_formula_units_Z   1
loop_
 _symmetry_equiv_pos_site_id
 _symmetry_equiv_pos_as_xyz
  1  'x, y, z'
loop_
 _atom_site_type_symbol
 _atom_site_label
 _atom_site_symmetry_multiplicity
 _atom_site_fract_x
 _atom_site_fract_y
 _atom_site_fract_z
 _atom_site_occupancy
  Dy  Dy0  1  0.063774  0.064178  0.434883  1
  Dy  Dy1  1  0.436092  0.064109  0.435887  1
  Dy  Dy2  1  0.063774  0.434883  0.064178  1
  Dy  Dy3  1  0.058644  0.646320  0.646320  1
  Dy  Dy4  1  0.436092  0.435887  0.064109  1
  Tm  Tm5  1  0.646453  0.058624  0.644894  1
  Tm  Tm6  1  0.192155  0.809008  0.191708  1
  Tm  Tm7  1  0.192155  0.191708  0.809008  1
  Tm  Tm8  1  0.806815  0.806988  0.194276  1
  Tm  Tm9  1  0.438555  0.060307  0.060307  1
  Tm  Tm10  1  0.808975  0.191974  0.191974  1
  Tm  Tm11  1  0.061301  0.438266  0.438266  1
  Tm  Tm12  1  0.806815  0.194276  0.806988  1
  Tm  Tm13  1  0.193431  0.808275  0.808275  1
  Tm  Tm14  1  0.646453  0.644894  0.058624  1
  Tm  Tm15  1  0.648081  0.649620  0.649620  1
  Al  Al16  1  0.422814  0.421910  0.421910  1
  Al  Al17  1  0.733031  0.422604  0.422604  1
  Al  Al18  1  0.423711  0.732020  0.422001  1
  Al  Al19  1  0.423711  0.422001  0.732020  1
  Rh  Rh20  1  0.857418  0.857728  0.426229  1
  Rh  Rh21  1  0.854346  0.859469  0.859469  1
  Rh  Rh22  1  0.427986  0.858721  0.858721  1
  Rh  Rh23  1  0.857418  0.426229  0.857728  1
