# generated using pymatgen
data_DyNi3HgPt
_symmetry_space_group_name_H-M   'P 1'
_cell_length_a   5.03318984
_cell_length_b   5.03319085
_cell_length_c   5.14800280
_cell_angle_alpha   60.73505520
_cell_angle_beta   60.73505211
_cell_angle_gamma   60.00000888
_symmetry_Int_Tables_number   1
_chemical_formula_structural   DyNi3HgPt
_chemical_formula_sum   'Dy1 Ni3 Hg1 Pt1'
_cell_volume   93.22821355
_cell_formula_units_Z   1
loop_
 _symmetry_equiv_pos_site_id
 _symmetry_equiv_pos_as_xyz
  1  'x, y, z'
loop_
 _atom_site_type_symbol
 _atom_site_label
 _atom_site_symmetry_multiplicity
 _atom_site_fract_x
 _atom_site_fract_y
 _atom_site_fract_z
 _atom_site_occupancy
  Dy  Dy0  1  0.248830  0.248830  0.253512  1
  Ni  Ni1  1  0.624894  0.121929  0.628283  1
  Ni  Ni2  1  0.121929  0.624894  0.628283  1
  Ni  Ni3  1  0.624894  0.624894  0.628283  1
  Hg  Hg4  1  0.005119  0.005119  0.984644  1
  Pt  Pt5  1  0.624335  0.624335  0.126995  1
