# generated using pymatgen
data_Np4Ga12Pt
_symmetry_space_group_name_H-M   'P 1'
_cell_length_a   7.49831673
_cell_length_b   7.49591401
_cell_length_c   7.49831706
_cell_angle_alpha   109.59454336
_cell_angle_beta   109.23786799
_cell_angle_gamma   109.59456319
_symmetry_Int_Tables_number   1
_chemical_formula_structural   Np4Ga12Pt
_chemical_formula_sum   'Np4 Ga12 Pt1'
_cell_volume   324.38047828
_cell_formula_units_Z   1
loop_
 _symmetry_equiv_pos_site_id
 _symmetry_equiv_pos_as_xyz
  1  'x, y, z'
loop_
 _atom_site_type_symbol
 _atom_site_label
 _atom_site_symmetry_multiplicity
 _atom_site_fract_x
 _atom_site_fract_y
 _atom_site_fract_z
 _atom_site_occupancy
  Np  Np0  1  0.500000  0.500000  0.500000  1
  Np  Np1  1  0.000000  0.500000  0.000000  1
  Np  Np2  1  0.000000  0.000000  0.500000  1
  Np  Np3  1  0.500000  0.000000  0.000000  1
  Ga  Ga4  1  0.999731  0.294761  0.295030  1
  Ga  Ga5  1  0.000269  0.705239  0.704970  1
  Ga  Ga6  1  0.294808  0.000000  0.294808  1
  Ga  Ga7  1  0.705192  0.000000  0.705192  1
  Ga  Ga8  1  0.295030  0.294761  0.999731  1
  Ga  Ga9  1  0.704970  0.705239  0.000269  1
  Ga  Ga10  1  0.499945  0.750135  0.250192  1
  Ga  Ga11  1  0.500055  0.249865  0.749808  1
  Ga  Ga12  1  0.250000  0.500000  0.750000  1
  Ga  Ga13  1  0.750000  0.500000  0.250000  1
  Ga  Ga14  1  0.749808  0.249865  0.500055  1
  Ga  Ga15  1  0.250192  0.750135  0.499945  1
  Pt  Pt16  1  0.000000  0.000000  0.000000  1
