# generated using pymatgen
data_Ho2InB2Ru5
_symmetry_space_group_name_H-M   'P 1'
_cell_length_a   9.74291500
_cell_length_b   9.74291500
_cell_length_c   3.14679200
_cell_angle_alpha   90.00000000
_cell_angle_beta   90.00000000
_cell_angle_gamma   90.00000000
_symmetry_Int_Tables_number   1
_chemical_formula_structural   Ho2InB2Ru5
_chemical_formula_sum   'Ho4 In2 B4 Ru10'
_cell_volume   298.70731954
_cell_formula_units_Z   2
loop_
 _symmetry_equiv_pos_site_id
 _symmetry_equiv_pos_as_xyz
  1  'x, y, z'
loop_
 _atom_site_type_symbol
 _atom_site_label
 _atom_site_symmetry_multiplicity
 _atom_site_fract_x
 _atom_site_fract_y
 _atom_site_fract_z
 _atom_site_occupancy
  Ho  Ho0  1  0.675071  0.175071  0.000000  1
  Ho  Ho1  1  0.324929  0.824929  0.000000  1
  Ho  Ho2  1  0.175071  0.324929  0.000000  1
  Ho  Ho3  1  0.824929  0.675071  0.000000  1
  In  In4  1  0.000000  0.000000  0.000000  1
  In  In5  1  0.500000  0.500000  0.000000  1
  B  B6  1  0.121633  0.621633  0.000000  1
  B  B7  1  0.878367  0.378367  0.000000  1
  B  B8  1  0.621633  0.878367  0.000000  1
  B  B9  1  0.378367  0.121633  0.000000  1
  Ru  Ru10  1  0.224881  0.070684  0.500000  1
  Ru  Ru11  1  0.775119  0.929316  0.500000  1
  Ru  Ru12  1  0.070684  0.775119  0.500000  1
  Ru  Ru13  1  0.724881  0.429316  0.500000  1
  Ru  Ru14  1  0.929316  0.224881  0.500000  1
  Ru  Ru15  1  0.275119  0.570684  0.500000  1
  Ru  Ru16  1  0.570684  0.724881  0.500000  1
  Ru  Ru17  1  0.429316  0.275119  0.500000  1
  Ru  Ru18  1  0.500000  0.000000  0.500000  1
  Ru  Ru19  1  0.000000  0.500000  0.500000  1
