# generated using pymatgen
data_Gd11DyNi5Pb
_symmetry_space_group_name_H-M   'P 1'
_cell_length_a   8.43424751
_cell_length_b   8.43443748
_cell_length_c   8.43175300
_cell_angle_alpha   110.85899173
_cell_angle_beta   110.75174125
_cell_angle_gamma   106.85154853
_symmetry_Int_Tables_number   1
_chemical_formula_structural   Gd11DyNi5Pb
_chemical_formula_sum   'Gd11 Dy1 Ni5 Pb1'
_cell_volume   460.92009226
_cell_formula_units_Z   1
loop_
 _symmetry_equiv_pos_site_id
 _symmetry_equiv_pos_as_xyz
  1  'x, y, z'
loop_
 _atom_site_type_symbol
 _atom_site_label
 _atom_site_symmetry_multiplicity
 _atom_site_fract_x
 _atom_site_fract_y
 _atom_site_fract_z
 _atom_site_occupancy
  Gd  Gd0  1  0.704037  0.817809  0.522477  1
  Gd  Gd1  1  0.296781  0.819978  0.115783  1
  Gd  Gd2  1  0.701832  0.180415  0.882396  1
  Gd  Gd3  1  0.628402  0.320766  0.307427  1
  Gd  Gd4  1  0.370852  0.679171  0.692732  1
  Gd  Gd5  1  0.013341  0.321254  0.692995  1
  Gd  Gd6  1  0.986803  0.679902  0.307416  1
  Gd  Gd7  1  0.209153  0.399995  0.190590  1
  Gd  Gd8  1  0.791661  0.602055  0.809139  1
  Gd  Gd9  1  0.207325  0.018389  0.810614  1
  Gd  Gd10  1  0.791978  0.981971  0.191748  1
  Dy  Dy11  1  0.295571  0.181252  0.476463  1
  Ni  Ni12  1  0.002311  0.365769  0.366995  1
  Ni  Ni13  1  0.997142  0.633077  0.629353  1
  Ni  Ni14  1  0.375018  0.875036  0.498080  1
  Ni  Ni15  1  0.622246  0.122498  0.498496  1
  Ni  Ni16  1  0.006166  0.002176  0.009622  1
  Pb  Pb17  1  0.499378  0.498489  0.997671  1
