# generated using pymatgen
data_Nd7ThInPd24
_symmetry_space_group_name_H-M   'P 1'
_cell_length_a   8.54678320
_cell_length_b   8.54678320
_cell_length_c   8.54678320
_cell_angle_alpha   89.92981674
_cell_angle_beta   89.92981674
_cell_angle_gamma   89.92981674
_symmetry_Int_Tables_number   1
_chemical_formula_structural   Nd7ThInPd24
_chemical_formula_sum   'Nd7 Th1 In1 Pd24'
_cell_volume   624.31976891
_cell_formula_units_Z   1
loop_
 _symmetry_equiv_pos_site_id
 _symmetry_equiv_pos_as_xyz
  1  'x, y, z'
loop_
 _atom_site_type_symbol
 _atom_site_label
 _atom_site_symmetry_multiplicity
 _atom_site_fract_x
 _atom_site_fract_y
 _atom_site_fract_z
 _atom_site_occupancy
  Nd  Nd0  1  0.748641  0.748641  0.748641  1
  Nd  Nd1  1  0.748702  0.748702  0.251316  1
  Nd  Nd2  1  0.748702  0.251316  0.748702  1
  Nd  Nd3  1  0.251222  0.251222  0.748951  1
  Nd  Nd4  1  0.251222  0.748951  0.251222  1
  Nd  Nd5  1  0.251316  0.748702  0.748702  1
  Nd  Nd6  1  0.748951  0.251222  0.251222  1
  Th  Th7  1  0.252531  0.252531  0.252531  1
  In  In8  1  0.999301  0.999301  0.999301  1
  Pd  Pd9  1  0.266898  0.498637  0.001921  1
  Pd  Pd10  1  0.733076  0.499830  0.000062  1
  Pd  Pd11  1  0.001921  0.266898  0.498637  1
  Pd  Pd12  1  0.498637  0.266898  0.001921  1
  Pd  Pd13  1  0.000062  0.733076  0.499830  1
  Pd  Pd14  1  0.499830  0.733076  0.000062  1
  Pd  Pd15  1  0.498637  0.001921  0.266898  1
  Pd  Pd16  1  0.266898  0.001921  0.498637  1
  Pd  Pd17  1  0.499830  0.000062  0.733076  1
  Pd  Pd18  1  0.733076  0.000062  0.499830  1
  Pd  Pd19  1  0.001921  0.498637  0.266898  1
  Pd  Pd20  1  0.000062  0.499830  0.733076  1
  Pd  Pd21  1  0.255401  0.498372  0.498372  1
  Pd  Pd22  1  0.744837  0.499851  0.499851  1
  Pd  Pd23  1  0.498372  0.255401  0.498372  1
  Pd  Pd24  1  0.499851  0.744837  0.499851  1
  Pd  Pd25  1  0.498372  0.498372  0.255401  1
  Pd  Pd26  1  0.499851  0.499851  0.744837  1
  Pd  Pd27  1  0.313460  0.001149  0.001149  1
  Pd  Pd28  1  0.686049  0.000035  0.000035  1
  Pd  Pd29  1  0.001149  0.313460  0.001149  1
  Pd  Pd30  1  0.000035  0.686049  0.000035  1
  Pd  Pd31  1  0.001149  0.001149  0.313460  1
  Pd  Pd32  1  0.000035  0.000035  0.686049  1
