# generated using pymatgen
data_TmZn6(Ga2Cu)2
_symmetry_space_group_name_H-M   'P 1'
_cell_length_a   6.73197271
_cell_length_b   6.73659827
_cell_length_c   6.73659750
_cell_angle_alpha   98.73937037
_cell_angle_beta   99.06670264
_cell_angle_gamma   133.71392980
_symmetry_Int_Tables_number   1
_chemical_formula_structural   TmZn6(Ga2Cu)2
_chemical_formula_sum   'Tm1 Zn6 Ga4 Cu2'
_cell_volume   202.98003682
_cell_formula_units_Z   1
loop_
 _symmetry_equiv_pos_site_id
 _symmetry_equiv_pos_as_xyz
  1  'x, y, z'
loop_
 _atom_site_type_symbol
 _atom_site_label
 _atom_site_symmetry_multiplicity
 _atom_site_fract_x
 _atom_site_fract_y
 _atom_site_fract_z
 _atom_site_occupancy
  Tm  Tm0  1  0.000000  0.000000  0.000000  1
  Zn  Zn1  1  0.000000  0.000000  0.500000  1
  Zn  Zn2  1  0.000000  0.500000  0.000000  1
  Zn  Zn3  1  0.500000  0.288022  0.788022  1
  Zn  Zn4  1  0.500000  0.711978  0.211978  1
  Zn  Zn5  1  0.702794  0.491647  0.211147  1
  Zn  Zn6  1  0.297206  0.508353  0.788853  1
  Ga  Ga7  1  0.000000  0.348884  0.348884  1
  Ga  Ga8  1  0.000000  0.651116  0.651116  1
  Ga  Ga9  1  0.636890  0.986179  0.650712  1
  Ga  Ga10  1  0.363110  0.013821  0.349288  1
  Cu  Cu11  1  0.500000  0.500000  0.500000  1
  Cu  Cu12  1  0.500000  0.000000  0.000000  1
