# generated using pymatgen
data_RbSb2Cl7
_symmetry_space_group_name_H-M   'P 1'
_cell_length_a   7.56687491
_cell_length_b   9.36087197
_cell_length_c   10.06927424
_cell_angle_alpha   78.71395512
_cell_angle_beta   85.33268278
_cell_angle_gamma   75.69506006
_symmetry_Int_Tables_number   1
_chemical_formula_structural   RbSb2Cl7
_chemical_formula_sum   'Rb2 Sb4 Cl14'
_cell_volume   677.34441317
_cell_formula_units_Z   2
loop_
 _symmetry_equiv_pos_site_id
 _symmetry_equiv_pos_as_xyz
  1  'x, y, z'
loop_
 _atom_site_type_symbol
 _atom_site_label
 _atom_site_symmetry_multiplicity
 _atom_site_fract_x
 _atom_site_fract_y
 _atom_site_fract_z
 _atom_site_occupancy
  Rb  Rb0  1  0.385001  0.860011  0.317227  1
  Rb  Rb1  1  0.614999  0.139989  0.682773  1
  Sb  Sb2  1  0.869037  0.647344  0.624837  1
  Sb  Sb3  1  0.130963  0.352656  0.375163  1
  Sb  Sb4  1  0.308098  0.711731  0.931696  1
  Sb  Sb5  1  0.691902  0.288269  0.068304  1
  Cl  Cl6  1  0.879749  0.845150  0.433254  1
  Cl  Cl7  1  0.120251  0.154850  0.566746  1
  Cl  Cl8  1  0.955957  0.808369  0.778360  1
  Cl  Cl9  1  0.044043  0.191631  0.221640  1
  Cl  Cl10  1  0.527172  0.779925  0.655401  1
  Cl  Cl11  1  0.472828  0.220075  0.344599  1
  Cl  Cl12  1  0.772383  0.485372  0.449244  1
  Cl  Cl13  1  0.227617  0.514628  0.550756  1
  Cl  Cl14  1  0.869353  0.330929  0.856031  1
  Cl  Cl15  1  0.130647  0.669071  0.143969  1
  Cl  Cl16  1  0.275253  0.972200  0.941482  1
  Cl  Cl17  1  0.724747  0.027800  0.058518  1
  Cl  Cl18  1  0.595945  0.641842  0.056129  1
  Cl  Cl19  1  0.404055  0.358158  0.943871  1
