# generated using pymatgen
data_TaMnNi10(BO5)4
_symmetry_space_group_name_H-M   'P 1'
_cell_length_a   6.13383688
_cell_length_b   6.13383718
_cell_length_c   21.93676713
_cell_angle_alpha   80.06280804
_cell_angle_beta   80.06280744
_cell_angle_gamma   60.87852071
_symmetry_Int_Tables_number   1
_chemical_formula_structural   TaMnNi10(BO5)4
_chemical_formula_sum   'Ta2 Mn2 Ni20 B8 O40'
_cell_volume   706.42505025
_cell_formula_units_Z   2
loop_
 _symmetry_equiv_pos_site_id
 _symmetry_equiv_pos_as_xyz
  1  'x, y, z'
loop_
 _atom_site_type_symbol
 _atom_site_label
 _atom_site_symmetry_multiplicity
 _atom_site_fract_x
 _atom_site_fract_y
 _atom_site_fract_z
 _atom_site_occupancy
  Ta  Ta0  1  0.714250  0.285750  0.750000  1
  Ta  Ta1  1  0.285750  0.714250  0.250000  1
  Mn  Mn2  1  0.000000  0.000000  0.500000  1
  Mn  Mn3  1  0.000000  0.000000  0.000000  1
  Ni  Ni4  1  0.578623  0.206102  0.609496  1
  Ni  Ni5  1  0.421377  0.793898  0.390504  1
  Ni  Ni6  1  0.793898  0.421377  0.890504  1
  Ni  Ni7  1  0.206102  0.578623  0.109496  1
  Ni  Ni8  1  0.189565  0.810435  0.750000  1
  Ni  Ni9  1  0.810435  0.189565  0.250000  1
  Ni  Ni10  1  0.682790  0.816570  0.749680  1
  Ni  Ni11  1  0.317210  0.183430  0.250320  1
  Ni  Ni12  1  0.183430  0.317210  0.750320  1
  Ni  Ni13  1  0.816570  0.682790  0.249680  1
  Ni  Ni14  1  0.507758  0.745439  0.999577  1
  Ni  Ni15  1  0.492242  0.254561  0.000423  1
  Ni  Ni16  1  0.254561  0.492242  0.500423  1
  Ni  Ni17  1  0.745439  0.507758  0.499577  1
  Ni  Ni18  1  0.500000  0.000000  0.500000  1
  Ni  Ni19  1  0.000000  0.500000  0.000000  1
  Ni  Ni20  1  0.796250  0.919360  0.892377  1
  Ni  Ni21  1  0.203750  0.080640  0.107623  1
  Ni  Ni22  1  0.080640  0.203750  0.607623  1
  Ni  Ni23  1  0.919360  0.796250  0.392377  1
  B  B24  1  0.568651  0.695233  0.630172  1
  B  B25  1  0.431349  0.304767  0.369828  1
  B  B26  1  0.304767  0.431349  0.869828  1
  B  B27  1  0.695233  0.568651  0.130172  1
  B  B28  1  0.308024  0.929466  0.866816  1
  B  B29  1  0.691976  0.070534  0.133184  1
  B  B30  1  0.070534  0.691976  0.633184  1
  B  B31  1  0.929466  0.308024  0.366816  1
  O  O32  1  0.338091  0.955495  0.801019  1
  O  O33  1  0.661909  0.044505  0.198981  1
  O  O34  1  0.044505  0.661909  0.698981  1
  O  O35  1  0.955495  0.338091  0.301019  1
  O  O36  1  0.631334  0.238231  0.514721  1
  O  O37  1  0.368666  0.761769  0.485279  1
  O  O38  1  0.761769  0.368666  0.985279  1
  O  O39  1  0.238231  0.631334  0.014721  1
  O  O40  1  0.517830  0.801702  0.899790  1
  O  O41  1  0.482170  0.198298  0.100210  1
  O  O42  1  0.198298  0.482170  0.600210  1
  O  O43  1  0.801702  0.517830  0.399790  1
  O  O44  1  0.514379  0.301659  0.901454  1
  O  O45  1  0.485621  0.698341  0.098546  1
  O  O46  1  0.698341  0.485621  0.598546  1
  O  O47  1  0.301659  0.514379  0.401454  1
  O  O48  1  0.466673  0.935065  0.600607  1
  O  O49  1  0.533327  0.064935  0.399393  1
  O  O50  1  0.064935  0.533327  0.899393  1
  O  O51  1  0.935065  0.466673  0.100607  1
  O  O52  1  0.830078  0.967799  0.799440  1
  O  O53  1  0.169922  0.032201  0.200560  1
  O  O54  1  0.032201  0.169922  0.700560  1
  O  O55  1  0.967799  0.830078  0.299440  1
  O  O56  1  0.537809  0.184130  0.703380  1
  O  O57  1  0.462191  0.815870  0.296620  1
  O  O58  1  0.815870  0.462191  0.796620  1
  O  O59  1  0.184130  0.537809  0.203380  1
  O  O60  1  0.932114  0.966056  0.103334  1
  O  O61  1  0.067886  0.033944  0.896666  1
  O  O62  1  0.033944  0.067886  0.396666  1
  O  O63  1  0.966056  0.932114  0.603334  1
  O  O64  1  0.760586  0.888686  0.986163  1
  O  O65  1  0.239414  0.111314  0.013837  1
  O  O66  1  0.111314  0.239414  0.513837  1
  O  O67  1  0.888686  0.760586  0.486163  1
  O  O68  1  0.543706  0.656543  0.696670  1
  O  O69  1  0.456294  0.343457  0.303330  1
  O  O70  1  0.343457  0.456294  0.803330  1
  O  O71  1  0.656543  0.543706  0.196670  1
