# generated using pymatgen
data_Zr16Nb2Cu3NiP8
_symmetry_space_group_name_H-M   'P 1'
_cell_length_a   12.03822145
_cell_length_b   12.03822145
_cell_length_c   3.69736600
_cell_angle_alpha   90.00000000
_cell_angle_beta   90.00000000
_cell_angle_gamma   89.76904089
_symmetry_Int_Tables_number   1
_chemical_formula_structural   Zr16Nb2Cu3NiP8
_chemical_formula_sum   'Zr16 Nb2 Cu3 Ni1 P8'
_cell_volume   535.81340082
_cell_formula_units_Z   1
loop_
 _symmetry_equiv_pos_site_id
 _symmetry_equiv_pos_as_xyz
  1  'x, y, z'
loop_
 _atom_site_type_symbol
 _atom_site_label
 _atom_site_symmetry_multiplicity
 _atom_site_fract_x
 _atom_site_fract_y
 _atom_site_fract_z
 _atom_site_occupancy
  Zr  Zr0  1  0.098129  0.176018  0.500000  1
  Zr  Zr1  1  0.176062  0.901949  0.500000  1
  Zr  Zr2  1  0.823585  0.096605  0.500000  1
  Zr  Zr3  1  0.899021  0.823532  0.500000  1
  Zr  Zr4  1  0.403395  0.676415  0.500000  1
  Zr  Zr5  1  0.598051  0.323938  0.500000  1
  Zr  Zr6  1  0.676468  0.600979  0.500000  1
  Zr  Zr7  1  0.323982  0.401871  0.500000  1
  Zr  Zr8  1  0.095559  0.404441  0.000000  1
  Zr  Zr9  1  0.404456  0.903278  0.000000  1
  Zr  Zr10  1  0.596722  0.095544  0.000000  1
  Zr  Zr11  1  0.901472  0.598528  0.000000  1
  Zr  Zr12  1  0.381557  0.118443  0.500000  1
  Zr  Zr13  1  0.118448  0.618764  0.500000  1
  Zr  Zr14  1  0.881236  0.381552  0.500000  1
  Zr  Zr15  1  0.619873  0.880127  0.500000  1
  Nb  Nb16  1  0.000499  0.000250  0.000000  1
  Nb  Nb17  1  0.499750  0.499501  0.000000  1
  Cu  Cu18  1  0.254215  0.245785  0.000000  1
  Cu  Cu19  1  0.245489  0.745124  0.000000  1
  Cu  Cu20  1  0.754876  0.254511  0.000000  1
  Ni  Ni21  1  0.745393  0.754607  0.000000  1
  P  P22  1  0.223349  0.054250  0.000000  1
  P  P23  1  0.054107  0.777513  0.000000  1
  P  P24  1  0.945578  0.222834  0.000000  1
  P  P25  1  0.777008  0.943687  0.000000  1
  P  P26  1  0.277166  0.554422  0.000000  1
  P  P27  1  0.722487  0.445893  0.000000  1
  P  P28  1  0.556313  0.722992  0.000000  1
  P  P29  1  0.445750  0.276651  0.000000  1
