# generated using pymatgen
data_Sc5Ti(B2Ir5)2
_symmetry_space_group_name_H-M   'P 1'
_cell_length_a   3.11409800
_cell_length_b   9.49437200
_cell_length_c   9.49437200
_cell_angle_alpha   90.00000000
_cell_angle_beta   90.00000000
_cell_angle_gamma   90.00000000
_symmetry_Int_Tables_number   1
_chemical_formula_structural   Sc5Ti(B2Ir5)2
_chemical_formula_sum   'Sc5 Ti1 B4 Ir10'
_cell_volume   280.71444641
_cell_formula_units_Z   1
loop_
 _symmetry_equiv_pos_site_id
 _symmetry_equiv_pos_as_xyz
  1  'x, y, z'
loop_
 _atom_site_type_symbol
 _atom_site_label
 _atom_site_symmetry_multiplicity
 _atom_site_fract_x
 _atom_site_fract_y
 _atom_site_fract_z
 _atom_site_occupancy
  Sc  Sc0  1  0.000000  0.175857  0.675560  1
  Sc  Sc1  1  0.000000  0.824143  0.324440  1
  Sc  Sc2  1  0.000000  0.324440  0.175857  1
  Sc  Sc3  1  0.000000  0.675560  0.824143  1
  Sc  Sc4  1  0.000000  0.500000  0.500000  1
  Ti  Ti5  1  0.000000  0.000000  0.000000  1
  B  B6  1  0.000000  0.621669  0.120713  1
  B  B7  1  0.000000  0.378331  0.879287  1
  B  B8  1  0.000000  0.879287  0.621669  1
  B  B9  1  0.000000  0.120713  0.378331  1
  Ir  Ir10  1  0.500000  0.066802  0.216299  1
  Ir  Ir11  1  0.500000  0.933198  0.783701  1
  Ir  Ir12  1  0.500000  0.783701  0.066802  1
  Ir  Ir13  1  0.500000  0.424865  0.723074  1
  Ir  Ir14  1  0.500000  0.216299  0.933198  1
  Ir  Ir15  1  0.500000  0.575135  0.276926  1
  Ir  Ir16  1  0.500000  0.723074  0.575135  1
  Ir  Ir17  1  0.500000  0.276926  0.424865  1
  Ir  Ir18  1  0.500000  0.000000  0.500000  1
  Ir  Ir19  1  0.500000  0.500000  0.000000  1
