# generated using pymatgen
data_Dy6Al24Os3Ru3Pt2
_symmetry_space_group_name_H-M   'P 1'
_cell_length_a   8.83214244
_cell_length_b   8.81854238
_cell_length_c   9.55716761
_cell_angle_alpha   89.84493666
_cell_angle_beta   89.79797166
_cell_angle_gamma   119.86666763
_symmetry_Int_Tables_number   1
_chemical_formula_structural   Dy6Al24Os3Ru3Pt2
_chemical_formula_sum   'Dy6 Al24 Os3 Ru3 Pt2'
_cell_volume   645.49990625
_cell_formula_units_Z   1
loop_
 _symmetry_equiv_pos_site_id
 _symmetry_equiv_pos_as_xyz
  1  'x, y, z'
loop_
 _atom_site_type_symbol
 _atom_site_label
 _atom_site_symmetry_multiplicity
 _atom_site_fract_x
 _atom_site_fract_y
 _atom_site_fract_z
 _atom_site_occupancy
  Dy  Dy0  1  0.191105  0.806500  0.250716  1
  Dy  Dy1  1  0.193848  0.386778  0.250267  1
  Dy  Dy2  1  0.613860  0.805081  0.250743  1
  Dy  Dy3  1  0.808895  0.193500  0.749284  1
  Dy  Dy4  1  0.806152  0.613222  0.749733  1
  Dy  Dy5  1  0.386140  0.194919  0.749257  1
  Al  Al6  1  0.561430  0.438073  0.249939  1
  Al  Al7  1  0.560437  0.123233  0.246584  1
  Al  Al8  1  0.874387  0.438227  0.252525  1
  Al  Al9  1  0.438570  0.561927  0.750061  1
  Al  Al10  1  0.439563  0.876767  0.753416  1
  Al  Al11  1  0.125613  0.561773  0.747475  1
  Al  Al12  1  0.325343  0.168112  0.421968  1
  Al  Al13  1  0.842645  0.167214  0.421479  1
  Al  Al14  1  0.836129  0.673580  0.422657  1
  Al  Al15  1  0.674657  0.831888  0.578032  1
  Al  Al16  1  0.157355  0.832786  0.578521  1
  Al  Al17  1  0.163871  0.326420  0.577343  1
  Al  Al18  1  0.674171  0.836542  0.922349  1
  Al  Al19  1  0.167744  0.843206  0.921670  1
  Al  Al20  1  0.168519  0.325811  0.922313  1
  Al  Al21  1  0.325829  0.163458  0.077651  1
  Al  Al22  1  0.832256  0.156794  0.078330  1
  Al  Al23  1  0.831481  0.674189  0.077687  1
  Al  Al24  1  0.669541  0.337905  0.523135  1
  Al  Al25  1  0.330459  0.662095  0.476865  1
  Al  Al26  1  0.338598  0.670682  0.023733  1
  Al  Al27  1  0.661402  0.329318  0.976267  1
  Al  Al28  1  0.999368  0.000252  0.250032  1
  Al  Al29  1  0.000632  0.999748  0.749968  1
  Os  Os30  1  0.500000  0.500000  0.500000  1
  Os  Os31  1  0.000000  0.500000  0.500000  1
  Os  Os32  1  0.500000  0.500000  0.000000  1
  Ru  Ru33  1  0.000000  0.000000  0.500000  1
  Ru  Ru34  1  0.000000  0.000000  0.000000  1
  Ru  Ru35  1  0.500000  0.000000  0.000000  1
  Pt  Pt36  1  0.500000  0.000000  0.500000  1
  Pt  Pt37  1  0.000000  0.500000  0.000000  1
