# generated using pymatgen
data_Pr6Dy2Sc11Si16Ag
_symmetry_space_group_name_H-M   'P 1'
_cell_length_a   7.15824557
_cell_length_b   7.51812700
_cell_length_c   14.23111315
_cell_angle_alpha   89.97417320
_cell_angle_beta   90.09446732
_cell_angle_gamma   90.17586168
_symmetry_Int_Tables_number   1
_chemical_formula_structural   Pr6Dy2Sc11Si16Ag
_chemical_formula_sum   'Pr6 Dy2 Sc11 Si16 Ag1'
_cell_volume   765.86538942
_cell_formula_units_Z   1
loop_
 _symmetry_equiv_pos_site_id
 _symmetry_equiv_pos_as_xyz
  1  'x, y, z'
loop_
 _atom_site_type_symbol
 _atom_site_label
 _atom_site_symmetry_multiplicity
 _atom_site_fract_x
 _atom_site_fract_y
 _atom_site_fract_z
 _atom_site_occupancy
  Pr  Pr0  1  0.491621  0.680714  0.899206  1
  Pr  Pr1  1  0.490216  0.681800  0.598272  1
  Pr  Pr2  1  0.979690  0.827753  0.598911  1
  Pr  Pr3  1  0.980851  0.828077  0.898553  1
  Pr  Pr4  1  0.510807  0.329514  0.098675  1
  Pr  Pr5  1  0.012117  0.173301  0.098493  1
  Dy  Dy6  1  0.011513  0.177046  0.400305  1
  Dy  Dy7  1  0.512360  0.325283  0.399948  1
  Sc  Sc8  1  0.334758  0.173995  0.623949  1
  Sc  Sc9  1  0.671748  0.822072  0.374564  1
  Sc  Sc10  1  0.171516  0.676438  0.376184  1
  Sc  Sc11  1  0.826909  0.315705  0.875003  1
  Sc  Sc12  1  0.827666  0.314634  0.624289  1
  Sc  Sc13  1  0.840694  0.499424  0.251920  1
  Sc  Sc14  1  0.340145  0.000648  0.251814  1
  Sc  Sc15  1  0.335328  0.172408  0.874921  1
  Sc  Sc16  1  0.172009  0.676475  0.126313  1
  Sc  Sc17  1  0.672401  0.822367  0.128012  1
  Sc  Sc18  1  0.158657  0.495337  0.749501  1
  Si  Si19  1  0.279129  0.883183  0.749192  1
  Si  Si20  1  0.468228  0.619447  0.252384  1
  Si  Si21  1  0.042818  0.124118  0.749460  1
  Si  Si22  1  0.531728  0.384639  0.749206  1
  Si  Si23  1  0.153045  0.459939  0.538047  1
  Si  Si24  1  0.968517  0.877957  0.252374  1
  Si  Si25  1  0.711998  0.122703  0.254206  1
  Si  Si26  1  0.849838  0.537319  0.038210  1
  Si  Si27  1  0.348755  0.962615  0.039721  1
  Si  Si28  1  0.153378  0.464943  0.959935  1
  Si  Si29  1  0.654600  0.047053  0.528006  1
  Si  Si30  1  0.344317  0.970949  0.457975  1
  Si  Si31  1  0.845782  0.528936  0.459335  1
  Si  Si32  1  0.791123  0.596179  0.749259  1
  Si  Si33  1  0.211931  0.378957  0.254685  1
  Si  Si34  1  0.653621  0.040760  0.969290  1
  Ag  Ag35  1  0.650184  0.007315  0.749880  1
