# generated using pymatgen
data_Y(CrRe2)4
_symmetry_space_group_name_H-M   'P 1'
_cell_length_a   6.81777670
_cell_length_b   6.81777620
_cell_length_c   6.81777700
_cell_angle_alpha   97.16292591
_cell_angle_beta   97.16292538
_cell_angle_gamma   138.64390119
_symmetry_Int_Tables_number   1
_chemical_formula_structural   Y(CrRe2)4
_chemical_formula_sum   'Y1 Cr4 Re8'
_cell_volume   195.90138806
_cell_formula_units_Z   1
loop_
 _symmetry_equiv_pos_site_id
 _symmetry_equiv_pos_as_xyz
  1  'x, y, z'
loop_
 _atom_site_type_symbol
 _atom_site_label
 _atom_site_symmetry_multiplicity
 _atom_site_fract_x
 _atom_site_fract_y
 _atom_site_fract_z
 _atom_site_occupancy
  Y  Y0  1  0.000000  0.000000  0.000000  1
  Cr  Cr1  1  0.000000  0.000000  0.500000  1
  Cr  Cr2  1  0.500000  0.500000  0.500000  1
  Cr  Cr3  1  0.500000  0.000000  0.000000  1
  Cr  Cr4  1  0.000000  0.500000  0.000000  1
  Re  Re5  1  0.280980  0.500000  0.780980  1
  Re  Re6  1  0.500000  0.719020  0.219020  1
  Re  Re7  1  0.643723  0.000000  0.643723  1
  Re  Re8  1  0.000000  0.356277  0.356277  1
  Re  Re9  1  0.000000  0.643723  0.643723  1
  Re  Re10  1  0.356277  0.000000  0.356277  1
  Re  Re11  1  0.719020  0.500000  0.219020  1
  Re  Re12  1  0.500000  0.280980  0.780980  1
