# generated using pymatgen
data_Lu3HfAs6Ru7
_symmetry_space_group_name_H-M   'P 1'
_cell_length_a   7.13736559
_cell_length_b   7.14110005
_cell_length_c   7.14110062
_cell_angle_alpha   109.48181385
_cell_angle_beta   109.46062804
_cell_angle_gamma   109.46062237
_symmetry_Int_Tables_number   1
_chemical_formula_structural   Lu3HfAs6Ru7
_chemical_formula_sum   'Lu3 Hf1 As6 Ru7'
_cell_volume   280.22255915
_cell_formula_units_Z   1
loop_
 _symmetry_equiv_pos_site_id
 _symmetry_equiv_pos_as_xyz
  1  'x, y, z'
loop_
 _atom_site_type_symbol
 _atom_site_label
 _atom_site_symmetry_multiplicity
 _atom_site_fract_x
 _atom_site_fract_y
 _atom_site_fract_z
 _atom_site_occupancy
  Lu  Lu0  1  0.000000  0.000000  0.500000  1
  Lu  Lu1  1  0.000000  0.500000  0.000000  1
  Lu  Lu2  1  0.500000  0.500000  0.500000  1
  Hf  Hf3  1  0.500000  0.000000  0.000000  1
  As  As4  1  0.314279  0.000000  0.313457  1
  As  As5  1  0.999179  0.313457  0.313457  1
  As  As6  1  0.000821  0.686543  0.686543  1
  As  As7  1  0.314279  0.313457  0.000000  1
  As  As8  1  0.685721  0.686543  0.000000  1
  As  As9  1  0.685721  0.000000  0.686543  1
  Ru  Ru10  1  0.746607  0.493213  0.246607  1
  Ru  Ru11  1  0.500000  0.753393  0.246607  1
  Ru  Ru12  1  0.500000  0.246607  0.753393  1
  Ru  Ru13  1  0.746607  0.246607  0.493213  1
  Ru  Ru14  1  0.253393  0.753393  0.506787  1
  Ru  Ru15  1  0.253393  0.506787  0.753393  1
  Ru  Ru16  1  0.000000  0.000000  0.000000  1
