# generated using pymatgen
data_LiZr6Ti3Al12Pd7
_symmetry_space_group_name_H-M   'P 1'
_cell_length_a   8.84126480
_cell_length_b   8.84126442
_cell_length_c   8.84840829
_cell_angle_alpha   60.02669522
_cell_angle_beta   60.02669987
_cell_angle_gamma   59.99999678
_symmetry_Int_Tables_number   1
_chemical_formula_structural   LiZr6Ti3Al12Pd7
_chemical_formula_sum   'Li1 Zr6 Ti3 Al12 Pd7'
_cell_volume   489.27616239
_cell_formula_units_Z   1
loop_
 _symmetry_equiv_pos_site_id
 _symmetry_equiv_pos_as_xyz
  1  'x, y, z'
loop_
 _atom_site_type_symbol
 _atom_site_label
 _atom_site_symmetry_multiplicity
 _atom_site_fract_x
 _atom_site_fract_y
 _atom_site_fract_z
 _atom_site_occupancy
  Li  Li0  1  0.882566  0.882566  0.352301  1
  Zr  Zr1  1  0.687053  0.687053  0.312862  1
  Zr  Zr2  1  0.313032  0.687053  0.312862  1
  Zr  Zr3  1  0.687053  0.313032  0.312862  1
  Zr  Zr4  1  0.311277  0.311277  0.689737  1
  Zr  Zr5  1  0.687709  0.311277  0.689737  1
  Zr  Zr6  1  0.311277  0.687709  0.689737  1
  Ti  Ti7  1  0.879740  0.359303  0.881218  1
  Ti  Ti8  1  0.359303  0.879740  0.881218  1
  Ti  Ti9  1  0.879740  0.879740  0.881218  1
  Al  Al10  1  0.119610  0.119610  0.641168  1
  Al  Al11  1  0.116548  0.643010  0.123893  1
  Al  Al12  1  0.643010  0.116548  0.123893  1
  Al  Al13  1  0.116548  0.116548  0.123893  1
  Al  Al14  1  0.664497  0.664497  0.006509  1
  Al  Al15  1  0.669910  0.999331  0.660849  1
  Al  Al16  1  0.999331  0.669910  0.660849  1
  Al  Al17  1  0.669910  0.669910  0.660849  1
  Al  Al18  1  0.333669  0.333669  0.998993  1
  Al  Al19  1  0.335005  0.997710  0.332281  1
  Al  Al20  1  0.997710  0.335005  0.332281  1
  Al  Al21  1  0.335005  0.335005  0.332281  1
  Pd  Pd22  1  0.003330  0.003330  0.990010  1
  Pd  Pd23  1  0.001434  0.001434  0.505357  1
  Pd  Pd24  1  0.491774  0.001434  0.505357  1
  Pd  Pd25  1  0.001434  0.491774  0.505357  1
  Pd  Pd26  1  0.501556  0.501556  0.997475  1
  Pd  Pd27  1  0.999413  0.501556  0.997475  1
  Pd  Pd28  1  0.501556  0.999413  0.997475  1
