# generated using pymatgen
data_U4AlRe5Si6W
_symmetry_space_group_name_H-M   'P 1'
_cell_length_a   7.17080754
_cell_length_b   7.16764925
_cell_length_c   7.17080661
_cell_angle_alpha   108.72518973
_cell_angle_beta   109.08358944
_cell_angle_gamma   110.62927768
_symmetry_Int_Tables_number   1
_chemical_formula_structural   U4AlRe5Si6W
_chemical_formula_sum   'U4 Al1 Re5 Si6 W1'
_cell_volume   283.56857410
_cell_formula_units_Z   1
loop_
 _symmetry_equiv_pos_site_id
 _symmetry_equiv_pos_as_xyz
  1  'x, y, z'
loop_
 _atom_site_type_symbol
 _atom_site_label
 _atom_site_symmetry_multiplicity
 _atom_site_fract_x
 _atom_site_fract_y
 _atom_site_fract_z
 _atom_site_occupancy
  U  U0  1  0.494396  0.505662  0.500172  1
  U  U1  1  0.006155  0.994246  0.500330  1
  U  U2  1  0.493916  0.994246  0.988092  1
  U  U3  1  0.005490  0.505662  0.011265  1
  Al  Al4  1  0.750554  0.250237  0.499683  1
  Re  Re5  1  0.504621  0.757647  0.253024  1
  Re  Re6  1  0.242990  0.495744  0.747386  1
  Re  Re7  1  0.748358  0.495744  0.252753  1
  Re  Re8  1  0.250432  0.749826  0.499394  1
  Re  Re9  1  0.999853  0.999806  0.999953  1
  Si  Si10  1  0.312037  0.313327  0.001290  1
  Si  Si11  1  0.998799  0.304336  0.305536  1
  Si  Si12  1  0.999122  0.693510  0.694388  1
  Si  Si13  1  0.696821  0.999728  0.694764  1
  Si  Si14  1  0.304964  0.999728  0.302907  1
  Si  Si15  1  0.687851  0.689804  0.001953  1
  W  W16  1  0.503639  0.250749  0.747110  1
