# generated using pymatgen
data_Cs2Pd(PtS2)2
_symmetry_space_group_name_H-M   'P 1'
_cell_length_a   8.89554960
_cell_length_b   7.79176135
_cell_length_c   6.32916600
_cell_angle_alpha   77.32648762
_cell_angle_beta   58.71293461
_cell_angle_gamma   43.96057127
_symmetry_Int_Tables_number   1
_chemical_formula_structural   Cs2Pd(PtS2)2
_chemical_formula_sum   'Cs2 Pd1 Pt2 S4'
_cell_volume   251.26369812
_cell_formula_units_Z   1
loop_
 _symmetry_equiv_pos_site_id
 _symmetry_equiv_pos_as_xyz
  1  'x, y, z'
loop_
 _atom_site_type_symbol
 _atom_site_label
 _atom_site_symmetry_multiplicity
 _atom_site_fract_x
 _atom_site_fract_y
 _atom_site_fract_z
 _atom_site_occupancy
  Cs  Cs0  1  0.656839  0.656839  0.343161  1
  Cs  Cs1  1  0.343160  0.343161  0.656840  1
  Pd  Pd2  1  0.000000  0.000000  0.000000  1
  Pt  Pt3  1  0.500001  0.499999  0.000000  1
  Pt  Pt4  1  0.000000  0.000000  0.500000  1
  S  S5  1  0.277485  0.933027  0.066974  1
  S  S6  1  0.066973  0.722515  0.277486  1
  S  S7  1  0.933026  0.277486  0.722515  1
  S  S8  1  0.722514  0.066974  0.933027  1
