# generated using pymatgen
data_Lu8Ta10VSi16Mo
_symmetry_space_group_name_H-M   'P 1'
_cell_length_a   6.77133437
_cell_length_b   6.96730268
_cell_length_c   13.18208913
_cell_angle_alpha   89.98028294
_cell_angle_beta   89.93918466
_cell_angle_gamma   90.07564935
_symmetry_Int_Tables_number   1
_chemical_formula_structural   Lu8Ta10VSi16Mo
_chemical_formula_sum   'Lu8 Ta10 V1 Si16 Mo1'
_cell_volume   621.90282967
_cell_formula_units_Z   1
loop_
 _symmetry_equiv_pos_site_id
 _symmetry_equiv_pos_as_xyz
  1  'x, y, z'
loop_
 _atom_site_type_symbol
 _atom_site_label
 _atom_site_symmetry_multiplicity
 _atom_site_fract_x
 _atom_site_fract_y
 _atom_site_fract_z
 _atom_site_occupancy
  Lu  Lu0  1  0.502420  0.328477  0.095269  1
  Lu  Lu1  1  0.000567  0.172238  0.405834  1
  Lu  Lu2  1  0.497408  0.673379  0.594569  1
  Lu  Lu3  1  0.998248  0.828800  0.903819  1
  Lu  Lu4  1  0.498587  0.671149  0.903680  1
  Lu  Lu5  1  0.998688  0.828228  0.595063  1
  Lu  Lu6  1  0.500726  0.327916  0.406152  1
  Lu  Lu7  1  0.002280  0.172432  0.095283  1
  Ta  Ta8  1  0.337214  0.175013  0.872885  1
  Ta  Ta9  1  0.163757  0.674180  0.125203  1
  Ta  Ta10  1  0.663520  0.826309  0.377067  1
  Ta  Ta11  1  0.164228  0.673240  0.377092  1
  Ta  Ta12  1  0.663699  0.825707  0.125282  1
  Ta  Ta13  1  0.836653  0.325422  0.872604  1
  Ta  Ta14  1  0.662361  0.008794  0.748390  1
  Ta  Ta15  1  0.160654  0.491247  0.748575  1
  Ta  Ta16  1  0.338288  0.993515  0.250654  1
  Ta  Ta17  1  0.838239  0.506932  0.250963  1
  V  V18  1  0.839607  0.327753  0.625592  1
  Si  Si19  1  0.666419  0.044058  0.543879  1
  Si  Si20  1  0.165390  0.465114  0.958405  1
  Si  Si21  1  0.334306  0.965675  0.040384  1
  Si  Si22  1  0.833860  0.531949  0.463049  1
  Si  Si23  1  0.333792  0.965949  0.461293  1
  Si  Si24  1  0.834367  0.534773  0.040386  1
  Si  Si25  1  0.665290  0.034776  0.958749  1
  Si  Si26  1  0.161209  0.458148  0.544079  1
  Si  Si27  1  0.541969  0.377575  0.744632  1
  Si  Si28  1  0.038953  0.122675  0.745503  1
  Si  Si29  1  0.460895  0.619026  0.250975  1
  Si  Si30  1  0.960757  0.880708  0.251054  1
  Si  Si31  1  0.794728  0.628991  0.748173  1
  Si  Si32  1  0.295191  0.869241  0.749530  1
  Si  Si33  1  0.205077  0.367185  0.250716  1
  Si  Si34  1  0.704700  0.132667  0.250320  1
  Mo  Mo35  1  0.335954  0.170758  0.624895  1
