# generated using pymatgen
data_LaTb7Cd2NiIr
_symmetry_space_group_name_H-M   'P 1'
_cell_length_a   9.68596933
_cell_length_b   9.68596915
_cell_length_c   9.71635500
_cell_angle_alpha   59.89616779
_cell_angle_beta   59.89616839
_cell_angle_gamma   59.76118018
_symmetry_Int_Tables_number   1
_chemical_formula_structural   LaTb7Cd2NiIr
_chemical_formula_sum   'La2 Tb14 Cd4 Ni2 Ir2'
_cell_volume   642.39720888
_cell_formula_units_Z   2
loop_
 _symmetry_equiv_pos_site_id
 _symmetry_equiv_pos_as_xyz
  1  'x, y, z'
loop_
 _atom_site_type_symbol
 _atom_site_label
 _atom_site_symmetry_multiplicity
 _atom_site_fract_x
 _atom_site_fract_y
 _atom_site_fract_z
 _atom_site_occupancy
  La  La0  1  0.349296  0.349296  0.346449  1
  La  La1  1  0.349296  0.349296  0.954959  1
  Tb  Tb2  1  0.353825  0.946599  0.349788  1
  Tb  Tb3  1  0.946599  0.353825  0.349788  1
  Tb  Tb4  1  0.811955  0.186587  0.188543  1
  Tb  Tb5  1  0.186587  0.811955  0.812917  1
  Tb  Tb6  1  0.186587  0.811955  0.188543  1
  Tb  Tb7  1  0.811955  0.186587  0.812917  1
  Tb  Tb8  1  0.186007  0.186007  0.813993  1
  Tb  Tb9  1  0.812412  0.812412  0.187588  1
  Tb  Tb10  1  0.936177  0.563033  0.566816  1
  Tb  Tb11  1  0.563033  0.936177  0.933974  1
  Tb  Tb12  1  0.563033  0.936177  0.566816  1
  Tb  Tb13  1  0.936177  0.563033  0.933974  1
  Tb  Tb14  1  0.568083  0.568083  0.931917  1
  Tb  Tb15  1  0.939976  0.939976  0.560024  1
  Cd  Cd16  1  0.582809  0.582809  0.578355  1
  Cd  Cd17  1  0.582809  0.582809  0.256026  1
  Cd  Cd18  1  0.583237  0.253805  0.581478  1
  Cd  Cd19  1  0.253805  0.583237  0.581478  1
  Ni  Ni20  1  0.137530  0.577769  0.142350  1
  Ni  Ni21  1  0.577769  0.137530  0.142350  1
  Ir  Ir22  1  0.140521  0.140521  0.146631  1
  Ir  Ir23  1  0.140521  0.140521  0.572326  1
