# generated using pymatgen
data_Lu10InGa2Sb3
_symmetry_space_group_name_H-M   'P 1'
_cell_length_a   8.64827150
_cell_length_b   8.64827194
_cell_length_c   6.33959400
_cell_angle_alpha   90.00000000
_cell_angle_beta   90.00000000
_cell_angle_gamma   120.05621562
_symmetry_Int_Tables_number   1
_chemical_formula_structural   Lu10InGa2Sb3
_chemical_formula_sum   'Lu10 In1 Ga2 Sb3'
_cell_volume   410.39724609
_cell_formula_units_Z   1
loop_
 _symmetry_equiv_pos_site_id
 _symmetry_equiv_pos_as_xyz
  1  'x, y, z'
loop_
 _atom_site_type_symbol
 _atom_site_label
 _atom_site_symmetry_multiplicity
 _atom_site_fract_x
 _atom_site_fract_y
 _atom_site_fract_z
 _atom_site_occupancy
  Lu  Lu0  1  0.666973  0.326486  0.008369  1
  Lu  Lu1  1  0.326486  0.666973  0.008369  1
  Lu  Lu2  1  0.326486  0.666973  0.491631  1
  Lu  Lu3  1  0.666973  0.326486  0.491631  1
  Lu  Lu4  1  0.763221  0.763221  0.750000  1
  Lu  Lu5  1  0.237061  0.999597  0.750000  1
  Lu  Lu6  1  0.999597  0.237061  0.750000  1
  Lu  Lu7  1  0.235226  0.235226  0.250000  1
  Lu  Lu8  1  0.765674  0.010900  0.250000  1
  Lu  Lu9  1  0.010900  0.765674  0.250000  1
  In  In10  1  0.609116  0.609116  0.250000  1
  Ga  Ga11  1  0.395216  0.001650  0.250000  1
  Ga  Ga12  1  0.001650  0.395216  0.250000  1
  Sb  Sb13  1  0.397104  0.397104  0.750000  1
  Sb  Sb14  1  0.601555  0.996764  0.750000  1
  Sb  Sb15  1  0.996764  0.601555  0.750000  1
