# generated using pymatgen
data_Tb2Y10Tc3Ni
_symmetry_space_group_name_H-M   'P 1'
_cell_length_a   6.32130062
_cell_length_b   7.36650800
_cell_length_c   9.28725700
_cell_angle_alpha   90.00000000
_cell_angle_beta   90.00000000
_cell_angle_gamma   90.25629079
_symmetry_Int_Tables_number   1
_chemical_formula_structural   Tb2Y10Tc3Ni
_chemical_formula_sum   'Tb2 Y10 Tc3 Ni1'
_cell_volume   432.46526157
_cell_formula_units_Z   1
loop_
 _symmetry_equiv_pos_site_id
 _symmetry_equiv_pos_as_xyz
  1  'x, y, z'
loop_
 _atom_site_type_symbol
 _atom_site_label
 _atom_site_symmetry_multiplicity
 _atom_site_fract_x
 _atom_site_fract_y
 _atom_site_fract_z
 _atom_site_occupancy
  Tb  Tb0  1  0.869180  0.543291  0.250000  1
  Tb  Tb1  1  0.625751  0.042067  0.250000  1
  Y  Y2  1  0.328644  0.677386  0.068026  1
  Y  Y3  1  0.164040  0.177148  0.436458  1
  Y  Y4  1  0.667380  0.323249  0.562671  1
  Y  Y5  1  0.834621  0.823791  0.937857  1
  Y  Y6  1  0.667380  0.323249  0.937329  1
  Y  Y7  1  0.834621  0.823791  0.562143  1
  Y  Y8  1  0.328644  0.677386  0.431974  1
  Y  Y9  1  0.164040  0.177148  0.063542  1
  Y  Y10  1  0.141156  0.455848  0.750000  1
  Y  Y11  1  0.370744  0.956928  0.750000  1
  Tc  Tc12  1  0.032225  0.884804  0.250000  1
  Tc  Tc13  1  0.464894  0.386882  0.250000  1
  Tc  Tc14  1  0.959844  0.113022  0.750000  1
  Ni  Ni15  1  0.546839  0.614010  0.750000  1
