# generated using pymatgen
data_AcHgPt4
_symmetry_space_group_name_H-M   'P 1'
_cell_length_a   5.53962390
_cell_length_b   5.53962404
_cell_length_c   5.53962300
_cell_angle_alpha   60.00000024
_cell_angle_beta   59.99999942
_cell_angle_gamma   59.99999698
_symmetry_Int_Tables_number   1
_chemical_formula_structural   AcHgPt4
_chemical_formula_sum   'Ac1 Hg1 Pt4'
_cell_volume   120.20589678
_cell_formula_units_Z   1
loop_
 _symmetry_equiv_pos_site_id
 _symmetry_equiv_pos_as_xyz
  1  'x, y, z'
loop_
 _atom_site_type_symbol
 _atom_site_label
 _atom_site_symmetry_multiplicity
 _atom_site_fract_x
 _atom_site_fract_y
 _atom_site_fract_z
 _atom_site_occupancy
  Ac  Ac0  1  0.249999  0.249999  0.249999  1
  Hg  Hg1  1  0.000000  0.000000  0.000000  1
  Pt  Pt2  1  0.625777  0.625777  0.122670  1
  Pt  Pt3  1  0.625777  0.122670  0.625777  1
  Pt  Pt4  1  0.122670  0.625777  0.625777  1
  Pt  Pt5  1  0.625777  0.625777  0.625777  1
