# generated using pymatgen
data_Nb9Ge2B4W
_symmetry_space_group_name_H-M   'P 1'
_cell_length_a   7.36399324
_cell_length_b   7.36399316
_cell_length_c   7.36399370
_cell_angle_alpha   129.54464162
_cell_angle_beta   129.54464355
_cell_angle_gamma   74.13578191
_symmetry_Int_Tables_number   1
_chemical_formula_structural   Nb9Ge2B4W
_chemical_formula_sum   'Nb9 Ge2 B4 W1'
_cell_volume   231.53717155
_cell_formula_units_Z   1
loop_
 _symmetry_equiv_pos_site_id
 _symmetry_equiv_pos_as_xyz
  1  'x, y, z'
loop_
 _atom_site_type_symbol
 _atom_site_label
 _atom_site_symmetry_multiplicity
 _atom_site_fract_x
 _atom_site_fract_y
 _atom_site_fract_z
 _atom_site_occupancy
  Nb  Nb0  1  0.528790  0.696060  0.497327  1
  Nb  Nb1  1  0.198732  0.031463  0.502673  1
  Nb  Nb2  1  0.031463  0.528790  0.832731  1
  Nb  Nb3  1  0.696060  0.198732  0.167269  1
  Nb  Nb4  1  0.471210  0.303940  0.502673  1
  Nb  Nb5  1  0.801268  0.968537  0.497327  1
  Nb  Nb6  1  0.968537  0.471210  0.167269  1
  Nb  Nb7  1  0.303940  0.801268  0.832731  1
  Nb  Nb8  1  0.000000  0.000000  0.000000  1
  Ge  Ge9  1  0.248543  0.248543  0.000000  1
  Ge  Ge10  1  0.751457  0.751457  0.000000  1
  B  B11  1  0.879313  0.617232  0.496544  1
  B  B12  1  0.120687  0.382768  0.503456  1
  B  B13  1  0.382768  0.879313  0.262079  1
  B  B14  1  0.617232  0.120687  0.737921  1
  W  W15  1  0.500000  0.500000  0.000000  1
