# generated using pymatgen
data_Pr3DyIn2Ir3
_symmetry_space_group_name_H-M   'P 1'
_cell_length_a   7.69837607
_cell_length_b   7.60907420
_cell_length_c   4.23871400
_cell_angle_alpha   90.00000000
_cell_angle_beta   90.00000000
_cell_angle_gamma   119.61701532
_symmetry_Int_Tables_number   1
_chemical_formula_structural   Pr3DyIn2Ir3
_chemical_formula_sum   'Pr3 Dy1 In2 Ir3'
_cell_volume   215.85336183
_cell_formula_units_Z   1
loop_
 _symmetry_equiv_pos_site_id
 _symmetry_equiv_pos_as_xyz
  1  'x, y, z'
loop_
 _atom_site_type_symbol
 _atom_site_label
 _atom_site_symmetry_multiplicity
 _atom_site_fract_x
 _atom_site_fract_y
 _atom_site_fract_z
 _atom_site_occupancy
  Pr  Pr0  1  0.434074  0.413943  0.000000  1
  Pr  Pr1  1  0.565926  0.979869  0.000000  1
  Pr  Pr2  1  0.000000  0.612036  0.000000  1
  Dy  Dy3  1  0.000000  0.242125  0.500000  1
  In  In4  1  0.746216  0.752553  0.500000  1
  In  In5  1  0.253784  0.006337  0.500000  1
  Ir  Ir6  1  0.000000  0.998725  0.000000  1
  Ir  Ir7  1  0.327609  0.661010  0.500000  1
  Ir  Ir8  1  0.672391  0.333401  0.500000  1
