# generated using pymatgen
data_CeDy3TmAl2Ru3
_symmetry_space_group_name_H-M   'P 1'
_cell_length_a   8.45784145
_cell_length_b   8.35301165
_cell_length_c   8.34295144
_cell_angle_alpha   109.80047968
_cell_angle_beta   109.45132638
_cell_angle_gamma   110.31462460
_symmetry_Int_Tables_number   1
_chemical_formula_structural   CeDy3TmAl2Ru3
_chemical_formula_sum   'Ce2 Dy6 Tm2 Al4 Ru6'
_cell_volume   447.14234305
_cell_formula_units_Z   2
loop_
 _symmetry_equiv_pos_site_id
 _symmetry_equiv_pos_as_xyz
  1  'x, y, z'
loop_
 _atom_site_type_symbol
 _atom_site_label
 _atom_site_symmetry_multiplicity
 _atom_site_fract_x
 _atom_site_fract_y
 _atom_site_fract_z
 _atom_site_occupancy
  Ce  Ce0  1  0.943993  0.251122  0.194941  1
  Ce  Ce1  1  0.197110  0.941795  0.251279  1
  Dy  Dy2  1  0.781108  0.786738  0.778779  1
  Dy  Dy3  1  0.317808  0.566617  0.754240  1
  Dy  Dy4  1  0.750839  0.316881  0.568583  1
  Dy  Dy5  1  0.566911  0.748293  0.313433  1
  Dy  Dy6  1  0.720231  0.501676  0.998583  1
  Dy  Dy7  1  0.999965  0.720682  0.506520  1
  Tm  Tm8  1  0.500744  0.992757  0.714804  1
  Tm  Tm9  1  0.254106  0.186504  0.931699  1
  Al  Al10  1  0.414651  0.409977  0.407814  1
  Al  Al11  1  0.092851  0.491491  0.996896  1
  Al  Al12  1  0.998565  0.091744  0.503806  1
  Al  Al13  1  0.502247  0.010274  0.092448  1
  Ru  Ru14  1  0.868169  0.117176  0.741698  1
  Ru  Ru15  1  0.754415  0.903098  0.122897  1
  Ru  Ru16  1  0.127240  0.763612  0.908403  1
  Ru  Ru17  1  0.225594  0.594086  0.365504  1
  Ru  Ru18  1  0.358380  0.220912  0.596304  1
  Ru  Ru19  1  0.625071  0.384569  0.251369  1
