# generated using pymatgen
data_Yb10IrPd2Ru
_symmetry_space_group_name_H-M   'P 1'
_cell_length_a   8.56006890
_cell_length_b   8.55956874
_cell_length_c   7.54076516
_cell_angle_alpha   83.22693718
_cell_angle_beta   83.24404371
_cell_angle_gamma   44.11660429
_symmetry_Int_Tables_number   1
_chemical_formula_structural   Yb10IrPd2Ru
_chemical_formula_sum   'Yb10 Ir1 Pd2 Ru1'
_cell_volume   381.49875336
_cell_formula_units_Z   1
loop_
 _symmetry_equiv_pos_site_id
 _symmetry_equiv_pos_as_xyz
  1  'x, y, z'
loop_
 _atom_site_type_symbol
 _atom_site_label
 _atom_site_symmetry_multiplicity
 _atom_site_fract_x
 _atom_site_fract_y
 _atom_site_fract_z
 _atom_site_occupancy
  Yb  Yb0  1  0.037715  0.789626  0.915380  1
  Yb  Yb1  1  0.208990  0.963383  0.582224  1
  Yb  Yb2  1  0.979797  0.200287  0.076023  1
  Yb  Yb3  1  0.800884  0.018988  0.425365  1
  Yb  Yb4  1  0.359725  0.202015  0.813747  1
  Yb  Yb5  1  0.798771  0.640232  0.685461  1
  Yb  Yb6  1  0.631159  0.801134  0.174117  1
  Yb  Yb7  1  0.198825  0.370706  0.328196  1
  Yb  Yb8  1  0.568356  0.430275  0.748697  1
  Yb  Yb9  1  0.420514  0.579235  0.250948  1
  Ir  Ir10  1  0.396484  0.821967  0.921233  1
  Pd  Pd11  1  0.822396  0.400480  0.418692  1
  Pd  Pd12  1  0.600916  0.176274  0.080823  1
  Ru  Ru13  1  0.175468  0.605398  0.579095  1
