# generated using pymatgen
data_TbDy3Ga16Ir3
_symmetry_space_group_name_H-M   'P 1'
_cell_length_a   6.15544700
_cell_length_b   6.15613800
_cell_length_c   11.19974100
_cell_angle_alpha   90.00000000
_cell_angle_beta   90.00000000
_cell_angle_gamma   90.00000000
_symmetry_Int_Tables_number   1
_chemical_formula_structural   TbDy3Ga16Ir3
_chemical_formula_sum   'Tb1 Dy3 Ga16 Ir3'
_cell_volume   424.40053477
_cell_formula_units_Z   1
loop_
 _symmetry_equiv_pos_site_id
 _symmetry_equiv_pos_as_xyz
  1  'x, y, z'
loop_
 _atom_site_type_symbol
 _atom_site_label
 _atom_site_symmetry_multiplicity
 _atom_site_fract_x
 _atom_site_fract_y
 _atom_site_fract_z
 _atom_site_occupancy
  Tb  Tb0  1  0.500000  0.000000  0.805972  1
  Dy  Dy1  1  0.000000  0.500000  0.805952  1
  Dy  Dy2  1  0.500000  0.000000  0.194056  1
  Dy  Dy3  1  0.000000  0.500000  0.194056  1
  Ga  Ga4  1  0.248701  0.248756  0.620655  1
  Ga  Ga5  1  0.751299  0.751244  0.620655  1
  Ga  Ga6  1  0.751299  0.248756  0.620655  1
  Ga  Ga7  1  0.248701  0.751244  0.620655  1
  Ga  Ga8  1  0.751275  0.751272  0.379322  1
  Ga  Ga9  1  0.248725  0.248728  0.379322  1
  Ga  Ga10  1  0.248725  0.751272  0.379322  1
  Ga  Ga11  1  0.751275  0.248728  0.379322  1
  Ga  Ga12  1  0.288280  0.288332  0.000022  1
  Ga  Ga13  1  0.711720  0.711668  0.000022  1
  Ga  Ga14  1  0.711720  0.288332  0.000022  1
  Ga  Ga15  1  0.288280  0.711668  0.000022  1
  Ga  Ga16  1  0.500000  0.500000  0.803567  1
  Ga  Ga17  1  0.500000  0.500000  0.196432  1
  Ga  Ga18  1  0.000000  0.000000  0.775430  1
  Ga  Ga19  1  0.000000  0.000000  0.224564  1
  Ir  Ir20  1  0.500000  0.000000  0.499983  1
  Ir  Ir21  1  0.000000  0.500000  0.500000  1
  Ir  Ir22  1  0.000000  0.000000  0.999996  1
