# generated using pymatgen
data_Y7Ho9Cd4Os3Pd
_symmetry_space_group_name_H-M   'P 1'
_cell_length_a   9.62988705
_cell_length_b   9.71013862
_cell_length_c   9.70829065
_cell_angle_alpha   59.62453468
_cell_angle_beta   59.32411046
_cell_angle_gamma   59.39355059
_symmetry_Int_Tables_number   1
_chemical_formula_structural   Y7Ho9Cd4Os3Pd
_chemical_formula_sum   'Y7 Ho9 Cd4 Os3 Pd1'
_cell_volume   633.83077816
_cell_formula_units_Z   1
loop_
 _symmetry_equiv_pos_site_id
 _symmetry_equiv_pos_as_xyz
  1  'x, y, z'
loop_
 _atom_site_type_symbol
 _atom_site_label
 _atom_site_symmetry_multiplicity
 _atom_site_fract_x
 _atom_site_fract_y
 _atom_site_fract_z
 _atom_site_occupancy
  Y  Y0  1  0.813964  0.803157  0.189702  1
  Y  Y1  1  0.939396  0.558654  0.559236  1
  Y  Y2  1  0.554606  0.939823  0.939558  1
  Y  Y3  1  0.553678  0.939701  0.567234  1
  Y  Y4  1  0.937603  0.559312  0.939767  1
  Y  Y5  1  0.553773  0.567037  0.939678  1
  Y  Y6  1  0.937495  0.940007  0.559546  1
  Ho  Ho7  1  0.347650  0.351216  0.351277  1
  Ho  Ho8  1  0.345490  0.351840  0.954717  1
  Ho  Ho9  1  0.345231  0.954844  0.351974  1
  Ho  Ho10  1  0.966787  0.344247  0.344567  1
  Ho  Ho11  1  0.814775  0.189930  0.189747  1
  Ho  Ho12  1  0.183601  0.810895  0.810892  1
  Ho  Ho13  1  0.186912  0.811385  0.189965  1
  Ho  Ho14  1  0.814421  0.189787  0.803005  1
  Ho  Ho15  1  0.186680  0.189984  0.811515  1
  Cd  Cd16  1  0.580087  0.579602  0.579623  1
  Cd  Cd17  1  0.580440  0.579551  0.258825  1
  Cd  Cd18  1  0.580443  0.258824  0.579562  1
  Cd  Cd19  1  0.256696  0.581150  0.581163  1
  Os  Os20  1  0.146765  0.138032  0.138023  1
  Os  Os21  1  0.147912  0.140242  0.578344  1
  Os  Os22  1  0.149742  0.577146  0.140059  1
  Pd  Pd23  1  0.575851  0.143634  0.142021  1
