# generated using pymatgen
data_LuZrAlSi2
_symmetry_space_group_name_H-M   'P 1'
_cell_length_a   5.35105029
_cell_length_b   5.35105003
_cell_length_c   5.35105040
_cell_angle_alpha   137.04223771
_cell_angle_beta   115.60982827
_cell_angle_gamma   80.55523725
_symmetry_Int_Tables_number   1
_chemical_formula_structural   LuZrAlSi2
_chemical_formula_sum   'Lu1 Zr1 Al1 Si2'
_cell_volume   91.22054547
_cell_formula_units_Z   1
loop_
 _symmetry_equiv_pos_site_id
 _symmetry_equiv_pos_as_xyz
  1  'x, y, z'
loop_
 _atom_site_type_symbol
 _atom_site_label
 _atom_site_symmetry_multiplicity
 _atom_site_fract_x
 _atom_site_fract_y
 _atom_site_fract_z
 _atom_site_occupancy
  Lu  Lu0  1  0.289124  0.789124  0.500000  1
  Zr  Zr1  1  0.712502  0.212502  0.500000  1
  Al  Al2  1  0.995747  0.995747  0.000000  1
  Si  Si3  1  0.291688  0.501313  0.790374  1
  Si  Si4  1  0.710939  0.501313  0.209626  1
