# generated using pymatgen
data_HoTh2(CoSn)3
_symmetry_space_group_name_H-M   'P 1'
_cell_length_a   7.38163983
_cell_length_b   7.28252418
_cell_length_c   4.01268100
_cell_angle_alpha   90.00000000
_cell_angle_beta   90.00000000
_cell_angle_gamma   119.55680401
_symmetry_Int_Tables_number   1
_chemical_formula_structural   HoTh2(CoSn)3
_chemical_formula_sum   'Ho1 Th2 Co3 Sn3'
_cell_volume   187.63865587
_cell_formula_units_Z   1
loop_
 _symmetry_equiv_pos_site_id
 _symmetry_equiv_pos_as_xyz
  1  'x, y, z'
loop_
 _atom_site_type_symbol
 _atom_site_label
 _atom_site_symmetry_multiplicity
 _atom_site_fract_x
 _atom_site_fract_y
 _atom_site_fract_z
 _atom_site_occupancy
  Ho  Ho0  1  0.000000  0.592492  0.500000  1
  Th  Th1  1  0.413660  0.415592  0.500000  1
  Th  Th2  1  0.586340  0.001932  0.500000  1
  Co  Co3  1  0.348785  0.666850  0.000000  1
  Co  Co4  1  0.000000  0.005742  0.500000  1
  Co  Co5  1  0.651215  0.318064  0.000000  1
  Sn  Sn6  1  0.759842  0.749151  0.000000  1
  Sn  Sn7  1  0.000000  0.260866  0.000000  1
  Sn  Sn8  1  0.240158  0.989309  0.000000  1
