# generated using pymatgen
data_Ac2Th(AgSn)3
_symmetry_space_group_name_H-M   'P 1'
_cell_length_a   4.80494100
_cell_length_b   4.80493941
_cell_length_c   12.86970100
_cell_angle_alpha   90.00000000
_cell_angle_beta   90.00000000
_cell_angle_gamma   119.99999029
_symmetry_Int_Tables_number   1
_chemical_formula_structural   Ac2Th(AgSn)3
_chemical_formula_sum   'Ac2 Th1 Ag3 Sn3'
_cell_volume   257.32092639
_cell_formula_units_Z   1
loop_
 _symmetry_equiv_pos_site_id
 _symmetry_equiv_pos_as_xyz
  1  'x, y, z'
loop_
 _atom_site_type_symbol
 _atom_site_label
 _atom_site_symmetry_multiplicity
 _atom_site_fract_x
 _atom_site_fract_y
 _atom_site_fract_z
 _atom_site_occupancy
  Ac  Ac0  1  0.666667  0.333333  0.826784  1
  Ac  Ac1  1  0.666667  0.333333  0.168054  1
  Th  Th2  1  0.666667  0.333333  0.497634  1
  Ag  Ag3  1  0.333333  0.666667  0.994337  1
  Ag  Ag4  1  0.000000  0.000000  0.618018  1
  Ag  Ag5  1  0.000000  0.000000  0.377327  1
  Sn  Sn6  1  0.333333  0.666667  0.666375  1
  Sn  Sn7  1  0.333333  0.666667  0.329984  1
  Sn  Sn8  1  0.000000  0.000000  0.999386  1
