# generated using pymatgen
data_Dy8CrSi16Tc11
_symmetry_space_group_name_H-M   'P 1'
_cell_length_a   6.80151392
_cell_length_b   6.80517458
_cell_length_c   12.70639149
_cell_angle_alpha   90.15714697
_cell_angle_beta   89.82574649
_cell_angle_gamma   90.24545018
_symmetry_Int_Tables_number   1
_chemical_formula_structural   Dy8CrSi16Tc11
_chemical_formula_sum   'Dy8 Cr1 Si16 Tc11'
_cell_volume   588.11124366
_cell_formula_units_Z   1
loop_
 _symmetry_equiv_pos_site_id
 _symmetry_equiv_pos_as_xyz
  1  'x, y, z'
loop_
 _atom_site_type_symbol
 _atom_site_label
 _atom_site_symmetry_multiplicity
 _atom_site_fract_x
 _atom_site_fract_y
 _atom_site_fract_z
 _atom_site_occupancy
  Dy  Dy0  1  0.006186  0.661340  0.030243  1
  Dy  Dy1  1  0.996580  0.338354  0.531033  1
  Dy  Dy2  1  0.664241  0.000938  0.970307  1
  Dy  Dy3  1  0.165322  0.496632  0.779739  1
  Dy  Dy4  1  0.838367  0.506149  0.280611  1
  Dy  Dy5  1  0.497177  0.164618  0.219304  1
  Dy  Dy6  1  0.506530  0.837545  0.719032  1
  Dy  Dy7  1  0.337446  0.996695  0.469574  1
  Cr  Cr8  1  0.676725  0.508379  0.874346  1
  Si  Si9  1  0.017155  0.731277  0.438655  1
  Si  Si10  1  0.972611  0.281322  0.934301  1
  Si  Si11  1  0.729871  0.019174  0.561864  1
  Si  Si12  1  0.225375  0.478390  0.186688  1
  Si  Si13  1  0.776880  0.523723  0.687702  1
  Si  Si14  1  0.473121  0.218825  0.815417  1
  Si  Si15  1  0.520093  0.775609  0.312501  1
  Si  Si16  1  0.279416  0.975284  0.064550  1
  Si  Si17  1  0.807249  0.885512  0.186398  1
  Si  Si18  1  0.306828  0.615740  0.563378  1
  Si  Si19  1  0.693515  0.387187  0.059296  1
  Si  Si20  1  0.614399  0.308375  0.437694  1
  Si  Si21  1  0.388121  0.692895  0.935753  1
  Si  Si22  1  0.113212  0.192656  0.312597  1
  Si  Si23  1  0.192330  0.113300  0.688685  1
  Si  Si24  1  0.881907  0.800725  0.814787  1
  Tc  Tc25  1  0.316982  0.481839  0.378564  1
  Tc  Tc26  1  0.810873  0.022806  0.369302  1
  Tc  Tc27  1  0.985874  0.179157  0.124906  1
  Tc  Tc28  1  0.020707  0.813142  0.630821  1
  Tc  Tc29  1  0.482860  0.321027  0.624854  1
  Tc  Tc30  1  0.177992  0.983794  0.875491  1
  Tc  Tc31  1  0.666401  0.666369  0.499925  1
  Tc  Tc32  1  0.835994  0.167739  0.752141  1
  Tc  Tc33  1  0.165213  0.834960  0.250427  1
  Tc  Tc34  1  0.337404  0.335247  0.997576  1
  Tc  Tc35  1  0.519043  0.683279  0.121537  1
