# generated using pymatgen
data_YbTh(Zn10Cu)2
_symmetry_space_group_name_H-M   'P 1'
_cell_length_a   8.22497584
_cell_length_b   8.22497471
_cell_length_c   8.21998540
_cell_angle_alpha   99.97459637
_cell_angle_beta   99.97459016
_cell_angle_gamma   130.94027666
_symmetry_Int_Tables_number   1
_chemical_formula_structural   YbTh(Zn10Cu)2
_chemical_formula_sum   'Yb1 Th1 Zn20 Cu2'
_cell_volume   381.75668947
_cell_formula_units_Z   1
loop_
 _symmetry_equiv_pos_site_id
 _symmetry_equiv_pos_as_xyz
  1  'x, y, z'
loop_
 _atom_site_type_symbol
 _atom_site_label
 _atom_site_symmetry_multiplicity
 _atom_site_fract_x
 _atom_site_fract_y
 _atom_site_fract_z
 _atom_site_occupancy
  Yb  Yb0  1  0.750245  0.249755  0.500000  1
  Th  Th1  1  0.500845  0.499155  0.000000  1
  Zn  Zn2  1  0.405926  0.078015  0.086558  1
  Zn  Zn3  1  0.989162  0.314455  0.918185  1
  Zn  Zn4  1  0.262211  0.673740  0.828540  1
  Zn  Zn5  1  0.852375  0.430214  0.175702  1
  Zn  Zn6  1  0.921985  0.594074  0.913442  1
  Zn  Zn7  1  0.685545  0.010838  0.081815  1
  Zn  Zn8  1  0.326260  0.737789  0.171460  1
  Zn  Zn9  1  0.569786  0.147625  0.824298  1
  Zn  Zn10  1  0.843124  0.671581  0.414320  1
  Zn  Zn11  1  0.259320  0.433918  0.581142  1
  Zn  Zn12  1  0.986624  0.076180  0.671996  1
  Zn  Zn13  1  0.396295  0.318044  0.324130  1
  Zn  Zn14  1  0.328419  0.156876  0.585680  1
  Zn  Zn15  1  0.566082  0.740680  0.418858  1
  Zn  Zn16  1  0.923820  0.013376  0.328004  1
  Zn  Zn17  1  0.681956  0.603705  0.675870  1
  Zn  Zn18  1  0.254736  0.745264  0.500000  1
  Zn  Zn19  1  0.995401  0.004599  0.000000  1
  Zn  Zn20  1  0.126660  0.875657  0.748905  1
  Zn  Zn21  1  0.124343  0.873340  0.251095  1
  Cu  Cu22  1  0.126570  0.377689  0.251086  1
  Cu  Cu23  1  0.622311  0.873430  0.748914  1
