# generated using pymatgen
data_Li2Mn2CrNi9As7
_symmetry_space_group_name_H-M   'P 1'
_cell_length_a   9.44559215
_cell_length_b   9.44077892
_cell_length_c   3.68710900
_cell_angle_alpha   90.00000000
_cell_angle_beta   90.00000000
_cell_angle_gamma   120.03677876
_symmetry_Int_Tables_number   1
_chemical_formula_structural   Li2Mn2CrNi9As7
_chemical_formula_sum   'Li2 Mn2 Cr1 Ni9 As7'
_cell_volume   284.63778634
_cell_formula_units_Z   1
loop_
 _symmetry_equiv_pos_site_id
 _symmetry_equiv_pos_as_xyz
  1  'x, y, z'
loop_
 _atom_site_type_symbol
 _atom_site_label
 _atom_site_symmetry_multiplicity
 _atom_site_fract_x
 _atom_site_fract_y
 _atom_site_fract_z
 _atom_site_occupancy
  Li  Li0  1  0.334651  0.667868  0.000000  1
  Li  Li1  1  0.998884  0.000053  0.500000  1
  Mn  Mn2  1  0.761074  0.557525  0.500000  1
  Mn  Mn3  1  0.442051  0.204133  0.500000  1
  Cr  Cr4  1  0.796091  0.239894  0.500000  1
  Ni  Ni5  1  0.283396  0.380723  0.500000  1
  Ni  Ni6  1  0.618356  0.901523  0.500000  1
  Ni  Ni7  1  0.097260  0.716355  0.500000  1
  Ni  Ni8  1  0.505518  0.451844  0.000000  1
  Ni  Ni9  1  0.546467  0.051998  0.000000  1
  Ni  Ni10  1  0.949150  0.495939  0.000000  1
  Ni  Ni11  1  0.721377  0.765419  0.000000  1
  Ni  Ni12  1  0.234046  0.955118  0.000000  1
  Ni  Ni13  1  0.043955  0.278612  0.000000  1
  As  As14  1  0.959058  0.753845  0.000000  1
  As  As15  1  0.245813  0.204770  0.000000  1
  As  As16  1  0.793319  0.041260  0.000000  1
  As  As17  1  0.667855  0.332918  0.000000  1
  As  As18  1  0.539162  0.626205  0.500000  1
  As  As19  1  0.373781  0.912314  0.500000  1
  As  As20  1  0.088736  0.461685  0.500000  1
