# generated using pymatgen
data_Tm2MgSc2(In2Rh)2
_symmetry_space_group_name_H-M   'P 1'
_cell_length_a   3.51763500
_cell_length_b   7.74762500
_cell_length_c   17.66363500
_cell_angle_alpha   90.00000000
_cell_angle_beta   90.00000000
_cell_angle_gamma   90.00000000
_symmetry_Int_Tables_number   1
_chemical_formula_structural   Tm2MgSc2(In2Rh)2
_chemical_formula_sum   'Tm4 Mg2 Sc4 In8 Rh4'
_cell_volume   481.39264168
_cell_formula_units_Z   2
loop_
 _symmetry_equiv_pos_site_id
 _symmetry_equiv_pos_as_xyz
  1  'x, y, z'
loop_
 _atom_site_type_symbol
 _atom_site_label
 _atom_site_symmetry_multiplicity
 _atom_site_fract_x
 _atom_site_fract_y
 _atom_site_fract_z
 _atom_site_occupancy
  Tm  Tm0  1  0.000000  0.747605  0.781002  1
  Tm  Tm1  1  0.000000  0.252395  0.218998  1
  Tm  Tm2  1  0.000000  0.247605  0.718998  1
  Tm  Tm3  1  0.000000  0.752395  0.281002  1
  Mg  Mg4  1  0.000000  0.000000  0.000000  1
  Mg  Mg5  1  0.000000  0.500000  0.500000  1
  Sc  Sc6  1  0.000000  0.878017  0.585106  1
  Sc  Sc7  1  0.000000  0.121983  0.414894  1
  Sc  Sc8  1  0.000000  0.378017  0.914894  1
  Sc  Sc9  1  0.000000  0.621983  0.085106  1
  In  In10  1  0.500000  0.797839  0.438556  1
  In  In11  1  0.500000  0.202161  0.561444  1
  In  In12  1  0.500000  0.297839  0.061444  1
  In  In13  1  0.500000  0.702161  0.938556  1
  In  In14  1  0.500000  0.926533  0.147117  1
  In  In15  1  0.500000  0.073467  0.852883  1
  In  In16  1  0.500000  0.426533  0.352883  1
  In  In17  1  0.500000  0.573467  0.647117  1
  Rh  Rh18  1  0.500000  0.958239  0.690847  1
  Rh  Rh19  1  0.500000  0.041761  0.309153  1
  Rh  Rh20  1  0.500000  0.458239  0.809153  1
  Rh  Rh21  1  0.500000  0.541761  0.190847  1
