# generated using pymatgen
data_Ca4Ta(FeO4)3
_symmetry_space_group_name_H-M   'P 1'
_cell_length_a   5.42744899
_cell_length_b   5.54183797
_cell_length_c   7.73079711
_cell_angle_alpha   90.50003549
_cell_angle_beta   89.96358422
_cell_angle_gamma   89.92804169
_symmetry_Int_Tables_number   1
_chemical_formula_structural   Ca4Ta(FeO4)3
_chemical_formula_sum   'Ca4 Ta1 Fe3 O12'
_cell_volume   232.51816002
_cell_formula_units_Z   1
loop_
 _symmetry_equiv_pos_site_id
 _symmetry_equiv_pos_as_xyz
  1  'x, y, z'
loop_
 _atom_site_type_symbol
 _atom_site_label
 _atom_site_symmetry_multiplicity
 _atom_site_fract_x
 _atom_site_fract_y
 _atom_site_fract_z
 _atom_site_occupancy
  Ca  Ca0  1  0.507938  0.550117  0.759435  1
  Ca  Ca1  1  0.492104  0.449886  0.240599  1
  Ca  Ca2  1  0.989281  0.043270  0.760401  1
  Ca  Ca3  1  0.010689  0.956707  0.239595  1
  Ta  Ta4  1  0.999977  0.499899  0.500027  1
  Fe  Fe5  1  0.999977  0.499984  0.999895  1
  Fe  Fe6  1  0.500020  0.000230  0.499995  1
  Fe  Fe7  1  0.500059  0.999908  0.000060  1
  O  O8  1  0.418403  0.976886  0.754824  1
  O  O9  1  0.920316  0.522460  0.248934  1
  O  O10  1  0.079710  0.477511  0.751074  1
  O  O11  1  0.581559  0.023130  0.245142  1
  O  O12  1  0.214715  0.208005  0.041472  1
  O  O13  1  0.198134  0.203014  0.456128  1
  O  O14  1  0.707089  0.285319  0.958190  1
  O  O15  1  0.801901  0.796961  0.543888  1
  O  O16  1  0.298938  0.699398  0.458887  1
  O  O17  1  0.785207  0.792048  0.958532  1
  O  O18  1  0.701081  0.300560  0.541122  1
  O  O19  1  0.292901  0.714708  0.041798  1
