# generated using pymatgen
data_PdPbF5
_symmetry_space_group_name_H-M   'P 1'
_cell_length_a   5.85280889
_cell_length_b   5.85280884
_cell_length_c   8.52197600
_cell_angle_alpha   68.91276414
_cell_angle_beta   68.91276433
_cell_angle_gamma   69.01070166
_symmetry_Int_Tables_number   1
_chemical_formula_structural   PdPbF5
_chemical_formula_sum   'Pd2 Pb2 F10'
_cell_volume   245.20460281
_cell_formula_units_Z   2
loop_
 _symmetry_equiv_pos_site_id
 _symmetry_equiv_pos_as_xyz
  1  'x, y, z'
loop_
 _atom_site_type_symbol
 _atom_site_label
 _atom_site_symmetry_multiplicity
 _atom_site_fract_x
 _atom_site_fract_y
 _atom_site_fract_z
 _atom_site_occupancy
  Pd  Pd0  1  0.000000  0.000000  0.500000  1
  Pd  Pd1  1  0.000000  0.000000  0.000000  1
  Pb  Pb2  1  0.548109  0.451891  0.250000  1
  Pb  Pb3  1  0.451891  0.548109  0.750000  1
  F  F4  1  0.064240  0.935760  0.750000  1
  F  F5  1  0.935760  0.064240  0.250000  1
  F  F6  1  0.213612  0.242635  0.886142  1
  F  F7  1  0.757365  0.786388  0.613858  1
  F  F8  1  0.709560  0.307004  0.523075  1
  F  F9  1  0.692996  0.290440  0.976925  1
  F  F10  1  0.290440  0.692996  0.476925  1
  F  F11  1  0.307004  0.709560  0.023075  1
  F  F12  1  0.242635  0.213612  0.386142  1
  F  F13  1  0.786388  0.757365  0.113858  1
