# generated using pymatgen
data_SmPa4Ga15
_symmetry_space_group_name_H-M   'P 1'
_cell_length_a   12.64808257
_cell_length_b   12.64808158
_cell_length_c   12.64808100
_cell_angle_alpha   28.13309786
_cell_angle_beta   28.13310577
_cell_angle_gamma   28.13310106
_symmetry_Int_Tables_number   1
_chemical_formula_structural   SmPa4Ga15
_chemical_formula_sum   'Sm1 Pa4 Ga15'
_cell_volume   397.40833889
_cell_formula_units_Z   1
loop_
 _symmetry_equiv_pos_site_id
 _symmetry_equiv_pos_as_xyz
  1  'x, y, z'
loop_
 _atom_site_type_symbol
 _atom_site_label
 _atom_site_symmetry_multiplicity
 _atom_site_fract_x
 _atom_site_fract_y
 _atom_site_fract_z
 _atom_site_occupancy
  Sm  Sm0  1  0.000000  0.000000  0.000000  1
  Pa  Pa1  1  0.130274  0.130274  0.130274  1
  Pa  Pa2  1  0.869726  0.869726  0.869726  1
  Pa  Pa3  1  0.400875  0.400875  0.400875  1
  Pa  Pa4  1  0.599125  0.599125  0.599125  1
  Ga  Ga5  1  0.129502  0.636353  0.636353  1
  Ga  Ga6  1  0.636353  0.636353  0.129502  1
  Ga  Ga7  1  0.636353  0.129502  0.636353  1
  Ga  Ga8  1  0.363647  0.870498  0.363647  1
  Ga  Ga9  1  0.363647  0.363647  0.870498  1
  Ga  Ga10  1  0.870498  0.363647  0.363647  1
  Ga  Ga11  1  0.435002  0.882442  0.882442  1
  Ga  Ga12  1  0.882442  0.882442  0.435002  1
  Ga  Ga13  1  0.882442  0.435002  0.882442  1
  Ga  Ga14  1  0.117558  0.564998  0.117558  1
  Ga  Ga15  1  0.117558  0.117558  0.564998  1
  Ga  Ga16  1  0.564998  0.117558  0.117558  1
  Ga  Ga17  1  0.500000  0.500000  0.000000  1
  Ga  Ga18  1  0.500000  0.000000  0.500000  1
  Ga  Ga19  1  0.000000  0.500000  0.500000  1
