# generated using pymatgen
data_Sr3CaZn8(AsO4)8
_symmetry_space_group_name_H-M   'P 1'
_cell_length_a   8.69648814
_cell_length_b   9.84354012
_cell_length_c   9.39211403
_cell_angle_alpha   89.90497374
_cell_angle_beta   91.94472953
_cell_angle_gamma   90.17988506
_symmetry_Int_Tables_number   1
_chemical_formula_structural   Sr3CaZn8(AsO4)8
_chemical_formula_sum   'Sr3 Ca1 Zn8 As8 O32'
_cell_volume   803.53667545
_cell_formula_units_Z   1
loop_
 _symmetry_equiv_pos_site_id
 _symmetry_equiv_pos_as_xyz
  1  'x, y, z'
loop_
 _atom_site_type_symbol
 _atom_site_label
 _atom_site_symmetry_multiplicity
 _atom_site_fract_x
 _atom_site_fract_y
 _atom_site_fract_z
 _atom_site_occupancy
  Sr  Sr0  1  0.251028  0.083346  0.383603  1
  Sr  Sr1  1  0.749521  0.916782  0.615177  1
  Sr  Sr2  1  0.249894  0.416662  0.884058  1
  Ca  Ca3  1  0.752836  0.584591  0.115203  1
  Zn  Zn4  1  0.577543  0.189077  0.048792  1
  Zn  Zn5  1  0.925706  0.925803  0.219567  1
  Zn  Zn6  1  0.074008  0.428514  0.275921  1
  Zn  Zn7  1  0.423219  0.684704  0.453247  1
  Zn  Zn8  1  0.577621  0.314765  0.547820  1
  Zn  Zn9  1  0.924037  0.572303  0.724190  1
  Zn  Zn10  1  0.072885  0.073052  0.778923  1
  Zn  Zn11  1  0.422276  0.813890  0.954791  1
  As  As12  1  0.948702  0.206415  0.061060  1
  As  As13  1  0.445351  0.420964  0.247378  1
  As  As14  1  0.560267  0.915308  0.250042  1
  As  As15  1  0.046195  0.702546  0.436143  1
  As  As16  1  0.951180  0.296043  0.560598  1
  As  As17  1  0.440862  0.082317  0.749917  1
  As  As18  1  0.559320  0.582647  0.754804  1
  As  As19  1  0.048131  0.793574  0.940135  1
  O  O20  1  0.215152  0.865608  0.005689  1
  O  O21  1  0.910543  0.787812  0.069029  1
  O  O22  1  0.570133  0.382076  0.113372  1
  O  O23  1  0.927373  0.372841  0.115478  1
  O  O24  1  0.574285  0.794237  0.118922  1
  O  O25  1  0.265287  0.436133  0.164868  1
  O  O26  1  0.478970  0.062548  0.183792  1
  O  O27  1  0.022375  0.105549  0.198299  1
  O  O28  1  0.967303  0.603108  0.299376  1
  O  O29  1  0.526505  0.568283  0.312931  1
  O  O30  1  0.738360  0.934798  0.334239  1
  O  O31  1  0.433454  0.299455  0.378157  1
  O  O32  1  0.069176  0.868363  0.381234  1
  O  O33  1  0.436937  0.874872  0.384494  1
  O  O34  1  0.087585  0.295856  0.431252  1
  O  O35  1  0.783594  0.367452  0.497446  1
  O  O36  1  0.214738  0.629400  0.495625  1
  O  O37  1  0.913226  0.704320  0.568370  1
  O  O38  1  0.562813  0.124068  0.614871  1
  O  O39  1  0.930274  0.130252  0.616608  1
  O  O40  1  0.571386  0.700479  0.620575  1
  O  O41  1  0.261780  0.065329  0.666392  1
  O  O42  1  0.480897  0.433957  0.689226  1
  O  O43  1  0.024291  0.395951  0.698547  1
  O  O44  1  0.973588  0.895425  0.804393  1
  O  O45  1  0.520764  0.934240  0.814384  1
  O  O46  1  0.737174  0.568403  0.842510  1
  O  O47  1  0.429556  0.201941  0.882041  1
  O  O48  1  0.071596  0.629466  0.882028  1
  O  O49  1  0.432755  0.624501  0.885141  1
  O  O50  1  0.085702  0.206395  0.932485  1
  O  O51  1  0.781849  0.133577  0.996854  1
