# generated using pymatgen
data_Tb3Nd(TcB2)6
_symmetry_space_group_name_H-M   'P 1'
_cell_length_a   6.22387310
_cell_length_b   6.24202536
_cell_length_c   7.54432698
_cell_angle_alpha   90.36355922
_cell_angle_beta   90.91549262
_cell_angle_gamma   114.02822706
_symmetry_Int_Tables_number   1
_chemical_formula_structural   Tb3Nd(TcB2)6
_chemical_formula_sum   'Tb3 Nd1 Tc6 B12'
_cell_volume   267.63515132
_cell_formula_units_Z   1
loop_
 _symmetry_equiv_pos_site_id
 _symmetry_equiv_pos_as_xyz
  1  'x, y, z'
loop_
 _atom_site_type_symbol
 _atom_site_label
 _atom_site_symmetry_multiplicity
 _atom_site_fract_x
 _atom_site_fract_y
 _atom_site_fract_z
 _atom_site_occupancy
  Tb  Tb0  1  0.099520  0.442333  0.323504  1
  Tb  Tb1  1  0.560707  0.901088  0.177987  1
  Tb  Tb2  1  0.899862  0.557864  0.676642  1
  Nd  Nd3  1  0.438091  0.092469  0.825998  1
  Tc  Tc4  1  0.587988  0.413199  0.250048  1
  Tc  Tc5  1  0.412132  0.584872  0.748471  1
  Tc  Tc6  1  0.989417  0.804230  0.089457  1
  Tc  Tc7  1  0.195047  0.010241  0.410127  1
  Tc  Tc8  1  0.009279  0.198137  0.912618  1
  Tc  Tc9  1  0.806250  0.989029  0.588630  1
  B  B10  1  0.241334  0.153827  0.133077  1
  B  B11  1  0.848425  0.753561  0.370730  1
  B  B12  1  0.758134  0.847645  0.869727  1
  B  B13  1  0.150335  0.247633  0.628053  1
  B  B14  1  0.585446  0.158177  0.479323  1
  B  B15  1  0.843082  0.417165  0.019786  1
  B  B16  1  0.416557  0.840490  0.514658  1
  B  B17  1  0.158612  0.586228  0.982312  1
  B  B18  1  0.442005  0.349968  0.532450  1
  B  B19  1  0.650065  0.558784  0.966463  1
  B  B20  1  0.557682  0.649237  0.465159  1
  B  B21  1  0.350028  0.443821  0.034778  1
