# generated using pymatgen
data_Sc2GaB2Ir3Rh2
_symmetry_space_group_name_H-M   'P 1'
_cell_length_a   9.41314200
_cell_length_b   9.37111800
_cell_length_c   3.08101500
_cell_angle_alpha   90.00000000
_cell_angle_beta   90.00000000
_cell_angle_gamma   90.00000000
_symmetry_Int_Tables_number   1
_chemical_formula_structural   Sc2GaB2Ir3Rh2
_chemical_formula_sum   'Sc4 Ga2 B4 Ir6 Rh4'
_cell_volume   271.78146129
_cell_formula_units_Z   2
loop_
 _symmetry_equiv_pos_site_id
 _symmetry_equiv_pos_as_xyz
  1  'x, y, z'
loop_
 _atom_site_type_symbol
 _atom_site_label
 _atom_site_symmetry_multiplicity
 _atom_site_fract_x
 _atom_site_fract_y
 _atom_site_fract_z
 _atom_site_occupancy
  Sc  Sc0  1  0.324106  0.824416  0.000000  1
  Sc  Sc1  1  0.675894  0.175584  0.000000  1
  Sc  Sc2  1  0.824106  0.675584  0.000000  1
  Sc  Sc3  1  0.175894  0.324416  0.000000  1
  Ga  Ga4  1  0.000000  0.000000  0.000000  1
  Ga  Ga5  1  0.500000  0.500000  0.000000  1
  B  B6  1  0.125212  0.623865  0.000000  1
  B  B7  1  0.874787  0.376135  0.000000  1
  B  B8  1  0.625213  0.876135  0.000000  1
  B  B9  1  0.374787  0.123864  0.000000  1
  Ir  Ir10  1  0.217307  0.071608  0.500001  1
  Ir  Ir11  1  0.782694  0.928392  0.500001  1
  Ir  Ir12  1  0.717307  0.428392  0.500001  1
  Ir  Ir13  1  0.282693  0.571607  0.500001  1
  Ir  Ir14  1  0.000000  0.500000  0.500001  1
  Ir  Ir15  1  0.500000  0.000000  0.500001  1
  Rh  Rh16  1  0.429713  0.284421  0.500001  1
  Rh  Rh17  1  0.570286  0.715579  0.500001  1
  Rh  Rh18  1  0.070287  0.784422  0.500001  1
  Rh  Rh19  1  0.929713  0.215579  0.500001  1
