# generated using pymatgen
data_Nd4ErIr2
_symmetry_space_group_name_H-M   'P 1'
_cell_length_a   6.65796242
_cell_length_b   7.26692311
_cell_length_c   8.87845858
_cell_angle_alpha   96.32953443
_cell_angle_beta   112.02124076
_cell_angle_gamma   89.99999677
_symmetry_Int_Tables_number   1
_chemical_formula_structural   Nd4ErIr2
_chemical_formula_sum   'Nd8 Er2 Ir4'
_cell_volume   395.40058281
_cell_formula_units_Z   2
loop_
 _symmetry_equiv_pos_site_id
 _symmetry_equiv_pos_as_xyz
  1  'x, y, z'
loop_
 _atom_site_type_symbol
 _atom_site_label
 _atom_site_symmetry_multiplicity
 _atom_site_fract_x
 _atom_site_fract_y
 _atom_site_fract_z
 _atom_site_occupancy
  Nd  Nd0  1  0.974080  0.923211  0.181186  1
  Nd  Nd1  1  0.792895  0.576789  0.818814  1
  Nd  Nd2  1  0.025920  0.076789  0.818814  1
  Nd  Nd3  1  0.207105  0.423211  0.181186  1
  Nd  Nd4  1  0.647727  0.812848  0.432633  1
  Nd  Nd5  1  0.215094  0.687152  0.567367  1
  Nd  Nd6  1  0.352273  0.187152  0.567367  1
  Nd  Nd7  1  0.784906  0.312848  0.432633  1
  Er  Er8  1  0.437455  0.750000  0.000000  1
  Er  Er9  1  0.562545  0.250000  0.000000  1
  Ir  Ir10  1  0.810632  0.569824  0.210416  1
  Ir  Ir11  1  0.600218  0.930176  0.789584  1
  Ir  Ir12  1  0.189368  0.430176  0.789584  1
  Ir  Ir13  1  0.399782  0.069824  0.210416  1
