# generated using pymatgen
data_Zr4Pa2Sn5
_symmetry_space_group_name_H-M   'P 1'
_cell_length_a   5.93670864
_cell_length_b   9.09036208
_cell_length_c   11.21814651
_cell_angle_alpha   113.90136264
_cell_angle_beta   105.34335444
_cell_angle_gamma   90.00000587
_symmetry_Int_Tables_number   1
_chemical_formula_structural   Zr4Pa2Sn5
_chemical_formula_sum   'Zr8 Pa4 Sn10'
_cell_volume   529.80206194
_cell_formula_units_Z   2
loop_
 _symmetry_equiv_pos_site_id
 _symmetry_equiv_pos_as_xyz
  1  'x, y, z'
loop_
 _atom_site_type_symbol
 _atom_site_label
 _atom_site_symmetry_multiplicity
 _atom_site_fract_x
 _atom_site_fract_y
 _atom_site_fract_z
 _atom_site_occupancy
  Zr  Zr0  1  0.559173  0.309173  0.618345  1
  Zr  Zr1  1  0.440827  0.690827  0.381655  1
  Zr  Zr2  1  0.940827  0.690827  0.381655  1
  Zr  Zr3  1  0.059173  0.309173  0.618345  1
  Zr  Zr4  1  0.432966  0.678493  0.865932  1
  Zr  Zr5  1  0.567034  0.321507  0.134068  1
  Zr  Zr6  1  0.932966  0.187440  0.865932  1
  Zr  Zr7  1  0.067034  0.812560  0.134068  1
  Pa  Pa8  1  0.141169  0.243168  0.282341  1
  Pa  Pa9  1  0.858831  0.756832  0.717659  1
  Pa  Pa10  1  0.641169  0.039172  0.282341  1
  Pa  Pa11  1  0.358831  0.960828  0.717659  1
  Sn  Sn12  1  0.285499  0.576111  0.570998  1
  Sn  Sn13  1  0.714501  0.423889  0.429002  1
  Sn  Sn14  1  0.785499  0.994886  0.570998  1
  Sn  Sn15  1  0.214501  0.005114  0.429002  1
  Sn  Sn16  1  0.250000  0.000000  0.000000  1
  Sn  Sn17  1  0.750000  0.000000  0.000000  1
  Sn  Sn18  1  0.066196  0.470511  0.132394  1
  Sn  Sn19  1  0.933804  0.529489  0.867606  1
  Sn  Sn20  1  0.566196  0.661882  0.132394  1
  Sn  Sn21  1  0.433804  0.338118  0.867606  1
