# generated using pymatgen
data_Na2Dy3Si9P3Ir16Rh3
_symmetry_space_group_name_H-M   'P 1'
_cell_length_a   12.76791700
_cell_length_b   12.77353639
_cell_length_c   3.97397300
_cell_angle_alpha   90.00000000
_cell_angle_beta   90.00000000
_cell_angle_gamma   119.98544590
_symmetry_Int_Tables_number   1
_chemical_formula_structural   Na2Dy3Si9P3Ir16Rh3
_chemical_formula_sum   'Na2 Dy3 Si9 P3 Ir16 Rh3'
_cell_volume   561.37157411
_cell_formula_units_Z   1
loop_
 _symmetry_equiv_pos_site_id
 _symmetry_equiv_pos_as_xyz
  1  'x, y, z'
loop_
 _atom_site_type_symbol
 _atom_site_label
 _atom_site_symmetry_multiplicity
 _atom_site_fract_x
 _atom_site_fract_y
 _atom_site_fract_z
 _atom_site_occupancy
  Na  Na0  1  0.000471  0.816418  0.000000  1
  Na  Na1  1  0.184053  0.183582  0.000000  1
  Dy  Dy2  1  0.334317  0.667839  0.500000  1
  Dy  Dy3  1  0.666479  0.332161  0.500000  1
  Dy  Dy4  1  0.820583  0.000000  0.000000  1
  Si  Si5  1  0.999484  0.632728  0.500000  1
  Si  Si6  1  0.366757  0.367272  0.500000  1
  Si  Si7  1  0.632357  0.000000  0.500000  1
  Si  Si8  1  0.520994  0.686190  0.000000  1
  Si  Si9  1  0.312196  0.834699  0.000000  1
  Si  Si10  1  0.166426  0.479162  0.000000  1
  Si  Si11  1  0.477497  0.165301  0.000000  1
  Si  Si12  1  0.687263  0.520838  0.000000  1
  Si  Si13  1  0.834804  0.313810  0.000000  1
  P  P14  1  0.003016  0.181256  0.500000  1
  P  P15  1  0.821760  0.818744  0.500000  1
  P  P16  1  0.179858  0.000000  0.500000  1
  Ir  Ir17  1  0.512793  0.872144  0.000000  1
  Ir  Ir18  1  0.126315  0.639112  0.000000  1
  Ir  Ir19  1  0.359592  0.486802  0.000000  1
  Ir  Ir20  1  0.487203  0.360888  0.000000  1
  Ir  Ir21  1  0.872789  0.513198  0.000000  1
  Ir  Ir22  1  0.640649  0.127856  0.000000  1
  Ir  Ir23  1  0.999421  0.277057  0.000000  1
  Ir  Ir24  1  0.722364  0.722943  0.000000  1
  Ir  Ir25  1  0.276024  0.000000  0.000000  1
  Ir  Ir26  1  0.628732  0.808595  0.500000  1
  Ir  Ir27  1  0.193593  0.818090  0.500000  1
  Ir  Ir28  1  0.181306  0.376358  0.500000  1
  Ir  Ir29  1  0.375504  0.181910  0.500000  1
  Ir  Ir30  1  0.804947  0.623642  0.500000  1
  Ir  Ir31  1  0.820137  0.191405  0.500000  1
  Ir  Ir32  1  0.997026  0.000000  0.500000  1
  Rh  Rh33  1  0.995276  0.445833  0.500000  1
  Rh  Rh34  1  0.549444  0.554167  0.500000  1
  Rh  Rh35  1  0.448568  0.000000  0.500000  1
