# generated using pymatgen
data_Rb5SrVAs4
_symmetry_space_group_name_H-M   'P 1'
_cell_length_a   10.68027333
_cell_length_b   10.68027426
_cell_length_c   8.15046509
_cell_angle_alpha   87.94697797
_cell_angle_beta   87.94699551
_cell_angle_gamma   121.13581440
_symmetry_Int_Tables_number   1
_chemical_formula_structural   Rb5SrVAs4
_chemical_formula_sum   'Rb10 Sr2 V2 As8'
_cell_volume   793.66154706
_cell_formula_units_Z   2
loop_
 _symmetry_equiv_pos_site_id
 _symmetry_equiv_pos_as_xyz
  1  'x, y, z'
loop_
 _atom_site_type_symbol
 _atom_site_label
 _atom_site_symmetry_multiplicity
 _atom_site_fract_x
 _atom_site_fract_y
 _atom_site_fract_z
 _atom_site_occupancy
  Rb  Rb0  1  0.466939  0.525764  0.603460  1
  Rb  Rb1  1  0.058861  0.528404  0.608754  1
  Rb  Rb2  1  0.525764  0.466939  0.103460  1
  Rb  Rb3  1  0.528404  0.058861  0.108754  1
  Rb  Rb4  1  0.866805  0.143257  0.790246  1
  Rb  Rb5  1  0.289373  0.151351  0.830066  1
  Rb  Rb6  1  0.856250  0.715160  0.766359  1
  Rb  Rb7  1  0.143257  0.866805  0.290246  1
  Rb  Rb8  1  0.715160  0.856250  0.266359  1
  Rb  Rb9  1  0.151351  0.289373  0.330066  1
  Sr  Sr10  1  0.469591  0.946936  0.610249  1
  Sr  Sr11  1  0.946936  0.469591  0.110249  1
  V  V12  1  0.670826  0.328178  0.498777  1
  V  V13  1  0.328178  0.670826  0.998777  1
  As  As14  1  0.682505  0.334448  0.792609  1
  As  As15  1  0.334448  0.682505  0.292609  1
  As  As16  1  0.200485  0.788292  0.897155  1
  As  As17  1  0.572935  0.796362  0.874074  1
  As  As18  1  0.191719  0.415561  0.935450  1
  As  As19  1  0.788292  0.200485  0.397155  1
  As  As20  1  0.415561  0.191719  0.435450  1
  As  As21  1  0.796362  0.572935  0.374074  1
