# generated using pymatgen
data_Zr6Ti7Al9GaRh7
_symmetry_space_group_name_H-M   'P 1'
_cell_length_a   8.90601406
_cell_length_b   8.90585385
_cell_length_c   8.90596979
_cell_angle_alpha   60.11551723
_cell_angle_beta   60.11602122
_cell_angle_gamma   60.11555105
_symmetry_Int_Tables_number   1
_chemical_formula_structural   Zr6Ti7Al9GaRh7
_chemical_formula_sum   'Zr6 Ti7 Al9 Ga1 Rh7'
_cell_volume   500.79737948
_cell_formula_units_Z   1
loop_
 _symmetry_equiv_pos_site_id
 _symmetry_equiv_pos_as_xyz
  1  'x, y, z'
loop_
 _atom_site_type_symbol
 _atom_site_label
 _atom_site_symmetry_multiplicity
 _atom_site_fract_x
 _atom_site_fract_y
 _atom_site_fract_z
 _atom_site_occupancy
  Zr  Zr0  1  0.209922  0.209934  0.788318  1
  Zr  Zr1  1  0.788310  0.209985  0.209888  1
  Zr  Zr2  1  0.209986  0.788319  0.209900  1
  Zr  Zr3  1  0.792976  0.793009  0.200101  1
  Zr  Zr4  1  0.200141  0.793009  0.792982  1
  Zr  Zr5  1  0.793001  0.200130  0.793006  1
  Ti  Ti6  1  0.378258  0.378289  0.378283  1
  Ti  Ti7  1  0.379102  0.864697  0.379109  1
  Ti  Ti8  1  0.864712  0.379114  0.379099  1
  Ti  Ti9  1  0.379129  0.379157  0.864725  1
  Ti  Ti10  1  0.833350  0.502495  0.833373  1
  Ti  Ti11  1  0.502463  0.833355  0.833398  1
  Ti  Ti12  1  0.833378  0.833360  0.502449  1
  Al  Al13  1  0.161770  0.161718  0.161771  1
  Al  Al14  1  0.163545  0.509354  0.163557  1
  Al  Al15  1  0.509306  0.163523  0.163590  1
  Al  Al16  1  0.163592  0.163539  0.509278  1
  Al  Al17  1  0.618687  0.618739  0.618729  1
  Al  Al18  1  0.618435  0.146237  0.618467  1
  Al  Al19  1  0.146231  0.618472  0.618453  1
  Al  Al20  1  0.618459  0.618508  0.146168  1
  Al  Al21  1  0.830817  0.830803  0.830856  1
  Ga  Ga22  1  0.002070  0.001998  0.002089  1
  Rh  Rh23  1  0.002360  0.002322  0.495118  1
  Rh  Rh24  1  0.495104  0.002338  0.002362  1
  Rh  Rh25  1  0.002371  0.495060  0.002362  1
  Rh  Rh26  1  0.500161  0.500150  0.001660  1
  Rh  Rh27  1  0.001635  0.500152  0.500186  1
  Rh  Rh28  1  0.500167  0.001644  0.500191  1
  Rh  Rh29  1  0.500563  0.500591  0.500532  1
