# generated using pymatgen
data_YbPr7PPd24
_symmetry_space_group_name_H-M   'P 1'
_cell_length_a   8.50436953
_cell_length_b   8.50437006
_cell_length_c   8.50437000
_cell_angle_alpha   89.94777309
_cell_angle_beta   90.05222691
_cell_angle_gamma   90.05222733
_symmetry_Int_Tables_number   1
_chemical_formula_structural   YbPr7PPd24
_chemical_formula_sum   'Yb1 Pr7 P1 Pd24'
_cell_volume   615.07188899
_cell_formula_units_Z   1
loop_
 _symmetry_equiv_pos_site_id
 _symmetry_equiv_pos_as_xyz
  1  'x, y, z'
loop_
 _atom_site_type_symbol
 _atom_site_label
 _atom_site_symmetry_multiplicity
 _atom_site_fract_x
 _atom_site_fract_y
 _atom_site_fract_z
 _atom_site_occupancy
  Yb  Yb0  1  0.747086  0.252915  0.252914  1
  Pr  Pr1  1  0.253402  0.254028  0.254028  1
  Pr  Pr2  1  0.747061  0.746389  0.746389  1
  Pr  Pr3  1  0.745972  0.746598  0.254028  1
  Pr  Pr4  1  0.745972  0.254028  0.746598  1
  Pr  Pr5  1  0.253611  0.252939  0.746389  1
  Pr  Pr6  1  0.253611  0.746389  0.252938  1
  Pr  Pr7  1  0.253164  0.746836  0.746836  1
  P  P8  1  0.000801  0.999198  0.999198  1
  Pd  Pd9  1  0.255809  0.499301  0.999850  1
  Pd  Pd10  1  0.743866  0.497833  0.003096  1
  Pd  Pd11  1  0.996905  0.256134  0.497833  1
  Pd  Pd12  1  0.502167  0.256134  0.003096  1
  Pd  Pd13  1  0.000151  0.744191  0.499301  1
  Pd  Pd14  1  0.500698  0.744191  0.999850  1
  Pd  Pd15  1  0.502167  0.003095  0.256134  1
  Pd  Pd16  1  0.255809  0.999850  0.499301  1
  Pd  Pd17  1  0.500698  0.999850  0.744191  1
  Pd  Pd18  1  0.743866  0.003095  0.497833  1
  Pd  Pd19  1  0.996905  0.497833  0.256134  1
  Pd  Pd20  1  0.000150  0.499302  0.744191  1
  Pd  Pd21  1  0.252339  0.500178  0.500178  1
  Pd  Pd22  1  0.747702  0.496918  0.496918  1
  Pd  Pd23  1  0.503081  0.252299  0.496919  1
  Pd  Pd24  1  0.499822  0.747660  0.500178  1
  Pd  Pd25  1  0.503081  0.496918  0.252298  1
  Pd  Pd26  1  0.499821  0.500178  0.747660  1
  Pd  Pd27  1  0.277111  0.000436  0.000436  1
  Pd  Pd28  1  0.725330  0.003643  0.003642  1
  Pd  Pd29  1  0.996358  0.274669  0.003642  1
  Pd  Pd30  1  0.999564  0.722890  0.000436  1
  Pd  Pd31  1  0.996358  0.003643  0.274671  1
  Pd  Pd32  1  0.999564  0.000436  0.722890  1
