# generated using pymatgen
data_Er8Ti3Si16MoW8
_symmetry_space_group_name_H-M   'P 1'
_cell_length_a   6.88096902
_cell_length_b   6.88396416
_cell_length_c   12.76300041
_cell_angle_alpha   89.97879395
_cell_angle_beta   89.96317211
_cell_angle_gamma   89.85440487
_symmetry_Int_Tables_number   1
_chemical_formula_structural   Er8Ti3Si16MoW8
_chemical_formula_sum   'Er8 Ti3 Si16 Mo1 W8'
_cell_volume   604.56007743
_cell_formula_units_Z   1
loop_
 _symmetry_equiv_pos_site_id
 _symmetry_equiv_pos_as_xyz
  1  'x, y, z'
loop_
 _atom_site_type_symbol
 _atom_site_label
 _atom_site_symmetry_multiplicity
 _atom_site_fract_x
 _atom_site_fract_y
 _atom_site_fract_z
 _atom_site_occupancy
  Er  Er0  1  0.339408  0.001645  0.468768  1
  Er  Er1  1  0.497335  0.837996  0.719236  1
  Er  Er2  1  0.499242  0.162045  0.217660  1
  Er  Er3  1  0.838135  0.497540  0.280771  1
  Er  Er4  1  0.162127  0.498535  0.782448  1
  Er  Er5  1  0.659798  0.999663  0.968884  1
  Er  Er6  1  0.001595  0.339426  0.531292  1
  Er  Er7  1  0.999594  0.659949  0.031149  1
  Ti  Ti8  1  0.170240  0.831778  0.248570  1
  Ti  Ti9  1  0.831017  0.170469  0.751231  1
  Ti  Ti10  1  0.668795  0.668910  0.499986  1
  Si  Si11  1  0.200813  0.130097  0.682443  1
  Si  Si12  1  0.372516  0.698729  0.933031  1
  Si  Si13  1  0.629571  0.298570  0.432853  1
  Si  Si14  1  0.699452  0.372731  0.067255  1
  Si  Si15  1  0.298431  0.629689  0.567172  1
  Si  Si16  1  0.797097  0.871209  0.183207  1
  Si  Si17  1  0.129986  0.200880  0.317487  1
  Si  Si18  1  0.871245  0.796639  0.816406  1
  Si  Si19  1  0.289540  0.962926  0.062059  1
  Si  Si20  1  0.539327  0.792556  0.314038  1
  Si  Si21  1  0.458557  0.208181  0.814476  1
  Si  Si22  1  0.792367  0.539829  0.686084  1
  Si  Si23  1  0.208394  0.459503  0.185947  1
  Si  Si24  1  0.708604  0.040645  0.563964  1
  Si  Si25  1  0.963297  0.288671  0.937441  1
  Si  Si26  1  0.040795  0.708653  0.435945  1
  Mo  Mo27  1  0.157512  0.001376  0.873109  1
  W  W28  1  0.331893  0.332329  0.000475  1
  W  W29  1  0.495386  0.664993  0.124761  1
  W  W30  1  0.505410  0.340627  0.624586  1
  W  W31  1  0.664753  0.494969  0.875402  1
  W  W32  1  0.340503  0.505146  0.375371  1
  W  W33  1  0.840181  0.994269  0.374230  1
  W  W34  1  0.002717  0.158276  0.126498  1
  W  W35  1  0.994369  0.840553  0.625766  1
