# generated using pymatgen
data_La14PrNd(CdPd)4
_symmetry_space_group_name_H-M   'P 1'
_cell_length_a   10.19621312
_cell_length_b   10.19621343
_cell_length_c   10.19721900
_cell_angle_alpha   59.99674728
_cell_angle_beta   59.99674628
_cell_angle_gamma   60.01789733
_symmetry_Int_Tables_number   1
_chemical_formula_structural   La14PrNd(CdPd)4
_chemical_formula_sum   'La14 Pr1 Nd1 Cd4 Pd4'
_cell_volume   749.69034124
_cell_formula_units_Z   1
loop_
 _symmetry_equiv_pos_site_id
 _symmetry_equiv_pos_as_xyz
  1  'x, y, z'
loop_
 _atom_site_type_symbol
 _atom_site_label
 _atom_site_symmetry_multiplicity
 _atom_site_fract_x
 _atom_site_fract_y
 _atom_site_fract_z
 _atom_site_occupancy
  La  La0  1  0.351116  0.351116  0.350693  1
  La  La1  1  0.351116  0.351116  0.947075  1
  La  La2  1  0.350640  0.946510  0.351425  1
  La  La3  1  0.946510  0.350640  0.351425  1
  La  La4  1  0.806843  0.193322  0.193549  1
  La  La5  1  0.193322  0.806843  0.806287  1
  La  La6  1  0.193322  0.806843  0.193549  1
  La  La7  1  0.806843  0.193322  0.806287  1
  La  La8  1  0.193046  0.193046  0.806954  1
  La  La9  1  0.806769  0.806769  0.193231  1
  La  La10  1  0.934923  0.565297  0.565648  1
  La  La11  1  0.565297  0.934923  0.934133  1
  La  La12  1  0.565297  0.934923  0.565648  1
  La  La13  1  0.934923  0.565297  0.934133  1
  Pr  Pr14  1  0.564076  0.564076  0.935924  1
  Nd  Nd15  1  0.935951  0.935951  0.564049  1
  Cd  Cd16  1  0.579816  0.579816  0.580418  1
  Cd  Cd17  1  0.579816  0.579816  0.259950  1
  Cd  Cd18  1  0.580679  0.259739  0.579791  1
  Cd  Cd19  1  0.259739  0.580679  0.579791  1
  Pd  Pd20  1  0.142854  0.142854  0.143582  1
  Pd  Pd21  1  0.142854  0.142854  0.570708  1
  Pd  Pd22  1  0.143345  0.570901  0.142877  1
  Pd  Pd23  1  0.570901  0.143345  0.142877  1
