# generated using pymatgen
data_Pr4Nd3Gd(SiO5)4
_symmetry_space_group_name_H-M   'P 1'
_cell_length_a   7.28942544
_cell_length_b   6.96077031
_cell_length_c   9.40457444
_cell_angle_alpha   71.46451815
_cell_angle_beta   90.12666692
_cell_angle_gamma   90.09946162
_symmetry_Int_Tables_number   1
_chemical_formula_structural   Pr4Nd3Gd(SiO5)4
_chemical_formula_sum   'Pr4 Nd3 Gd1 Si4 O20'
_cell_volume   452.43368650
_cell_formula_units_Z   1
loop_
 _symmetry_equiv_pos_site_id
 _symmetry_equiv_pos_as_xyz
  1  'x, y, z'
loop_
 _atom_site_type_symbol
 _atom_site_label
 _atom_site_symmetry_multiplicity
 _atom_site_fract_x
 _atom_site_fract_y
 _atom_site_fract_z
 _atom_site_occupancy
  Pr  Pr0  1  0.852154  0.409205  0.887736  1
  Pr  Pr1  1  0.350206  0.091023  0.111864  1
  Pr  Pr2  1  0.149002  0.592218  0.112083  1
  Pr  Pr3  1  0.648506  0.908523  0.888328  1
  Nd  Nd4  1  0.374878  0.232486  0.476853  1
  Nd  Nd5  1  0.877292  0.267319  0.523413  1
  Nd  Nd6  1  0.624409  0.766176  0.523093  1
  Gd  Gd7  1  0.124362  0.732248  0.473860  1
  Si  Si8  1  0.413932  0.457897  0.796368  1
  Si  Si9  1  0.915620  0.042300  0.203780  1
  Si  Si10  1  0.585021  0.541997  0.203395  1
  Si  Si11  1  0.084454  0.956530  0.796675  1
  O  O12  1  0.569179  0.635685  0.793119  1
  O  O13  1  0.068423  0.863314  0.207167  1
  O  O14  1  0.432132  0.362050  0.207495  1
  O  O15  1  0.932259  0.136654  0.793388  1
  O  O16  1  0.539040  0.251136  0.862210  1
  O  O17  1  0.039722  0.249562  0.136388  1
  O  O18  1  0.460777  0.748666  0.135353  1
  O  O19  1  0.959344  0.750667  0.865665  1
  O  O20  1  0.359386  0.510879  0.616837  1
  O  O21  1  0.865982  0.991275  0.383635  1
  O  O22  1  0.635846  0.492806  0.383304  1
  O  O23  1  0.134913  0.005513  0.617112  1
  O  O24  1  0.240433  0.440465  0.907080  1
  O  O25  1  0.739816  0.059107  0.094644  1
  O  O26  1  0.760310  0.557379  0.095003  1
  O  O27  1  0.259989  0.940618  0.905729  1
  O  O28  1  0.622433  0.048182  0.614224  1
  O  O29  1  0.123642  0.457664  0.385423  1
  O  O30  1  0.372219  0.947948  0.386374  1
  O  O31  1  0.884318  0.552510  0.612403  1
