# generated using pymatgen
data_Dy7Lu3Si5P
_symmetry_space_group_name_H-M   'P 1'
_cell_length_a   8.36287112
_cell_length_b   8.36837076
_cell_length_c   6.22885745
_cell_angle_alpha   90.02403266
_cell_angle_beta   90.01928660
_cell_angle_gamma   119.97859370
_symmetry_Int_Tables_number   1
_chemical_formula_structural   Dy7Lu3Si5P
_chemical_formula_sum   'Dy7 Lu3 Si5 P1'
_cell_volume   377.59727791
_cell_formula_units_Z   1
loop_
 _symmetry_equiv_pos_site_id
 _symmetry_equiv_pos_as_xyz
  1  'x, y, z'
loop_
 _atom_site_type_symbol
 _atom_site_label
 _atom_site_symmetry_multiplicity
 _atom_site_fract_x
 _atom_site_fract_y
 _atom_site_fract_z
 _atom_site_occupancy
  Dy  Dy0  1  0.665884  0.332193  0.999567  1
  Dy  Dy1  1  0.753714  0.999817  0.749425  1
  Dy  Dy2  1  0.755701  0.755019  0.250569  1
  Dy  Dy3  1  0.001264  0.245267  0.250662  1
  Dy  Dy4  1  0.000972  0.755883  0.749521  1
  Dy  Dy5  1  0.244970  0.244448  0.749209  1
  Dy  Dy6  1  0.244923  0.999778  0.250600  1
  Lu  Lu7  1  0.333657  0.667443  0.499759  1
  Lu  Lu8  1  0.333632  0.667163  0.000482  1
  Lu  Lu9  1  0.666349  0.332669  0.499889  1
  Si  Si10  1  0.394680  0.395757  0.252265  1
  Si  Si11  1  0.002334  0.606100  0.251937  1
  Si  Si12  1  0.001798  0.395740  0.748006  1
  Si  Si13  1  0.604528  0.606277  0.747978  1
  Si  Si14  1  0.605116  0.998215  0.251968  1
  P  P15  1  0.390475  0.998233  0.748164  1
