# generated using pymatgen
data_Ho2ErTmGa12Fe
_symmetry_space_group_name_H-M   'P 1'
_cell_length_a   7.41269971
_cell_length_b   7.40183545
_cell_length_c   7.38826451
_cell_angle_alpha   109.45743110
_cell_angle_beta   109.51705755
_cell_angle_gamma   109.54322299
_symmetry_Int_Tables_number   1
_chemical_formula_structural   Ho2ErTmGa12Fe
_chemical_formula_sum   'Ho2 Er1 Tm1 Ga12 Fe1'
_cell_volume   311.65725942
_cell_formula_units_Z   1
loop_
 _symmetry_equiv_pos_site_id
 _symmetry_equiv_pos_as_xyz
  1  'x, y, z'
loop_
 _atom_site_type_symbol
 _atom_site_label
 _atom_site_symmetry_multiplicity
 _atom_site_fract_x
 _atom_site_fract_y
 _atom_site_fract_z
 _atom_site_occupancy
  Ho  Ho0  1  0.000000  0.000000  0.500000  1
  Ho  Ho1  1  0.500000  0.500000  0.500000  1
  Er  Er2  1  0.000000  0.500000  0.000000  1
  Tm  Tm3  1  0.500000  0.000000  0.000000  1
  Ga  Ga4  1  0.749610  0.249610  0.499221  1
  Ga  Ga5  1  0.749669  0.498728  0.249162  1
  Ga  Ga6  1  0.500507  0.249566  0.750838  1
  Ga  Ga7  1  0.250331  0.501272  0.750838  1
  Ga  Ga8  1  0.250390  0.750390  0.500779  1
  Ga  Ga9  1  0.499493  0.750434  0.249162  1
  Ga  Ga10  1  0.717013  0.717571  0.000000  1
  Ga  Ga11  1  0.283119  0.999500  0.282043  1
  Ga  Ga12  1  0.998924  0.282543  0.282043  1
  Ga  Ga13  1  0.282987  0.282429  0.000000  1
  Ga  Ga14  1  0.716881  0.000500  0.717957  1
  Ga  Ga15  1  0.001076  0.717457  0.717957  1
  Fe  Fe16  1  0.000000  0.000000  0.000000  1
