# generated using pymatgen
data_Rb4InReCl12
_symmetry_space_group_name_H-M   'P 1'
_cell_length_a   7.37389176
_cell_length_b   7.37389176
_cell_length_c   10.65822200
_cell_angle_alpha   90.00000000
_cell_angle_beta   90.00000000
_cell_angle_gamma   89.74848209
_symmetry_Int_Tables_number   1
_chemical_formula_structural   Rb4InReCl12
_chemical_formula_sum   'Rb4 In1 Re1 Cl12'
_cell_volume   579.52756044
_cell_formula_units_Z   1
loop_
 _symmetry_equiv_pos_site_id
 _symmetry_equiv_pos_as_xyz
  1  'x, y, z'
loop_
 _atom_site_type_symbol
 _atom_site_label
 _atom_site_symmetry_multiplicity
 _atom_site_fract_x
 _atom_site_fract_y
 _atom_site_fract_z
 _atom_site_occupancy
  Rb  Rb0  1  0.500000  0.000000  0.788631  1
  Rb  Rb1  1  0.000000  0.500000  0.211369  1
  Rb  Rb2  1  0.500000  0.000000  0.211369  1
  Rb  Rb3  1  0.000000  0.500000  0.788631  1
  In  In4  1  0.000000  0.000000  0.000000  1
  Re  Re5  1  0.500000  0.500000  0.500000  1
  Cl  Cl6  1  0.000000  0.000000  0.759114  1
  Cl  Cl7  1  0.500000  0.500000  0.279614  1
  Cl  Cl8  1  0.723186  0.723186  0.500000  1
  Cl  Cl9  1  0.243637  0.243637  0.000000  1
  Cl  Cl10  1  0.723775  0.276225  0.500000  1
  Cl  Cl11  1  0.245139  0.754861  0.000000  1
  Cl  Cl12  1  0.000000  0.000000  0.240886  1
  Cl  Cl13  1  0.500000  0.500000  0.720386  1
  Cl  Cl14  1  0.276814  0.276814  0.500000  1
  Cl  Cl15  1  0.756363  0.756363  0.000000  1
  Cl  Cl16  1  0.276225  0.723775  0.500000  1
  Cl  Cl17  1  0.754861  0.245139  0.000000  1
