# generated using pymatgen
data_LaCeSe2
_symmetry_space_group_name_H-M   'P 1'
_cell_length_a   7.41582552
_cell_length_b   7.41582597
_cell_length_c   7.41582500
_cell_angle_alpha   33.34009177
_cell_angle_beta   33.34008621
_cell_angle_gamma   33.34008822
_symmetry_Int_Tables_number   1
_chemical_formula_structural   LaCeSe2
_chemical_formula_sum   'La1 Ce1 Se2'
_cell_volume   109.69126127
_cell_formula_units_Z   1
loop_
 _symmetry_equiv_pos_site_id
 _symmetry_equiv_pos_as_xyz
  1  'x, y, z'
loop_
 _atom_site_type_symbol
 _atom_site_label
 _atom_site_symmetry_multiplicity
 _atom_site_fract_x
 _atom_site_fract_y
 _atom_site_fract_z
 _atom_site_occupancy
  La  La0  1  0.500000  0.500000  0.500000  1
  Ce  Ce1  1  0.000000  0.000000  0.000000  1
  Se  Se2  1  0.251775  0.251775  0.251775  1
  Se  Se3  1  0.748225  0.748225  0.748225  1
