# generated using pymatgen
data_Tb8Sm4Fe2I17
_symmetry_space_group_name_H-M   'P 1'
_cell_length_a   9.80512843
_cell_length_b   11.86508621
_cell_length_c   11.78030066
_cell_angle_alpha   74.39245913
_cell_angle_beta   75.56711256
_cell_angle_gamma   65.53238491
_symmetry_Int_Tables_number   1
_chemical_formula_structural   Tb8Sm4Fe2I17
_chemical_formula_sum   'Tb8 Sm4 Fe2 I17'
_cell_volume   1186.49228755
_cell_formula_units_Z   1
loop_
 _symmetry_equiv_pos_site_id
 _symmetry_equiv_pos_as_xyz
  1  'x, y, z'
loop_
 _atom_site_type_symbol
 _atom_site_label
 _atom_site_symmetry_multiplicity
 _atom_site_fract_x
 _atom_site_fract_y
 _atom_site_fract_z
 _atom_site_occupancy
  Tb  Tb0  1  0.451011  0.495325  0.319250  1
  Tb  Tb1  1  0.547735  0.673161  0.013931  1
  Tb  Tb2  1  0.275367  0.980334  0.109109  1
  Tb  Tb3  1  0.855811  0.287088  0.848775  1
  Tb  Tb4  1  0.413001  0.240680  0.718758  1
  Tb  Tb5  1  0.721300  0.025461  0.889543  1
  Tb  Tb6  1  0.551738  0.498103  0.681118  1
  Tb  Tb7  1  0.456859  0.327225  0.979700  1
  Sm  Sm8  1  0.583911  0.759183  0.280401  1
  Sm  Sm9  1  0.817330  0.190561  0.588424  1
  Sm  Sm10  1  0.178709  0.809833  0.417552  1
  Sm  Sm11  1  0.147218  0.714119  0.151227  1
  Fe  Fe12  1  0.364717  0.738742  0.214133  1
  Fe  Fe13  1  0.635478  0.261245  0.785665  1
  I  I14  1  0.056437  0.103734  0.323640  1
  I  I15  1  0.465420  0.947222  0.844201  1
  I  I16  1  0.432671  0.805315  0.542934  1
  I  I17  1  0.564476  0.190601  0.460216  1
  I  I18  1  0.834110  0.716983  0.041930  1
  I  I19  1  0.230485  0.418871  0.233122  1
  I  I20  1  0.687619  0.373489  0.102555  1
  I  I21  1  0.530170  0.053792  0.155992  1
  I  I22  1  0.741223  0.472035  0.416637  1
  I  I23  1  0.887211  0.784692  0.368578  1
  I  I24  1  0.945291  0.895003  0.679011  1
  I  I25  1  0.163938  0.285969  0.954683  1
  I  I26  1  0.316190  0.629592  0.895796  1
  I  I27  1  0.997387  0.001957  0.003267  1
  I  I28  1  0.113568  0.215995  0.636080  1
  I  I29  1  0.774840  0.578928  0.764133  1
  I  I30  1  0.258778  0.524762  0.579639  1
