# generated using pymatgen
data_Er3Al3CuNi2
_symmetry_space_group_name_H-M   'P 1'
_cell_length_a   7.01528200
_cell_length_b   7.01528300
_cell_length_c   3.83187700
_cell_angle_alpha   90.00000000
_cell_angle_beta   90.00000000
_cell_angle_gamma   120.00000473
_symmetry_Int_Tables_number   1
_chemical_formula_structural   Er3Al3CuNi2
_chemical_formula_sum   'Er3 Al3 Cu1 Ni2'
_cell_volume   163.31741594
_cell_formula_units_Z   1
loop_
 _symmetry_equiv_pos_site_id
 _symmetry_equiv_pos_as_xyz
  1  'x, y, z'
loop_
 _atom_site_type_symbol
 _atom_site_label
 _atom_site_symmetry_multiplicity
 _atom_site_fract_x
 _atom_site_fract_y
 _atom_site_fract_z
 _atom_site_occupancy
  Er  Er0  1  0.410085  0.992617  0.500000  1
  Er  Er1  1  0.007383  0.417468  0.500000  1
  Er  Er2  1  0.582532  0.589915  0.500000  1
  Al  Al3  1  0.762724  0.996481  0.000000  1
  Al  Al4  1  0.003519  0.766243  0.000000  1
  Al  Al5  1  0.233757  0.237276  0.000000  1
  Cu  Cu6  1  0.666667  0.333333  0.000000  1
  Ni  Ni7  1  0.333333  0.666667  0.000000  1
  Ni  Ni8  1  0.000000  0.000000  0.500000  1
