# generated using pymatgen
data_Ac10Si8N3
_symmetry_space_group_name_H-M   'P 1'
_cell_length_a   11.23687300
_cell_length_b   11.23687284
_cell_length_c   4.99971200
_cell_angle_alpha   90.00000000
_cell_angle_beta   90.00000000
_cell_angle_gamma   120.00000342
_symmetry_Int_Tables_number   1
_chemical_formula_structural   Ac10Si8N3
_chemical_formula_sum   'Ac10 Si8 N3'
_cell_volume   546.72199169
_cell_formula_units_Z   1
loop_
 _symmetry_equiv_pos_site_id
 _symmetry_equiv_pos_as_xyz
  1  'x, y, z'
loop_
 _atom_site_type_symbol
 _atom_site_label
 _atom_site_symmetry_multiplicity
 _atom_site_fract_x
 _atom_site_fract_y
 _atom_site_fract_z
 _atom_site_occupancy
  Ac  Ac0  1  0.210553  0.789447  0.000000  1
  Ac  Ac1  1  0.000000  0.500000  0.500000  1
  Ac  Ac2  1  0.578893  0.789447  0.000000  1
  Ac  Ac3  1  0.789447  0.578893  0.000000  1
  Ac  Ac4  1  0.000000  0.000000  0.000000  1
  Ac  Ac5  1  0.210553  0.421107  0.000000  1
  Ac  Ac6  1  0.421107  0.210553  0.000000  1
  Ac  Ac7  1  0.500000  0.500000  0.500000  1
  Ac  Ac8  1  0.789447  0.210553  0.000000  1
  Ac  Ac9  1  0.500000  0.000000  0.500000  1
  Si  Si10  1  0.000000  0.787501  0.500000  1
  Si  Si11  1  0.000000  0.212499  0.500000  1
  Si  Si12  1  0.212499  0.212499  0.500000  1
  Si  Si13  1  0.787501  0.000000  0.500000  1
  Si  Si14  1  0.333333  0.666667  0.500000  1
  Si  Si15  1  0.212499  0.000000  0.500000  1
  Si  Si16  1  0.666667  0.333333  0.500000  1
  Si  Si17  1  0.787501  0.787501  0.500000  1
  N  N18  1  0.000000  0.500000  0.000000  1
  N  N19  1  0.500000  0.500000  0.000000  1
  N  N20  1  0.500000  0.000000  0.000000  1
