# generated using pymatgen
data_YLu2B6Ir7Os
_symmetry_space_group_name_H-M   'P 1'
_cell_length_a   9.96901530
_cell_length_b   9.15876911
_cell_length_c   5.55202749
_cell_angle_alpha   81.33211881
_cell_angle_beta   65.26193556
_cell_angle_gamma   33.34018339
_symmetry_Int_Tables_number   1
_chemical_formula_structural   YLu2B6Ir7Os
_chemical_formula_sum   'Y1 Lu2 B6 Ir7 Os1'
_cell_volume   232.08703598
_cell_formula_units_Z   1
loop_
 _symmetry_equiv_pos_site_id
 _symmetry_equiv_pos_as_xyz
  1  'x, y, z'
loop_
 _atom_site_type_symbol
 _atom_site_label
 _atom_site_symmetry_multiplicity
 _atom_site_fract_x
 _atom_site_fract_y
 _atom_site_fract_z
 _atom_site_occupancy
  Y  Y0  1  0.821836  0.821836  0.178164  1
  Lu  Lu1  1  0.000441  0.000441  0.999559  1
  Lu  Lu2  1  0.178546  0.178546  0.821454  1
  B  B3  1  0.819347  0.531166  0.481893  1
  B  B4  1  0.168061  0.480604  0.530241  1
  B  B5  1  0.480604  0.168061  0.821095  1
  B  B6  1  0.670569  0.329436  0.671327  1
  B  B7  1  0.531166  0.819347  0.167594  1
  B  B8  1  0.329436  0.670569  0.328666  1
  Ir  Ir9  1  0.415108  0.415108  0.584892  1
  Ir  Ir10  1  0.585527  0.585527  0.914473  1
  Ir  Ir11  1  0.085988  0.085988  0.414012  1
  Ir  Ir12  1  0.914546  0.914546  0.585454  1
  Ir  Ir13  1  0.585530  0.585530  0.414470  1
  Ir  Ir14  1  0.249484  0.249484  0.250516  1
  Ir  Ir15  1  0.414336  0.414336  0.085664  1
  Os  Os16  1  0.749474  0.749474  0.750526  1
