# generated using pymatgen
data_Rb8DyEr3F20
_symmetry_space_group_name_H-M   'P 1'
_cell_length_a   6.93341679
_cell_length_b   7.41038700
_cell_length_c   11.49758579
_cell_angle_alpha   90.00000000
_cell_angle_beta   90.17277900
_cell_angle_gamma   90.00000000
_symmetry_Int_Tables_number   1
_chemical_formula_structural   Rb8DyEr3F20
_chemical_formula_sum   'Rb8 Dy1 Er3 F20'
_cell_volume   590.73524250
_cell_formula_units_Z   1
loop_
 _symmetry_equiv_pos_site_id
 _symmetry_equiv_pos_as_xyz
  1  'x, y, z'
loop_
 _atom_site_type_symbol
 _atom_site_label
 _atom_site_symmetry_multiplicity
 _atom_site_fract_x
 _atom_site_fract_y
 _atom_site_fract_z
 _atom_site_occupancy
  Rb  Rb0  1  0.536599  0.996797  0.829840  1
  Rb  Rb1  1  0.463748  0.497553  0.170247  1
  Rb  Rb2  1  0.963379  0.996680  0.328445  1
  Rb  Rb3  1  0.035958  0.497976  0.671698  1
  Rb  Rb4  1  0.536599  0.503203  0.829840  1
  Rb  Rb5  1  0.463748  0.002447  0.170247  1
  Rb  Rb6  1  0.963379  0.503320  0.328445  1
  Rb  Rb7  1  0.035958  0.002024  0.671698  1
  Dy  Dy8  1  0.560725  0.250000  0.501388  1
  Er  Er9  1  0.439344  0.750000  0.498791  1
  Er  Er10  1  0.940358  0.250000  0.001235  1
  Er  Er11  1  0.059267  0.750000  0.998772  1
  F  F12  1  0.882382  0.750000  0.841199  1
  F  F13  1  0.116868  0.250000  0.158909  1
  F  F14  1  0.616429  0.750000  0.341530  1
  F  F15  1  0.382407  0.250000  0.660654  1
  F  F16  1  0.849033  0.250000  0.818637  1
  F  F17  1  0.150635  0.750000  0.181249  1
  F  F18  1  0.651933  0.250000  0.316665  1
  F  F19  1  0.349082  0.750000  0.681390  1
  F  F20  1  0.640665  0.963527  0.569883  1
  F  F21  1  0.359524  0.467187  0.429606  1
  F  F22  1  0.859027  0.964672  0.068392  1
  F  F23  1  0.140312  0.464934  0.931647  1
  F  F24  1  0.372811  0.750000  0.984610  1
  F  F25  1  0.626919  0.250000  0.015346  1
  F  F26  1  0.125379  0.750000  0.485383  1
  F  F27  1  0.878003  0.250000  0.514723  1
  F  F28  1  0.140312  0.035066  0.931647  1
  F  F29  1  0.859027  0.535328  0.068392  1
  F  F30  1  0.359524  0.032813  0.429606  1
  F  F31  1  0.640665  0.536473  0.569883  1
