# generated using pymatgen
data_Nd3(EuRh)2
_symmetry_space_group_name_H-M   'P 1'
_cell_length_a   9.10372200
_cell_length_b   9.10372141
_cell_length_c   7.55860381
_cell_angle_alpha   83.72706744
_cell_angle_beta   96.27293047
_cell_angle_gamma   136.61301609
_symmetry_Int_Tables_number   1
_chemical_formula_structural   Nd3(EuRh)2
_chemical_formula_sum   'Nd6 Eu4 Rh4'
_cell_volume   427.33013613
_cell_formula_units_Z   2
loop_
 _symmetry_equiv_pos_site_id
 _symmetry_equiv_pos_as_xyz
  1  'x, y, z'
loop_
 _atom_site_type_symbol
 _atom_site_label
 _atom_site_symmetry_multiplicity
 _atom_site_fract_x
 _atom_site_fract_y
 _atom_site_fract_z
 _atom_site_occupancy
  Nd  Nd0  1  0.192487  0.013683  0.413567  1
  Nd  Nd1  1  0.013683  0.192487  0.086432  1
  Nd  Nd2  1  0.807514  0.986319  0.586433  1
  Nd  Nd3  1  0.986319  0.807514  0.913568  1
  Nd  Nd4  1  0.574839  0.574839  0.250000  1
  Nd  Nd5  1  0.425162  0.425162  0.750000  1
  Eu  Eu6  1  0.788788  0.358156  0.316217  1
  Eu  Eu7  1  0.358156  0.788789  0.183781  1
  Eu  Eu8  1  0.211213  0.641845  0.683782  1
  Eu  Eu9  1  0.641846  0.211213  0.816218  1
  Rh  Rh10  1  0.384902  0.183408  0.077944  1
  Rh  Rh11  1  0.183408  0.384901  0.422057  1
  Rh  Rh12  1  0.615099  0.816594  0.922055  1
  Rh  Rh13  1  0.816594  0.615099  0.577944  1
