# generated using pymatgen
data_Pr8InAgIr2
_symmetry_space_group_name_H-M   'P 1'
_cell_length_a   10.01987417
_cell_length_b   10.00179160
_cell_length_c   10.01987496
_cell_angle_alpha   60.05968410
_cell_angle_beta   59.99759939
_cell_angle_gamma   60.05968180
_symmetry_Int_Tables_number   1
_chemical_formula_structural   Pr8InAgIr2
_chemical_formula_sum   'Pr16 In2 Ag2 Ir4'
_cell_volume   710.67439915
_cell_formula_units_Z   2
loop_
 _symmetry_equiv_pos_site_id
 _symmetry_equiv_pos_as_xyz
  1  'x, y, z'
loop_
 _atom_site_type_symbol
 _atom_site_label
 _atom_site_symmetry_multiplicity
 _atom_site_fract_x
 _atom_site_fract_y
 _atom_site_fract_z
 _atom_site_occupancy
  Pr  Pr0  1  0.057139  0.063964  0.438395  1
  Pr  Pr1  1  0.650653  0.047420  0.650653  1
  Pr  Pr2  1  0.194375  0.805625  0.194375  1
  Pr  Pr3  1  0.438260  0.061740  0.438260  1
  Pr  Pr4  1  0.191961  0.191209  0.808725  1
  Pr  Pr5  1  0.650653  0.651277  0.650653  1
  Pr  Pr6  1  0.047944  0.650925  0.650206  1
  Pr  Pr7  1  0.438395  0.063964  0.057139  1
  Pr  Pr8  1  0.650206  0.650925  0.047944  1
  Pr  Pr9  1  0.191961  0.808105  0.808725  1
  Pr  Pr10  1  0.810224  0.189776  0.810224  1
  Pr  Pr11  1  0.808725  0.191209  0.191961  1
  Pr  Pr12  1  0.808725  0.808105  0.191961  1
  Pr  Pr13  1  0.057139  0.440502  0.438395  1
  Pr  Pr14  1  0.438395  0.440502  0.057139  1
  Pr  Pr15  1  0.059366  0.440634  0.059366  1
  In  In16  1  0.422647  0.736974  0.422647  1
  In  In17  1  0.422647  0.417731  0.422647  1
  Ag  Ag18  1  0.745377  0.418542  0.417539  1
  Ag  Ag19  1  0.417539  0.418542  0.745377  1
  Ir  Ir20  1  0.857527  0.859949  0.857527  1
  Ir  Ir21  1  0.424885  0.858691  0.857734  1
  Ir  Ir22  1  0.857734  0.858691  0.424885  1
  Ir  Ir23  1  0.857527  0.424999  0.857527  1
