# generated using pymatgen
data_VZnTeO6
_symmetry_space_group_name_H-M   'P 1'
_cell_length_a   4.64147800
_cell_length_b   4.64147800
_cell_length_c   9.27170500
_cell_angle_alpha   90.00000000
_cell_angle_beta   90.00000000
_cell_angle_gamma   89.99832118
_symmetry_Int_Tables_number   1
_chemical_formula_structural   VZnTeO6
_chemical_formula_sum   'V2 Zn2 Te2 O12'
_cell_volume   199.74328940
_cell_formula_units_Z   2
loop_
 _symmetry_equiv_pos_site_id
 _symmetry_equiv_pos_as_xyz
  1  'x, y, z'
loop_
 _atom_site_type_symbol
 _atom_site_label
 _atom_site_symmetry_multiplicity
 _atom_site_fract_x
 _atom_site_fract_y
 _atom_site_fract_z
 _atom_site_occupancy
  V  V0  1  0.500000  0.500000  0.168965  1
  V  V1  1  0.000000  0.000000  0.669040  1
  Zn  Zn2  1  0.500000  0.500000  0.835667  1
  Zn  Zn3  1  0.000000  0.000000  0.335659  1
  Te  Te4  1  0.500000  0.500000  0.501043  1
  Te  Te5  1  0.000000  0.000000  0.000996  1
  O  O6  1  0.203664  0.796336  0.507188  1
  O  O7  1  0.796336  0.203664  0.507188  1
  O  O8  1  0.296341  0.296341  0.007253  1
  O  O9  1  0.703659  0.703659  0.007253  1
  O  O10  1  0.204181  0.795819  0.156639  1
  O  O11  1  0.795819  0.204181  0.156639  1
  O  O12  1  0.295836  0.295836  0.656597  1
  O  O13  1  0.704164  0.704164  0.656597  1
  O  O14  1  0.813493  0.186507  0.833353  1
  O  O15  1  0.186507  0.813493  0.833353  1
  O  O16  1  0.686551  0.686551  0.333284  1
  O  O17  1  0.313450  0.313450  0.333284  1
