# generated using pymatgen
data_CeNdNi2(AsH)2
_symmetry_space_group_name_H-M   'P 1'
_cell_length_a   4.06962000
_cell_length_b   8.37111677
_cell_length_c   7.14581174
_cell_angle_alpha   89.84843508
_cell_angle_beta   90.00000000
_cell_angle_gamma   90.00000000
_symmetry_Int_Tables_number   1
_chemical_formula_structural   CeNdNi2(AsH)2
_chemical_formula_sum   'Ce2 Nd2 Ni4 As4 H4'
_cell_volume   243.43740495
_cell_formula_units_Z   2
loop_
 _symmetry_equiv_pos_site_id
 _symmetry_equiv_pos_as_xyz
  1  'x, y, z'
loop_
 _atom_site_type_symbol
 _atom_site_label
 _atom_site_symmetry_multiplicity
 _atom_site_fract_x
 _atom_site_fract_y
 _atom_site_fract_z
 _atom_site_occupancy
  Ce  Ce0  1  0.250000  0.994345  0.253851  1
  Ce  Ce1  1  0.750000  0.005655  0.746149  1
  Nd  Nd2  1  0.750000  0.506127  0.754688  1
  Nd  Nd3  1  0.250000  0.493873  0.245312  1
  Ni  Ni4  1  0.750000  0.228476  0.412116  1
  Ni  Ni5  1  0.250000  0.771524  0.587884  1
  Ni  Ni6  1  0.250000  0.261340  0.911477  1
  Ni  Ni7  1  0.750000  0.738660  0.088523  1
  As  As8  1  0.750000  0.223853  0.078430  1
  As  As9  1  0.250000  0.776147  0.921570  1
  As  As10  1  0.250000  0.262210  0.579190  1
  As  As11  1  0.750000  0.737790  0.420810  1
  H  H12  1  0.250000  0.961658  0.580895  1
  H  H13  1  0.750000  0.038342  0.419105  1
  H  H14  1  0.750000  0.547612  0.081097  1
  H  H15  1  0.250000  0.452388  0.918903  1
