# generated using pymatgen
data_Lu12TlFeTc2Au
_symmetry_space_group_name_H-M   'P 1'
_cell_length_a   8.18854925
_cell_length_b   8.18854149
_cell_length_c   8.18855047
_cell_angle_alpha   106.87763464
_cell_angle_beta   110.84936886
_cell_angle_gamma   110.71744526
_symmetry_Int_Tables_number   1
_chemical_formula_structural   Lu12TlFeTc2Au
_chemical_formula_sum   'Lu12 Tl1 Fe1 Tc2 Au1'
_cell_volume   422.02065374
_cell_formula_units_Z   1
loop_
 _symmetry_equiv_pos_site_id
 _symmetry_equiv_pos_as_xyz
  1  'x, y, z'
loop_
 _atom_site_type_symbol
 _atom_site_label
 _atom_site_symmetry_multiplicity
 _atom_site_fract_x
 _atom_site_fract_y
 _atom_site_fract_z
 _atom_site_occupancy
  Lu  Lu0  1  0.306485  0.304615  0.612992  1
  Lu  Lu1  1  0.691459  0.693925  0.387241  1
  Lu  Lu2  1  0.691622  0.304615  0.998130  1
  Lu  Lu3  1  0.306684  0.693925  0.002467  1
  Lu  Lu4  1  0.188549  0.421413  0.232864  1
  Lu  Lu5  1  0.809246  0.580053  0.770807  1
  Lu  Lu6  1  0.188576  0.955901  0.767326  1
  Lu  Lu7  1  0.935478  0.191074  0.744727  1
  Lu  Lu8  1  0.809228  0.038764  0.229535  1
  Lu  Lu9  1  0.057576  0.806010  0.251927  1
  Lu  Lu10  1  0.446347  0.191074  0.255595  1
  Lu  Lu11  1  0.554083  0.806010  0.748434  1
  Tl  Tl12  1  0.998256  0.498620  0.500364  1
  Fe  Fe13  1  0.632829  0.632292  0.999463  1
  Tc  Tc14  1  0.385577  0.385447  0.999870  1
  Tc  Tc15  1  0.001027  0.001198  0.000171  1
  Au  Au16  1  0.496976  0.995066  0.498090  1
