# generated using pymatgen
data_YEr(Tm2Rh9)2
_symmetry_space_group_name_H-M   'P 1'
_cell_length_a   5.24402500
_cell_length_b   5.24402523
_cell_length_c   17.48905900
_cell_angle_alpha   90.00000000
_cell_angle_beta   90.00000000
_cell_angle_gamma   119.99997962
_symmetry_Int_Tables_number   1
_chemical_formula_structural   YEr(Tm2Rh9)2
_chemical_formula_sum   'Y1 Er1 Tm4 Rh18'
_cell_volume   416.51120538
_cell_formula_units_Z   1
loop_
 _symmetry_equiv_pos_site_id
 _symmetry_equiv_pos_as_xyz
  1  'x, y, z'
loop_
 _atom_site_type_symbol
 _atom_site_label
 _atom_site_symmetry_multiplicity
 _atom_site_fract_x
 _atom_site_fract_y
 _atom_site_fract_z
 _atom_site_occupancy
  Y  Y0  1  0.666667  0.333333  0.250000  1
  Er  Er1  1  0.333333  0.666667  0.750000  1
  Tm  Tm2  1  0.333333  0.666667  0.958181  1
  Tm  Tm3  1  0.666667  0.333333  0.041500  1
  Tm  Tm4  1  0.666667  0.333333  0.458500  1
  Tm  Tm5  1  0.333333  0.666667  0.541819  1
  Rh  Rh6  1  0.167494  0.832506  0.375259  1
  Rh  Rh7  1  0.167494  0.334988  0.375259  1
  Rh  Rh8  1  0.665012  0.832506  0.375259  1
  Rh  Rh9  1  0.832511  0.167489  0.625049  1
  Rh  Rh10  1  0.832511  0.665021  0.625049  1
  Rh  Rh11  1  0.334979  0.167489  0.625049  1
  Rh  Rh12  1  0.832511  0.167489  0.874951  1
  Rh  Rh13  1  0.832511  0.665021  0.874951  1
  Rh  Rh14  1  0.334979  0.167489  0.874951  1
  Rh  Rh15  1  0.167494  0.832506  0.124741  1
  Rh  Rh16  1  0.167494  0.334988  0.124741  1
  Rh  Rh17  1  0.665012  0.832506  0.124741  1
  Rh  Rh18  1  0.333333  0.666667  0.250000  1
  Rh  Rh19  1  0.666667  0.333333  0.750000  1
  Rh  Rh20  1  0.000000  0.000000  0.250000  1
  Rh  Rh21  1  0.000000  0.000000  0.750000  1
  Rh  Rh22  1  0.000000  0.000000  0.500121  1
  Rh  Rh23  1  0.000000  0.000000  0.999879  1
