# generated using pymatgen
data_Er5Th3(Pt2Pb)4
_symmetry_space_group_name_H-M   'P 1'
_cell_length_a   8.05289027
_cell_length_b   8.05288988
_cell_length_c   7.21286400
_cell_angle_alpha   90.00000000
_cell_angle_beta   90.00000000
_cell_angle_gamma   89.99134089
_symmetry_Int_Tables_number   1
_chemical_formula_structural   Er5Th3(Pt2Pb)4
_chemical_formula_sum   'Er5 Th3 Pt8 Pb4'
_cell_volume   467.74729012
_cell_formula_units_Z   1
loop_
 _symmetry_equiv_pos_site_id
 _symmetry_equiv_pos_as_xyz
  1  'x, y, z'
loop_
 _atom_site_type_symbol
 _atom_site_label
 _atom_site_symmetry_multiplicity
 _atom_site_fract_x
 _atom_site_fract_y
 _atom_site_fract_z
 _atom_site_occupancy
  Er  Er0  1  0.339345  0.341094  0.500000  1
  Er  Er1  1  0.658906  0.660655  0.500000  1
  Er  Er2  1  0.170996  0.829004  0.500000  1
  Er  Er3  1  0.841239  0.158761  0.000000  1
  Er  Er4  1  0.162409  0.837591  0.000000  1
  Th  Th5  1  0.672589  0.674411  0.000000  1
  Th  Th6  1  0.827321  0.172679  0.500000  1
  Th  Th7  1  0.325589  0.327411  0.000000  1
  Pt  Pt8  1  0.871998  0.871169  0.737453  1
  Pt  Pt9  1  0.128831  0.128002  0.737453  1
  Pt  Pt10  1  0.629710  0.370290  0.762319  1
  Pt  Pt11  1  0.629710  0.370290  0.237681  1
  Pt  Pt12  1  0.371849  0.628151  0.243099  1
  Pt  Pt13  1  0.128831  0.128002  0.262547  1
  Pt  Pt14  1  0.871998  0.871169  0.262547  1
  Pt  Pt15  1  0.371849  0.628151  0.756901  1
  Pb  Pb16  1  0.495007  0.996593  0.744364  1
  Pb  Pb17  1  0.495007  0.996593  0.255636  1
  Pb  Pb18  1  0.003407  0.504993  0.744364  1
  Pb  Pb19  1  0.003407  0.504993  0.255636  1
