# generated using pymatgen
data_CaEr(BC)4
_symmetry_space_group_name_H-M   'P 1'
_cell_length_a   5.34908100
_cell_length_b   5.34908100
_cell_length_c   3.60226800
_cell_angle_alpha   90.00000000
_cell_angle_beta   90.00000000
_cell_angle_gamma   90.00000000
_symmetry_Int_Tables_number   1
_chemical_formula_structural   CaEr(BC)4
_chemical_formula_sum   'Ca1 Er1 B4 C4'
_cell_volume   103.07049669
_cell_formula_units_Z   1
loop_
 _symmetry_equiv_pos_site_id
 _symmetry_equiv_pos_as_xyz
  1  'x, y, z'
loop_
 _atom_site_type_symbol
 _atom_site_label
 _atom_site_symmetry_multiplicity
 _atom_site_fract_x
 _atom_site_fract_y
 _atom_site_fract_z
 _atom_site_occupancy
  Ca  Ca0  1  0.500000  0.500000  0.000000  1
  Er  Er1  1  0.000000  0.000000  0.000000  1
  B  B2  1  0.137376  0.638106  0.500000  1
  B  B3  1  0.638106  0.862624  0.500000  1
  B  B4  1  0.862624  0.361894  0.500000  1
  B  B5  1  0.361894  0.137376  0.500000  1
  C  C6  1  0.840905  0.663472  0.500000  1
  C  C7  1  0.336528  0.840905  0.500000  1
  C  C8  1  0.663472  0.159095  0.500000  1
  C  C9  1  0.159095  0.336528  0.500000  1
