# generated using pymatgen
data_Cs16ZrSnBi7Sb
_symmetry_space_group_name_H-M   'P 1'
_cell_length_a   12.75821140
_cell_length_b   12.76221118
_cell_length_c   12.75057100
_cell_angle_alpha   60.03015905
_cell_angle_beta   60.01980042
_cell_angle_gamma   60.05761759
_symmetry_Int_Tables_number   1
_chemical_formula_structural   Cs16ZrSnBi7Sb
_chemical_formula_sum   'Cs16 Zr1 Sn1 Bi7 Sb1'
_cell_volume   1469.20744275
_cell_formula_units_Z   1
loop_
 _symmetry_equiv_pos_site_id
 _symmetry_equiv_pos_as_xyz
  1  'x, y, z'
loop_
 _atom_site_type_symbol
 _atom_site_label
 _atom_site_symmetry_multiplicity
 _atom_site_fract_x
 _atom_site_fract_y
 _atom_site_fract_z
 _atom_site_occupancy
  Cs  Cs0  1  0.622547  0.132278  0.622588  1
  Cs  Cs1  1  0.622712  0.621848  0.132638  1
  Cs  Cs2  1  0.133002  0.621663  0.622668  1
  Cs  Cs3  1  0.622712  0.621848  0.622802  1
  Cs  Cs4  1  0.022170  0.021917  0.477956  1
  Cs  Cs5  1  0.778963  0.223135  0.218471  1
  Cs  Cs6  1  0.221481  0.777893  0.779221  1
  Cs  Cs7  1  0.778867  0.778059  0.221537  1
  Cs  Cs8  1  0.778963  0.223135  0.779430  1
  Cs  Cs9  1  0.221481  0.777893  0.221405  1
  Cs  Cs10  1  0.477878  0.022056  0.477627  1
  Cs  Cs11  1  0.477878  0.022056  0.022438  1
  Cs  Cs12  1  0.020907  0.477706  0.480298  1
  Cs  Cs13  1  0.020907  0.477706  0.021088  1
  Cs  Cs14  1  0.218459  0.222981  0.779280  1
  Cs  Cs15  1  0.480233  0.477270  0.021248  1
  Zr  Zr16  1  0.750948  0.747196  0.750929  1
  Sn  Sn17  1  0.500549  0.499659  0.499896  1
  Bi  Bi18  1  0.401468  0.795833  0.401350  1
  Bi  Bi19  1  0.845859  0.845407  0.462919  1
  Bi  Bi20  1  0.463003  0.845337  0.845831  1
  Bi  Bi21  1  0.845859  0.845407  0.845817  1
  Bi  Bi22  1  0.797131  0.400580  0.401145  1
  Bi  Bi23  1  0.401330  0.400627  0.401229  1
  Bi  Bi24  1  0.401330  0.400627  0.796814  1
  Sb  Sb25  1  0.843364  0.469885  0.843376  1
