# generated using pymatgen
data_LiTbDyCu3O8
_symmetry_space_group_name_H-M   'P 1'
_cell_length_a   6.08487523
_cell_length_b   6.31162622
_cell_length_c   6.27545195
_cell_angle_alpha   125.91194344
_cell_angle_beta   125.40234030
_cell_angle_gamma   78.58291589
_symmetry_Int_Tables_number   1
_chemical_formula_structural   LiTbDyCu3O8
_chemical_formula_sum   'Li1 Tb1 Dy1 Cu3 O8'
_cell_volume   155.39239637
_cell_formula_units_Z   1
loop_
 _symmetry_equiv_pos_site_id
 _symmetry_equiv_pos_as_xyz
  1  'x, y, z'
loop_
 _atom_site_type_symbol
 _atom_site_label
 _atom_site_symmetry_multiplicity
 _atom_site_fract_x
 _atom_site_fract_y
 _atom_site_fract_z
 _atom_site_occupancy
  Li  Li0  1  0.375088  0.624984  0.750040  1
  Tb  Tb1  1  0.011012  0.010604  0.018392  1
  Dy  Dy2  1  0.738682  0.238951  0.480578  1
  Cu  Cu3  1  0.874871  0.624982  0.249851  1
  Cu  Cu4  1  0.374938  0.125102  0.750054  1
  Cu  Cu5  1  0.375131  0.624951  0.250019  1
  O  O6  1  0.418235  0.851204  0.173246  1
  O  O7  1  0.692267  0.282827  0.864580  1
  O  O8  1  0.334037  0.399329  0.328232  1
  O  O9  1  0.057125  0.967655  0.634288  1
  O  O10  1  0.004496  0.646769  0.054009  1
  O  O11  1  0.603459  0.970107  0.953529  1
  O  O12  1  0.145605  0.280786  0.548155  1
  O  O13  1  0.745052  0.601749  0.445028  1
