# generated using pymatgen
data_CaTb3(Si2Ir)2
_symmetry_space_group_name_H-M   'P 1'
_cell_length_a   5.77158719
_cell_length_b   5.77158745
_cell_length_c   10.09324403
_cell_angle_alpha   62.86841229
_cell_angle_beta   62.86841238
_cell_angle_gamma   43.11442110
_symmetry_Int_Tables_number   1
_chemical_formula_structural   CaTb3(Si2Ir)2
_chemical_formula_sum   'Ca1 Tb3 Si4 Ir2'
_cell_volume   200.27074227
_cell_formula_units_Z   1
loop_
 _symmetry_equiv_pos_site_id
 _symmetry_equiv_pos_as_xyz
  1  'x, y, z'
loop_
 _atom_site_type_symbol
 _atom_site_label
 _atom_site_symmetry_multiplicity
 _atom_site_fract_x
 _atom_site_fract_y
 _atom_site_fract_z
 _atom_site_occupancy
  Ca  Ca0  1  0.812885  0.812885  0.107503  1
  Tb  Tb1  1  0.005487  0.005487  0.320956  1
  Tb  Tb2  1  0.181173  0.181173  0.890760  1
  Tb  Tb3  1  0.993831  0.993831  0.677841  1
  Si  Si4  1  0.496185  0.496185  0.873389  1
  Si  Si5  1  0.360311  0.360311  0.565260  1
  Si  Si6  1  0.503094  0.503094  0.123793  1
  Si  Si7  1  0.645254  0.645254  0.437019  1
  Ir  Ir8  1  0.729015  0.729015  0.625201  1
  Ir  Ir9  1  0.272765  0.272765  0.378279  1
