# generated using pymatgen
data_TbMg3(B6Ru)2
_symmetry_space_group_name_H-M   'P 1'
_cell_length_a   3.52697100
_cell_length_b   8.89629976
_cell_length_c   11.15736028
_cell_angle_alpha   89.76354797
_cell_angle_beta   90.00000000
_cell_angle_gamma   90.00000000
_symmetry_Int_Tables_number   1
_chemical_formula_structural   TbMg3(B6Ru)2
_chemical_formula_sum   'Tb2 Mg6 B24 Ru4'
_cell_volume   350.08141483
_cell_formula_units_Z   2
loop_
 _symmetry_equiv_pos_site_id
 _symmetry_equiv_pos_as_xyz
  1  'x, y, z'
loop_
 _atom_site_type_symbol
 _atom_site_label
 _atom_site_symmetry_multiplicity
 _atom_site_fract_x
 _atom_site_fract_y
 _atom_site_fract_z
 _atom_site_occupancy
  Tb  Tb0  1  0.000000  0.322126  0.413237  1
  Tb  Tb1  1  0.000000  0.677874  0.586763  1
  Mg  Mg2  1  0.000000  0.829427  0.085942  1
  Mg  Mg3  1  0.000000  0.170573  0.914058  1
  Mg  Mg4  1  0.000000  0.944097  0.368483  1
  Mg  Mg5  1  0.000000  0.055903  0.631517  1
  Mg  Mg6  1  0.000000  0.443509  0.125882  1
  Mg  Mg7  1  0.000000  0.556491  0.874118  1
  B  B8  1  0.500000  0.556143  0.431261  1
  B  B9  1  0.500000  0.443857  0.568739  1
  B  B10  1  0.500000  0.054266  0.063725  1
  B  B11  1  0.500000  0.945734  0.936275  1
  B  B12  1  0.500000  0.756066  0.415923  1
  B  B13  1  0.500000  0.243934  0.584077  1
  B  B14  1  0.500000  0.255288  0.077700  1
  B  B15  1  0.500000  0.744712  0.922300  1
  B  B16  1  0.500000  0.796569  0.259294  1
  B  B17  1  0.500000  0.203431  0.740706  1
  B  B18  1  0.500000  0.294180  0.234918  1
  B  B19  1  0.500000  0.705820  0.765082  1
  B  B20  1  0.500000  0.630934  0.178405  1
  B  B21  1  0.500000  0.369066  0.821595  1
  B  B22  1  0.500000  0.128071  0.315687  1
  B  B23  1  0.500000  0.871929  0.684313  1
  B  B24  1  0.500000  0.979391  0.209892  1
  B  B25  1  0.500000  0.020609  0.790108  1
  B  B26  1  0.500000  0.481131  0.284692  1
  B  B27  1  0.500000  0.518869  0.715308  1
  B  B28  1  0.500000  0.592394  0.024855  1
  B  B29  1  0.500000  0.407606  0.975145  1
  B  B30  1  0.500000  0.092385  0.474604  1
  B  B31  1  0.500000  0.907615  0.525396  1
  Ru  Ru32  1  0.000000  0.641786  0.313795  1
  Ru  Ru33  1  0.000000  0.358214  0.686205  1
  Ru  Ru34  1  0.000000  0.140901  0.176008  1
  Ru  Ru35  1  0.000000  0.859099  0.823992  1
