# generated using pymatgen
data_Dy2Al9OsRu4
_symmetry_space_group_name_H-M   'P 1'
_cell_length_a   7.98810477
_cell_length_b   7.98810577
_cell_length_c   7.98810601
_cell_angle_alpha   134.49957971
_cell_angle_beta   134.49959042
_cell_angle_gamma   66.30874051
_symmetry_Int_Tables_number   1
_chemical_formula_structural   Dy2Al9OsRu4
_chemical_formula_sum   'Dy2 Al9 Os1 Ru4'
_cell_volume   255.27078771
_cell_formula_units_Z   1
loop_
 _symmetry_equiv_pos_site_id
 _symmetry_equiv_pos_as_xyz
  1  'x, y, z'
loop_
 _atom_site_type_symbol
 _atom_site_label
 _atom_site_symmetry_multiplicity
 _atom_site_fract_x
 _atom_site_fract_y
 _atom_site_fract_z
 _atom_site_occupancy
  Dy  Dy0  1  0.000000  0.500000  0.500000  1
  Dy  Dy1  1  0.500000  0.000000  0.500000  1
  Al  Al2  1  0.439363  0.861584  0.000000  1
  Al  Al3  1  0.138416  0.138416  0.577779  1
  Al  Al4  1  0.861584  0.439363  0.000000  1
  Al  Al5  1  0.861584  0.861584  0.422221  1
  Al  Al6  1  0.560637  0.138416  0.000000  1
  Al  Al7  1  0.138416  0.560637  0.000000  1
  Al  Al8  1  0.560637  0.560637  0.422221  1
  Al  Al9  1  0.000000  0.000000  0.000000  1
  Al  Al10  1  0.439363  0.439363  0.577779  1
  Os  Os11  1  0.500000  0.500000  0.000000  1
  Ru  Ru12  1  0.182440  0.182440  0.000000  1
  Ru  Ru13  1  0.817560  0.817560  0.000000  1
  Ru  Ru14  1  0.250000  0.750000  0.500000  1
  Ru  Ru15  1  0.750000  0.250000  0.500000  1
