# generated using pymatgen
data_Pr3InHg2Rh3
_symmetry_space_group_name_H-M   'P 1'
_cell_length_a   7.61722500
_cell_length_b   7.66448305
_cell_length_c   4.10775600
_cell_angle_alpha   90.00000000
_cell_angle_beta   90.00000000
_cell_angle_gamma   119.79624840
_symmetry_Int_Tables_number   1
_chemical_formula_structural   Pr3InHg2Rh3
_chemical_formula_sum   'Pr3 In1 Hg2 Rh3'
_cell_volume   208.11478359
_cell_formula_units_Z   1
loop_
 _symmetry_equiv_pos_site_id
 _symmetry_equiv_pos_as_xyz
  1  'x, y, z'
loop_
 _atom_site_type_symbol
 _atom_site_label
 _atom_site_symmetry_multiplicity
 _atom_site_fract_x
 _atom_site_fract_y
 _atom_site_fract_z
 _atom_site_occupancy
  Pr  Pr0  1  0.999807  0.593109  0.500000  1
  Pr  Pr1  1  0.406698  0.406891  0.500000  1
  Pr  Pr2  1  0.597538  0.000000  0.500000  1
  In  In3  1  0.252178  0.000000  0.000000  1
  Hg  Hg4  1  0.744783  0.745755  0.000000  1
  Hg  Hg5  1  0.999028  0.254245  0.000000  1
  Rh  Rh6  1  0.328770  0.676210  0.000000  1
  Rh  Rh7  1  0.018638  0.000000  0.500000  1
  Rh  Rh8  1  0.652561  0.323790  0.000000  1
