# generated using pymatgen
data_Hf18Ta7As2Os
_symmetry_space_group_name_H-M   'P 1'
_cell_length_a   8.75283853
_cell_length_b   8.75283850
_cell_length_c   8.87595704
_cell_angle_alpha   89.97568074
_cell_angle_beta   90.02431781
_cell_angle_gamma   120.02374855
_symmetry_Int_Tables_number   1
_chemical_formula_structural   Hf18Ta7As2Os
_chemical_formula_sum   'Hf18 Ta7 As2 Os1'
_cell_volume   588.76180000
_cell_formula_units_Z   1
loop_
 _symmetry_equiv_pos_site_id
 _symmetry_equiv_pos_as_xyz
  1  'x, y, z'
loop_
 _atom_site_type_symbol
 _atom_site_label
 _atom_site_symmetry_multiplicity
 _atom_site_fract_x
 _atom_site_fract_y
 _atom_site_fract_z
 _atom_site_occupancy
  Hf  Hf0  1  0.802625  0.605300  0.546620  1
  Hf  Hf1  1  0.802270  0.197730  0.546230  1
  Hf  Hf2  1  0.394700  0.197375  0.546620  1
  Hf  Hf3  1  0.197375  0.394700  0.453380  1
  Hf  Hf4  1  0.197730  0.802270  0.453770  1
  Hf  Hf5  1  0.605300  0.802625  0.453380  1
  Hf  Hf6  1  0.195295  0.390629  0.048045  1
  Hf  Hf7  1  0.195604  0.804396  0.047877  1
  Hf  Hf8  1  0.609371  0.804705  0.048045  1
  Hf  Hf9  1  0.804705  0.609371  0.951955  1
  Hf  Hf10  1  0.804396  0.195604  0.952123  1
  Hf  Hf11  1  0.390629  0.195295  0.951955  1
  Hf  Hf12  1  0.460950  0.921884  0.751285  1
  Hf  Hf13  1  0.460888  0.539112  0.751407  1
  Hf  Hf14  1  0.078116  0.539050  0.751285  1
  Hf  Hf15  1  0.539050  0.078116  0.248715  1
  Hf  Hf16  1  0.539112  0.460888  0.248593  1
  Hf  Hf17  1  0.921884  0.460950  0.248715  1
  Ta  Ta18  1  0.111242  0.222724  0.752667  1
  Ta  Ta19  1  0.111373  0.888627  0.752601  1
  Ta  Ta20  1  0.777276  0.888758  0.752667  1
  Ta  Ta21  1  0.888758  0.777276  0.247333  1
  Ta  Ta22  1  0.888627  0.111373  0.247399  1
  Ta  Ta23  1  0.222724  0.111242  0.247333  1
  Ta  Ta24  1  0.000000  0.000000  0.500000  1
  As  As25  1  0.666582  0.333418  0.752224  1
  As  As26  1  0.333418  0.666582  0.247776  1
  Os  Os27  1  0.000000  0.000000  0.000000  1
