# generated using pymatgen
data_Hf3Zr3Sn6Ir5Au
_symmetry_space_group_name_H-M   'P 1'
_cell_length_a   7.35235978
_cell_length_b   7.34160388
_cell_length_c   7.55808525
_cell_angle_alpha   89.97404357
_cell_angle_beta   89.93961362
_cell_angle_gamma   119.68571124
_symmetry_Int_Tables_number   1
_chemical_formula_structural   Hf3Zr3Sn6Ir5Au
_chemical_formula_sum   'Hf3 Zr3 Sn6 Ir5 Au1'
_cell_volume   354.42660200
_cell_formula_units_Z   1
loop_
 _symmetry_equiv_pos_site_id
 _symmetry_equiv_pos_as_xyz
  1  'x, y, z'
loop_
 _atom_site_type_symbol
 _atom_site_label
 _atom_site_symmetry_multiplicity
 _atom_site_fract_x
 _atom_site_fract_y
 _atom_site_fract_z
 _atom_site_occupancy
  Hf  Hf0  1  0.397825  0.010206  0.241570  1
  Hf  Hf1  1  0.586939  0.623721  0.757407  1
  Hf  Hf2  1  0.613606  0.601454  0.240604  1
  Zr  Zr3  1  0.985687  0.386136  0.242875  1
  Zr  Zr4  1  0.035096  0.412505  0.754756  1
  Zr  Zr5  1  0.377378  0.963509  0.755451  1
  Sn  Sn6  1  0.264189  0.266123  0.495048  1
  Sn  Sn7  1  0.267548  0.264651  0.997083  1
  Sn  Sn8  1  0.735536  0.006790  0.997877  1
  Sn  Sn9  1  0.003054  0.733614  0.495301  1
  Sn  Sn10  1  0.733908  0.999959  0.494801  1
  Sn  Sn11  1  0.996449  0.728886  0.996847  1
  Ir  Ir12  1  0.664107  0.335699  0.974044  1
  Ir  Ir13  1  0.338098  0.669147  0.044344  1
  Ir  Ir14  1  0.338931  0.668884  0.464196  1
  Ir  Ir15  1  0.996881  0.996258  0.746601  1
  Ir  Ir16  1  0.999534  0.996600  0.245306  1
  Au  Au17  1  0.665236  0.335858  0.555891  1
