# generated using pymatgen
data_Lu3ZnCo9GeB4
_symmetry_space_group_name_H-M   'P 1'
_cell_length_a   5.08051030
_cell_length_b   5.08107839
_cell_length_c   9.51640815
_cell_angle_alpha   90.00382929
_cell_angle_beta   89.99223173
_cell_angle_gamma   119.91459182
_symmetry_Int_Tables_number   1
_chemical_formula_structural   Lu3ZnCo9GeB4
_chemical_formula_sum   'Lu3 Zn1 Co9 Ge1 B4'
_cell_volume   212.93156338
_cell_formula_units_Z   1
loop_
 _symmetry_equiv_pos_site_id
 _symmetry_equiv_pos_as_xyz
  1  'x, y, z'
loop_
 _atom_site_type_symbol
 _atom_site_label
 _atom_site_symmetry_multiplicity
 _atom_site_fract_x
 _atom_site_fract_y
 _atom_site_fract_z
 _atom_site_occupancy
  Lu  Lu0  1  0.999956  0.999971  0.000016  1
  Lu  Lu1  1  0.999976  0.000011  0.339999  1
  Lu  Lu2  1  0.000012  0.000016  0.660151  1
  Zn  Zn3  1  0.333314  0.666620  0.999845  1
  Co  Co4  1  0.499734  0.999523  0.500021  1
  Co  Co5  1  0.499737  0.500242  0.500003  1
  Co  Co6  1  0.000483  0.500265  0.500029  1
  Co  Co7  1  0.501134  0.002298  0.206591  1
  Co  Co8  1  0.501129  0.498816  0.206519  1
  Co  Co9  1  0.997667  0.498826  0.206568  1
  Co  Co10  1  0.501286  0.002497  0.793432  1
  Co  Co11  1  0.501220  0.498771  0.793486  1
  Co  Co12  1  0.997563  0.498753  0.793458  1
  Ge  Ge13  1  0.666684  0.333441  0.999737  1
  B  B14  1  0.333355  0.666639  0.348315  1
  B  B15  1  0.666629  0.333340  0.349768  1
  B  B16  1  0.666636  0.333340  0.650307  1
  B  B17  1  0.333383  0.666630  0.651754  1
