# generated using pymatgen
data_NaCa2Tb(ReN3)4
_symmetry_space_group_name_H-M   'P 1'
_cell_length_a   7.44513637
_cell_length_b   7.44513607
_cell_length_c   6.26361405
_cell_angle_alpha   74.39217357
_cell_angle_beta   74.39218575
_cell_angle_gamma   83.67968766
_symmetry_Int_Tables_number   1
_chemical_formula_structural   NaCa2Tb(ReN3)4
_chemical_formula_sum   'Na1 Ca2 Tb1 Re4 N12'
_cell_volume   321.79362014
_cell_formula_units_Z   1
loop_
 _symmetry_equiv_pos_site_id
 _symmetry_equiv_pos_as_xyz
  1  'x, y, z'
loop_
 _atom_site_type_symbol
 _atom_site_label
 _atom_site_symmetry_multiplicity
 _atom_site_fract_x
 _atom_site_fract_y
 _atom_site_fract_z
 _atom_site_occupancy
  Na  Na0  1  0.294482  0.705518  0.750000  1
  Ca  Ca1  1  0.093250  0.906750  0.250000  1
  Ca  Ca2  1  0.705738  0.294262  0.250000  1
  Tb  Tb3  1  0.912198  0.087802  0.750000  1
  Re  Re4  1  0.624535  0.797505  0.268063  1
  Re  Re5  1  0.202495  0.375465  0.231937  1
  Re  Re6  1  0.378059  0.205389  0.728114  1
  Re  Re7  1  0.794611  0.621941  0.771886  1
  N  N8  1  0.341646  0.347560  0.944342  1
  N  N9  1  0.009454  0.220380  0.351487  1
  N  N10  1  0.779620  0.990546  0.148513  1
  N  N11  1  0.215753  0.023413  0.836337  1
  N  N12  1  0.655559  0.640959  0.063796  1
  N  N13  1  0.881187  0.386563  0.823820  1
  N  N14  1  0.114677  0.604770  0.182899  1
  N  N15  1  0.976587  0.784247  0.663663  1
  N  N16  1  0.395230  0.885323  0.317101  1
  N  N17  1  0.652440  0.658354  0.555658  1
  N  N18  1  0.613437  0.118813  0.676180  1
  N  N19  1  0.359041  0.344441  0.436204  1
