# generated using pymatgen
data_Zr3Cr2P3Ru
_symmetry_space_group_name_H-M   'P 1'
_cell_length_a   6.65307702
_cell_length_b   6.65217255
_cell_length_c   3.52030300
_cell_angle_alpha   90.00000000
_cell_angle_beta   90.00000000
_cell_angle_gamma   119.99551179
_symmetry_Int_Tables_number   1
_chemical_formula_structural   Zr3Cr2P3Ru
_chemical_formula_sum   'Zr3 Cr2 P3 Ru1'
_cell_volume   134.93244009
_cell_formula_units_Z   1
loop_
 _symmetry_equiv_pos_site_id
 _symmetry_equiv_pos_as_xyz
  1  'x, y, z'
loop_
 _atom_site_type_symbol
 _atom_site_label
 _atom_site_symmetry_multiplicity
 _atom_site_fract_x
 _atom_site_fract_y
 _atom_site_fract_z
 _atom_site_occupancy
  Zr  Zr0  1  0.410381  0.409473  0.500000  1
  Zr  Zr1  1  0.589619  0.999093  0.500000  1
  Zr  Zr2  1  0.000000  0.594218  0.500000  1
  Cr  Cr3  1  0.754616  0.754756  0.000000  1
  Cr  Cr4  1  0.245384  0.000139  0.000000  1
  P  P5  1  0.663271  0.334672  0.000000  1
  P  P6  1  0.336729  0.671402  0.000000  1
  P  P7  1  0.000000  0.994608  0.500000  1
  Ru  Ru8  1  0.000000  0.241640  0.000000  1
