# generated using pymatgen
data_Y4Ga9GeIr6
_symmetry_space_group_name_H-M   'P 1'
_cell_length_a   8.55160295
_cell_length_b   8.61290438
_cell_length_c   8.61290426
_cell_angle_alpha   141.08427821
_cell_angle_beta   109.09757943
_cell_angle_gamma   84.05015690
_symmetry_Int_Tables_number   1
_chemical_formula_structural   Y4Ga9GeIr6
_chemical_formula_sum   'Y4 Ga9 Ge1 Ir6'
_cell_volume   364.19555523
_cell_formula_units_Z   1
loop_
 _symmetry_equiv_pos_site_id
 _symmetry_equiv_pos_as_xyz
  1  'x, y, z'
loop_
 _atom_site_type_symbol
 _atom_site_label
 _atom_site_symmetry_multiplicity
 _atom_site_fract_x
 _atom_site_fract_y
 _atom_site_fract_z
 _atom_site_occupancy
  Y  Y0  1  0.869302  0.640151  0.229150  1
  Y  Y1  1  0.131625  0.361498  0.770126  1
  Y  Y2  1  0.407074  0.138605  0.268469  1
  Y  Y3  1  0.586973  0.858928  0.728045  1
  Ga  Ga4  1  0.501952  0.750613  0.252373  1
  Ga  Ga5  1  0.501952  0.249579  0.751339  1
  Ga  Ga6  1  0.204220  0.955789  0.748784  1
  Ga  Ga7  1  0.794763  0.545541  0.749975  1
  Ga  Ga8  1  0.794763  0.044788  0.249221  1
  Ga  Ga9  1  0.204220  0.455437  0.248432  1
  Ga  Ga10  1  0.087819  0.910921  0.176898  1
  Ga  Ga11  1  0.909608  0.085552  0.824055  1
  Ga  Ga12  1  0.738234  0.413994  0.324240  1
  Ge  Ge13  1  0.262362  0.587906  0.674455  1
  Ir  Ir14  1  0.003125  0.750608  0.753403  1
  Ir  Ir15  1  0.003125  0.249721  0.252517  1
  Ir  Ir16  1  0.258342  0.850515  0.407826  1
  Ir  Ir17  1  0.743905  0.150928  0.592976  1
  Ir  Ir18  1  0.442797  0.350170  0.092627  1
  Ir  Ir19  1  0.553842  0.648756  0.905086  1
