# generated using pymatgen
data_TbNd6Dy9(CdIr)4
_symmetry_space_group_name_H-M   'P 1'
_cell_length_a   9.76475032
_cell_length_b   9.76475068
_cell_length_c   9.76475100
_cell_angle_alpha   59.99756464
_cell_angle_beta   59.99756690
_cell_angle_gamma   59.99756594
_symmetry_Int_Tables_number   1
_chemical_formula_structural   TbNd6Dy9(CdIr)4
_chemical_formula_sum   'Tb1 Nd6 Dy9 Cd4 Ir4'
_cell_volume   658.33130652
_cell_formula_units_Z   1
loop_
 _symmetry_equiv_pos_site_id
 _symmetry_equiv_pos_as_xyz
  1  'x, y, z'
loop_
 _atom_site_type_symbol
 _atom_site_label
 _atom_site_symmetry_multiplicity
 _atom_site_fract_x
 _atom_site_fract_y
 _atom_site_fract_z
 _atom_site_occupancy
  Tb  Tb0  1  0.347765  0.347765  0.347765  1
  Nd  Nd1  1  0.940632  0.559364  0.559364  1
  Nd  Nd2  1  0.559319  0.940709  0.940709  1
  Nd  Nd3  1  0.559364  0.940632  0.559364  1
  Nd  Nd4  1  0.940709  0.559319  0.940709  1
  Nd  Nd5  1  0.559364  0.559364  0.940632  1
  Nd  Nd6  1  0.940709  0.940709  0.559319  1
  Dy  Dy7  1  0.347592  0.347592  0.957216  1
  Dy  Dy8  1  0.347592  0.957216  0.347592  1
  Dy  Dy9  1  0.957216  0.347592  0.347592  1
  Dy  Dy10  1  0.812270  0.187758  0.187758  1
  Dy  Dy11  1  0.187827  0.812187  0.812187  1
  Dy  Dy12  1  0.187758  0.812270  0.187758  1
  Dy  Dy13  1  0.812187  0.187827  0.812187  1
  Dy  Dy14  1  0.187758  0.187758  0.812270  1
  Dy  Dy15  1  0.812187  0.812187  0.187827  1
  Cd  Cd16  1  0.579554  0.579554  0.579554  1
  Cd  Cd17  1  0.579608  0.579608  0.261292  1
  Cd  Cd18  1  0.579608  0.261292  0.579608  1
  Cd  Cd19  1  0.261292  0.579608  0.579608  1
  Ir  Ir20  1  0.141351  0.141351  0.141351  1
  Ir  Ir21  1  0.141066  0.141066  0.576203  1
  Ir  Ir22  1  0.141066  0.576203  0.141066  1
  Ir  Ir23  1  0.576203  0.141066  0.141066  1
