# generated using pymatgen
data_Mn2PCl13
_symmetry_space_group_name_H-M   'P 1'
_cell_length_a   10.91212800
_cell_length_b   9.13790664
_cell_length_c   9.75866776
_cell_angle_alpha   79.47848888
_cell_angle_beta   90.00000000
_cell_angle_gamma   90.00000000
_symmetry_Int_Tables_number   1
_chemical_formula_structural   Mn2PCl13
_chemical_formula_sum   'Mn4 P2 Cl26'
_cell_volume   956.71497568
_cell_formula_units_Z   2
loop_
 _symmetry_equiv_pos_site_id
 _symmetry_equiv_pos_as_xyz
  1  'x, y, z'
loop_
 _atom_site_type_symbol
 _atom_site_label
 _atom_site_symmetry_multiplicity
 _atom_site_fract_x
 _atom_site_fract_y
 _atom_site_fract_z
 _atom_site_occupancy
  Mn  Mn0  1  0.250000  0.839233  0.105645  1
  Mn  Mn1  1  0.750000  0.160767  0.894355  1
  Mn  Mn2  1  0.250000  0.670554  0.851999  1
  Mn  Mn3  1  0.750000  0.329446  0.148001  1
  P  P4  1  0.250000  0.262295  0.509231  1
  P  P5  1  0.750000  0.737705  0.490769  1
  Cl  Cl6  1  0.603575  0.806470  0.577370  1
  Cl  Cl7  1  0.103575  0.193530  0.422630  1
  Cl  Cl8  1  0.750000  0.420069  0.904933  1
  Cl  Cl9  1  0.250000  0.579931  0.095067  1
  Cl  Cl10  1  0.892106  0.158904  0.078089  1
  Cl  Cl11  1  0.392106  0.841096  0.921911  1
  Cl  Cl12  1  0.107894  0.841096  0.921911  1
  Cl  Cl13  1  0.607894  0.158904  0.078089  1
  Cl  Cl14  1  0.750000  0.204271  0.365354  1
  Cl  Cl15  1  0.250000  0.795729  0.634646  1
  Cl  Cl16  1  0.898498  0.479382  0.182120  1
  Cl  Cl17  1  0.398498  0.520618  0.817880  1
  Cl  Cl18  1  0.101502  0.520618  0.817880  1
  Cl  Cl19  1  0.601502  0.479382  0.182120  1
  Cl  Cl20  1  0.750000  0.916523  0.926682  1
  Cl  Cl21  1  0.250000  0.083477  0.073318  1
  Cl  Cl22  1  0.897629  0.190216  0.738295  1
  Cl  Cl23  1  0.397629  0.809784  0.261705  1
  Cl  Cl24  1  0.102371  0.809784  0.261705  1
  Cl  Cl25  1  0.602371  0.190216  0.738295  1
  Cl  Cl26  1  0.750000  0.816036  0.291095  1
  Cl  Cl27  1  0.250000  0.183964  0.708905  1
  Cl  Cl28  1  0.750000  0.520119  0.523542  1
  Cl  Cl29  1  0.250000  0.479881  0.476458  1
  Cl  Cl30  1  0.896425  0.806470  0.577370  1
  Cl  Cl31  1  0.396425  0.193530  0.422630  1
