# generated using pymatgen
data_Y2Ho4Al16Os7
_symmetry_space_group_name_H-M   'P 1'
_cell_length_a   8.94965030
_cell_length_b   8.94421223
_cell_length_c   8.94421100
_cell_angle_alpha   60.04023186
_cell_angle_beta   59.97988435
_cell_angle_gamma   59.97987757
_symmetry_Int_Tables_number   1
_chemical_formula_structural   Y2Ho4Al16Os7
_chemical_formula_sum   'Y2 Ho4 Al16 Os7'
_cell_volume   506.26144957
_cell_formula_units_Z   1
loop_
 _symmetry_equiv_pos_site_id
 _symmetry_equiv_pos_as_xyz
  1  'x, y, z'
loop_
 _atom_site_type_symbol
 _atom_site_label
 _atom_site_symmetry_multiplicity
 _atom_site_fract_x
 _atom_site_fract_y
 _atom_site_fract_z
 _atom_site_occupancy
  Y  Y0  1  0.211299  0.788699  0.788699  1
  Y  Y1  1  0.788701  0.211301  0.211301  1
  Ho  Ho2  1  0.788018  0.211832  0.788178  1
  Ho  Ho3  1  0.788018  0.788178  0.211832  1
  Ho  Ho4  1  0.211982  0.788168  0.211822  1
  Ho  Ho5  1  0.211982  0.211822  0.788168  1
  Al  Al6  1  0.832300  0.832462  0.832462  1
  Al  Al7  1  0.832347  0.832402  0.502901  1
  Al  Al8  1  0.502770  0.832463  0.832463  1
  Al  Al9  1  0.832347  0.502901  0.832402  1
  Al  Al10  1  0.167700  0.167538  0.167538  1
  Al  Al11  1  0.167653  0.167598  0.497099  1
  Al  Al12  1  0.167653  0.497099  0.167598  1
  Al  Al13  1  0.497230  0.167537  0.167537  1
  Al  Al14  1  0.620997  0.620821  0.620821  1
  Al  Al15  1  0.620796  0.621056  0.137352  1
  Al  Al16  1  0.137360  0.620822  0.620822  1
  Al  Al17  1  0.620796  0.137352  0.621056  1
  Al  Al18  1  0.379003  0.379179  0.379179  1
  Al  Al19  1  0.379204  0.378944  0.862648  1
  Al  Al20  1  0.379204  0.862648  0.378944  1
  Al  Al21  1  0.862640  0.379178  0.379178  1
  Os  Os22  1  0.500000  0.500000  0.500000  1
  Os  Os23  1  0.000000  0.500000  0.500000  1
  Os  Os24  1  0.500000  0.000000  0.000000  1
  Os  Os25  1  0.500000  0.000000  0.500000  1
  Os  Os26  1  0.500000  0.500000  0.000000  1
  Os  Os27  1  0.000000  0.500000  0.000000  1
  Os  Os28  1  0.000000  0.000000  0.500000  1
