# generated using pymatgen
data_Ho2Er6Si8Pd3Pt5
_symmetry_space_group_name_H-M   'P 1'
_cell_length_a   4.25577400
_cell_length_b   7.48116063
_cell_length_c   13.93544011
_cell_angle_alpha   89.98372115
_cell_angle_beta   90.00000000
_cell_angle_gamma   90.00000000
_symmetry_Int_Tables_number   1
_chemical_formula_structural   Ho2Er6Si8Pd3Pt5
_chemical_formula_sum   'Ho2 Er6 Si8 Pd3 Pt5'
_cell_volume   443.67832067
_cell_formula_units_Z   1
loop_
 _symmetry_equiv_pos_site_id
 _symmetry_equiv_pos_as_xyz
  1  'x, y, z'
loop_
 _atom_site_type_symbol
 _atom_site_label
 _atom_site_symmetry_multiplicity
 _atom_site_fract_x
 _atom_site_fract_y
 _atom_site_fract_z
 _atom_site_occupancy
  Ho  Ho0  1  0.000000  0.299825  0.000239  1
  Ho  Ho1  1  0.500000  0.700313  0.500149  1
  Er  Er2  1  0.000000  0.292518  0.499667  1
  Er  Er3  1  0.500000  0.706850  0.999944  1
  Er  Er4  1  0.000000  0.203438  0.250059  1
  Er  Er5  1  0.500000  0.795631  0.249680  1
  Er  Er6  1  0.000000  0.203919  0.749668  1
  Er  Er7  1  0.500000  0.796083  0.750696  1
  Si  Si8  1  0.000000  0.907157  0.592301  1
  Si  Si9  1  0.500000  0.092961  0.907873  1
  Si  Si10  1  0.000000  0.907327  0.407960  1
  Si  Si11  1  0.500000  0.094492  0.093060  1
  Si  Si12  1  0.000000  0.593558  0.144190  1
  Si  Si13  1  0.500000  0.403911  0.353870  1
  Si  Si14  1  0.000000  0.595691  0.857428  1
  Si  Si15  1  0.500000  0.404137  0.643124  1
  Pd  Pd16  1  0.000000  0.580349  0.343991  1
  Pd  Pd17  1  0.500000  0.421372  0.840728  1
  Pd  Pd18  1  0.000000  0.578910  0.657934  1
  Pt  Pt19  1  0.500000  0.075002  0.609217  1
  Pt  Pt20  1  0.000000  0.925124  0.890890  1
  Pt  Pt21  1  0.500000  0.074950  0.391341  1
  Pt  Pt22  1  0.000000  0.923846  0.109194  1
  Pt  Pt23  1  0.500000  0.422633  0.156798  1
