# generated using pymatgen
data_TbSmSc3Ga4
_symmetry_space_group_name_H-M   'P 1'
_cell_length_a   7.33883115
_cell_length_b   7.58777706
_cell_length_c   14.57657519
_cell_angle_alpha   89.99818863
_cell_angle_beta   90.01825775
_cell_angle_gamma   90.01482433
_symmetry_Int_Tables_number   1
_chemical_formula_structural   TbSmSc3Ga4
_chemical_formula_sum   'Tb4 Sm4 Sc12 Ga16'
_cell_volume   811.70256561
_cell_formula_units_Z   4
loop_
 _symmetry_equiv_pos_site_id
 _symmetry_equiv_pos_as_xyz
  1  'x, y, z'
loop_
 _atom_site_type_symbol
 _atom_site_label
 _atom_site_symmetry_multiplicity
 _atom_site_fract_x
 _atom_site_fract_y
 _atom_site_fract_z
 _atom_site_occupancy
  Tb  Tb0  1  0.511885  0.322539  0.095828  1
  Tb  Tb1  1  0.011799  0.177596  0.404100  1
  Tb  Tb2  1  0.511890  0.322542  0.404350  1
  Tb  Tb3  1  0.488138  0.677206  0.595634  1
  Sm  Sm4  1  0.011801  0.177121  0.095612  1
  Sm  Sm5  1  0.988210  0.823154  0.904406  1
  Sm  Sm6  1  0.488112  0.676749  0.904657  1
  Sm  Sm7  1  0.988219  0.823124  0.595404  1
  Sc  Sc8  1  0.162011  0.501877  0.749873  1
  Sc  Sc9  1  0.837943  0.497506  0.250148  1
  Sc  Sc10  1  0.338406  0.002517  0.250133  1
  Sc  Sc11  1  0.661541  0.998109  0.749865  1
  Sc  Sc12  1  0.330404  0.174456  0.624210  1
  Sc  Sc13  1  0.669847  0.825754  0.375623  1
  Sc  Sc14  1  0.170172  0.674240  0.375589  1
  Sc  Sc15  1  0.669632  0.825647  0.124633  1
  Sc  Sc16  1  0.829910  0.325702  0.624178  1
  Sc  Sc17  1  0.330446  0.174369  0.875563  1
  Sc  Sc18  1  0.830102  0.325636  0.875548  1
  Sc  Sc19  1  0.170156  0.674200  0.124615  1
  Ga  Ga20  1  0.031863  0.119362  0.749994  1
  Ga  Ga21  1  0.968162  0.881084  0.250213  1
  Ga  Ga22  1  0.468253  0.618599  0.250038  1
  Ga  Ga23  1  0.531772  0.380923  0.749814  1
  Ga  Ga24  1  0.285288  0.874536  0.749705  1
  Ga  Ga25  1  0.714770  0.126031  0.250292  1
  Ga  Ga26  1  0.215615  0.374235  0.250299  1
  Ga  Ga27  1  0.784452  0.625195  0.749715  1
  Ga  Ga28  1  0.160103  0.464232  0.539944  1
  Ga  Ga29  1  0.839959  0.534481  0.459664  1
  Ga  Ga30  1  0.340543  0.964984  0.459772  1
  Ga  Ga31  1  0.840022  0.535233  0.040274  1
  Ga  Ga32  1  0.659002  0.035484  0.539919  1
  Ga  Ga33  1  0.159504  0.464253  0.960012  1
  Ga  Ga34  1  0.658912  0.036268  0.960120  1
  Ga  Ga35  1  0.341156  0.965056  0.040256  1
