# generated using pymatgen
data_U2V2AsP5Rh8
_symmetry_space_group_name_H-M   'P 1'
_cell_length_a   3.91027100
_cell_length_b   7.34219963
_cell_length_c   9.61026619
_cell_angle_alpha   79.17029233
_cell_angle_beta   90.00000000
_cell_angle_gamma   90.00000000
_symmetry_Int_Tables_number   1
_chemical_formula_structural   U2V2AsP5Rh8
_chemical_formula_sum   'U2 V2 As1 P5 Rh8'
_cell_volume   270.99667002
_cell_formula_units_Z   1
loop_
 _symmetry_equiv_pos_site_id
 _symmetry_equiv_pos_as_xyz
  1  'x, y, z'
loop_
 _atom_site_type_symbol
 _atom_site_label
 _atom_site_symmetry_multiplicity
 _atom_site_fract_x
 _atom_site_fract_y
 _atom_site_fract_z
 _atom_site_occupancy
  U  U0  1  0.250000  0.807691  0.784232  1
  U  U1  1  0.750000  0.190948  0.220639  1
  V  V2  1  0.250000  0.311266  0.717393  1
  V  V3  1  0.750000  0.688993  0.277209  1
  As  As4  1  0.250000  0.256013  0.976683  1
  P  P5  1  0.750000  0.742146  0.028895  1
  P  P6  1  0.250000  0.429662  0.336932  1
  P  P7  1  0.750000  0.572406  0.662002  1
  P  P8  1  0.250000  0.900983  0.341161  1
  P  P9  1  0.750000  0.098584  0.657464  1
  Rh  Rh10  1  0.250000  0.538458  0.099848  1
  Rh  Rh11  1  0.750000  0.477186  0.900105  1
  Rh  Rh12  1  0.250000  0.916052  0.100253  1
  Rh  Rh13  1  0.750000  0.068148  0.899187  1
  Rh  Rh14  1  0.250000  0.624006  0.502522  1
  Rh  Rh15  1  0.750000  0.376638  0.496429  1
  Rh  Rh16  1  0.250000  0.130300  0.479809  1
  Rh  Rh17  1  0.750000  0.870522  0.519238  1
