# generated using pymatgen
data_Pr4Th(RhO6)2
_symmetry_space_group_name_H-M   'P 1'
_cell_length_a   7.13649974
_cell_length_b   7.13649911
_cell_length_c   7.59011298
_cell_angle_alpha   74.52831316
_cell_angle_beta   74.52831564
_cell_angle_gamma   51.03112924
_symmetry_Int_Tables_number   1
_chemical_formula_structural   Pr4Th(RhO6)2
_chemical_formula_sum   'Pr4 Th1 Rh2 O12'
_cell_volume   287.11678572
_cell_formula_units_Z   1
loop_
 _symmetry_equiv_pos_site_id
 _symmetry_equiv_pos_as_xyz
  1  'x, y, z'
loop_
 _atom_site_type_symbol
 _atom_site_label
 _atom_site_symmetry_multiplicity
 _atom_site_fract_x
 _atom_site_fract_y
 _atom_site_fract_z
 _atom_site_occupancy
  Pr  Pr0  1  0.692385  0.692385  0.646432  1
  Pr  Pr1  1  0.693978  0.693978  0.159232  1
  Pr  Pr2  1  0.304767  0.304767  0.841690  1
  Pr  Pr3  1  0.000003  0.000003  0.499160  1
  Th  Th4  1  0.307782  0.307782  0.353379  1
  Rh  Rh5  1  0.755357  0.245717  0.000312  1
  Rh  Rh6  1  0.245717  0.755357  0.000312  1
  O  O7  1  0.100088  0.593273  0.565970  1
  O  O8  1  0.000505  0.000505  0.172104  1
  O  O9  1  0.396463  0.914963  0.423940  1
  O  O10  1  0.500051  0.500051  0.180500  1
  O  O11  1  0.102132  0.567386  0.090243  1
  O  O12  1  0.914963  0.396463  0.423940  1
  O  O13  1  0.997646  0.997646  0.830313  1
  O  O14  1  0.593273  0.100087  0.565970  1
  O  O15  1  0.498495  0.498495  0.824505  1
  O  O16  1  0.567386  0.102132  0.090243  1
  O  O17  1  0.428443  0.900567  0.915877  1
  O  O18  1  0.900567  0.428443  0.915877  1
