# generated using pymatgen
data_Pr4Tm4Tc(B8Os)3
_symmetry_space_group_name_H-M   'P 1'
_cell_length_a   3.70360700
_cell_length_b   9.22126831
_cell_length_c   11.67577804
_cell_angle_alpha   89.93981904
_cell_angle_beta   90.00000000
_cell_angle_gamma   90.00000000
_symmetry_Int_Tables_number   1
_chemical_formula_structural   Pr4Tm4Tc(B8Os)3
_chemical_formula_sum   'Pr4 Tm4 Tc1 B24 Os3'
_cell_volume   398.75041293
_cell_formula_units_Z   1
loop_
 _symmetry_equiv_pos_site_id
 _symmetry_equiv_pos_as_xyz
  1  'x, y, z'
loop_
 _atom_site_type_symbol
 _atom_site_label
 _atom_site_symmetry_multiplicity
 _atom_site_fract_x
 _atom_site_fract_y
 _atom_site_fract_z
 _atom_site_occupancy
  Pr  Pr0  1  0.000000  0.323771  0.413538  1
  Pr  Pr1  1  0.000000  0.677222  0.583611  1
  Pr  Pr2  1  0.000000  0.821199  0.086813  1
  Pr  Pr3  1  0.000000  0.177128  0.915440  1
  Tm  Tm4  1  0.000000  0.943029  0.371869  1
  Tm  Tm5  1  0.000000  0.056561  0.628205  1
  Tm  Tm6  1  0.000000  0.445184  0.129061  1
  Tm  Tm7  1  0.000000  0.556170  0.871230  1
  Tc  Tc8  1  0.000000  0.639948  0.318755  1
  B  B9  1  0.500000  0.555905  0.429307  1
  B  B10  1  0.500000  0.443362  0.570732  1
  B  B11  1  0.500000  0.056892  0.070747  1
  B  B12  1  0.500000  0.942961  0.929636  1
  B  B13  1  0.500000  0.750368  0.415862  1
  B  B14  1  0.500000  0.249660  0.584041  1
  B  B15  1  0.500000  0.250446  0.083757  1
  B  B16  1  0.500000  0.749553  0.916141  1
  B  B17  1  0.500000  0.791196  0.266569  1
  B  B18  1  0.500000  0.209069  0.733636  1
  B  B19  1  0.500000  0.291020  0.233061  1
  B  B20  1  0.500000  0.709405  0.766263  1
  B  B21  1  0.500000  0.629912  0.185829  1
  B  B22  1  0.500000  0.369861  0.814765  1
  B  B23  1  0.500000  0.129880  0.314214  1
  B  B24  1  0.500000  0.870408  0.685329  1
  B  B25  1  0.500000  0.985283  0.214562  1
  B  B26  1  0.500000  0.014511  0.785957  1
  B  B27  1  0.500000  0.484735  0.285439  1
  B  B28  1  0.500000  0.514448  0.714461  1
  B  B29  1  0.500000  0.599661  0.026470  1
  B  B30  1  0.500000  0.400296  0.972632  1
  B  B31  1  0.500000  0.100179  0.473111  1
  B  B32  1  0.500000  0.900886  0.527539  1
  Os  Os33  1  0.000000  0.359866  0.681917  1
  Os  Os34  1  0.000000  0.139925  0.181078  1
  Os  Os35  1  0.000000  0.860099  0.818422  1
