# generated using pymatgen
data_Cs6LuSc(PBr9)2
_symmetry_space_group_name_H-M   'P 1'
_cell_length_a   7.94332900
_cell_length_b   7.94332814
_cell_length_c   19.87698900
_cell_angle_alpha   90.00000000
_cell_angle_beta   90.00000000
_cell_angle_gamma   119.99999942
_symmetry_Int_Tables_number   1
_chemical_formula_structural   Cs6LuSc(PBr9)2
_chemical_formula_sum   'Cs6 Lu1 Sc1 P2 Br18'
_cell_volume   1086.14119535
_cell_formula_units_Z   1
loop_
 _symmetry_equiv_pos_site_id
 _symmetry_equiv_pos_as_xyz
  1  'x, y, z'
loop_
 _atom_site_type_symbol
 _atom_site_label
 _atom_site_symmetry_multiplicity
 _atom_site_fract_x
 _atom_site_fract_y
 _atom_site_fract_z
 _atom_site_occupancy
  Cs  Cs0  1  0.666667  0.333333  0.908114  1
  Cs  Cs1  1  0.333333  0.666667  0.410630  1
  Cs  Cs2  1  0.666667  0.333333  0.567954  1
  Cs  Cs3  1  0.333333  0.666667  0.066371  1
  Cs  Cs4  1  0.000000  0.000000  0.764623  1
  Cs  Cs5  1  0.000000  0.000000  0.264186  1
  Lu  Lu6  1  0.666667  0.333333  0.338206  1
  Sc  Sc7  1  0.333333  0.666667  0.838332  1
  P  P8  1  0.333333  0.666667  0.652505  1
  P  P9  1  0.666667  0.333333  0.150413  1
  Br  Br10  1  0.829609  0.659217  0.414695  1
  Br  Br11  1  0.174575  0.349150  0.911776  1
  Br  Br12  1  0.174575  0.825425  0.911776  1
  Br  Br13  1  0.185207  0.370415  0.591174  1
  Br  Br14  1  0.650850  0.825425  0.911776  1
  Br  Br15  1  0.340783  0.170391  0.414695  1
  Br  Br16  1  0.018588  0.509293  0.754216  1
  Br  Br17  1  0.829609  0.170391  0.414695  1
  Br  Br18  1  0.505696  0.011390  0.251675  1
  Br  Br19  1  0.490707  0.509293  0.754216  1
  Br  Br20  1  0.505696  0.494304  0.251675  1
  Br  Br21  1  0.988610  0.494304  0.251675  1
  Br  Br22  1  0.370805  0.185402  0.089353  1
  Br  Br23  1  0.490707  0.981412  0.754216  1
  Br  Br24  1  0.814598  0.629195  0.089353  1
  Br  Br25  1  0.185207  0.814793  0.591174  1
  Br  Br26  1  0.629585  0.814793  0.591174  1
  Br  Br27  1  0.814598  0.185402  0.089353  1
