# generated using pymatgen
data_Dy3Y5Pt4
_symmetry_space_group_name_H-M   'P 1'
_cell_length_a   4.77758600
_cell_length_b   7.19048003
_cell_length_c   8.81995903
_cell_angle_alpha   89.99014355
_cell_angle_beta   90.00000000
_cell_angle_gamma   90.00000000
_symmetry_Int_Tables_number   1
_chemical_formula_structural   Dy3Y5Pt4
_chemical_formula_sum   'Dy3 Y5 Pt4'
_cell_volume   302.99325393
_cell_formula_units_Z   1
loop_
 _symmetry_equiv_pos_site_id
 _symmetry_equiv_pos_as_xyz
  1  'x, y, z'
loop_
 _atom_site_type_symbol
 _atom_site_label
 _atom_site_symmetry_multiplicity
 _atom_site_fract_x
 _atom_site_fract_y
 _atom_site_fract_z
 _atom_site_occupancy
  Dy  Dy0  1  0.250000  0.855422  0.919915  1
  Dy  Dy1  1  0.250000  0.355230  0.580067  1
  Dy  Dy2  1  0.750000  0.144685  0.080105  1
  Y  Y3  1  0.750000  0.645123  0.419836  1
  Y  Y4  1  0.250000  0.989568  0.331591  1
  Y  Y5  1  0.250000  0.489473  0.168236  1
  Y  Y6  1  0.750000  0.010587  0.668871  1
  Y  Y7  1  0.750000  0.510703  0.831434  1
  Pt  Pt8  1  0.250000  0.257365  0.906254  1
  Pt  Pt9  1  0.250000  0.757584  0.594514  1
  Pt  Pt10  1  0.750000  0.742848  0.092971  1
  Pt  Pt11  1  0.750000  0.241411  0.406206  1
