# generated using pymatgen
data_Eu5Rh3
_symmetry_space_group_name_H-M   'P 1'
_cell_length_a   8.92595873
_cell_length_b   8.92595914
_cell_length_c   8.92595839
_cell_angle_alpha   129.00591466
_cell_angle_beta   129.00592002
_cell_angle_gamma   75.00105225
_symmetry_Int_Tables_number   1
_chemical_formula_structural   Eu5Rh3
_chemical_formula_sum   'Eu10 Rh6'
_cell_volume   418.17962751
_cell_formula_units_Z   2
loop_
 _symmetry_equiv_pos_site_id
 _symmetry_equiv_pos_as_xyz
  1  'x, y, z'
loop_
 _atom_site_type_symbol
 _atom_site_label
 _atom_site_symmetry_multiplicity
 _atom_site_fract_x
 _atom_site_fract_y
 _atom_site_fract_z
 _atom_site_occupancy
  Eu  Eu0  1  0.530299  0.030299  0.847773  1
  Eu  Eu1  1  0.182526  0.682526  0.152227  1
  Eu  Eu2  1  0.030299  0.182526  0.500000  1
  Eu  Eu3  1  0.682526  0.530299  0.500000  1
  Eu  Eu4  1  0.469701  0.969701  0.152227  1
  Eu  Eu5  1  0.817474  0.317474  0.847773  1
  Eu  Eu6  1  0.969701  0.817474  0.500000  1
  Eu  Eu7  1  0.317474  0.469701  0.500000  1
  Eu  Eu8  1  0.500000  0.500000  0.000000  1
  Eu  Eu9  1  0.000000  0.000000  0.000000  1
  Rh  Rh10  1  0.875801  0.375801  0.251603  1
  Rh  Rh11  1  0.124199  0.624199  0.748397  1
  Rh  Rh12  1  0.375801  0.124199  0.500000  1
  Rh  Rh13  1  0.624199  0.875801  0.500000  1
  Rh  Rh14  1  0.250000  0.250000  0.000000  1
  Rh  Rh15  1  0.750000  0.750000  0.000000  1
