# generated using pymatgen
data_CeTh5(Ni3Bi4)2
_symmetry_space_group_name_H-M   'P 1'
_cell_length_a   8.52491268
_cell_length_b   8.52491310
_cell_length_c   8.52491349
_cell_angle_alpha   109.45179924
_cell_angle_beta   109.51006708
_cell_angle_gamma   109.45179678
_symmetry_Int_Tables_number   1
_chemical_formula_structural   CeTh5(Ni3Bi4)2
_chemical_formula_sum   'Ce1 Th5 Ni6 Bi8'
_cell_volume   476.92256472
_cell_formula_units_Z   1
loop_
 _symmetry_equiv_pos_site_id
 _symmetry_equiv_pos_as_xyz
  1  'x, y, z'
loop_
 _atom_site_type_symbol
 _atom_site_label
 _atom_site_symmetry_multiplicity
 _atom_site_fract_x
 _atom_site_fract_y
 _atom_site_fract_z
 _atom_site_occupancy
  Ce  Ce0  1  0.375000  0.250000  0.625000  1
  Th  Th1  1  0.749525  0.874779  0.124728  1
  Th  Th2  1  0.249950  0.625221  0.374746  1
  Th  Th3  1  0.625254  0.375203  0.250475  1
  Th  Th4  1  0.875272  0.124797  0.750050  1
  Th  Th5  1  0.125000  0.750000  0.875000  1
  Ni  Ni6  1  0.124337  0.874227  0.249100  1
  Ni  Ni7  1  0.625000  0.750000  0.375000  1
  Ni  Ni8  1  0.875000  0.250000  0.125000  1
  Ni  Ni9  1  0.249890  0.124763  0.875663  1
  Ni  Ni10  1  0.750900  0.375237  0.625127  1
  Ni  Ni11  1  0.374873  0.625773  0.750110  1
  Bi  Bi12  1  0.001550  0.334442  0.500516  1
  Bi  Bi13  1  0.832892  0.498965  0.998450  1
  Bi  Bi14  1  0.499484  0.001035  0.833927  1
  Bi  Bi15  1  0.663780  0.663589  0.665051  1
  Bi  Bi16  1  0.166073  0.165558  0.167108  1
  Bi  Bi17  1  0.334949  0.498729  0.998538  1
  Bi  Bi18  1  0.499809  0.001271  0.336220  1
  Bi  Bi19  1  0.001462  0.836411  0.500191  1
