# generated using pymatgen
data_NdY2Th(Al3Ir)6
_symmetry_space_group_name_H-M   'P 1'
_cell_length_a   7.60152808
_cell_length_b   7.60514323
_cell_length_c   9.52689600
_cell_angle_alpha   90.00000000
_cell_angle_beta   90.00000000
_cell_angle_gamma   119.47032569
_symmetry_Int_Tables_number   1
_chemical_formula_structural   NdY2Th(Al3Ir)6
_chemical_formula_sum   'Nd1 Y2 Th1 Al18 Ir6'
_cell_volume   479.49455798
_cell_formula_units_Z   1
loop_
 _symmetry_equiv_pos_site_id
 _symmetry_equiv_pos_as_xyz
  1  'x, y, z'
loop_
 _atom_site_type_symbol
 _atom_site_label
 _atom_site_symmetry_multiplicity
 _atom_site_fract_x
 _atom_site_fract_y
 _atom_site_fract_z
 _atom_site_occupancy
  Nd  Nd0  1  0.671735  0.994379  0.250000  1
  Y  Y1  1  0.004179  0.328510  0.750000  1
  Y  Y2  1  0.327713  0.004560  0.750000  1
  Th  Th3  1  0.995101  0.671234  0.250000  1
  Al  Al4  1  0.133811  0.133845  0.250000  1
  Al  Al5  1  0.871660  0.873272  0.750000  1
  Al  Al6  1  0.003207  0.332955  0.070990  1
  Al  Al7  1  0.998937  0.664234  0.919327  1
  Al  Al8  1  0.998937  0.664234  0.580673  1
  Al  Al9  1  0.338370  0.005212  0.428995  1
  Al  Al10  1  0.003207  0.332955  0.429010  1
  Al  Al11  1  0.664523  0.999996  0.577183  1
  Al  Al12  1  0.664523  0.999996  0.922817  1
  Al  Al13  1  0.338370  0.005212  0.071005  1
  Al  Al14  1  0.332392  0.332354  0.553828  1
  Al  Al15  1  0.663273  0.665209  0.456246  1
  Al  Al16  1  0.663273  0.665209  0.043754  1
  Al  Al17  1  0.332392  0.332354  0.946172  1
  Al  Al18  1  0.342110  0.546365  0.250000  1
  Al  Al19  1  0.657858  0.449340  0.750000  1
  Al  Al20  1  0.544520  0.339393  0.250000  1
  Al  Al21  1  0.449427  0.659942  0.750000  1
  Ir  Ir22  1  0.672941  0.329948  0.999904  1
  Ir  Ir23  1  0.326312  0.670952  0.999852  1
  Ir  Ir24  1  0.326312  0.670952  0.500148  1
  Ir  Ir25  1  0.672941  0.329948  0.500096  1
  Ir  Ir26  1  0.000987  0.998722  0.000054  1
  Ir  Ir27  1  0.000987  0.998722  0.499946  1
