# generated using pymatgen
data_Tb2NdDy3Ta2O14
_symmetry_space_group_name_H-M   'P 1'
_cell_length_a   6.50727241
_cell_length_b   6.50471817
_cell_length_c   7.56601340
_cell_angle_alpha   90.07769477
_cell_angle_beta   89.92941050
_cell_angle_gamma   109.11262834
_symmetry_Int_Tables_number   1
_chemical_formula_structural   Tb2NdDy3Ta2O14
_chemical_formula_sum   'Tb2 Nd1 Dy3 Ta2 O14'
_cell_volume   302.60019188
_cell_formula_units_Z   1
loop_
 _symmetry_equiv_pos_site_id
 _symmetry_equiv_pos_as_xyz
  1  'x, y, z'
loop_
 _atom_site_type_symbol
 _atom_site_label
 _atom_site_symmetry_multiplicity
 _atom_site_fract_x
 _atom_site_fract_y
 _atom_site_fract_z
 _atom_site_occupancy
  Tb  Tb0  1  0.529662  0.528873  0.500371  1
  Tb  Tb1  1  0.465236  0.000656  0.254382  1
  Nd  Nd2  1  0.499246  0.499496  0.999810  1
  Dy  Dy3  1  0.001859  0.533948  0.249571  1
  Dy  Dy4  1  0.000451  0.465160  0.745588  1
  Dy  Dy5  1  0.533864  0.001641  0.750261  1
  Ta  Ta6  1  0.003071  0.002943  0.500277  1
  Ta  Ta7  1  0.999794  0.999451  0.999796  1
  O  O8  1  0.934614  0.065728  0.750318  1
  O  O9  1  0.064495  0.934054  0.249769  1
  O  O10  1  0.359547  0.639530  0.257592  1
  O  O11  1  0.641316  0.359610  0.743002  1
  O  O12  1  0.367392  0.633300  0.742518  1
  O  O13  1  0.634447  0.369241  0.257135  1
  O  O14  1  0.320122  0.070146  0.968044  1
  O  O15  1  0.674875  0.919873  0.471982  1
  O  O16  1  0.312973  0.058766  0.536663  1
  O  O17  1  0.679437  0.929442  0.033179  1
  O  O18  1  0.054259  0.311903  0.463313  1
  O  O19  1  0.932211  0.680452  0.965094  1
  O  O20  1  0.922386  0.675805  0.529721  1
  O  O21  1  0.068738  0.319986  0.031613  1
