# generated using pymatgen
data_Pr5Th(ZrBi5)2
_symmetry_space_group_name_H-M   'P 1'
_cell_length_a   9.79269543
_cell_length_b   9.79269553
_cell_length_c   6.53128500
_cell_angle_alpha   90.00000000
_cell_angle_beta   90.00000000
_cell_angle_gamma   119.96620221
_symmetry_Int_Tables_number   1
_chemical_formula_structural   Pr5Th(ZrBi5)2
_chemical_formula_sum   'Pr5 Th1 Zr2 Bi10'
_cell_volume   542.60222739
_cell_formula_units_Z   1
loop_
 _symmetry_equiv_pos_site_id
 _symmetry_equiv_pos_as_xyz
  1  'x, y, z'
loop_
 _atom_site_type_symbol
 _atom_site_label
 _atom_site_symmetry_multiplicity
 _atom_site_fract_x
 _atom_site_fract_y
 _atom_site_fract_z
 _atom_site_occupancy
  Pr  Pr0  1  0.380630  0.000497  0.750000  1
  Pr  Pr1  1  0.617920  0.999832  0.250000  1
  Pr  Pr2  1  0.000497  0.380630  0.750000  1
  Pr  Pr3  1  0.380454  0.380454  0.250000  1
  Pr  Pr4  1  0.999832  0.617920  0.250000  1
  Th  Th5  1  0.618075  0.618075  0.750000  1
  Zr  Zr6  1  0.000861  0.000861  0.001712  1
  Zr  Zr7  1  0.000861  0.000861  0.498288  1
  Bi  Bi8  1  0.265694  0.999664  0.250000  1
  Bi  Bi9  1  0.999664  0.265694  0.250000  1
  Bi  Bi10  1  0.999193  0.734157  0.750000  1
  Bi  Bi11  1  0.334614  0.666736  0.500566  1
  Bi  Bi12  1  0.334614  0.666736  0.999434  1
  Bi  Bi13  1  0.266582  0.266582  0.750000  1
  Bi  Bi14  1  0.666736  0.334614  0.500566  1
  Bi  Bi15  1  0.732878  0.732878  0.250000  1
  Bi  Bi16  1  0.734157  0.999193  0.750000  1
  Bi  Bi17  1  0.666736  0.334614  0.999434  1
