# generated using pymatgen
data_Ce2B8RuW
_symmetry_space_group_name_H-M   'P 1'
_cell_length_a   6.03953768
_cell_length_b   11.68482524
_cell_length_c   3.66403800
_cell_angle_alpha   90.00000000
_cell_angle_beta   90.00000000
_cell_angle_gamma   90.13117600
_symmetry_Int_Tables_number   1
_chemical_formula_structural   Ce2B8RuW
_chemical_formula_sum   'Ce4 B16 Ru2 W2'
_cell_volume   258.57393673
_cell_formula_units_Z   2
loop_
 _symmetry_equiv_pos_site_id
 _symmetry_equiv_pos_as_xyz
  1  'x, y, z'
loop_
 _atom_site_type_symbol
 _atom_site_label
 _atom_site_symmetry_multiplicity
 _atom_site_fract_x
 _atom_site_fract_y
 _atom_site_fract_z
 _atom_site_occupancy
  Ce  Ce0  1  0.627305  0.352726  0.000000  1
  Ce  Ce1  1  0.372695  0.647274  0.000000  1
  Ce  Ce2  1  0.126247  0.153393  0.000000  1
  Ce  Ce3  1  0.873753  0.846607  0.000000  1
  B  B4  1  0.785850  0.187800  0.500000  1
  B  B5  1  0.214150  0.812200  0.500000  1
  B  B6  1  0.285345  0.316311  0.500000  1
  B  B7  1  0.714655  0.683689  0.500000  1
  B  B8  1  0.864827  0.032370  0.500000  1
  B  B9  1  0.135173  0.967630  0.500000  1
  B  B10  1  0.362755  0.468127  0.500000  1
  B  B11  1  0.637245  0.531873  0.500000  1
  B  B12  1  0.888299  0.454399  0.500000  1
  B  B13  1  0.111701  0.545601  0.500000  1
  B  B14  1  0.385943  0.046449  0.500000  1
  B  B15  1  0.614057  0.953551  0.500000  1
  B  B16  1  0.973457  0.310501  0.500000  1
  B  B17  1  0.026543  0.689499  0.500000  1
  B  B18  1  0.473911  0.192703  0.500000  1
  B  B19  1  0.526089  0.807297  0.500000  1
  Ru  Ru20  1  0.139735  0.407643  0.000000  1
  Ru  Ru21  1  0.860265  0.592357  0.000000  1
  W  W22  1  0.630412  0.086928  0.000000  1
  W  W23  1  0.369588  0.913072  0.000000  1
