# generated using pymatgen
data_Y3Mg2CdGe2Au
_symmetry_space_group_name_H-M   'P 1'
_cell_length_a   7.31577800
_cell_length_b   7.26421572
_cell_length_c   4.35835500
_cell_angle_alpha   90.00000000
_cell_angle_beta   90.00000000
_cell_angle_gamma   120.23508304
_symmetry_Int_Tables_number   1
_chemical_formula_structural   Y3Mg2CdGe2Au
_chemical_formula_sum   'Y3 Mg2 Cd1 Ge2 Au1'
_cell_volume   200.11001425
_cell_formula_units_Z   1
loop_
 _symmetry_equiv_pos_site_id
 _symmetry_equiv_pos_as_xyz
  1  'x, y, z'
loop_
 _atom_site_type_symbol
 _atom_site_label
 _atom_site_symmetry_multiplicity
 _atom_site_fract_x
 _atom_site_fract_y
 _atom_site_fract_z
 _atom_site_occupancy
  Y  Y0  1  0.579855  0.000000  0.000000  1
  Y  Y1  1  0.001935  0.584690  0.000000  1
  Y  Y2  1  0.417245  0.415310  0.000000  1
  Mg  Mg3  1  0.000758  0.242045  0.500000  1
  Mg  Mg4  1  0.758713  0.757955  0.500000  1
  Cd  Cd5  1  0.248224  0.000000  0.500000  1
  Ge  Ge6  1  0.334387  0.661777  0.500000  1
  Ge  Ge7  1  0.672611  0.338223  0.500000  1
  Au  Au8  1  0.986272  0.000000  0.000000  1
