# generated using pymatgen
data_Y4TcB12Os
_symmetry_space_group_name_H-M   'P 1'
_cell_length_a   3.67467000
_cell_length_b   9.17910393
_cell_length_c   11.57019142
_cell_angle_alpha   89.92576058
_cell_angle_beta   90.00000000
_cell_angle_gamma   90.00000000
_symmetry_Int_Tables_number   1
_chemical_formula_structural   Y4TcB12Os
_chemical_formula_sum   'Y8 Tc2 B24 Os2'
_cell_volume   390.26428673
_cell_formula_units_Z   2
loop_
 _symmetry_equiv_pos_site_id
 _symmetry_equiv_pos_as_xyz
  1  'x, y, z'
loop_
 _atom_site_type_symbol
 _atom_site_label
 _atom_site_symmetry_multiplicity
 _atom_site_fract_x
 _atom_site_fract_y
 _atom_site_fract_z
 _atom_site_occupancy
  Y  Y0  1  0.000000  0.324910  0.415105  1
  Y  Y1  1  0.000000  0.675090  0.584895  1
  Y  Y2  1  0.000000  0.821413  0.087364  1
  Y  Y3  1  0.000000  0.178587  0.912636  1
  Y  Y4  1  0.000000  0.941954  0.371182  1
  Y  Y5  1  0.000000  0.058046  0.628818  1
  Y  Y6  1  0.000000  0.443760  0.129613  1
  Y  Y7  1  0.000000  0.556240  0.870387  1
  Tc  Tc8  1  0.000000  0.638452  0.320387  1
  Tc  Tc9  1  0.000000  0.361548  0.679613  1
  B  B10  1  0.500000  0.553255  0.432741  1
  B  B11  1  0.500000  0.446745  0.567259  1
  B  B12  1  0.500000  0.053721  0.067208  1
  B  B13  1  0.500000  0.946279  0.932792  1
  B  B14  1  0.500000  0.747874  0.419022  1
  B  B15  1  0.500000  0.252126  0.580978  1
  B  B16  1  0.500000  0.248147  0.081231  1
  B  B17  1  0.500000  0.751853  0.918769  1
  B  B18  1  0.500000  0.791144  0.265716  1
  B  B19  1  0.500000  0.208856  0.734284  1
  B  B20  1  0.500000  0.290490  0.233894  1
  B  B21  1  0.500000  0.709510  0.766106  1
  B  B22  1  0.500000  0.631645  0.185644  1
  B  B23  1  0.500000  0.368355  0.814356  1
  B  B24  1  0.500000  0.131194  0.313642  1
  B  B25  1  0.500000  0.868806  0.686358  1
  B  B26  1  0.500000  0.983296  0.212000  1
  B  B27  1  0.500000  0.016704  0.788000  1
  B  B28  1  0.500000  0.483182  0.287636  1
  B  B29  1  0.500000  0.516818  0.712364  1
  B  B30  1  0.500000  0.604809  0.028903  1
  B  B31  1  0.500000  0.395191  0.971097  1
  B  B32  1  0.500000  0.104804  0.470593  1
  B  B33  1  0.500000  0.895196  0.529407  1
  Os  Os34  1  0.000000  0.137453  0.178084  1
  Os  Os35  1  0.000000  0.862547  0.821916  1
