# generated using pymatgen
data_YbPtI26
_symmetry_space_group_name_H-M   'P 1'
_cell_length_a   12.77740740
_cell_length_b   11.32173195
_cell_length_c   14.77724055
_cell_angle_alpha   121.92240300
_cell_angle_beta   87.14123173
_cell_angle_gamma   105.09957482
_symmetry_Int_Tables_number   1
_chemical_formula_structural   YbPtI26
_chemical_formula_sum   'Yb1 Pt1 I26'
_cell_volume   1741.67080198
_cell_formula_units_Z   1
loop_
 _symmetry_equiv_pos_site_id
 _symmetry_equiv_pos_as_xyz
  1  'x, y, z'
loop_
 _atom_site_type_symbol
 _atom_site_label
 _atom_site_symmetry_multiplicity
 _atom_site_fract_x
 _atom_site_fract_y
 _atom_site_fract_z
 _atom_site_occupancy
  Yb  Yb0  1  0.322555  0.876524  0.945312  1
  Pt  Pt1  1  0.668001  0.128703  0.064875  1
  I  I2  1  0.379201  0.649179  0.978896  1
  I  I3  1  0.624376  0.312603  0.019005  1
  I  I4  1  0.592771  0.834078  0.415072  1
  I  I5  1  0.444712  0.199908  0.610804  1
  I  I6  1  0.730074  0.684763  0.995683  1
  I  I7  1  0.241616  0.293019  0.986070  1
  I  I8  1  0.703138  0.966390  0.139501  1
  I  I9  1  0.258499  0.016569  0.827387  1
  I  I10  1  0.474237  0.141529  0.154039  1
  I  I11  1  0.564223  0.898563  0.874283  1
  I  I12  1  0.238763  0.651180  0.701468  1
  I  I13  1  0.782278  0.349072  0.259957  1
  I  I14  1  0.096774  0.829441  0.016777  1
  I  I15  1  0.861806  0.130986  0.981135  1
  I  I16  1  0.065207  0.095473  0.221497  1
  I  I17  1  0.882157  0.855145  0.762212  1
  I  I18  1  0.282832  0.922922  0.473569  1
  I  I19  1  0.749137  0.113302  0.548310  1
  I  I20  1  0.343256  0.426231  0.649223  1
  I  I21  1  0.691671  0.596755  0.340439  1
  I  I22  1  0.879905  0.415204  0.702883  1
  I  I23  1  0.135531  0.635388  0.324215  1
  I  I24  1  0.941311  0.634361  0.574197  1
  I  I25  1  0.024195  0.330141  0.419644  1
  I  I26  1  0.251602  0.630125  0.141469  1
  I  I27  1  0.770169  0.382447  0.872080  1
