# generated using pymatgen
data_Eu5(GaP3)2
_symmetry_space_group_name_H-M   'P 1'
_cell_length_a   4.05267200
_cell_length_b   11.08277500
_cell_length_c   12.82142500
_cell_angle_alpha   90.00000000
_cell_angle_beta   90.00000000
_cell_angle_gamma   90.00000000
_symmetry_Int_Tables_number   1
_chemical_formula_structural   Eu5(GaP3)2
_chemical_formula_sum   'Eu10 Ga4 P12'
_cell_volume   575.87240534
_cell_formula_units_Z   2
loop_
 _symmetry_equiv_pos_site_id
 _symmetry_equiv_pos_as_xyz
  1  'x, y, z'
loop_
 _atom_site_type_symbol
 _atom_site_label
 _atom_site_symmetry_multiplicity
 _atom_site_fract_x
 _atom_site_fract_y
 _atom_site_fract_z
 _atom_site_occupancy
  Eu  Eu0  1  0.500000  0.083066  0.756415  1
  Eu  Eu1  1  0.500000  0.583066  0.743585  1
  Eu  Eu2  1  0.500000  0.327100  0.518134  1
  Eu  Eu3  1  0.500000  0.672900  0.481866  1
  Eu  Eu4  1  0.500000  0.827100  0.981866  1
  Eu  Eu5  1  0.500000  0.916934  0.243585  1
  Eu  Eu6  1  0.500000  0.172900  0.018134  1
  Eu  Eu7  1  0.500000  0.500000  0.000000  1
  Eu  Eu8  1  0.500000  0.000000  0.500000  1
  Eu  Eu9  1  0.500000  0.416934  0.256415  1
  Ga  Ga10  1  0.000000  0.827673  0.782486  1
  Ga  Ga11  1  0.000000  0.172327  0.217514  1
  Ga  Ga12  1  0.000000  0.672327  0.282486  1
  Ga  Ga13  1  0.000000  0.327673  0.717514  1
  P  P14  1  0.500000  0.835870  0.680111  1
  P  P15  1  0.000000  0.484557  0.412088  1
  P  P16  1  0.500000  0.164130  0.319889  1
  P  P17  1  0.000000  0.015443  0.912088  1
  P  P18  1  0.000000  0.842800  0.399678  1
  P  P19  1  0.000000  0.984557  0.087912  1
  P  P20  1  0.000000  0.342800  0.100322  1
  P  P21  1  0.000000  0.515443  0.587912  1
  P  P22  1  0.000000  0.157200  0.600322  1
  P  P23  1  0.000000  0.657200  0.899678  1
  P  P24  1  0.500000  0.664130  0.180111  1
  P  P25  1  0.500000  0.335870  0.819889  1
