# generated using pymatgen
data_Nd4Ga24PtRh
_symmetry_space_group_name_H-M   'P 1'
_cell_length_a   6.16321700
_cell_length_b   6.16321700
_cell_length_c   15.56290400
_cell_angle_alpha   90.00000000
_cell_angle_beta   90.00000000
_cell_angle_gamma   90.00000000
_symmetry_Int_Tables_number   1
_chemical_formula_structural   Nd4Ga24PtRh
_chemical_formula_sum   'Nd4 Ga24 Pt1 Rh1'
_cell_volume   591.16070251
_cell_formula_units_Z   1
loop_
 _symmetry_equiv_pos_site_id
 _symmetry_equiv_pos_as_xyz
  1  'x, y, z'
loop_
 _atom_site_type_symbol
 _atom_site_label
 _atom_site_symmetry_multiplicity
 _atom_site_fract_x
 _atom_site_fract_y
 _atom_site_fract_z
 _atom_site_occupancy
  Nd  Nd0  1  0.750000  0.250000  0.244745  1
  Nd  Nd1  1  0.250000  0.750000  0.242992  1
  Nd  Nd2  1  0.250000  0.750000  0.757008  1
  Nd  Nd3  1  0.750000  0.250000  0.755255  1
  Ga  Ga4  1  0.250000  0.250000  0.187906  1
  Ga  Ga5  1  0.750000  0.750000  0.187906  1
  Ga  Ga6  1  0.750000  0.750000  0.812094  1
  Ga  Ga7  1  0.250000  0.250000  0.812094  1
  Ga  Ga8  1  0.250000  0.250000  0.346756  1
  Ga  Ga9  1  0.750000  0.750000  0.346756  1
  Ga  Ga10  1  0.750000  0.750000  0.653244  1
  Ga  Ga11  1  0.250000  0.250000  0.653244  1
  Ga  Ga12  1  0.503438  0.003438  0.912115  1
  Ga  Ga13  1  0.996566  0.003434  0.912208  1
  Ga  Ga14  1  0.503434  0.496566  0.912208  1
  Ga  Ga15  1  0.996562  0.496562  0.912115  1
  Ga  Ga16  1  0.503434  0.003434  0.087792  1
  Ga  Ga17  1  0.996562  0.003438  0.087885  1
  Ga  Ga18  1  0.503438  0.496562  0.087885  1
  Ga  Ga19  1  0.996566  0.496566  0.087792  1
  Ga  Ga20  1  0.582451  0.082451  0.431919  1
  Ga  Ga21  1  0.083388  0.916612  0.431600  1
  Ga  Ga22  1  0.416612  0.583388  0.431600  1
  Ga  Ga23  1  0.917549  0.417549  0.431919  1
  Ga  Ga24  1  0.416612  0.916612  0.568400  1
  Ga  Ga25  1  0.917549  0.082451  0.568081  1
  Ga  Ga26  1  0.582451  0.417549  0.568081  1
  Ga  Ga27  1  0.083388  0.583388  0.568400  1
  Pt  Pt28  1  0.250000  0.750000  0.000000  1
  Rh  Rh29  1  0.750000  0.250000  0.000000  1
