# generated using pymatgen
data_Dy7Ho3(Si3O)2
_symmetry_space_group_name_H-M   'P 1'
_cell_length_a   8.39435100
_cell_length_b   8.39435056
_cell_length_c   6.20291000
_cell_angle_alpha   90.00000000
_cell_angle_beta   90.00000000
_cell_angle_gamma   119.99999778
_symmetry_Int_Tables_number   1
_chemical_formula_structural   Dy7Ho3(Si3O)2
_chemical_formula_sum   'Dy7 Ho3 Si6 O2'
_cell_volume   378.53003798
_cell_formula_units_Z   1
loop_
 _symmetry_equiv_pos_site_id
 _symmetry_equiv_pos_as_xyz
  1  'x, y, z'
loop_
 _atom_site_type_symbol
 _atom_site_label
 _atom_site_symmetry_multiplicity
 _atom_site_fract_x
 _atom_site_fract_y
 _atom_site_fract_z
 _atom_site_occupancy
  Dy  Dy0  1  0.768027  0.768058  0.250032  1
  Dy  Dy1  1  0.768027  0.999968  0.749968  1
  Dy  Dy2  1  0.000032  0.231973  0.250032  1
  Dy  Dy3  1  0.000032  0.768058  0.749968  1
  Dy  Dy4  1  0.231942  0.231973  0.749968  1
  Dy  Dy5  1  0.231942  0.999968  0.250032  1
  Dy  Dy6  1  0.666667  0.333333  0.000000  1
  Ho  Ho7  1  0.333333  0.666667  0.500000  1
  Ho  Ho8  1  0.333333  0.666667  0.000000  1
  Ho  Ho9  1  0.666667  0.333333  0.500000  1
  Si  Si10  1  0.398631  0.999893  0.749913  1
  Si  Si11  1  0.398631  0.398737  0.250087  1
  Si  Si12  1  0.000107  0.601369  0.250087  1
  Si  Si13  1  0.000107  0.398737  0.749913  1
  Si  Si14  1  0.601263  0.601369  0.749913  1
  Si  Si15  1  0.601263  0.999893  0.250087  1
  O  O16  1  0.000000  0.000000  0.500000  1
  O  O17  1  0.000000  0.000000  0.000000  1
