# generated using pymatgen
data_Ti4GaGeRh10
_symmetry_space_group_name_H-M   'P 1'
_cell_length_a   3.99973700
_cell_length_b   5.40748675
_cell_length_c   10.64672640
_cell_angle_alpha   90.13497960
_cell_angle_beta   90.00000000
_cell_angle_gamma   90.00000000
_symmetry_Int_Tables_number   1
_chemical_formula_structural   Ti4GaGeRh10
_chemical_formula_sum   'Ti4 Ga1 Ge1 Rh10'
_cell_volume   230.27234707
_cell_formula_units_Z   1
loop_
 _symmetry_equiv_pos_site_id
 _symmetry_equiv_pos_as_xyz
  1  'x, y, z'
loop_
 _atom_site_type_symbol
 _atom_site_label
 _atom_site_symmetry_multiplicity
 _atom_site_fract_x
 _atom_site_fract_y
 _atom_site_fract_z
 _atom_site_occupancy
  Ti  Ti0  1  0.500000  0.320012  0.138524  1
  Ti  Ti1  1  0.500000  0.679988  0.861476  1
  Ti  Ti2  1  0.500000  0.824624  0.358216  1
  Ti  Ti3  1  0.500000  0.175376  0.641784  1
  Ga  Ga4  1  0.000000  0.000000  0.000000  1
  Ge  Ge5  1  0.000000  0.500000  0.500000  1
  Rh  Rh6  1  0.000000  0.000000  0.500000  1
  Rh  Rh7  1  0.000000  0.500000  0.000000  1
  Rh  Rh8  1  0.000000  0.069506  0.245886  1
  Rh  Rh9  1  0.000000  0.930494  0.754114  1
  Rh  Rh10  1  0.000000  0.569190  0.255684  1
  Rh  Rh11  1  0.000000  0.430810  0.744316  1
  Rh  Rh12  1  0.500000  0.310172  0.391116  1
  Rh  Rh13  1  0.500000  0.689828  0.608884  1
  Rh  Rh14  1  0.500000  0.805184  0.111905  1
  Rh  Rh15  1  0.500000  0.194816  0.888095  1
