# generated using pymatgen
data_PuNi(SeO5)2
_symmetry_space_group_name_H-M   'P 1'
_cell_length_a   5.95617318
_cell_length_b   5.55197286
_cell_length_c   7.71665500
_cell_angle_alpha   75.91793844
_cell_angle_beta   71.10189362
_cell_angle_gamma   100.83621807
_symmetry_Int_Tables_number   1
_chemical_formula_structural   PuNi(SeO5)2
_chemical_formula_sum   'Pu1 Ni1 Se2 O10'
_cell_volume   224.05198393
_cell_formula_units_Z   1
loop_
 _symmetry_equiv_pos_site_id
 _symmetry_equiv_pos_as_xyz
  1  'x, y, z'
loop_
 _atom_site_type_symbol
 _atom_site_label
 _atom_site_symmetry_multiplicity
 _atom_site_fract_x
 _atom_site_fract_y
 _atom_site_fract_z
 _atom_site_occupancy
  Pu  Pu0  1  0.000000  0.000000  0.500000  1
  Ni  Ni1  1  0.000000  0.000000  0.000000  1
  Se  Se2  1  0.315367  0.665533  0.766807  1
  Se  Se3  1  0.684633  0.334467  0.233193  1
  O  O4  1  0.306347  0.897015  0.869281  1
  O  O5  1  0.693653  0.102985  0.130719  1
  O  O6  1  0.150082  0.678098  0.622987  1
  O  O7  1  0.849918  0.321902  0.377013  1
  O  O8  1  0.226457  0.371876  0.927706  1
  O  O9  1  0.773543  0.628124  0.072294  1
  O  O10  1  0.611382  0.724906  0.612688  1
  O  O11  1  0.388618  0.275094  0.387312  1
  O  O12  1  0.938559  0.067967  0.725274  1
  O  O13  1  0.061441  0.932033  0.274726  1
