# generated using pymatgen
data_K2BaCeB24
_symmetry_space_group_name_H-M   'P 1'
_cell_length_a   7.27709900
_cell_length_b   7.27709905
_cell_length_c   5.94640600
_cell_angle_alpha   90.00000000
_cell_angle_beta   90.00000000
_cell_angle_gamma   109.36761158
_symmetry_Int_Tables_number   1
_chemical_formula_structural   K2BaCeB24
_chemical_formula_sum   'K2 Ba1 Ce1 B24'
_cell_volume   297.07884615
_cell_formula_units_Z   1
loop_
 _symmetry_equiv_pos_site_id
 _symmetry_equiv_pos_as_xyz
  1  'x, y, z'
loop_
 _atom_site_type_symbol
 _atom_site_label
 _atom_site_symmetry_multiplicity
 _atom_site_fract_x
 _atom_site_fract_y
 _atom_site_fract_z
 _atom_site_occupancy
  K  K0  1  0.751330  0.248670  0.500000  1
  K  K1  1  0.248670  0.751330  0.500000  1
  Ba  Ba2  1  0.000000  0.000000  0.000000  1
  Ce  Ce3  1  0.500000  0.500000  0.000000  1
  B  B4  1  0.178274  0.328194  0.648252  1
  B  B5  1  0.923944  0.572434  0.149700  1
  B  B6  1  0.671806  0.821726  0.648252  1
  B  B7  1  0.427566  0.076056  0.149700  1
  B  B8  1  0.178274  0.328194  0.351748  1
  B  B9  1  0.923944  0.572434  0.850300  1
  B  B10  1  0.671806  0.821726  0.351748  1
  B  B11  1  0.427566  0.076056  0.850300  1
  B  B12  1  0.400823  0.400823  0.500000  1
  B  B13  1  0.148206  0.650135  0.000000  1
  B  B14  1  0.897329  0.897329  0.500000  1
  B  B15  1  0.650135  0.148206  0.000000  1
  B  B16  1  0.328194  0.178274  0.648252  1
  B  B17  1  0.076056  0.427566  0.149700  1
  B  B18  1  0.821726  0.671806  0.648252  1
  B  B19  1  0.572434  0.923944  0.149700  1
  B  B20  1  0.102671  0.102671  0.500000  1
  B  B21  1  0.851794  0.349865  0.000000  1
  B  B22  1  0.599177  0.599177  0.500000  1
  B  B23  1  0.349865  0.851794  0.000000  1
  B  B24  1  0.328194  0.178274  0.351748  1
  B  B25  1  0.076056  0.427566  0.850300  1
  B  B26  1  0.821726  0.671806  0.351748  1
  B  B27  1  0.572434  0.923944  0.850300  1
