# generated using pymatgen
data_Nd6EuNiBr12
_symmetry_space_group_name_H-M   'P 1'
_cell_length_a   9.53415881
_cell_length_b   9.53415791
_cell_length_c   9.53415900
_cell_angle_alpha   106.47093827
_cell_angle_beta   106.47093668
_cell_angle_gamma   106.47094590
_symmetry_Int_Tables_number   1
_chemical_formula_structural   Nd6EuNiBr12
_chemical_formula_sum   'Nd6 Eu1 Ni1 Br12'
_cell_volume   731.92680661
_cell_formula_units_Z   1
loop_
 _symmetry_equiv_pos_site_id
 _symmetry_equiv_pos_as_xyz
  1  'x, y, z'
loop_
 _atom_site_type_symbol
 _atom_site_label
 _atom_site_symmetry_multiplicity
 _atom_site_fract_x
 _atom_site_fract_y
 _atom_site_fract_z
 _atom_site_occupancy
  Nd  Nd0  1  0.897820  0.979484  0.690914  1
  Nd  Nd1  1  0.690914  0.897820  0.979484  1
  Nd  Nd2  1  0.979484  0.690914  0.897820  1
  Nd  Nd3  1  0.102180  0.020516  0.309086  1
  Nd  Nd4  1  0.309086  0.102180  0.020516  1
  Nd  Nd5  1  0.020516  0.309086  0.102180  1
  Eu  Eu6  1  0.500000  0.500000  0.500000  1
  Ni  Ni7  1  0.000000  0.000000  0.000000  1
  Br  Br8  1  0.926626  0.320419  0.780363  1
  Br  Br9  1  0.780363  0.926626  0.320419  1
  Br  Br10  1  0.320419  0.780363  0.926626  1
  Br  Br11  1  0.073374  0.679581  0.219637  1
  Br  Br12  1  0.219637  0.073374  0.679581  1
  Br  Br13  1  0.679581  0.219637  0.073374  1
  Br  Br14  1  0.550329  0.848685  0.631053  1
  Br  Br15  1  0.631053  0.550329  0.848685  1
  Br  Br16  1  0.848685  0.631053  0.550329  1
  Br  Br17  1  0.449671  0.151315  0.368947  1
  Br  Br18  1  0.368947  0.449671  0.151315  1
  Br  Br19  1  0.151315  0.368947  0.449671  1
