# generated using pymatgen
data_La3NdCd2Cu3Ru
_symmetry_space_group_name_H-M   'P 1'
_cell_length_a   7.76967045
_cell_length_b   7.76966929
_cell_length_c   3.95651000
_cell_angle_alpha   90.00000000
_cell_angle_beta   90.00000000
_cell_angle_gamma   89.78046713
_symmetry_Int_Tables_number   1
_chemical_formula_structural   La3NdCd2Cu3Ru
_chemical_formula_sum   'La3 Nd1 Cd2 Cu3 Ru1'
_cell_volume   238.84393199
_cell_formula_units_Z   1
loop_
 _symmetry_equiv_pos_site_id
 _symmetry_equiv_pos_as_xyz
  1  'x, y, z'
loop_
 _atom_site_type_symbol
 _atom_site_label
 _atom_site_symmetry_multiplicity
 _atom_site_fract_x
 _atom_site_fract_y
 _atom_site_fract_z
 _atom_site_occupancy
  La  La0  1  0.691101  0.191101  0.000000  1
  La  La1  1  0.161133  0.319940  0.000000  1
  La  La2  1  0.819940  0.661133  0.000000  1
  Nd  Nd3  1  0.326504  0.826504  0.000000  1
  Cd  Cd4  1  0.491901  0.502485  0.500000  1
  Cd  Cd5  1  0.002485  0.991901  0.500000  1
  Cu  Cu6  1  0.123439  0.623439  0.500000  1
  Cu  Cu7  1  0.386473  0.118989  0.500000  1
  Cu  Cu8  1  0.618989  0.886473  0.500000  1
  Ru  Ru9  1  0.878036  0.378036  0.500000  1
