# generated using pymatgen
data_Zr3Ti2SiGe2N
_symmetry_space_group_name_H-M   'P 1'
_cell_length_a   7.84395207
_cell_length_b   7.84395249
_cell_length_c   5.42883100
_cell_angle_alpha   90.00000000
_cell_angle_beta   90.00000000
_cell_angle_gamma   120.13021992
_symmetry_Int_Tables_number   1
_chemical_formula_structural   Zr3Ti2SiGe2N
_chemical_formula_sum   'Zr6 Ti4 Si2 Ge4 N2'
_cell_volume   288.89196897
_cell_formula_units_Z   2
loop_
 _symmetry_equiv_pos_site_id
 _symmetry_equiv_pos_as_xyz
  1  'x, y, z'
loop_
 _atom_site_type_symbol
 _atom_site_label
 _atom_site_symmetry_multiplicity
 _atom_site_fract_x
 _atom_site_fract_y
 _atom_site_fract_z
 _atom_site_occupancy
  Zr  Zr0  1  0.236147  0.002472  0.750000  1
  Zr  Zr1  1  0.763853  0.997528  0.250000  1
  Zr  Zr2  1  0.002472  0.236147  0.750000  1
  Zr  Zr3  1  0.997528  0.763853  0.250000  1
  Zr  Zr4  1  0.761049  0.761049  0.750000  1
  Zr  Zr5  1  0.238951  0.238951  0.250000  1
  Ti  Ti6  1  0.335843  0.664157  0.500000  1
  Ti  Ti7  1  0.664157  0.335843  0.500000  1
  Ti  Ti8  1  0.664157  0.335843  0.000000  1
  Ti  Ti9  1  0.335843  0.664157  0.000000  1
  Si  Si10  1  0.410461  0.410461  0.750000  1
  Si  Si11  1  0.589539  0.589539  0.250000  1
  Ge  Ge12  1  0.591011  0.001031  0.750000  1
  Ge  Ge13  1  0.408989  0.998969  0.250000  1
  Ge  Ge14  1  0.001031  0.591011  0.750000  1
  Ge  Ge15  1  0.998969  0.408989  0.250000  1
  N  N16  1  0.000000  0.000000  0.500000  1
  N  N17  1  0.000000  0.000000  0.000000  1
