# generated using pymatgen
data_Nd4ZnB4Rh9
_symmetry_space_group_name_H-M   'P 1'
_cell_length_a   5.55298800
_cell_length_b   5.55298853
_cell_length_c   20.94740900
_cell_angle_alpha   90.00000000
_cell_angle_beta   90.00000000
_cell_angle_gamma   120.00024004
_symmetry_Int_Tables_number   1
_chemical_formula_structural   Nd4ZnB4Rh9
_chemical_formula_sum   'Nd8 Zn2 B8 Rh18'
_cell_volume   559.38833447
_cell_formula_units_Z   2
loop_
 _symmetry_equiv_pos_site_id
 _symmetry_equiv_pos_as_xyz
  1  'x, y, z'
loop_
 _atom_site_type_symbol
 _atom_site_label
 _atom_site_symmetry_multiplicity
 _atom_site_fract_x
 _atom_site_fract_y
 _atom_site_fract_z
 _atom_site_occupancy
  Nd  Nd0  1  0.666661  0.333339  0.524849  1
  Nd  Nd1  1  0.333339  0.666661  0.475151  1
  Nd  Nd2  1  0.333339  0.666661  0.024849  1
  Nd  Nd3  1  0.666661  0.333339  0.975151  1
  Nd  Nd4  1  0.666654  0.333346  0.674885  1
  Nd  Nd5  1  0.333346  0.666654  0.325115  1
  Nd  Nd6  1  0.333346  0.666654  0.174885  1
  Nd  Nd7  1  0.666654  0.333346  0.825115  1
  Zn  Zn8  1  0.000000  0.000000  0.500000  1
  Zn  Zn9  1  0.000000  0.000000  0.000000  1
  B  B10  1  0.999976  0.000024  0.674519  1
  B  B11  1  0.000024  0.999976  0.325481  1
  B  B12  1  0.000024  0.999976  0.174519  1
  B  B13  1  0.999976  0.000024  0.825481  1
  B  B14  1  0.666696  0.333304  0.326079  1
  B  B15  1  0.333304  0.666696  0.673921  1
  B  B16  1  0.333304  0.666696  0.826079  1
  B  B17  1  0.666696  0.333304  0.173921  1
  Rh  Rh18  1  0.166697  0.333433  0.750000  1
  Rh  Rh19  1  0.166692  0.833308  0.750000  1
  Rh  Rh20  1  0.666567  0.833303  0.750000  1
  Rh  Rh21  1  0.833303  0.666567  0.250000  1
  Rh  Rh22  1  0.833308  0.166692  0.250000  1
  Rh  Rh23  1  0.333433  0.166697  0.250000  1
  Rh  Rh24  1  0.166321  0.332749  0.606035  1
  Rh  Rh25  1  0.166327  0.833673  0.606040  1
  Rh  Rh26  1  0.667251  0.833679  0.606035  1
  Rh  Rh27  1  0.833679  0.667251  0.393965  1
  Rh  Rh28  1  0.833673  0.166327  0.393960  1
  Rh  Rh29  1  0.332749  0.166321  0.393965  1
  Rh  Rh30  1  0.833679  0.667251  0.106035  1
  Rh  Rh31  1  0.833673  0.166327  0.106040  1
  Rh  Rh32  1  0.332749  0.166321  0.106035  1
  Rh  Rh33  1  0.166321  0.332749  0.893965  1
  Rh  Rh34  1  0.166327  0.833673  0.893960  1
  Rh  Rh35  1  0.667251  0.833679  0.893965  1
