# generated using pymatgen
data_BaHoIn3B4Ir9
_symmetry_space_group_name_H-M   'P 1'
_cell_length_a   5.67251000
_cell_length_b   5.67250934
_cell_length_c   10.32626200
_cell_angle_alpha   90.00000000
_cell_angle_beta   90.00000000
_cell_angle_gamma   120.00000385
_symmetry_Int_Tables_number   1
_chemical_formula_structural   BaHoIn3B4Ir9
_chemical_formula_sum   'Ba1 Ho1 In3 B4 Ir9'
_cell_volume   287.75590495
_cell_formula_units_Z   1
loop_
 _symmetry_equiv_pos_site_id
 _symmetry_equiv_pos_as_xyz
  1  'x, y, z'
loop_
 _atom_site_type_symbol
 _atom_site_label
 _atom_site_symmetry_multiplicity
 _atom_site_fract_x
 _atom_site_fract_y
 _atom_site_fract_z
 _atom_site_occupancy
  Ba  Ba0  1  0.000000  0.000000  0.526566  1
  Ho  Ho1  1  0.000000  0.000000  0.878532  1
  In  In2  1  0.666667  0.333333  0.525818  1
  In  In3  1  0.000000  0.000000  0.194004  1
  In  In4  1  0.333333  0.666667  0.525818  1
  B  B5  1  0.666667  0.333333  0.173450  1
  B  B6  1  0.333333  0.666667  0.881817  1
  B  B7  1  0.666667  0.333333  0.881817  1
  B  B8  1  0.333333  0.666667  0.173450  1
  Ir  Ir9  1  0.000000  0.468851  0.300975  1
  Ir  Ir10  1  0.493785  0.000000  0.751425  1
  Ir  Ir11  1  0.468851  0.000000  0.300975  1
  Ir  Ir12  1  0.000000  0.464022  0.027177  1
  Ir  Ir13  1  0.506215  0.506215  0.751425  1
  Ir  Ir14  1  0.000000  0.493785  0.751425  1
  Ir  Ir15  1  0.535978  0.535978  0.027177  1
  Ir  Ir16  1  0.464022  0.000000  0.027177  1
  Ir  Ir17  1  0.531149  0.531149  0.300975  1
