# generated using pymatgen
data_Zr20Si12N
_symmetry_space_group_name_H-M   'P 1'
_cell_length_a   5.58871300
_cell_length_b   7.98950301
_cell_length_c   13.82827300
_cell_angle_alpha   89.99999283
_cell_angle_beta   90.00000000
_cell_angle_gamma   89.94127980
_symmetry_Int_Tables_number   1
_chemical_formula_structural   Zr20Si12N
_chemical_formula_sum   'Zr20 Si12 N1'
_cell_volume   617.44643781
_cell_formula_units_Z   1
loop_
 _symmetry_equiv_pos_site_id
 _symmetry_equiv_pos_as_xyz
  1  'x, y, z'
loop_
 _atom_site_type_symbol
 _atom_site_label
 _atom_site_symmetry_multiplicity
 _atom_site_fract_x
 _atom_site_fract_y
 _atom_site_fract_z
 _atom_site_occupancy
  Zr  Zr0  1  0.500000  0.000000  0.334456  1
  Zr  Zr1  1  0.500000  0.499999  0.832907  1
  Zr  Zr2  1  0.500000  0.499999  0.167093  1
  Zr  Zr3  1  0.500000  0.000000  0.665544  1
  Zr  Zr4  1  0.000000  0.500000  0.164624  1
  Zr  Zr5  1  0.999999  0.000000  0.668485  1
  Zr  Zr6  1  0.999999  0.000000  0.331515  1
  Zr  Zr7  1  0.000000  0.500000  0.835376  1
  Zr  Zr8  1  0.758611  0.242345  0.000000  1
  Zr  Zr9  1  0.750606  0.754188  0.500000  1
  Zr  Zr10  1  0.750000  0.375292  0.374121  1
  Zr  Zr11  1  0.758112  0.878615  0.878946  1
  Zr  Zr12  1  0.758112  0.878615  0.121054  1
  Zr  Zr13  1  0.750000  0.375292  0.625879  1
  Zr  Zr14  1  0.241389  0.757656  0.000000  1
  Zr  Zr15  1  0.249391  0.245813  0.500000  1
  Zr  Zr16  1  0.241888  0.121385  0.121054  1
  Zr  Zr17  1  0.250000  0.624708  0.625878  1
  Zr  Zr18  1  0.250000  0.624708  0.374122  1
  Zr  Zr19  1  0.241888  0.121385  0.878946  1
  Si  Si20  1  0.742939  0.604626  0.000000  1
  Si  Si21  1  0.752197  0.111435  0.500000  1
  Si  Si22  1  0.745427  0.197970  0.197737  1
  Si  Si23  1  0.751114  0.696465  0.696587  1
  Si  Si24  1  0.751114  0.696465  0.303413  1
  Si  Si25  1  0.745427  0.197970  0.802263  1
  Si  Si26  1  0.257058  0.395375  0.000000  1
  Si  Si27  1  0.247800  0.888565  0.500000  1
  Si  Si28  1  0.248885  0.303535  0.303413  1
  Si  Si29  1  0.254577  0.802030  0.802262  1
  Si  Si30  1  0.254577  0.802030  0.197738  1
  Si  Si31  1  0.248885  0.303535  0.696587  1
  N  N32  1  0.000000  0.000001  0.000000  1
