# generated using pymatgen
data_DyU9S20
_symmetry_space_group_name_H-M   'P 1'
_cell_length_a   10.14815130
_cell_length_b   10.13289431
_cell_length_c   6.28270706
_cell_angle_alpha   89.83333300
_cell_angle_beta   89.81734667
_cell_angle_gamma   89.85948246
_symmetry_Int_Tables_number   1
_chemical_formula_structural   DyU9S20
_chemical_formula_sum   'Dy1 U9 S20'
_cell_volume   646.04373037
_cell_formula_units_Z   1
loop_
 _symmetry_equiv_pos_site_id
 _symmetry_equiv_pos_as_xyz
  1  'x, y, z'
loop_
 _atom_site_type_symbol
 _atom_site_label
 _atom_site_symmetry_multiplicity
 _atom_site_fract_x
 _atom_site_fract_y
 _atom_site_fract_z
 _atom_site_occupancy
  Dy  Dy0  1  0.837832  0.151188  0.247701  1
  U  U1  1  0.652318  0.658769  0.251762  1
  U  U2  1  0.349826  0.338777  0.248302  1
  U  U3  1  0.159065  0.847711  0.250427  1
  U  U4  1  0.499237  0.999905  0.856262  1
  U  U5  1  0.339596  0.650434  0.751377  1
  U  U6  1  0.152030  0.159272  0.749671  1
  U  U7  1  0.849723  0.840496  0.752105  1
  U  U8  1  0.662945  0.348584  0.751382  1
  U  U9  1  0.000091  0.499261  0.140869  1
  S  S10  1  0.708753  0.089733  0.631002  1
  S  S11  1  0.590279  0.790051  0.619695  1
  S  S12  1  0.408069  0.206987  0.617850  1
  S  S13  1  0.292539  0.909480  0.617258  1
  S  S14  1  0.705274  0.908174  0.105219  1
  S  S15  1  0.584675  0.209695  0.106188  1
  S  S16  1  0.409950  0.790443  0.106848  1
  S  S17  1  0.289439  0.088231  0.108531  1
  S  S18  1  0.501372  0.501442  0.000149  1
  S  S19  1  0.000253  0.999990  0.999983  1
  S  S20  1  0.210804  0.411301  0.891472  1
  S  S21  1  0.088684  0.709132  0.891043  1
  S  S22  1  0.912754  0.293224  0.886292  1
  S  S23  1  0.790923  0.589423  0.892592  1
  S  S24  1  0.499384  0.497806  0.501194  1
  S  S25  1  0.000151  0.000308  0.501011  1
  S  S26  1  0.208752  0.591028  0.380643  1
  S  S27  1  0.093111  0.294659  0.383210  1
  S  S28  1  0.909889  0.710428  0.377651  1
  S  S29  1  0.792283  0.414063  0.382310  1
