# generated using pymatgen
data_WSe35
_symmetry_space_group_name_H-M   'P 1'
_cell_length_a   14.78332879
_cell_length_b   10.54526009
_cell_length_c   9.98249200
_cell_angle_alpha   88.81408222
_cell_angle_beta   66.02770692
_cell_angle_gamma   92.31545145
_symmetry_Int_Tables_number   1
_chemical_formula_structural   WSe35
_chemical_formula_sum   'W1 Se35'
_cell_volume   1419.64022663
_cell_formula_units_Z   1
loop_
 _symmetry_equiv_pos_site_id
 _symmetry_equiv_pos_as_xyz
  1  'x, y, z'
loop_
 _atom_site_type_symbol
 _atom_site_label
 _atom_site_symmetry_multiplicity
 _atom_site_fract_x
 _atom_site_fract_y
 _atom_site_fract_z
 _atom_site_occupancy
  W  W0  1  0.184195  0.461479  0.384921  1
  Se  Se1  1  0.459494  0.302132  0.739520  1
  Se  Se2  1  0.786153  0.670162  0.334676  1
  Se  Se3  1  0.456694  0.799490  0.764382  1
  Se  Se4  1  0.956053  0.869127  0.923288  1
  Se  Se5  1  0.964308  0.083741  0.970294  1
  Se  Se6  1  0.543276  0.273869  0.275256  1
  Se  Se7  1  0.567938  0.312265  0.019556  1
  Se  Se8  1  0.336636  0.623722  0.857804  1
  Se  Se9  1  0.302299  0.642436  0.215039  1
  Se  Se10  1  0.723580  0.068008  0.745019  1
  Se  Se11  1  0.874680  0.505531  0.176653  1
  Se  Se12  1  0.117612  0.082075  0.592455  1
  Se  Se13  1  0.025833  0.073928  0.166423  1
  Se  Se14  1  0.826308  0.246139  0.698092  1
  Se  Se15  1  0.645486  0.112384  0.267891  1
  Se  Se16  1  0.112032  0.815263  0.919520  1
  Se  Se17  1  0.387741  0.966430  0.678284  1
  Se  Se18  1  0.942284  0.388773  0.311417  1
  Se  Se19  1  0.983891  0.000264  0.498508  1
  Se  Se20  1  0.799850  0.531393  0.875806  1
  Se  Se21  1  0.245663  0.081566  0.369203  1
  Se  Se22  1  0.292794  0.305297  0.253359  1
  Se  Se23  1  0.614175  0.521515  0.958552  1
  Se  Se24  1  0.084745  0.538769  0.262231  1
  Se  Se25  1  0.844047  0.896386  0.664461  1
  Se  Se26  1  0.823175  0.326960  0.930580  1
  Se  Se27  1  0.522943  0.937309  0.303750  1
  Se  Se28  1  0.083693  0.349951  0.600433  1
  Se  Se29  1  0.601397  0.759121  0.184554  1
  Se  Se30  1  0.051051  0.854909  0.173241  1
  Se  Se31  1  0.341971  0.129596  0.857446  1
  Se  Se32  1  0.370258  0.463291  0.678285  1
  Se  Se33  1  0.620658  0.633969  0.373079  1
  Se  Se34  1  0.203079  0.603413  0.571476  1
  Se  Se35  1  0.304009  0.769339  0.404550  1
