# generated using pymatgen
data_Ta3Si2TcGeMo2
_symmetry_space_group_name_H-M   'P 1'
_cell_length_a   6.94873274
_cell_length_b   6.93164139
_cell_length_c   3.34441100
_cell_angle_alpha   90.00000000
_cell_angle_beta   90.00000000
_cell_angle_gamma   119.82819723
_symmetry_Int_Tables_number   1
_chemical_formula_structural   Ta3Si2TcGeMo2
_chemical_formula_sum   'Ta3 Si2 Tc1 Ge1 Mo2'
_cell_volume   139.74659008
_cell_formula_units_Z   1
loop_
 _symmetry_equiv_pos_site_id
 _symmetry_equiv_pos_as_xyz
  1  'x, y, z'
loop_
 _atom_site_type_symbol
 _atom_site_label
 _atom_site_symmetry_multiplicity
 _atom_site_fract_x
 _atom_site_fract_y
 _atom_site_fract_z
 _atom_site_occupancy
  Ta  Ta0  1  0.404139  0.402196  0.500000  1
  Ta  Ta1  1  0.585768  0.981555  0.500000  1
  Ta  Ta2  1  0.009002  0.614671  0.500000  1
  Si  Si3  1  0.328284  0.658526  0.000000  1
  Si  Si4  1  0.998903  0.008227  0.500000  1
  Tc  Tc5  1  0.006019  0.261715  0.000000  1
  Ge  Ge6  1  0.672558  0.330962  0.000000  1
  Mo  Mo7  1  0.741742  0.745799  0.000000  1
  Mo  Mo8  1  0.253586  0.996348  0.000000  1
