# generated using pymatgen
data_Hf4Zr5Nb(Sn3P)2
_symmetry_space_group_name_H-M   'P 1'
_cell_length_a   8.58197727
_cell_length_b   8.58118421
_cell_length_c   5.87397100
_cell_angle_alpha   89.99736864
_cell_angle_beta   89.99872300
_cell_angle_gamma   120.06529989
_symmetry_Int_Tables_number   1
_chemical_formula_structural   Hf4Zr5Nb(Sn3P)2
_chemical_formula_sum   'Hf4 Zr5 Nb1 Sn6 P2'
_cell_volume   374.37847384
_cell_formula_units_Z   1
loop_
 _symmetry_equiv_pos_site_id
 _symmetry_equiv_pos_as_xyz
  1  'x, y, z'
loop_
 _atom_site_type_symbol
 _atom_site_label
 _atom_site_symmetry_multiplicity
 _atom_site_fract_x
 _atom_site_fract_y
 _atom_site_fract_z
 _atom_site_occupancy
  Hf  Hf0  1  0.333704  0.666816  0.999927  1
  Hf  Hf1  1  0.333734  0.666800  0.500069  1
  Hf  Hf2  1  0.666789  0.333626  0.500085  1
  Hf  Hf3  1  0.749430  0.749061  0.749967  1
  Zr  Zr4  1  0.252022  0.000475  0.749950  1
  Zr  Zr5  1  0.999647  0.251592  0.749948  1
  Zr  Zr6  1  0.251415  0.250963  0.250075  1
  Zr  Zr7  1  0.748405  0.000016  0.250045  1
  Zr  Zr8  1  0.999210  0.748067  0.250110  1
  Nb  Nb9  1  0.666832  0.333749  0.999941  1
  Sn  Sn10  1  0.402078  0.399955  0.752595  1
  Sn  Sn11  1  0.600911  0.001854  0.752603  1
  Sn  Sn12  1  0.997634  0.598798  0.752567  1
  Sn  Sn13  1  0.600825  0.598689  0.247356  1
  Sn  Sn14  1  0.401420  0.002141  0.247386  1
  Sn  Sn15  1  0.997893  0.399343  0.247382  1
  P  P16  1  0.998998  0.998984  0.998956  1
  P  P17  1  0.999054  0.999071  0.501038  1
