# generated using pymatgen
data_Dy5(In2Ir)2
_symmetry_space_group_name_H-M   'P 1'
_cell_length_a   3.65475200
_cell_length_b   8.01130700
_cell_length_c   18.33231900
_cell_angle_alpha   90.00000000
_cell_angle_beta   90.00000000
_cell_angle_gamma   90.00000000
_symmetry_Int_Tables_number   1
_chemical_formula_structural   Dy5(In2Ir)2
_chemical_formula_sum   'Dy10 In8 Ir4'
_cell_volume   536.75820614
_cell_formula_units_Z   2
loop_
 _symmetry_equiv_pos_site_id
 _symmetry_equiv_pos_as_xyz
  1  'x, y, z'
loop_
 _atom_site_type_symbol
 _atom_site_label
 _atom_site_symmetry_multiplicity
 _atom_site_fract_x
 _atom_site_fract_y
 _atom_site_fract_z
 _atom_site_occupancy
  Dy  Dy0  1  0.500000  0.383854  0.589358  1
  Dy  Dy1  1  0.500000  0.883854  0.910642  1
  Dy  Dy2  1  0.500000  0.116146  0.089358  1
  Dy  Dy3  1  0.500000  0.754503  0.721917  1
  Dy  Dy4  1  0.500000  0.254503  0.778083  1
  Dy  Dy5  1  0.500000  0.500000  0.000000  1
  Dy  Dy6  1  0.500000  0.745497  0.221917  1
  Dy  Dy7  1  0.500000  0.245497  0.278083  1
  Dy  Dy8  1  0.500000  0.000000  0.500000  1
  Dy  Dy9  1  0.500000  0.616146  0.410642  1
  In  In10  1  0.000000  0.793087  0.067945  1
  In  In11  1  0.000000  0.929825  0.350430  1
  In  In12  1  0.000000  0.070175  0.649570  1
  In  In13  1  0.000000  0.570175  0.850430  1
  In  In14  1  0.000000  0.706913  0.567945  1
  In  In15  1  0.000000  0.206913  0.932055  1
  In  In16  1  0.000000  0.293087  0.432055  1
  In  In17  1  0.000000  0.429825  0.149570  1
  Ir  Ir18  1  0.000000  0.980143  0.804333  1
  Ir  Ir19  1  0.000000  0.519857  0.304333  1
  Ir  Ir20  1  0.000000  0.480143  0.695667  1
  Ir  Ir21  1  0.000000  0.019857  0.195667  1
