# generated using pymatgen
data_TbY4Ho5Ru4
_symmetry_space_group_name_H-M   'P 1'
_cell_length_a   6.34830217
_cell_length_b   7.28679433
_cell_length_c   8.48944943
_cell_angle_alpha   96.74890597
_cell_angle_beta   112.07581015
_cell_angle_gamma   89.93568825
_symmetry_Int_Tables_number   1
_chemical_formula_structural   TbY4Ho5Ru4
_chemical_formula_sum   'Tb1 Y4 Ho5 Ru4'
_cell_volume   361.00352647
_cell_formula_units_Z   1
loop_
 _symmetry_equiv_pos_site_id
 _symmetry_equiv_pos_as_xyz
  1  'x, y, z'
loop_
 _atom_site_type_symbol
 _atom_site_label
 _atom_site_symmetry_multiplicity
 _atom_site_fract_x
 _atom_site_fract_y
 _atom_site_fract_z
 _atom_site_occupancy
  Tb  Tb0  1  0.640058  0.814661  0.434839  1
  Y  Y1  1  0.977957  0.916451  0.187188  1
  Y  Y2  1  0.790839  0.583429  0.812602  1
  Y  Y3  1  0.022654  0.083981  0.812844  1
  Y  Y4  1  0.208686  0.416135  0.187419  1
  Ho  Ho5  1  0.205184  0.684990  0.565943  1
  Ho  Ho6  1  0.359945  0.185263  0.565527  1
  Ho  Ho7  1  0.795293  0.314858  0.434323  1
  Ho  Ho8  1  0.420399  0.749651  0.999216  1
  Ho  Ho9  1  0.579311  0.250221  0.000134  1
  Ru  Ru10  1  0.820883  0.575152  0.221188  1
  Ru  Ru11  1  0.598746  0.925381  0.778971  1
  Ru  Ru12  1  0.179368  0.424475  0.778490  1
  Ru  Ru13  1  0.400678  0.075351  0.221316  1
