# generated using pymatgen
data_Tb7YScPd24
_symmetry_space_group_name_H-M   'P 1'
_cell_length_a   8.36529400
_cell_length_b   8.36529400
_cell_length_c   8.36529400
_cell_angle_alpha   89.99971233
_cell_angle_beta   89.99971233
_cell_angle_gamma   90.00028767
_symmetry_Int_Tables_number   1
_chemical_formula_structural   Tb7YScPd24
_chemical_formula_sum   'Tb7 Y1 Sc1 Pd24'
_cell_volume   585.38774568
_cell_formula_units_Z   1
loop_
 _symmetry_equiv_pos_site_id
 _symmetry_equiv_pos_as_xyz
  1  'x, y, z'
loop_
 _atom_site_type_symbol
 _atom_site_label
 _atom_site_symmetry_multiplicity
 _atom_site_fract_x
 _atom_site_fract_y
 _atom_site_fract_z
 _atom_site_occupancy
  Tb  Tb0  1  0.252150  0.747871  0.252129  1
  Tb  Tb1  1  0.747871  0.252150  0.252129  1
  Tb  Tb2  1  0.747871  0.747871  0.747850  1
  Tb  Tb3  1  0.747820  0.747820  0.252180  1
  Tb  Tb4  1  0.747847  0.252163  0.747837  1
  Tb  Tb5  1  0.252163  0.747847  0.747837  1
  Tb  Tb6  1  0.252163  0.252163  0.252153  1
  Y  Y7  1  0.251978  0.251978  0.748022  1
  Sc  Sc8  1  0.000020  0.000020  0.999980  1
  Pd  Pd9  1  0.500105  0.500105  0.745739  1
  Pd  Pd10  1  0.500105  0.254261  0.499895  1
  Pd  Pd11  1  0.254261  0.500105  0.499895  1
  Pd  Pd12  1  0.499990  0.499990  0.254315  1
  Pd  Pd13  1  0.499990  0.745685  0.500010  1
  Pd  Pd14  1  0.745685  0.499990  0.500010  1
  Pd  Pd15  1  0.999909  0.999909  0.692265  1
  Pd  Pd16  1  0.999909  0.307735  0.000091  1
  Pd  Pd17  1  0.307735  0.999909  0.000091  1
  Pd  Pd18  1  0.000046  0.000046  0.307695  1
  Pd  Pd19  1  0.000046  0.692305  0.999954  1
  Pd  Pd20  1  0.692305  0.000046  0.999954  1
  Pd  Pd21  1  0.999862  0.500069  0.734775  1
  Pd  Pd22  1  0.500069  0.265225  0.000138  1
  Pd  Pd23  1  0.265225  0.999862  0.499931  1
  Pd  Pd24  1  0.999862  0.265225  0.499931  1
  Pd  Pd25  1  0.500069  0.999862  0.734775  1
  Pd  Pd26  1  0.265225  0.500069  0.000138  1
  Pd  Pd27  1  0.000051  0.500014  0.265205  1
  Pd  Pd28  1  0.500014  0.734795  0.999949  1
  Pd  Pd29  1  0.000051  0.734795  0.499986  1
  Pd  Pd30  1  0.500014  0.000051  0.265205  1
  Pd  Pd31  1  0.734795  0.000051  0.499986  1
  Pd  Pd32  1  0.734795  0.500014  0.999949  1
