# generated using pymatgen
data_NdI28
_symmetry_space_group_name_H-M   'P 1'
_cell_length_a   10.67681737
_cell_length_b   14.33344904
_cell_length_c   12.98270300
_cell_angle_alpha   108.44914254
_cell_angle_beta   105.43469067
_cell_angle_gamma   86.57346759
_symmetry_Int_Tables_number   1
_chemical_formula_structural   NdI28
_chemical_formula_sum   'Nd1 I28'
_cell_volume   1816.08072199
_cell_formula_units_Z   1
loop_
 _symmetry_equiv_pos_site_id
 _symmetry_equiv_pos_as_xyz
  1  'x, y, z'
loop_
 _atom_site_type_symbol
 _atom_site_label
 _atom_site_symmetry_multiplicity
 _atom_site_fract_x
 _atom_site_fract_y
 _atom_site_fract_z
 _atom_site_occupancy
  Nd  Nd0  1  0.500000  0.000000  0.000000  1
  I  I1  1  0.142549  0.123144  0.425830  1
  I  I2  1  0.587870  0.155139  0.453542  1
  I  I3  1  0.285529  0.270781  0.858577  1
  I  I4  1  0.803431  0.271174  0.876591  1
  I  I5  1  0.192930  0.496841  0.654129  1
  I  I6  1  0.770819  0.547154  0.722921  1
  I  I7  1  0.412130  0.844861  0.546458  1
  I  I8  1  0.857451  0.876856  0.574170  1
  I  I9  1  0.196569  0.728826  0.123409  1
  I  I10  1  0.714471  0.729219  0.141423  1
  I  I11  1  0.229181  0.452846  0.277079  1
  I  I12  1  0.807070  0.503159  0.345871  1
  I  I13  1  0.842140  0.063536  0.740611  1
  I  I14  1  0.313009  0.960477  0.771421  1
  I  I15  1  0.986195  0.643686  0.930833  1
  I  I16  1  0.510724  0.776311  0.950224  1
  I  I17  1  0.712397  0.355378  0.402501  1
  I  I18  1  0.196731  0.287979  0.352106  1
  I  I19  1  0.686991  0.039523  0.228579  1
  I  I20  1  0.157860  0.936464  0.259389  1
  I  I21  1  0.489276  0.223689  0.049776  1
  I  I22  1  0.013805  0.356314  0.069167  1
  I  I23  1  0.803269  0.712021  0.647894  1
  I  I24  1  0.287603  0.644622  0.597499  1
  I  I25  1  0.080819  0.312853  0.689864  1
  I  I26  1  0.504693  0.245074  0.645021  1
  I  I27  1  0.495307  0.754926  0.354979  1
  I  I28  1  0.919181  0.687147  0.310136  1
