# generated using pymatgen
data_Li25Si8Pd
_symmetry_space_group_name_H-M   'P 1'
_cell_length_a   7.92813247
_cell_length_b   14.98483852
_cell_length_c   4.40136000
_cell_angle_alpha   90.00000000
_cell_angle_beta   90.00000000
_cell_angle_gamma   89.66538634
_symmetry_Int_Tables_number   1
_chemical_formula_structural   Li25Si8Pd
_chemical_formula_sum   'Li25 Si8 Pd1'
_cell_volume   522.88050640
_cell_formula_units_Z   1
loop_
 _symmetry_equiv_pos_site_id
 _symmetry_equiv_pos_as_xyz
  1  'x, y, z'
loop_
 _atom_site_type_symbol
 _atom_site_label
 _atom_site_symmetry_multiplicity
 _atom_site_fract_x
 _atom_site_fract_y
 _atom_site_fract_z
 _atom_site_occupancy
  Li  Li0  1  0.159130  0.021293  0.000000  1
  Li  Li1  1  0.765536  0.150844  0.000000  1
  Li  Li2  1  0.093978  0.192135  0.000000  1
  Li  Li3  1  0.594765  0.306937  0.000000  1
  Li  Li4  1  0.267972  0.347314  0.000000  1
  Li  Li5  1  0.652632  0.475156  0.000000  1
  Li  Li6  1  0.000000  0.500000  0.000000  1
  Li  Li7  1  0.347369  0.524843  0.000000  1
  Li  Li8  1  0.732028  0.652687  0.000000  1
  Li  Li9  1  0.405237  0.693064  0.000000  1
  Li  Li10  1  0.906021  0.807866  0.000000  1
  Li  Li11  1  0.234465  0.849156  0.000000  1
  Li  Li12  1  0.840871  0.978706  0.000000  1
  Li  Li13  1  0.271685  0.085654  0.500000  1
  Li  Li14  1  0.598949  0.092348  0.500000  1
  Li  Li15  1  0.901993  0.244833  0.500000  1
  Li  Li16  1  0.410107  0.253244  0.500000  1
  Li  Li17  1  0.096150  0.393226  0.500000  1
  Li  Li18  1  0.758701  0.407028  0.500000  1
  Li  Li19  1  0.241299  0.592972  0.500000  1
  Li  Li20  1  0.903850  0.606774  0.500000  1
  Li  Li21  1  0.589894  0.746756  0.500000  1
  Li  Li22  1  0.098006  0.755167  0.500000  1
  Li  Li23  1  0.401052  0.907652  0.500000  1
  Li  Li24  1  0.728316  0.914346  0.500000  1
  Si  Si25  1  0.420870  0.156102  0.000000  1
  Si  Si26  1  0.916069  0.340001  0.000000  1
  Si  Si27  1  0.083932  0.659999  0.000000  1
  Si  Si28  1  0.579130  0.843898  0.000000  1
  Si  Si29  1  0.940311  0.071661  0.500000  1
  Si  Si30  1  0.426380  0.430145  0.500000  1
  Si  Si31  1  0.573620  0.569855  0.500000  1
  Si  Si32  1  0.059689  0.928340  0.500000  1
  Pd  Pd33  1  0.500000  0.000000  0.000000  1
