# generated using pymatgen
data_CsRbBa2(CrN3)2
_symmetry_space_group_name_H-M   'P 1'
_cell_length_a   6.84440636
_cell_length_b   6.84444721
_cell_length_c   12.97894368
_cell_angle_alpha   89.42259708
_cell_angle_beta   90.57763386
_cell_angle_gamma   129.09503183
_symmetry_Int_Tables_number   1
_chemical_formula_structural   CsRbBa2(CrN3)2
_chemical_formula_sum   'Cs2 Rb2 Ba4 Cr4 N12'
_cell_volume   471.85085413
_cell_formula_units_Z   2
loop_
 _symmetry_equiv_pos_site_id
 _symmetry_equiv_pos_as_xyz
  1  'x, y, z'
loop_
 _atom_site_type_symbol
 _atom_site_label
 _atom_site_symmetry_multiplicity
 _atom_site_fract_x
 _atom_site_fract_y
 _atom_site_fract_z
 _atom_site_occupancy
  Cs  Cs0  1  0.961290  0.038708  0.142292  1
  Cs  Cs1  1  0.038710  0.961292  0.857708  1
  Rb  Rb2  1  0.545238  0.454761  0.640805  1
  Rb  Rb3  1  0.454762  0.545239  0.359195  1
  Ba  Ba4  1  0.848454  0.151545  0.583609  1
  Ba  Ba5  1  0.151546  0.848455  0.416391  1
  Ba  Ba6  1  0.652517  0.347485  0.083485  1
  Ba  Ba7  1  0.347483  0.652515  0.916515  1
  Cr  Cr8  1  0.723677  0.276327  0.828822  1
  Cr  Cr9  1  0.276323  0.723673  0.171178  1
  Cr  Cr10  1  0.774370  0.225633  0.330477  1
  Cr  Cr11  1  0.225630  0.774367  0.669523  1
  N  N12  1  0.803907  0.196093  0.935110  1
  N  N13  1  0.196093  0.803907  0.064890  1
  N  N14  1  0.691350  0.308650  0.434054  1
  N  N15  1  0.308650  0.691350  0.565946  1
  N  N16  1  0.593768  0.406233  0.868532  1
  N  N17  1  0.406232  0.593767  0.131468  1
  N  N18  1  0.903867  0.096134  0.373871  1
  N  N19  1  0.096133  0.903866  0.626129  1
  N  N20  1  0.505248  0.994911  0.749789  1
  N  N21  1  0.994912  0.505251  0.250210  1
  N  N22  1  0.494752  0.005089  0.250211  1
  N  N23  1  0.005088  0.494749  0.749790  1
