# generated using pymatgen
data_Eu2CdIn3Ni2
_symmetry_space_group_name_H-M   'P 1'
_cell_length_a   5.61244209
_cell_length_b   5.61244230
_cell_length_c   7.96507916
_cell_angle_alpha   89.91136420
_cell_angle_beta   90.08863641
_cell_angle_gamma   134.53348900
_symmetry_Int_Tables_number   1
_chemical_formula_structural   Eu2CdIn3Ni2
_chemical_formula_sum   'Eu2 Cd1 In3 Ni2'
_cell_volume   178.84866600
_cell_formula_units_Z   1
loop_
 _symmetry_equiv_pos_site_id
 _symmetry_equiv_pos_as_xyz
  1  'x, y, z'
loop_
 _atom_site_type_symbol
 _atom_site_label
 _atom_site_symmetry_multiplicity
 _atom_site_fract_x
 _atom_site_fract_y
 _atom_site_fract_z
 _atom_site_occupancy
  Eu  Eu0  1  0.059143  0.940857  0.248958  1
  Eu  Eu1  1  0.940636  0.059364  0.753335  1
  Cd  Cd2  1  0.649329  0.350671  0.947050  1
  In  In3  1  0.346449  0.653551  0.051031  1
  In  In4  1  0.349663  0.650337  0.445177  1
  In  In5  1  0.650602  0.349398  0.556743  1
  Ni  Ni6  1  0.779205  0.220795  0.253749  1
  Ni  Ni7  1  0.224974  0.775026  0.743956  1
