# generated using pymatgen
data_NdEr2Fe(Co4P3)2
_symmetry_space_group_name_H-M   'P 1'
_cell_length_a   3.70566300
_cell_length_b   10.54358000
_cell_length_c   12.21666500
_cell_angle_alpha   90.00000000
_cell_angle_beta   90.00000000
_cell_angle_gamma   90.00000000
_symmetry_Int_Tables_number   1
_chemical_formula_structural   NdEr2Fe(Co4P3)2
_chemical_formula_sum   'Nd2 Er4 Fe2 Co16 P12'
_cell_volume   477.31675983
_cell_formula_units_Z   2
loop_
 _symmetry_equiv_pos_site_id
 _symmetry_equiv_pos_as_xyz
  1  'x, y, z'
loop_
 _atom_site_type_symbol
 _atom_site_label
 _atom_site_symmetry_multiplicity
 _atom_site_fract_x
 _atom_site_fract_y
 _atom_site_fract_z
 _atom_site_occupancy
  Nd  Nd0  1  0.750000  0.250000  0.477588  1
  Nd  Nd1  1  0.250000  0.750000  0.522412  1
  Er  Er2  1  0.250000  0.932111  0.796054  1
  Er  Er3  1  0.250000  0.567889  0.796054  1
  Er  Er4  1  0.750000  0.067889  0.203946  1
  Er  Er5  1  0.750000  0.432111  0.203946  1
  Fe  Fe6  1  0.250000  0.250000  0.844683  1
  Fe  Fe7  1  0.750000  0.750000  0.155317  1
  Co  Co8  1  0.250000  0.250000  0.294093  1
  Co  Co9  1  0.750000  0.750000  0.705907  1
  Co  Co10  1  0.750000  0.250000  0.013357  1
  Co  Co11  1  0.250000  0.750000  0.986643  1
  Co  Co12  1  0.250000  0.417197  0.005520  1
  Co  Co13  1  0.250000  0.082803  0.005520  1
  Co  Co14  1  0.750000  0.582803  0.994480  1
  Co  Co15  1  0.750000  0.917197  0.994480  1
  Co  Co16  1  0.250000  0.453825  0.571090  1
  Co  Co17  1  0.250000  0.046175  0.571090  1
  Co  Co18  1  0.750000  0.546175  0.428910  1
  Co  Co19  1  0.750000  0.953825  0.428910  1
  Co  Co20  1  0.250000  0.871159  0.287608  1
  Co  Co21  1  0.250000  0.628841  0.287608  1
  Co  Co22  1  0.750000  0.128841  0.712392  1
  Co  Co23  1  0.750000  0.371159  0.712392  1
  P  P24  1  0.250000  0.250000  0.116716  1
  P  P25  1  0.750000  0.750000  0.883284  1
  P  P26  1  0.250000  0.250000  0.661405  1
  P  P27  1  0.750000  0.750000  0.338595  1
  P  P28  1  0.250000  0.442408  0.381653  1
  P  P29  1  0.250000  0.057592  0.381653  1
  P  P30  1  0.750000  0.557592  0.618347  1
  P  P31  1  0.750000  0.942408  0.618347  1
  P  P32  1  0.250000  0.903651  0.106647  1
  P  P33  1  0.250000  0.596349  0.106647  1
  P  P34  1  0.750000  0.096349  0.893353  1
  P  P35  1  0.750000  0.403651  0.893353  1
