# generated using pymatgen
data_Dy3Er3MgCo17P12
_symmetry_space_group_name_H-M   'P 1'
_cell_length_a   3.70411600
_cell_length_b   10.54679200
_cell_length_c   12.20564800
_cell_angle_alpha   89.99863162
_cell_angle_beta   90.00000000
_cell_angle_gamma   90.00000000
_symmetry_Int_Tables_number   1
_chemical_formula_structural   Dy3Er3MgCo17P12
_chemical_formula_sum   'Dy3 Er3 Mg1 Co17 P12'
_cell_volume   476.83244791
_cell_formula_units_Z   1
loop_
 _symmetry_equiv_pos_site_id
 _symmetry_equiv_pos_as_xyz
  1  'x, y, z'
loop_
 _atom_site_type_symbol
 _atom_site_label
 _atom_site_symmetry_multiplicity
 _atom_site_fract_x
 _atom_site_fract_y
 _atom_site_fract_z
 _atom_site_occupancy
  Dy  Dy0  1  0.750000  0.250037  0.474573  1
  Dy  Dy1  1  0.250000  0.749997  0.521974  1
  Dy  Dy2  1  0.750000  0.067518  0.205324  1
  Er  Er3  1  0.250000  0.928116  0.792973  1
  Er  Er4  1  0.250000  0.571894  0.792788  1
  Er  Er5  1  0.750000  0.432817  0.205311  1
  Mg  Mg6  1  0.250000  0.250018  0.846833  1
  Co  Co7  1  0.750000  0.749907  0.161770  1
  Co  Co8  1  0.250000  0.250787  0.294996  1
  Co  Co9  1  0.750000  0.749840  0.704678  1
  Co  Co10  1  0.750000  0.250460  0.013462  1
  Co  Co11  1  0.250000  0.749596  0.987208  1
  Co  Co12  1  0.250000  0.421413  0.006785  1
  Co  Co13  1  0.250000  0.078991  0.006519  1
  Co  Co14  1  0.750000  0.586763  0.998205  1
  Co  Co15  1  0.750000  0.912816  0.997789  1
  Co  Co16  1  0.250000  0.454600  0.567080  1
  Co  Co17  1  0.250000  0.045468  0.567591  1
  Co  Co18  1  0.750000  0.547857  0.429323  1
  Co  Co19  1  0.750000  0.952032  0.429972  1
  Co  Co20  1  0.250000  0.869655  0.291540  1
  Co  Co21  1  0.250000  0.629591  0.290999  1
  Co  Co22  1  0.750000  0.126697  0.707279  1
  Co  Co23  1  0.750000  0.373313  0.707112  1
  P  P24  1  0.250000  0.250743  0.116165  1
  P  P25  1  0.750000  0.749747  0.883459  1
  P  P26  1  0.250000  0.250008  0.646339  1
  P  P27  1  0.750000  0.749945  0.345015  1
  P  P28  1  0.250000  0.440532  0.382117  1
  P  P29  1  0.250000  0.059533  0.382962  1
  P  P30  1  0.750000  0.560956  0.614799  1
  P  P31  1  0.750000  0.938909  0.615193  1
  P  P32  1  0.250000  0.899974  0.109855  1
  P  P33  1  0.250000  0.599283  0.110213  1
  P  P34  1  0.750000  0.086565  0.896017  1
  P  P35  1  0.750000  0.413623  0.895783  1
