# generated using pymatgen
data_Ba4CrFe3N8
_symmetry_space_group_name_H-M   'P 1'
_cell_length_a   6.43152130
_cell_length_b   6.43152155
_cell_length_c   7.78702111
_cell_angle_alpha   90.51441971
_cell_angle_beta   89.48557635
_cell_angle_gamma   125.80550147
_symmetry_Int_Tables_number   1
_chemical_formula_structural   Ba4CrFe3N8
_chemical_formula_sum   'Ba4 Cr1 Fe3 N8'
_cell_volume   261.21713134
_cell_formula_units_Z   1
loop_
 _symmetry_equiv_pos_site_id
 _symmetry_equiv_pos_as_xyz
  1  'x, y, z'
loop_
 _atom_site_type_symbol
 _atom_site_label
 _atom_site_symmetry_multiplicity
 _atom_site_fract_x
 _atom_site_fract_y
 _atom_site_fract_z
 _atom_site_occupancy
  Ba  Ba0  1  0.835897  0.164103  0.558834  1
  Ba  Ba1  1  0.152139  0.847861  0.441303  1
  Ba  Ba2  1  0.657443  0.342557  0.056931  1
  Ba  Ba3  1  0.345722  0.654278  0.939946  1
  Cr  Cr4  1  0.049148  0.950852  0.870293  1
  Fe  Fe5  1  0.545847  0.454153  0.629242  1
  Fe  Fe6  1  0.448509  0.551491  0.366100  1
  Fe  Fe7  1  0.945286  0.054714  0.141914  1
  N  N8  1  0.891638  0.108362  0.911351  1
  N  N9  1  0.112243  0.887757  0.080789  1
  N  N10  1  0.611292  0.388708  0.410734  1
  N  N11  1  0.385914  0.614086  0.585170  1
  N  N12  1  0.336961  0.151119  0.756433  1
  N  N13  1  0.170189  0.337109  0.247264  1
  N  N14  1  0.662891  0.829811  0.247264  1
  N  N15  1  0.848881  0.663039  0.756433  1
