# generated using pymatgen
data_Sr2MnAl10PbO20
_symmetry_space_group_name_H-M   'P 1'
_cell_length_a   4.99815990
_cell_length_b   9.59208692
_cell_length_c   9.59208703
_cell_angle_alpha   107.08633731
_cell_angle_beta   74.99923705
_cell_angle_gamma   105.00076452
_symmetry_Int_Tables_number   1
_chemical_formula_structural   Sr2MnAl10PbO20
_chemical_formula_sum   'Sr2 Mn1 Al10 Pb1 O20'
_cell_volume   416.19086171
_cell_formula_units_Z   1
loop_
 _symmetry_equiv_pos_site_id
 _symmetry_equiv_pos_as_xyz
  1  'x, y, z'
loop_
 _atom_site_type_symbol
 _atom_site_label
 _atom_site_symmetry_multiplicity
 _atom_site_fract_x
 _atom_site_fract_y
 _atom_site_fract_z
 _atom_site_occupancy
  Sr  Sr0  1  0.997081  0.001242  0.998758  1
  Sr  Sr1  1  0.710081  0.725826  0.274174  1
  Mn  Mn2  1  0.001168  0.500656  0.499344  1
  Al  Al3  1  0.340386  0.718057  0.007128  1
  Al  Al4  1  0.167672  0.423472  0.150982  1
  Al  Al5  1  0.340386  0.992873  0.281944  1
  Al  Al6  1  0.499176  0.366586  0.365769  1
  Al  Al7  1  0.832220  0.150027  0.421550  1
  Al  Al8  1  0.167672  0.849018  0.576527  1
  Al  Al9  1  0.499176  0.634232  0.633415  1
  Al  Al10  1  0.659991  0.006723  0.718776  1
  Al  Al11  1  0.832220  0.578450  0.849973  1
  Al  Al12  1  0.659991  0.281225  0.993278  1
  Pb  Pb13  1  0.322825  0.274980  0.725019  1
  O  O14  1  0.000421  0.283369  0.015539  1
  O  O15  1  0.483944  0.900053  0.099947  1
  O  O16  1  0.325207  0.599812  0.119067  1
  O  O17  1  0.437844  0.341348  0.170860  1
  O  O18  1  0.991006  0.007525  0.287101  1
  O  O19  1  0.888877  0.452116  0.309715  1
  O  O20  1  0.563985  0.171365  0.338815  1
  O  O21  1  0.325207  0.880932  0.400188  1
  O  O22  1  0.395712  0.565810  0.434190  1
  O  O23  1  0.108728  0.309441  0.446804  1
  O  O24  1  0.888877  0.690286  0.547884  1
  O  O25  1  0.604606  0.434083  0.565917  1
  O  O26  1  0.669981  0.118581  0.599480  1
  O  O27  1  0.437844  0.829140  0.658652  1
  O  O28  1  0.108728  0.553196  0.690559  1
  O  O29  1  0.000421  0.984461  0.716631  1
  O  O30  1  0.563985  0.661185  0.828635  1
  O  O31  1  0.669981  0.400520  0.881418  1
  O  O32  1  0.513604  0.100512  0.899487  1
  O  O33  1  0.991006  0.712899  0.992474  1
