# generated using pymatgen
data_Pr2Nd3(SnBi)2
_symmetry_space_group_name_H-M   'P 1'
_cell_length_a   8.44922600
_cell_length_b   8.50592000
_cell_length_c   16.20435300
_cell_angle_alpha   90.00000000
_cell_angle_beta   90.00000000
_cell_angle_gamma   90.00000000
_symmetry_Int_Tables_number   1
_chemical_formula_structural   Pr2Nd3(SnBi)2
_chemical_formula_sum   'Pr8 Nd12 Sn8 Bi8'
_cell_volume   1164.58157809
_cell_formula_units_Z   4
loop_
 _symmetry_equiv_pos_site_id
 _symmetry_equiv_pos_as_xyz
  1  'x, y, z'
loop_
 _atom_site_type_symbol
 _atom_site_label
 _atom_site_symmetry_multiplicity
 _atom_site_fract_x
 _atom_site_fract_y
 _atom_site_fract_z
 _atom_site_occupancy
  Pr  Pr0  1  0.548507  0.325739  0.890465  1
  Pr  Pr1  1  0.048507  0.174261  0.609535  1
  Pr  Pr2  1  0.451493  0.674261  0.390465  1
  Pr  Pr3  1  0.951493  0.825739  0.109535  1
  Pr  Pr4  1  0.451493  0.674261  0.109535  1
  Pr  Pr5  1  0.951493  0.825739  0.390465  1
  Pr  Pr6  1  0.548507  0.325739  0.609535  1
  Pr  Pr7  1  0.048507  0.174261  0.890465  1
  Nd  Nd8  1  0.391210  0.835341  0.879059  1
  Nd  Nd9  1  0.891210  0.664659  0.620941  1
  Nd  Nd10  1  0.608790  0.164659  0.379059  1
  Nd  Nd11  1  0.108790  0.335341  0.120941  1
  Nd  Nd12  1  0.608790  0.164659  0.120941  1
  Nd  Nd13  1  0.108790  0.335341  0.379059  1
  Nd  Nd14  1  0.391210  0.835341  0.620941  1
  Nd  Nd15  1  0.891210  0.664659  0.879059  1
  Nd  Nd16  1  0.217772  0.496280  0.750000  1
  Nd  Nd17  1  0.717772  0.003720  0.750000  1
  Nd  Nd18  1  0.782228  0.503720  0.250000  1
  Nd  Nd19  1  0.282228  0.996280  0.250000  1
  Sn  Sn20  1  0.589938  0.622675  0.750000  1
  Sn  Sn21  1  0.089938  0.877325  0.750000  1
  Sn  Sn22  1  0.410062  0.377325  0.250000  1
  Sn  Sn23  1  0.910062  0.122675  0.250000  1
  Sn  Sn24  1  0.349524  0.136330  0.750000  1
  Sn  Sn25  1  0.849524  0.363670  0.750000  1
  Sn  Sn26  1  0.650476  0.863670  0.250000  1
  Sn  Sn27  1  0.150476  0.636330  0.250000  1
  Bi  Bi28  1  0.269248  0.019937  0.044964  1
  Bi  Bi29  1  0.769248  0.480063  0.455036  1
  Bi  Bi30  1  0.730752  0.980063  0.544964  1
  Bi  Bi31  1  0.230752  0.519937  0.955036  1
  Bi  Bi32  1  0.730752  0.980063  0.955036  1
  Bi  Bi33  1  0.230752  0.519937  0.544964  1
  Bi  Bi34  1  0.269248  0.019937  0.455036  1
  Bi  Bi35  1  0.769248  0.480063  0.044964  1
