# generated using pymatgen
data_Th2TiMn2Co9P7
_symmetry_space_group_name_H-M   'P 1'
_cell_length_a   9.12929811
_cell_length_b   9.14094887
_cell_length_c   3.70726800
_cell_angle_alpha   90.00000000
_cell_angle_beta   90.00000000
_cell_angle_gamma   119.91518208
_symmetry_Int_Tables_number   1
_chemical_formula_structural   Th2TiMn2Co9P7
_chemical_formula_sum   'Th2 Ti1 Mn2 Co9 P7'
_cell_volume   268.15372374
_cell_formula_units_Z   1
loop_
 _symmetry_equiv_pos_site_id
 _symmetry_equiv_pos_as_xyz
  1  'x, y, z'
loop_
 _atom_site_type_symbol
 _atom_site_label
 _atom_site_symmetry_multiplicity
 _atom_site_fract_x
 _atom_site_fract_y
 _atom_site_fract_z
 _atom_site_occupancy
  Th  Th0  1  0.337278  0.670471  0.000000  1
  Th  Th1  1  0.001311  0.999687  0.500000  1
  Ti  Ti2  1  0.775252  0.228048  0.500000  1
  Mn  Mn3  1  0.763556  0.548450  0.500000  1
  Mn  Mn4  1  0.446584  0.212548  0.500000  1
  Co  Co5  1  0.038151  0.271208  0.000000  1
  Co  Co6  1  0.731695  0.766026  0.000000  1
  Co  Co7  1  0.234108  0.963452  0.000000  1
  Co  Co8  1  0.545897  0.060242  0.000000  1
  Co  Co9  1  0.943369  0.487710  0.000000  1
  Co  Co10  1  0.511390  0.456966  0.000000  1
  Co  Co11  1  0.611924  0.896039  0.500000  1
  Co  Co12  1  0.100826  0.716460  0.500000  1
  Co  Co13  1  0.284485  0.383984  0.500000  1
  P  P14  1  0.769718  0.028180  0.000000  1
  P  P15  1  0.965162  0.735340  0.000000  1
  P  P16  1  0.266092  0.229163  0.000000  1
  P  P17  1  0.374200  0.938814  0.500000  1
  P  P18  1  0.072252  0.444913  0.500000  1
  P  P19  1  0.563062  0.622869  0.500000  1
  P  P20  1  0.663688  0.339432  0.000000  1
