# generated using pymatgen
data_Ce3Sc(Si5Os3)2
_symmetry_space_group_name_H-M   'P 1'
_cell_length_a   8.14995882
_cell_length_b   8.13199720
_cell_length_c   5.80611679
_cell_angle_alpha   70.62714764
_cell_angle_beta   70.43525601
_cell_angle_gamma   93.72728053
_symmetry_Int_Tables_number   1
_chemical_formula_structural   Ce3Sc(Si5Os3)2
_chemical_formula_sum   'Ce3 Sc1 Si10 Os6'
_cell_volume   335.27763051
_cell_formula_units_Z   1
loop_
 _symmetry_equiv_pos_site_id
 _symmetry_equiv_pos_as_xyz
  1  'x, y, z'
loop_
 _atom_site_type_symbol
 _atom_site_label
 _atom_site_symmetry_multiplicity
 _atom_site_fract_x
 _atom_site_fract_y
 _atom_site_fract_z
 _atom_site_occupancy
  Ce  Ce0  1  0.868065  0.600513  0.757580  1
  Ce  Ce1  1  0.399727  0.132792  0.742348  1
  Ce  Ce2  1  0.131659  0.399126  0.242299  1
  Sc  Sc3  1  0.600035  0.867260  0.259127  1
  Si  Si4  1  0.063353  0.264821  0.833972  1
  Si  Si5  1  0.738481  0.937339  0.664348  1
  Si  Si6  1  0.929429  0.739871  0.167632  1
  Si  Si7  1  0.260505  0.059433  0.336800  1
  Si  Si8  1  0.203377  0.790514  0.760986  1
  Si  Si9  1  0.790537  0.202702  0.245932  1
  Si  Si10  1  0.514711  0.487618  0.751059  1
  Si  Si11  1  0.490289  0.519978  0.243010  1
  Si  Si12  1  0.773923  0.222482  0.756798  1
  Si  Si13  1  0.231346  0.773585  0.245851  1
  Os  Os14  1  0.259837  0.546973  0.630595  1
  Os  Os15  1  0.460889  0.747028  0.859749  1
  Os  Os16  1  0.744429  0.454025  0.368199  1
  Os  Os17  1  0.539504  0.252409  0.136180  1
  Os  Os18  1  0.002446  0.998436  0.749741  1
  Os  Os19  1  0.997460  0.003097  0.247792  1
