# generated using pymatgen
data_Er4HgIr
_symmetry_space_group_name_H-M   'P 1'
_cell_length_a   9.52077970
_cell_length_b   9.52077961
_cell_length_c   9.52078000
_cell_angle_alpha   59.99999865
_cell_angle_beta   59.99999897
_cell_angle_gamma   60.00000100
_symmetry_Int_Tables_number   1
_chemical_formula_structural   Er4HgIr
_chemical_formula_sum   'Er16 Hg4 Ir4'
_cell_volume   610.24264807
_cell_formula_units_Z   4
loop_
 _symmetry_equiv_pos_site_id
 _symmetry_equiv_pos_as_xyz
  1  'x, y, z'
loop_
 _atom_site_type_symbol
 _atom_site_label
 _atom_site_symmetry_multiplicity
 _atom_site_fract_x
 _atom_site_fract_y
 _atom_site_fract_z
 _atom_site_occupancy
  Er  Er0  1  0.600653  0.600653  0.600653  1
  Er  Er1  1  0.600653  0.600653  0.198039  1
  Er  Er2  1  0.600653  0.198039  0.600653  1
  Er  Er3  1  0.198039  0.600653  0.600653  1
  Er  Er4  1  0.059994  0.440006  0.440006  1
  Er  Er5  1  0.440006  0.059994  0.059994  1
  Er  Er6  1  0.440006  0.059994  0.440006  1
  Er  Er7  1  0.059994  0.440006  0.059994  1
  Er  Er8  1  0.440006  0.440006  0.059994  1
  Er  Er9  1  0.059994  0.059994  0.440006  1
  Er  Er10  1  0.188074  0.811926  0.811926  1
  Er  Er11  1  0.811926  0.188074  0.188074  1
  Er  Er12  1  0.811926  0.188074  0.811926  1
  Er  Er13  1  0.188074  0.811926  0.188074  1
  Er  Er14  1  0.811926  0.811926  0.188074  1
  Er  Er15  1  0.188074  0.188074  0.811926  1
  Hg  Hg16  1  0.834185  0.834185  0.834185  1
  Hg  Hg17  1  0.834185  0.834185  0.497444  1
  Hg  Hg18  1  0.834185  0.497444  0.834185  1
  Hg  Hg19  1  0.497444  0.834185  0.834185  1
  Ir  Ir20  1  0.392085  0.392085  0.392085  1
  Ir  Ir21  1  0.392085  0.392085  0.823745  1
  Ir  Ir22  1  0.392085  0.823745  0.392085  1
  Ir  Ir23  1  0.823745  0.392085  0.392085  1
