# generated using pymatgen
data_Tc6Se7F4
_symmetry_space_group_name_H-M   'P 1'
_cell_length_a   11.53360728
_cell_length_b   11.53360662
_cell_length_c   11.53360753
_cell_angle_alpha   49.83219796
_cell_angle_beta   49.83220082
_cell_angle_gamma   49.83219489
_symmetry_Int_Tables_number   1
_chemical_formula_structural   Tc6Se7F4
_chemical_formula_sum   'Tc12 Se14 F8'
_cell_volume   824.16133510
_cell_formula_units_Z   2
loop_
 _symmetry_equiv_pos_site_id
 _symmetry_equiv_pos_as_xyz
  1  'x, y, z'
loop_
 _atom_site_type_symbol
 _atom_site_label
 _atom_site_symmetry_multiplicity
 _atom_site_fract_x
 _atom_site_fract_y
 _atom_site_fract_z
 _atom_site_occupancy
  Tc  Tc0  1  0.559265  0.370500  0.678166  1
  Tc  Tc1  1  0.370500  0.678166  0.559265  1
  Tc  Tc2  1  0.678166  0.559265  0.370500  1
  Tc  Tc3  1  0.178166  0.870500  0.059265  1
  Tc  Tc4  1  0.870500  0.059265  0.178166  1
  Tc  Tc5  1  0.059265  0.178166  0.870500  1
  Tc  Tc6  1  0.442505  0.627692  0.323693  1
  Tc  Tc7  1  0.627692  0.323693  0.442505  1
  Tc  Tc8  1  0.323693  0.442505  0.627692  1
  Tc  Tc9  1  0.823693  0.127692  0.942505  1
  Tc  Tc10  1  0.127692  0.942505  0.823693  1
  Tc  Tc11  1  0.942505  0.823693  0.127692  1
  Se  Se12  1  0.850385  0.256157  0.486343  1
  Se  Se13  1  0.256157  0.486343  0.850385  1
  Se  Se14  1  0.486343  0.850385  0.256157  1
  Se  Se15  1  0.986343  0.756157  0.350385  1
  Se  Se16  1  0.756157  0.350385  0.986343  1
  Se  Se17  1  0.350385  0.986343  0.756157  1
  Se  Se18  1  0.148995  0.742773  0.510267  1
  Se  Se19  1  0.742773  0.510267  0.148995  1
  Se  Se20  1  0.510267  0.148995  0.742773  1
  Se  Se21  1  0.010267  0.242773  0.648995  1
  Se  Se22  1  0.242773  0.648995  0.010267  1
  Se  Se23  1  0.648995  0.010267  0.242773  1
  Se  Se24  1  0.602560  0.602560  0.602560  1
  Se  Se25  1  0.102560  0.102560  0.102560  1
  F  F26  1  0.879855  0.631803  0.229733  1
  F  F27  1  0.631803  0.229733  0.879855  1
  F  F28  1  0.229733  0.879855  0.631803  1
  F  F29  1  0.729733  0.131803  0.379855  1
  F  F30  1  0.131803  0.379855  0.729733  1
  F  F31  1  0.379855  0.729733  0.131803  1
  F  F32  1  0.409269  0.409269  0.409269  1
  F  F33  1  0.909269  0.909269  0.909269  1
