# generated using pymatgen
data_LiNd4Ag3As8
_symmetry_space_group_name_H-M   'P 1'
_cell_length_a   4.03633300
_cell_length_b   4.07224602
_cell_length_c   21.37335013
_cell_angle_alpha   89.98749819
_cell_angle_beta   90.00000000
_cell_angle_gamma   90.00000000
_symmetry_Int_Tables_number   1
_chemical_formula_structural   LiNd4Ag3As8
_chemical_formula_sum   'Li1 Nd4 Ag3 As8'
_cell_volume   351.31248690
_cell_formula_units_Z   1
loop_
 _symmetry_equiv_pos_site_id
 _symmetry_equiv_pos_as_xyz
  1  'x, y, z'
loop_
 _atom_site_type_symbol
 _atom_site_label
 _atom_site_symmetry_multiplicity
 _atom_site_fract_x
 _atom_site_fract_y
 _atom_site_fract_z
 _atom_site_occupancy
  Li  Li0  1  0.750000  0.726329  0.249912  1
  Nd  Nd1  1  0.250000  0.728865  0.115453  1
  Nd  Nd2  1  0.750000  0.227969  0.384076  1
  Nd  Nd3  1  0.250000  0.772489  0.615295  1
  Nd  Nd4  1  0.750000  0.272159  0.885064  1
  Ag  Ag5  1  0.250000  0.225768  0.250285  1
  Ag  Ag6  1  0.750000  0.773992  0.749749  1
  Ag  Ag7  1  0.250000  0.274047  0.750316  1
  As  As8  1  0.750000  0.226897  0.165567  1
  As  As9  1  0.250000  0.726338  0.334408  1
  As  As10  1  0.750000  0.273575  0.660389  1
  As  As11  1  0.250000  0.773352  0.839521  1
  As  As12  1  0.250000  0.212412  0.001332  1
  As  As13  1  0.750000  0.708179  0.498434  1
  As  As14  1  0.250000  0.290669  0.501062  1
  As  As15  1  0.750000  0.786959  0.999137  1
