# generated using pymatgen
data_La6YbNiBr12
_symmetry_space_group_name_H-M   'P 1'
_cell_length_a   9.72446660
_cell_length_b   9.73658999
_cell_length_c   9.72799676
_cell_angle_alpha   107.21907468
_cell_angle_beta   107.46080607
_cell_angle_gamma   106.70651642
_symmetry_Int_Tables_number   1
_chemical_formula_structural   La6YbNiBr12
_chemical_formula_sum   'La6 Yb1 Ni1 Br12'
_cell_volume   764.34420145
_cell_formula_units_Z   1
loop_
 _symmetry_equiv_pos_site_id
 _symmetry_equiv_pos_as_xyz
  1  'x, y, z'
loop_
 _atom_site_type_symbol
 _atom_site_label
 _atom_site_symmetry_multiplicity
 _atom_site_fract_x
 _atom_site_fract_y
 _atom_site_fract_z
 _atom_site_occupancy
  La  La0  1  0.314094  0.110630  0.025014  1
  La  La1  1  0.022860  0.314055  0.111659  1
  La  La2  1  0.113437  0.025363  0.315347  1
  La  La3  1  0.886563  0.974637  0.684654  1
  La  La4  1  0.977140  0.685946  0.888342  1
  La  La5  1  0.685907  0.889370  0.974987  1
  Yb  Yb6  1  0.500000  0.500000  0.500000  1
  Ni  Ni7  1  0.000000  0.000000  0.000000  1
  Br  Br8  1  0.678246  0.213291  0.065760  1
  Br  Br9  1  0.376885  0.460269  0.174835  1
  Br  Br10  1  0.067237  0.680178  0.212876  1
  Br  Br11  1  0.788585  0.934674  0.319868  1
  Br  Br12  1  0.463552  0.175351  0.380225  1
  Br  Br13  1  0.175634  0.379286  0.462513  1
  Br  Br14  1  0.824366  0.620715  0.537487  1
  Br  Br15  1  0.536448  0.824650  0.619775  1
  Br  Br16  1  0.211416  0.065327  0.680132  1
  Br  Br17  1  0.932763  0.319822  0.787125  1
  Br  Br18  1  0.623116  0.539731  0.825165  1
  Br  Br19  1  0.321755  0.786709  0.934240  1
