# generated using pymatgen
data_P4Ru4Pt3Rh
_symmetry_space_group_name_H-M   'P 1'
_cell_length_a   3.81590100
_cell_length_b   8.14774750
_cell_length_c   5.70962750
_cell_angle_alpha   90.41996016
_cell_angle_beta   90.00000000
_cell_angle_gamma   90.00000000
_symmetry_Int_Tables_number   1
_chemical_formula_structural   P4Ru4Pt3Rh
_chemical_formula_sum   'P4 Ru4 Pt3 Rh1'
_cell_volume   177.51324758
_cell_formula_units_Z   1
loop_
 _symmetry_equiv_pos_site_id
 _symmetry_equiv_pos_as_xyz
  1  'x, y, z'
loop_
 _atom_site_type_symbol
 _atom_site_label
 _atom_site_symmetry_multiplicity
 _atom_site_fract_x
 _atom_site_fract_y
 _atom_site_fract_z
 _atom_site_occupancy
  P  P0  1  0.250000  0.650812  0.676781  1
  P  P1  1  0.750000  0.343607  0.329608  1
  P  P2  1  0.250000  0.147246  0.812061  1
  P  P3  1  0.750000  0.855016  0.180322  1
  Ru  Ru4  1  0.250000  0.378667  0.565186  1
  Ru  Ru5  1  0.750000  0.621638  0.435530  1
  Ru  Ru6  1  0.250000  0.877336  0.937178  1
  Ru  Ru7  1  0.750000  0.124354  0.059569  1
  Pt  Pt8  1  0.250000  0.885593  0.435814  1
  Pt  Pt9  1  0.750000  0.614323  0.936076  1
  Pt  Pt10  1  0.250000  0.385796  0.065827  1
  Rh  Rh11  1  0.750000  0.115611  0.566047  1
