# generated using pymatgen
data_NdTh(BRu)4
_symmetry_space_group_name_H-M   'P 1'
_cell_length_a   6.78634721
_cell_length_b   6.00801999
_cell_length_c   5.60118595
_cell_angle_alpha   71.44685412
_cell_angle_beta   57.06623397
_cell_angle_gamma   51.48692183
_symmetry_Int_Tables_number   1
_chemical_formula_structural   NdTh(BRu)4
_chemical_formula_sum   'Nd1 Th1 B4 Ru4'
_cell_volume   149.90677048
_cell_formula_units_Z   1
loop_
 _symmetry_equiv_pos_site_id
 _symmetry_equiv_pos_as_xyz
  1  'x, y, z'
loop_
 _atom_site_type_symbol
 _atom_site_label
 _atom_site_symmetry_multiplicity
 _atom_site_fract_x
 _atom_site_fract_y
 _atom_site_fract_z
 _atom_site_occupancy
  Nd  Nd0  1  0.250000  0.250000  0.250000  1
  Th  Th1  1  0.000000  0.000000  0.000000  1
  B  B2  1  0.318303  0.681697  0.318303  1
  B  B3  1  0.681697  0.318303  0.681697  1
  B  B4  1  0.565954  0.934046  0.565954  1
  B  B5  1  0.934046  0.565954  0.934046  1
  Ru  Ru6  1  0.636511  0.636511  0.363489  1
  Ru  Ru7  1  0.363489  0.363489  0.636511  1
  Ru  Ru8  1  0.613382  0.613382  0.886618  1
  Ru  Ru9  1  0.886618  0.886618  0.613382  1
