# generated using pymatgen
data_La5Nd5(Sn3Cl)2
_symmetry_space_group_name_H-M   'P 1'
_cell_length_a   9.58279800
_cell_length_b   9.57164482
_cell_length_c   6.84160100
_cell_angle_alpha   90.00000000
_cell_angle_beta   90.00000000
_cell_angle_gamma   120.03854612
_symmetry_Int_Tables_number   1
_chemical_formula_structural   La5Nd5(Sn3Cl)2
_chemical_formula_sum   'La5 Nd5 Sn6 Cl2'
_cell_volume   543.24841070
_cell_formula_units_Z   1
loop_
 _symmetry_equiv_pos_site_id
 _symmetry_equiv_pos_as_xyz
  1  'x, y, z'
loop_
 _atom_site_type_symbol
 _atom_site_label
 _atom_site_symmetry_multiplicity
 _atom_site_fract_x
 _atom_site_fract_y
 _atom_site_fract_z
 _atom_site_occupancy
  La  La0  1  0.738919  0.739147  0.250000  1
  La  La1  1  0.999773  0.260853  0.250000  1
  La  La2  1  0.999924  0.738880  0.750000  1
  La  La3  1  0.261044  0.261120  0.750000  1
  La  La4  1  0.260802  0.000000  0.250000  1
  Nd  Nd5  1  0.666764  0.332925  0.999342  1
  Nd  Nd6  1  0.333838  0.667075  0.500658  1
  Nd  Nd7  1  0.666764  0.332925  0.500658  1
  Nd  Nd8  1  0.333838  0.667075  0.999342  1
  Nd  Nd9  1  0.738907  0.000000  0.750000  1
  Sn  Sn10  1  0.611553  0.613197  0.750000  1
  Sn  Sn11  1  0.999852  0.611101  0.250000  1
  Sn  Sn12  1  0.611291  0.000000  0.250000  1
  Sn  Sn13  1  0.391030  0.000000  0.750000  1
  Sn  Sn14  1  0.998357  0.386803  0.750000  1
  Sn  Sn15  1  0.388751  0.388899  0.250000  1
  Cl  Cl16  1  0.999297  0.000000  0.500802  1
  Cl  Cl17  1  0.999297  0.000000  0.999198  1
