# generated using pymatgen
data_HoPa3(CdPt2)2
_symmetry_space_group_name_H-M   'P 1'
_cell_length_a   7.84648154
_cell_length_b   7.84648154
_cell_length_c   3.63346500
_cell_angle_alpha   90.00000000
_cell_angle_beta   90.00000000
_cell_angle_gamma   90.97418467
_symmetry_Int_Tables_number   1
_chemical_formula_structural   HoPa3(CdPt2)2
_chemical_formula_sum   'Ho1 Pa3 Cd2 Pt4'
_cell_volume   223.67019556
_cell_formula_units_Z   1
loop_
 _symmetry_equiv_pos_site_id
 _symmetry_equiv_pos_as_xyz
  1  'x, y, z'
loop_
 _atom_site_type_symbol
 _atom_site_label
 _atom_site_symmetry_multiplicity
 _atom_site_fract_x
 _atom_site_fract_y
 _atom_site_fract_z
 _atom_site_occupancy
  Ho  Ho0  1  0.172390  0.327610  0.500000  1
  Pa  Pa1  1  0.328609  0.829972  0.500000  1
  Pa  Pa2  1  0.832256  0.667744  0.500000  1
  Pa  Pa3  1  0.670028  0.171391  0.500000  1
  Cd  Cd4  1  0.493152  0.497994  0.000000  1
  Cd  Cd5  1  0.002006  0.006848  0.000000  1
  Pt  Pt6  1  0.636717  0.863283  0.000000  1
  Pt  Pt7  1  0.126511  0.640836  0.000000  1
  Pt  Pt8  1  0.859164  0.373489  0.000000  1
  Pt  Pt9  1  0.379166  0.120834  0.000000  1
