# generated using pymatgen
data_Ca9Tm(Si3H)2
_symmetry_space_group_name_H-M   'P 1'
_cell_length_a   9.00170085
_cell_length_b   9.00170015
_cell_length_c   8.99555945
_cell_angle_alpha   129.91614001
_cell_angle_beta   129.91614447
_cell_angle_gamma   73.63195381
_symmetry_Int_Tables_number   1
_chemical_formula_structural   Ca9Tm(Si3H)2
_chemical_formula_sum   'Ca9 Tm1 Si6 H2'
_cell_volume   418.20604544
_cell_formula_units_Z   1
loop_
 _symmetry_equiv_pos_site_id
 _symmetry_equiv_pos_as_xyz
  1  'x, y, z'
loop_
 _atom_site_type_symbol
 _atom_site_label
 _atom_site_symmetry_multiplicity
 _atom_site_fract_x
 _atom_site_fract_y
 _atom_site_fract_z
 _atom_site_occupancy
  Ca  Ca0  1  0.496254  0.502217  0.999836  1
  Ca  Ca1  1  0.002217  0.996254  0.999836  1
  Ca  Ca2  1  0.180528  0.680528  0.159581  1
  Ca  Ca3  1  0.018087  0.180516  0.497810  1
  Ca  Ca4  1  0.680516  0.518087  0.497810  1
  Ca  Ca5  1  0.479994  0.979994  0.165801  1
  Ca  Ca6  1  0.815661  0.315661  0.836206  1
  Ca  Ca7  1  0.980689  0.817218  0.499375  1
  Ca  Ca8  1  0.317218  0.480689  0.499375  1
  Tm  Tm9  1  0.525277  0.025277  0.840163  1
  Si  Si10  1  0.258821  0.241871  0.993396  1
  Si  Si11  1  0.741871  0.758821  0.993396  1
  Si  Si12  1  0.880987  0.380987  0.264253  1
  Si  Si13  1  0.107836  0.607836  0.717275  1
  Si  Si14  1  0.387702  0.112314  0.508681  1
  Si  Si15  1  0.612314  0.887702  0.508681  1
  H  H16  1  0.263676  0.763676  0.515219  1
  H  H17  1  0.750353  0.250353  0.503306  1
