# generated using pymatgen
data_YbY3Mn3VB16
_symmetry_space_group_name_H-M   'P 1'
_cell_length_a   3.42263100
_cell_length_b   5.93214214
_cell_length_c   11.46409978
_cell_angle_alpha   90.03353811
_cell_angle_beta   90.00000000
_cell_angle_gamma   90.00000000
_symmetry_Int_Tables_number   1
_chemical_formula_structural   YbY3Mn3VB16
_chemical_formula_sum   'Yb1 Y3 Mn3 V1 B16'
_cell_volume   232.76169500
_cell_formula_units_Z   1
loop_
 _symmetry_equiv_pos_site_id
 _symmetry_equiv_pos_as_xyz
  1  'x, y, z'
loop_
 _atom_site_type_symbol
 _atom_site_label
 _atom_site_symmetry_multiplicity
 _atom_site_fract_x
 _atom_site_fract_y
 _atom_site_fract_z
 _atom_site_occupancy
  Yb  Yb0  1  0.000000  0.625519  0.350823  1
  Y  Y1  1  0.000000  0.374552  0.650141  1
  Y  Y2  1  0.000000  0.125385  0.151868  1
  Y  Y3  1  0.000000  0.876412  0.847837  1
  Mn  Mn4  1  0.000000  0.377208  0.917411  1
  Mn  Mn5  1  0.000000  0.125393  0.420947  1
  Mn  Mn6  1  0.000000  0.875597  0.581783  1
  V  V7  1  0.000000  0.624610  0.081369  1
  B  B8  1  0.500000  0.783493  0.186486  1
  B  B9  1  0.500000  0.220491  0.816467  1
  B  B10  1  0.500000  0.279479  0.317667  1
  B  B11  1  0.500000  0.720133  0.682258  1
  B  B12  1  0.500000  0.864812  0.031448  1
  B  B13  1  0.500000  0.138553  0.966149  1
  B  B14  1  0.500000  0.361614  0.467574  1
  B  B15  1  0.500000  0.638517  0.532017  1
  B  B16  1  0.500000  0.885991  0.453834  1
  B  B17  1  0.500000  0.110980  0.546754  1
  B  B18  1  0.500000  0.383884  0.044665  1
  B  B19  1  0.500000  0.610009  0.951078  1
  B  B20  1  0.500000  0.976305  0.310284  1
  B  B21  1  0.500000  0.024190  0.690301  1
  B  B22  1  0.500000  0.473475  0.192727  1
  B  B23  1  0.500000  0.523398  0.808110  1
