# generated using pymatgen
data_Nd2Cu17Si8Pt
_symmetry_space_group_name_H-M   'P 1'
_cell_length_a   8.17934223
_cell_length_b   8.17934313
_cell_length_c   8.16599369
_cell_angle_alpha   120.07525289
_cell_angle_beta   120.36421455
_cell_angle_gamma   89.71414293
_symmetry_Int_Tables_number   1
_chemical_formula_structural   Nd2Cu17Si8Pt
_chemical_formula_sum   'Nd2 Cu17 Si8 Pt1'
_cell_volume   384.69482603
_cell_formula_units_Z   1
loop_
 _symmetry_equiv_pos_site_id
 _symmetry_equiv_pos_as_xyz
  1  'x, y, z'
loop_
 _atom_site_type_symbol
 _atom_site_label
 _atom_site_symmetry_multiplicity
 _atom_site_fract_x
 _atom_site_fract_y
 _atom_site_fract_z
 _atom_site_occupancy
  Nd  Nd0  1  0.245638  0.249842  0.998114  1
  Nd  Nd1  1  0.748272  0.752476  0.998114  1
  Cu  Cu2  1  0.212508  0.055258  0.267766  1
  Cu  Cu3  1  0.793640  0.921020  0.714660  1
  Cu  Cu4  1  0.435297  0.297505  0.732803  1
  Cu  Cu5  1  0.065635  0.797846  0.863480  1
  Cu  Cu6  1  0.807359  0.059266  0.498929  1
  Cu  Cu7  1  0.559224  0.309256  0.504504  1
  Cu  Cu8  1  0.195246  0.945279  0.504504  1
  Cu  Cu9  1  0.439663  0.691571  0.498929  1
  Cu  Cu10  1  0.942856  0.441817  0.751733  1
  Cu  Cu11  1  0.684198  0.196693  0.252550  1
  Cu  Cu12  1  0.055856  0.568351  0.252550  1
  Cu  Cu13  1  0.699890  0.439964  0.139854  1
  Cu  Cu14  1  0.562894  0.702249  0.265142  1
  Cu  Cu15  1  0.503333  0.000708  0.504040  1
  Cu  Cu16  1  0.998807  0.506606  0.505413  1
  Cu  Cu17  1  0.309918  0.808879  0.751733  1
  Cu  Cu18  1  0.298299  0.562662  0.860962  1
  Si  Si19  1  0.793383  0.293203  0.851757  1
  Si  Si20  1  0.558554  0.058373  0.851757  1
  Si  Si21  1  0.057547  0.206602  0.499274  1
  Si  Si22  1  0.292672  0.441727  0.499274  1
  Si  Si23  1  0.943394  0.795157  0.499023  1
  Si  Si24  1  0.444153  0.939750  0.149151  1
  Si  Si25  1  0.209402  0.704998  0.149151  1
  Si  Si26  1  0.703867  0.555629  0.499023  1
  Pt  Pt27  1  0.938496  0.197312  0.135808  1
