# generated using pymatgen
data_SrEu3Ga4(SiO7)2
_symmetry_space_group_name_H-M   'P 1'
_cell_length_a   5.35708202
_cell_length_b   8.07429172
_cell_length_c   8.06247927
_cell_angle_alpha   89.71303889
_cell_angle_beta   89.99966908
_cell_angle_gamma   90.23326607
_symmetry_Int_Tables_number   1
_chemical_formula_structural   SrEu3Ga4(SiO7)2
_chemical_formula_sum   'Sr1 Eu3 Ga4 Si2 O14'
_cell_volume   348.73239867
_cell_formula_units_Z   1
loop_
 _symmetry_equiv_pos_site_id
 _symmetry_equiv_pos_as_xyz
  1  'x, y, z'
loop_
 _atom_site_type_symbol
 _atom_site_label
 _atom_site_symmetry_multiplicity
 _atom_site_fract_x
 _atom_site_fract_y
 _atom_site_fract_z
 _atom_site_occupancy
  Sr  Sr0  1  0.513815  0.828001  0.342470  1
  Eu  Eu1  1  0.485148  0.672967  0.842862  1
  Eu  Eu2  1  0.502648  0.153439  0.666708  1
  Eu  Eu3  1  0.496994  0.347374  0.165795  1
  Ga  Ga4  1  0.001424  0.496079  0.500581  1
  Ga  Ga5  1  0.999848  0.003945  0.000601  1
  Ga  Ga6  1  0.971387  0.641730  0.140880  1
  Ga  Ga7  1  0.028571  0.857047  0.643511  1
  Si  Si8  1  0.952029  0.357833  0.858121  1
  Si  Si9  1  0.047550  0.143017  0.358504  1
  O  O10  1  0.172917  0.004944  0.486079  1
  O  O11  1  0.825002  0.495099  0.984383  1
  O  O12  1  0.190903  0.319085  0.414069  1
  O  O13  1  0.809907  0.181092  0.914252  1
  O  O14  1  0.202666  0.663865  0.583006  1
  O  O15  1  0.797556  0.835230  0.080367  1
  O  O16  1  0.794285  0.569392  0.331396  1
  O  O17  1  0.208100  0.929573  0.832669  1
  O  O18  1  0.818354  0.400311  0.676106  1
  O  O19  1  0.180983  0.099644  0.176739  1
  O  O20  1  0.308580  0.633704  0.137464  1
  O  O21  1  0.691422  0.865522  0.644173  1
  O  O22  1  0.254266  0.353974  0.859306  1
  O  O23  1  0.745643  0.147132  0.359961  1
