# generated using pymatgen
data_YEr9(In2Bi)2
_symmetry_space_group_name_H-M   'P 1'
_cell_length_a   8.99000137
_cell_length_b   8.98354733
_cell_length_c   6.57112600
_cell_angle_alpha   90.00000000
_cell_angle_beta   90.00000000
_cell_angle_gamma   119.99282029
_symmetry_Int_Tables_number   1
_chemical_formula_structural   YEr9(In2Bi)2
_chemical_formula_sum   'Y1 Er9 In4 Bi2'
_cell_volume   459.63115685
_cell_formula_units_Z   1
loop_
 _symmetry_equiv_pos_site_id
 _symmetry_equiv_pos_as_xyz
  1  'x, y, z'
loop_
 _atom_site_type_symbol
 _atom_site_label
 _atom_site_symmetry_multiplicity
 _atom_site_fract_x
 _atom_site_fract_y
 _atom_site_fract_z
 _atom_site_occupancy
  Y  Y0  1  0.769753  0.761139  0.750000  1
  Er  Er1  1  0.670812  0.338051  0.006741  1
  Er  Er2  1  0.329110  0.667242  0.006678  1
  Er  Er3  1  0.329110  0.667242  0.493322  1
  Er  Er4  1  0.670812  0.338051  0.493259  1
  Er  Er5  1  0.230333  0.991227  0.750000  1
  Er  Er6  1  0.000090  0.241784  0.750000  1
  Er  Er7  1  0.236745  0.237247  0.250000  1
  Er  Er8  1  0.763075  0.000606  0.250000  1
  Er  Er9  1  0.000082  0.761579  0.250000  1
  In  In10  1  0.000276  0.597544  0.750000  1
  In  In11  1  0.604971  0.606881  0.250000  1
  In  In12  1  0.395134  0.001996  0.250000  1
  In  In13  1  0.999984  0.395788  0.250000  1
  Bi  Bi14  1  0.394958  0.394156  0.750000  1
  Bi  Bi15  1  0.604756  0.999466  0.750000  1
