# generated using pymatgen
data_Na2Cr3Ni9As7
_symmetry_space_group_name_H-M   'P 1'
_cell_length_a   9.53214700
_cell_length_b   9.53214736
_cell_length_c   3.73661500
_cell_angle_alpha   90.00000000
_cell_angle_beta   90.00000000
_cell_angle_gamma   119.99999715
_symmetry_Int_Tables_number   1
_chemical_formula_structural   Na2Cr3Ni9As7
_chemical_formula_sum   'Na2 Cr3 Ni9 As7'
_cell_volume   294.02920906
_cell_formula_units_Z   1
loop_
 _symmetry_equiv_pos_site_id
 _symmetry_equiv_pos_as_xyz
  1  'x, y, z'
loop_
 _atom_site_type_symbol
 _atom_site_label
 _atom_site_symmetry_multiplicity
 _atom_site_fract_x
 _atom_site_fract_y
 _atom_site_fract_z
 _atom_site_occupancy
  Na  Na0  1  0.333333  0.666667  0.000000  1
  Na  Na1  1  0.666667  0.333333  0.500000  1
  Cr  Cr2  1  0.226193  0.125123  0.500000  1
  Cr  Cr3  1  0.874877  0.101070  0.500000  1
  Cr  Cr4  1  0.898930  0.773807  0.500000  1
  Ni  Ni5  1  0.121180  0.279335  0.000000  1
  Ni  Ni6  1  0.720665  0.841845  0.000000  1
  Ni  Ni7  1  0.158155  0.878820  0.000000  1
  Ni  Ni8  1  0.428414  0.371924  0.000000  1
  Ni  Ni9  1  0.628076  0.056491  0.000000  1
  Ni  Ni10  1  0.943509  0.571586  0.000000  1
  Ni  Ni11  1  0.050117  0.434001  0.500000  1
  Ni  Ni12  1  0.565999  0.616116  0.500000  1
  Ni  Ni13  1  0.383884  0.949883  0.500000  1
  As  As14  1  0.291948  0.414664  0.500000  1
  As  As15  1  0.585336  0.877284  0.500000  1
  As  As16  1  0.122716  0.708052  0.500000  1
  As  As17  1  0.415890  0.119094  0.000000  1
  As  As18  1  0.880906  0.296796  0.000000  1
  As  As19  1  0.703204  0.584110  0.000000  1
  As  As20  1  0.000000  0.000000  0.000000  1
