# generated using pymatgen
data_Dy2Al8SiIr2Rh
_symmetry_space_group_name_H-M   'P 1'
_cell_length_a   7.52835114
_cell_length_b   7.52835138
_cell_length_c   9.35475400
_cell_angle_alpha   90.00000000
_cell_angle_beta   90.00000000
_cell_angle_gamma   119.56338659
_symmetry_Int_Tables_number   1
_chemical_formula_structural   Dy2Al8SiIr2Rh
_chemical_formula_sum   'Dy4 Al16 Si2 Ir4 Rh2'
_cell_volume   461.16539671
_cell_formula_units_Z   2
loop_
 _symmetry_equiv_pos_site_id
 _symmetry_equiv_pos_as_xyz
  1  'x, y, z'
loop_
 _atom_site_type_symbol
 _atom_site_label
 _atom_site_symmetry_multiplicity
 _atom_site_fract_x
 _atom_site_fract_y
 _atom_site_fract_z
 _atom_site_occupancy
  Dy  Dy0  1  0.994846  0.674381  0.750000  1
  Dy  Dy1  1  0.005154  0.325619  0.250000  1
  Dy  Dy2  1  0.674381  0.994846  0.750000  1
  Dy  Dy3  1  0.325619  0.005154  0.250000  1
  Al  Al4  1  0.001333  0.335989  0.576495  1
  Al  Al5  1  0.998667  0.664011  0.423505  1
  Al  Al6  1  0.998667  0.664011  0.076495  1
  Al  Al7  1  0.335989  0.001333  0.923505  1
  Al  Al8  1  0.001333  0.335989  0.923505  1
  Al  Al9  1  0.664011  0.998667  0.076495  1
  Al  Al10  1  0.664011  0.998667  0.423505  1
  Al  Al11  1  0.335989  0.001333  0.576495  1
  Al  Al12  1  0.335306  0.335306  0.056925  1
  Al  Al13  1  0.664694  0.664694  0.943075  1
  Al  Al14  1  0.664694  0.664694  0.556925  1
  Al  Al15  1  0.335306  0.335306  0.443075  1
  Al  Al16  1  0.335354  0.548078  0.750000  1
  Al  Al17  1  0.664646  0.451922  0.250000  1
  Al  Al18  1  0.548078  0.335354  0.750000  1
  Al  Al19  1  0.451922  0.664646  0.250000  1
  Si  Si20  1  0.127818  0.127818  0.750000  1
  Si  Si21  1  0.872182  0.872182  0.250000  1
  Ir  Ir22  1  0.671815  0.328185  0.500000  1
  Ir  Ir23  1  0.328185  0.671815  0.500000  1
  Ir  Ir24  1  0.328185  0.671815  0.000000  1
  Ir  Ir25  1  0.671815  0.328185  0.000000  1
  Rh  Rh26  1  0.000000  0.000000  0.500000  1
  Rh  Rh27  1  0.000000  0.000000  0.000000  1
