# generated using pymatgen
data_LuTa2Bi5O14
_symmetry_space_group_name_H-M   'P 1'
_cell_length_a   6.75630900
_cell_length_b   6.72507034
_cell_length_c   7.65269900
_cell_angle_alpha   90.00000000
_cell_angle_beta   90.00000000
_cell_angle_gamma   107.51794183
_symmetry_Int_Tables_number   1
_chemical_formula_structural   LuTa2Bi5O14
_chemical_formula_sum   'Lu1 Ta2 Bi5 O14'
_cell_volume   331.58705313
_cell_formula_units_Z   1
loop_
 _symmetry_equiv_pos_site_id
 _symmetry_equiv_pos_as_xyz
  1  'x, y, z'
loop_
 _atom_site_type_symbol
 _atom_site_label
 _atom_site_symmetry_multiplicity
 _atom_site_fract_x
 _atom_site_fract_y
 _atom_site_fract_z
 _atom_site_occupancy
  Lu  Lu0  1  0.004742  0.532967  0.250000  1
  Ta  Ta1  1  0.004665  0.006431  0.495963  1
  Ta  Ta2  1  0.004665  0.006431  0.004037  1
  Bi  Bi3  1  0.554371  0.550048  0.497224  1
  Bi  Bi4  1  0.554371  0.550048  0.002776  1
  Bi  Bi5  1  0.000406  0.481837  0.750000  1
  Bi  Bi6  1  0.511973  0.007527  0.750000  1
  Bi  Bi7  1  0.471934  0.992286  0.250000  1
  O  O8  1  0.955623  0.033463  0.750000  1
  O  O9  1  0.055747  0.918976  0.250000  1
  O  O10  1  0.343086  0.655966  0.250000  1
  O  O11  1  0.641916  0.382564  0.750000  1
  O  O12  1  0.361176  0.658936  0.750000  1
  O  O13  1  0.663901  0.417538  0.250000  1
  O  O14  1  0.299404  0.039790  0.962767  1
  O  O15  1  0.686238  0.908880  0.457956  1
  O  O16  1  0.299404  0.039790  0.537233  1
  O  O17  1  0.686238  0.908880  0.042044  1
  O  O18  1  0.025602  0.285657  0.441595  1
  O  O19  1  0.924470  0.668163  0.974274  1
  O  O20  1  0.924470  0.668163  0.525726  1
  O  O21  1  0.025602  0.285657  0.058405  1
