# generated using pymatgen
data_LaPr5RuI10
_symmetry_space_group_name_H-M   'P 1'
_cell_length_a   8.09366920
_cell_length_b   9.96769117
_cell_length_c   10.24139566
_cell_angle_alpha   107.82980260
_cell_angle_beta   97.33766343
_cell_angle_gamma   104.75621607
_symmetry_Int_Tables_number   1
_chemical_formula_structural   LaPr5RuI10
_chemical_formula_sum   'La1 Pr5 Ru1 I10'
_cell_volume   741.36944974
_cell_formula_units_Z   1
loop_
 _symmetry_equiv_pos_site_id
 _symmetry_equiv_pos_as_xyz
  1  'x, y, z'
loop_
 _atom_site_type_symbol
 _atom_site_label
 _atom_site_symmetry_multiplicity
 _atom_site_fract_x
 _atom_site_fract_y
 _atom_site_fract_z
 _atom_site_occupancy
  La  La0  1  0.530998  0.231838  0.421246  1
  Pr  Pr1  1  0.468166  0.772093  0.579931  1
  Pr  Pr2  1  0.138450  0.366964  0.325628  1
  Pr  Pr3  1  0.861533  0.633655  0.674274  1
  Pr  Pr4  1  0.618735  0.543892  0.252299  1
  Pr  Pr5  1  0.382067  0.456485  0.748133  1
  Ru  Ru6  1  0.501678  0.490238  0.497258  1
  I  I7  1  0.144523  0.043213  0.225082  1
  I  I8  1  0.849876  0.956172  0.772932  1
  I  I9  1  0.238692  0.411653  0.041387  1
  I  I10  1  0.761978  0.589260  0.959031  1
  I  I11  1  0.709396  0.239905  0.149929  1
  I  I12  1  0.292818  0.762060  0.847530  1
  I  I13  1  0.048466  0.684463  0.412805  1
  I  I14  1  0.954855  0.317582  0.588904  1
  I  I15  1  0.412420  0.130775  0.680021  1
  I  I16  1  0.585351  0.869749  0.323613  1
