# generated using pymatgen
data_Er5FeBi2
_symmetry_space_group_name_H-M   'P 1'
_cell_length_a   7.86295100
_cell_length_b   8.86339300
_cell_length_c   12.33920400
_cell_angle_alpha   90.00000000
_cell_angle_beta   90.00000000
_cell_angle_gamma   90.00000000
_symmetry_Int_Tables_number   1
_chemical_formula_structural   Er5FeBi2
_chemical_formula_sum   'Er20 Fe4 Bi8'
_cell_volume   859.94904751
_cell_formula_units_Z   4
loop_
 _symmetry_equiv_pos_site_id
 _symmetry_equiv_pos_as_xyz
  1  'x, y, z'
loop_
 _atom_site_type_symbol
 _atom_site_label
 _atom_site_symmetry_multiplicity
 _atom_site_fract_x
 _atom_site_fract_y
 _atom_site_fract_z
 _atom_site_occupancy
  Er  Er0  1  0.656508  0.750000  0.700762  1
  Er  Er1  1  0.343492  0.250000  0.299238  1
  Er  Er2  1  0.156508  0.250000  0.799238  1
  Er  Er3  1  0.843492  0.750000  0.200762  1
  Er  Er4  1  0.120938  0.750000  0.815808  1
  Er  Er5  1  0.879062  0.250000  0.184192  1
  Er  Er6  1  0.620938  0.250000  0.684192  1
  Er  Er7  1  0.379062  0.750000  0.315808  1
  Er  Er8  1  0.556082  0.750000  0.994472  1
  Er  Er9  1  0.443918  0.250000  0.005528  1
  Er  Er10  1  0.056082  0.250000  0.505528  1
  Er  Er11  1  0.943918  0.750000  0.494472  1
  Er  Er12  1  0.827637  0.463933  0.935932  1
  Er  Er13  1  0.172363  0.536067  0.064068  1
  Er  Er14  1  0.327637  0.536067  0.564068  1
  Er  Er15  1  0.172363  0.963933  0.064068  1
  Er  Er16  1  0.672363  0.463933  0.435932  1
  Er  Er17  1  0.827637  0.036067  0.935932  1
  Er  Er18  1  0.672363  0.036067  0.435932  1
  Er  Er19  1  0.327637  0.963933  0.564068  1
  Fe  Fe20  1  0.930272  0.750000  0.992271  1
  Fe  Fe21  1  0.069728  0.250000  0.007729  1
  Fe  Fe22  1  0.430272  0.250000  0.507729  1
  Fe  Fe23  1  0.569728  0.750000  0.492271  1
  Bi  Bi24  1  0.935133  0.005675  0.673624  1
  Bi  Bi25  1  0.064867  0.994325  0.326376  1
  Bi  Bi26  1  0.435133  0.994325  0.826376  1
  Bi  Bi27  1  0.064867  0.505675  0.326376  1
  Bi  Bi28  1  0.564867  0.005675  0.173624  1
  Bi  Bi29  1  0.935133  0.494325  0.673624  1
  Bi  Bi30  1  0.564867  0.494325  0.173624  1
  Bi  Bi31  1  0.435133  0.505675  0.826376  1
