# generated using pymatgen
data_Tb3Y3Ho2(Sc3Si4)4
_symmetry_space_group_name_H-M   'P 1'
_cell_length_a   7.10302013
_cell_length_b   7.39194711
_cell_length_c   14.00868700
_cell_angle_alpha   89.94595768
_cell_angle_beta   89.98545122
_cell_angle_gamma   90.02752858
_symmetry_Int_Tables_number   1
_chemical_formula_structural   Tb3Y3Ho2(Sc3Si4)4
_chemical_formula_sum   'Tb3 Y3 Ho2 Sc12 Si16'
_cell_volume   735.52776364
_cell_formula_units_Z   1
loop_
 _symmetry_equiv_pos_site_id
 _symmetry_equiv_pos_as_xyz
  1  'x, y, z'
loop_
 _atom_site_type_symbol
 _atom_site_label
 _atom_site_symmetry_multiplicity
 _atom_site_fract_x
 _atom_site_fract_y
 _atom_site_fract_z
 _atom_site_occupancy
  Tb  Tb0  1  0.987888  0.824701  0.596859  1
  Tb  Tb1  1  0.511980  0.324810  0.096990  1
  Tb  Tb2  1  0.012108  0.175304  0.403146  1
  Y  Y3  1  0.011791  0.175164  0.097000  1
  Y  Y4  1  0.988156  0.824768  0.902956  1
  Y  Y5  1  0.488133  0.675029  0.903148  1
  Ho  Ho6  1  0.511989  0.324668  0.403006  1
  Ho  Ho7  1  0.488041  0.675433  0.596955  1
  Sc  Sc8  1  0.160602  0.502211  0.749853  1
  Sc  Sc9  1  0.839329  0.497745  0.250136  1
  Sc  Sc10  1  0.339499  0.002374  0.250204  1
  Sc  Sc11  1  0.660436  0.997752  0.749774  1
  Sc  Sc12  1  0.330990  0.176985  0.625145  1
  Sc  Sc13  1  0.668946  0.823061  0.374842  1
  Sc  Sc14  1  0.169440  0.676512  0.374872  1
  Sc  Sc15  1  0.669228  0.823280  0.125400  1
  Sc  Sc16  1  0.830640  0.323405  0.625129  1
  Sc  Sc17  1  0.330801  0.176756  0.874693  1
  Sc  Sc18  1  0.830865  0.323315  0.874597  1
  Sc  Sc19  1  0.169294  0.676718  0.125340  1
  Si  Si20  1  0.033339  0.117610  0.749894  1
  Si  Si21  1  0.966644  0.882426  0.250070  1
  Si  Si22  1  0.466731  0.617195  0.250152  1
  Si  Si23  1  0.533327  0.382727  0.749781  1
  Si  Si24  1  0.285672  0.873787  0.749714  1
  Si  Si25  1  0.714215  0.126270  0.250231  1
  Si  Si26  1  0.214967  0.373963  0.250346  1
  Si  Si27  1  0.785068  0.625985  0.749646  1
  Si  Si28  1  0.158400  0.464834  0.539478  1
  Si  Si29  1  0.841591  0.535152  0.460512  1
  Si  Si30  1  0.342745  0.964684  0.460589  1
  Si  Si31  1  0.842384  0.535462  0.039527  1
  Si  Si32  1  0.657261  0.035327  0.539388  1
  Si  Si33  1  0.157402  0.464339  0.960518  1
  Si  Si34  1  0.657525  0.035679  0.960598  1
  Si  Si35  1  0.342568  0.964570  0.039513  1
