# generated using pymatgen
data_Er4Zn4Ir3Pt
_symmetry_space_group_name_H-M   'P 1'
_cell_length_a   4.04930200
_cell_length_b   6.94672520
_cell_length_c   8.12372943
_cell_angle_alpha   89.93221479
_cell_angle_beta   90.00000000
_cell_angle_gamma   90.00000000
_symmetry_Int_Tables_number   1
_chemical_formula_structural   Er4Zn4Ir3Pt
_chemical_formula_sum   'Er4 Zn4 Ir3 Pt1'
_cell_volume   228.51537948
_cell_formula_units_Z   1
loop_
 _symmetry_equiv_pos_site_id
 _symmetry_equiv_pos_as_xyz
  1  'x, y, z'
loop_
 _atom_site_type_symbol
 _atom_site_label
 _atom_site_symmetry_multiplicity
 _atom_site_fract_x
 _atom_site_fract_y
 _atom_site_fract_z
 _atom_site_occupancy
  Er  Er0  1  0.250000  0.036435  0.321365  1
  Er  Er1  1  0.250000  0.546280  0.183313  1
  Er  Er2  1  0.750000  0.958971  0.681870  1
  Er  Er3  1  0.750000  0.461912  0.814413  1
  Zn  Zn4  1  0.250000  0.636724  0.563912  1
  Zn  Zn5  1  0.250000  0.134936  0.933707  1
  Zn  Zn6  1  0.750000  0.364206  0.438219  1
  Zn  Zn7  1  0.750000  0.860890  0.063830  1
  Ir  Ir8  1  0.250000  0.252906  0.622738  1
  Ir  Ir9  1  0.250000  0.751937  0.878012  1
  Ir  Ir10  1  0.750000  0.747751  0.376212  1
  Pt  Pt11  1  0.750000  0.247052  0.122408  1
