# generated using pymatgen
data_Tb2YbEr(Al8Pt3)3
_symmetry_space_group_name_H-M   'P 1'
_cell_length_a   7.52777507
_cell_length_b   7.52982118
_cell_length_c   13.19955063
_cell_angle_alpha   84.57593352
_cell_angle_beta   100.90464725
_cell_angle_gamma   119.81181799
_symmetry_Int_Tables_number   1
_chemical_formula_structural   Tb2YbEr(Al8Pt3)3
_chemical_formula_sum   'Tb2 Yb1 Er1 Al24 Pt9'
_cell_volume   637.45254502
_cell_formula_units_Z   1
loop_
 _symmetry_equiv_pos_site_id
 _symmetry_equiv_pos_as_xyz
  1  'x, y, z'
loop_
 _atom_site_type_symbol
 _atom_site_label
 _atom_site_symmetry_multiplicity
 _atom_site_fract_x
 _atom_site_fract_y
 _atom_site_fract_z
 _atom_site_occupancy
  Tb  Tb0  1  0.268304  0.001480  0.808161  1
  Tb  Tb1  1  0.062361  0.668564  0.192034  1
  Yb  Yb2  1  0.732802  0.998559  0.192217  1
  Er  Er3  1  0.936850  0.330674  0.807708  1
  Al  Al4  1  0.807165  0.869239  0.815419  1
  Al  Al5  1  0.194631  0.130702  0.184032  1
  Al  Al6  1  0.981606  0.665745  0.943438  1
  Al  Al7  1  0.017640  0.333488  0.055052  1
  Al  Al8  1  0.397787  0.663981  0.816489  1
  Al  Al9  1  0.602761  0.338708  0.183037  1
  Al  Al10  1  0.882149  0.664883  0.671291  1
  Al  Al11  1  0.116837  0.333583  0.329393  1
  Al  Al12  1  0.603389  0.458849  0.816142  1
  Al  Al13  1  0.394325  0.540147  0.183425  1
  Al  Al14  1  0.229981  0.340024  0.669606  1
  Al  Al15  1  0.769597  0.660962  0.331044  1
  Al  Al16  1  0.853437  0.333338  0.559350  1
  Al  Al17  1  0.185753  0.999380  0.559202  1
  Al  Al18  1  0.814108  0.000495  0.441045  1
  Al  Al19  1  0.352719  0.999615  0.055293  1
  Al  Al20  1  0.648055  0.000671  0.944645  1
  Al  Al21  1  0.556866  0.993513  0.671505  1
  Al  Al22  1  0.445187  0.007141  0.329338  1
  Al  Al23  1  0.521267  0.667995  0.561929  1
  Al  Al24  1  0.479173  0.332290  0.438984  1
  Al  Al25  1  0.683139  0.667902  0.045807  1
  Al  Al26  1  0.315759  0.332110  0.952743  1
  Al  Al27  1  0.146908  0.666292  0.441779  1
  Pt  Pt28  1  0.328159  0.670915  0.999148  1
  Pt  Pt29  1  0.546476  0.325040  0.637635  1
  Pt  Pt30  1  0.453720  0.674360  0.363197  1
  Pt  Pt31  1  0.887850  0.008455  0.638622  1
  Pt  Pt32  1  0.113355  0.992416  0.362146  1
  Pt  Pt33  1  0.670928  0.328526  0.999066  1
  Pt  Pt34  1  0.203677  0.666350  0.638902  1
  Pt  Pt35  1  0.795338  0.333258  0.362178  1
  Pt  Pt36  1  0.999943  0.000351  0.998997  1
