# generated using pymatgen
data_Pr10PdRh7
_symmetry_space_group_name_H-M   'P 1'
_cell_length_a   7.66313300
_cell_length_b   7.79021319
_cell_length_c   15.15323034
_cell_angle_alpha   89.84336527
_cell_angle_beta   90.00000000
_cell_angle_gamma   90.00000000
_symmetry_Int_Tables_number   1
_chemical_formula_structural   Pr10PdRh7
_chemical_formula_sum   'Pr20 Pd2 Rh14'
_cell_volume   904.60567451
_cell_formula_units_Z   2
loop_
 _symmetry_equiv_pos_site_id
 _symmetry_equiv_pos_as_xyz
  1  'x, y, z'
loop_
 _atom_site_type_symbol
 _atom_site_label
 _atom_site_symmetry_multiplicity
 _atom_site_fract_x
 _atom_site_fract_y
 _atom_site_fract_z
 _atom_site_occupancy
  Pr  Pr0  1  0.661076  0.173438  0.624642  1
  Pr  Pr1  1  0.161076  0.326562  0.875358  1
  Pr  Pr2  1  0.340281  0.837113  0.123281  1
  Pr  Pr3  1  0.840281  0.662887  0.376719  1
  Pr  Pr4  1  0.332502  0.831310  0.377268  1
  Pr  Pr5  1  0.832502  0.668690  0.122732  1
  Pr  Pr6  1  0.660988  0.169460  0.878782  1
  Pr  Pr7  1  0.160988  0.330540  0.621218  1
  Pr  Pr8  1  0.511952  0.678834  0.594965  1
  Pr  Pr9  1  0.011952  0.821166  0.905035  1
  Pr  Pr10  1  0.490859  0.315600  0.094365  1
  Pr  Pr11  1  0.990859  0.184400  0.405635  1
  Pr  Pr12  1  0.485705  0.321339  0.407537  1
  Pr  Pr13  1  0.985705  0.178661  0.092463  1
  Pr  Pr14  1  0.516128  0.682690  0.906073  1
  Pr  Pr15  1  0.016128  0.817310  0.593927  1
  Pr  Pr16  1  0.825222  0.513928  0.750505  1
  Pr  Pr17  1  0.325222  0.986072  0.749495  1
  Pr  Pr18  1  0.178468  0.486935  0.249452  1
  Pr  Pr19  1  0.678468  0.013065  0.250548  1
  Pd  Pd20  1  0.673562  0.967978  0.460604  1
  Pd  Pd21  1  0.173562  0.532022  0.039396  1
  Rh  Rh22  1  0.322011  0.029925  0.959951  1
  Rh  Rh23  1  0.822011  0.470075  0.540049  1
  Rh  Rh24  1  0.324313  0.029617  0.539756  1
  Rh  Rh25  1  0.824313  0.470383  0.960244  1
  Rh  Rh26  1  0.675396  0.971708  0.042263  1
  Rh  Rh27  1  0.175396  0.528292  0.457737  1
  Rh  Rh28  1  0.456297  0.399521  0.750431  1
  Rh  Rh29  1  0.956297  0.100479  0.749569  1
  Rh  Rh30  1  0.542981  0.601439  0.250066  1
  Rh  Rh31  1  0.042981  0.898561  0.249934  1
  Rh  Rh32  1  0.699968  0.856936  0.749965  1
  Rh  Rh33  1  0.199968  0.643064  0.750035  1
  Rh  Rh34  1  0.302292  0.144700  0.249845  1
  Rh  Rh35  1  0.802292  0.355300  0.250155  1
