# generated using pymatgen
data_TbNb(SnRu2)2
_symmetry_space_group_name_H-M   'P 1'
_cell_length_a   4.60524900
_cell_length_b   6.51364700
_cell_length_c   13.82837301
_cell_angle_alpha   90.00028161
_cell_angle_beta   90.00040841
_cell_angle_gamma   89.99965868
_symmetry_Int_Tables_number   1
_chemical_formula_structural   TbNb(SnRu2)2
_chemical_formula_sum   'Tb3 Nb3 Sn6 Ru12'
_cell_volume   414.80924003
_cell_formula_units_Z   3
loop_
 _symmetry_equiv_pos_site_id
 _symmetry_equiv_pos_as_xyz
  1  'x, y, z'
loop_
 _atom_site_type_symbol
 _atom_site_label
 _atom_site_symmetry_multiplicity
 _atom_site_fract_x
 _atom_site_fract_y
 _atom_site_fract_z
 _atom_site_occupancy
  Tb  Tb0  1  0.999997  0.000066  0.997317  1
  Tb  Tb1  1  0.499969  0.499929  0.166671  1
  Tb  Tb2  1  0.999969  0.000068  0.335994  1
  Nb  Nb3  1  0.499994  0.500004  0.499891  1
  Nb  Nb4  1  0.000025  0.999992  0.666665  1
  Nb  Nb5  1  0.500020  0.500010  0.833454  1
  Sn  Sn6  1  0.999981  0.500037  0.999162  1
  Sn  Sn7  1  0.500014  0.999853  0.166661  1
  Sn  Sn8  1  0.999937  0.500030  0.334185  1
  Sn  Sn9  1  0.500006  0.000030  0.503612  1
  Sn  Sn10  1  0.000022  0.499967  0.666650  1
  Sn  Sn11  1  0.500043  0.000024  0.829717  1
  Ru  Ru12  1  0.499999  0.260722  0.987281  1
  Ru  Ru13  1  0.499993  0.739289  0.987253  1
  Ru  Ru14  1  0.999984  0.247769  0.166661  1
  Ru  Ru15  1  0.999984  0.752211  0.166658  1
  Ru  Ru16  1  0.499966  0.260730  0.346058  1
  Ru  Ru17  1  0.499968  0.739282  0.346087  1
  Ru  Ru18  1  0.999992  0.257512  0.509709  1
  Ru  Ru19  1  0.000004  0.742468  0.509715  1
  Ru  Ru20  1  0.500044  0.247280  0.666665  1
  Ru  Ru21  1  0.500052  0.752749  0.666668  1
  Ru  Ru22  1  0.000023  0.257535  0.823634  1
  Ru  Ru23  1  0.000014  0.742448  0.823633  1
