# generated using pymatgen
data_CaPr4Ga3
_symmetry_space_group_name_H-M   'P 1'
_cell_length_a   9.22646594
_cell_length_b   9.22646568
_cell_length_c   9.22646398
_cell_angle_alpha   129.02579202
_cell_angle_beta   129.02579063
_cell_angle_gamma   74.96907839
_symmetry_Int_Tables_number   1
_chemical_formula_structural   CaPr4Ga3
_chemical_formula_sum   'Ca2 Pr8 Ga6'
_cell_volume   461.61648188
_cell_formula_units_Z   2
loop_
 _symmetry_equiv_pos_site_id
 _symmetry_equiv_pos_as_xyz
  1  'x, y, z'
loop_
 _atom_site_type_symbol
 _atom_site_label
 _atom_site_symmetry_multiplicity
 _atom_site_fract_x
 _atom_site_fract_y
 _atom_site_fract_z
 _atom_site_occupancy
  Ca  Ca0  1  0.500000  0.500000  0.000000  1
  Ca  Ca1  1  0.000000  0.000000  0.000000  1
  Pr  Pr2  1  0.523266  0.023266  0.844449  1
  Pr  Pr3  1  0.178816  0.678816  0.155551  1
  Pr  Pr4  1  0.023266  0.178816  0.500000  1
  Pr  Pr5  1  0.678816  0.523266  0.500000  1
  Pr  Pr6  1  0.476734  0.976734  0.155551  1
  Pr  Pr7  1  0.821184  0.321184  0.844449  1
  Pr  Pr8  1  0.976734  0.821184  0.500000  1
  Pr  Pr9  1  0.321184  0.476734  0.500000  1
  Ga  Ga10  1  0.250000  0.250000  0.000000  1
  Ga  Ga11  1  0.750000  0.750000  0.000000  1
  Ga  Ga12  1  0.882592  0.382592  0.265183  1
  Ga  Ga13  1  0.117408  0.617408  0.734817  1
  Ga  Ga14  1  0.382592  0.117408  0.500000  1
  Ga  Ga15  1  0.617408  0.882592  0.500000  1
