# generated using pymatgen
data_Th10ZnGaSn6
_symmetry_space_group_name_H-M   'P 1'
_cell_length_a   9.60231600
_cell_length_b   9.60231685
_cell_length_c   6.54892000
_cell_angle_alpha   90.00000000
_cell_angle_beta   90.00000000
_cell_angle_gamma   120.00000395
_symmetry_Int_Tables_number   1
_chemical_formula_structural   Th10ZnGaSn6
_chemical_formula_sum   'Th10 Zn1 Ga1 Sn6'
_cell_volume   522.94055825
_cell_formula_units_Z   1
loop_
 _symmetry_equiv_pos_site_id
 _symmetry_equiv_pos_as_xyz
  1  'x, y, z'
loop_
 _atom_site_type_symbol
 _atom_site_label
 _atom_site_symmetry_multiplicity
 _atom_site_fract_x
 _atom_site_fract_y
 _atom_site_fract_z
 _atom_site_occupancy
  Th  Th0  1  0.731844  0.731844  0.748493  1
  Th  Th1  1  0.268156  0.000000  0.748493  1
  Th  Th2  1  0.000000  0.268156  0.748493  1
  Th  Th3  1  0.268156  0.268156  0.251507  1
  Th  Th4  1  0.731844  0.000000  0.251507  1
  Th  Th5  1  0.000000  0.731844  0.251507  1
  Th  Th6  1  0.666667  0.333333  0.000000  1
  Th  Th7  1  0.333333  0.666667  0.000000  1
  Th  Th8  1  0.333333  0.666667  0.500000  1
  Th  Th9  1  0.666667  0.333333  0.500000  1
  Zn  Zn10  1  0.000000  0.000000  0.000000  1
  Ga  Ga11  1  0.000000  0.000000  0.500000  1
  Sn  Sn12  1  0.380722  0.380722  0.750719  1
  Sn  Sn13  1  0.619278  0.000000  0.750719  1
  Sn  Sn14  1  0.000000  0.619278  0.750719  1
  Sn  Sn15  1  0.619278  0.619278  0.249281  1
  Sn  Sn16  1  0.380722  0.000000  0.249281  1
  Sn  Sn17  1  0.000000  0.380722  0.249281  1
