# generated using pymatgen
data_La12CuIr2Os
_symmetry_space_group_name_H-M   'P 1'
_cell_length_a   6.63588215
_cell_length_b   7.44201693
_cell_length_c   10.20823100
_cell_angle_alpha   90.00000000
_cell_angle_beta   90.00000000
_cell_angle_gamma   89.97474378
_symmetry_Int_Tables_number   1
_chemical_formula_structural   La12CuIr2Os
_chemical_formula_sum   'La12 Cu1 Ir2 Os1'
_cell_volume   504.12677596
_cell_formula_units_Z   1
loop_
 _symmetry_equiv_pos_site_id
 _symmetry_equiv_pos_as_xyz
  1  'x, y, z'
loop_
 _atom_site_type_symbol
 _atom_site_label
 _atom_site_symmetry_multiplicity
 _atom_site_fract_x
 _atom_site_fract_y
 _atom_site_fract_z
 _atom_site_occupancy
  La  La0  1  0.337591  0.668345  0.068252  1
  La  La1  1  0.174905  0.178121  0.436058  1
  La  La2  1  0.673699  0.327717  0.566904  1
  La  La3  1  0.828781  0.829456  0.929681  1
  La  La4  1  0.673699  0.327717  0.933096  1
  La  La5  1  0.828781  0.829456  0.570319  1
  La  La6  1  0.337591  0.668345  0.431748  1
  La  La7  1  0.174905  0.178121  0.063942  1
  La  La8  1  0.849049  0.523278  0.250000  1
  La  La9  1  0.631234  0.047015  0.250000  1
  La  La10  1  0.150432  0.459555  0.750000  1
  La  La11  1  0.349872  0.957576  0.750000  1
  Cu  Cu12  1  0.061698  0.884016  0.250000  1
  Ir  Ir13  1  0.933217  0.121065  0.750000  1
  Ir  Ir14  1  0.567447  0.619877  0.750000  1
  Os  Os15  1  0.427099  0.380340  0.250000  1
