# generated using pymatgen
data_Sm8Rh(IO8)3
_symmetry_space_group_name_H-M   'P 1'
_cell_length_a   5.60238305
_cell_length_b   7.85343098
_cell_length_c   11.85114672
_cell_angle_alpha   76.17060128
_cell_angle_beta   89.71400832
_cell_angle_gamma   89.77721967
_symmetry_Int_Tables_number   1
_chemical_formula_structural   Sm8Rh(IO8)3
_chemical_formula_sum   'Sm8 Rh1 I3 O24'
_cell_volume   506.30242949
_cell_formula_units_Z   1
loop_
 _symmetry_equiv_pos_site_id
 _symmetry_equiv_pos_as_xyz
  1  'x, y, z'
loop_
 _atom_site_type_symbol
 _atom_site_label
 _atom_site_symmetry_multiplicity
 _atom_site_fract_x
 _atom_site_fract_y
 _atom_site_fract_z
 _atom_site_occupancy
  Sm  Sm0  1  0.739000  0.981299  0.752705  1
  Sm  Sm1  1  0.254758  0.019349  0.252044  1
  Sm  Sm2  1  0.194830  0.776880  0.585042  1
  Sm  Sm3  1  0.824624  0.802148  0.067068  1
  Sm  Sm4  1  0.681661  0.505466  0.755889  1
  Sm  Sm5  1  0.309946  0.499190  0.243750  1
  Sm  Sm6  1  0.179411  0.201538  0.925624  1
  Sm  Sm7  1  0.811424  0.221226  0.419408  1
  Rh  Rh8  1  0.252090  0.722901  0.884277  1
  I  I9  1  0.745728  0.733178  0.381943  1
  I  I10  1  0.252169  0.266989  0.620631  1
  I  I11  1  0.736395  0.288680  0.107004  1
  O  O12  1  0.028895  0.943493  0.890862  1
  O  O13  1  0.521196  0.841629  0.931731  1
  O  O14  1  0.927945  0.940036  0.394677  1
  O  O15  1  0.467227  0.778635  0.724581  1
  O  O16  1  0.469092  0.834100  0.434850  1
  O  O17  1  0.979837  0.704520  0.767700  1
  O  O18  1  0.586401  0.818745  0.233577  1
  O  O19  1  0.850623  0.640811  0.536032  1
  O  O20  1  0.358765  0.490424  0.881978  1
  O  O21  1  0.019369  0.700175  0.287517  1
  O  O22  1  0.374344  0.489749  0.621243  1
  O  O23  1  0.824471  0.348978  0.939169  1
  O  O24  1  0.142331  0.635030  0.047225  1
  O  O25  1  0.624153  0.511187  0.379339  1
  O  O26  1  0.984519  0.295477  0.718398  1
  O  O27  1  0.618595  0.516719  0.101513  1
  O  O28  1  0.138512  0.365691  0.472060  1
  O  O29  1  0.427269  0.188074  0.766795  1
  O  O30  1  0.059965  0.278930  0.261298  1
  O  O31  1  0.522420  0.164131  0.565755  1
  O  O32  1  0.547417  0.229539  0.270440  1
  O  O33  1  0.066226  0.057558  0.607660  1
  O  O34  1  0.471450  0.163704  0.069579  1
  O  O35  1  0.006940  0.043821  0.100635  1
