# generated using pymatgen
data_Ho6ZrCo17P12
_symmetry_space_group_name_H-M   'P 1'
_cell_length_a   3.70986400
_cell_length_b   10.59686300
_cell_length_c   12.31028400
_cell_angle_alpha   90.00000000
_cell_angle_beta   90.00000000
_cell_angle_gamma   90.00000000
_symmetry_Int_Tables_number   1
_chemical_formula_structural   Ho6ZrCo17P12
_chemical_formula_sum   'Ho6 Zr1 Co17 P12'
_cell_volume   483.95321692
_cell_formula_units_Z   1
loop_
 _symmetry_equiv_pos_site_id
 _symmetry_equiv_pos_as_xyz
  1  'x, y, z'
loop_
 _atom_site_type_symbol
 _atom_site_label
 _atom_site_symmetry_multiplicity
 _atom_site_fract_x
 _atom_site_fract_y
 _atom_site_fract_z
 _atom_site_occupancy
  Ho  Ho0  1  0.000000  0.500000  0.529204  1
  Ho  Ho1  1  0.500000  0.000000  0.477922  1
  Ho  Ho2  1  0.500000  0.821565  0.207423  1
  Ho  Ho3  1  0.500000  0.178435  0.207423  1
  Ho  Ho4  1  0.000000  0.682951  0.795818  1
  Ho  Ho5  1  0.000000  0.317049  0.795818  1
  Zr  Zr6  1  0.500000  0.500000  0.154312  1
  Co  Co7  1  0.000000  0.500000  0.982921  1
  Co  Co8  1  0.500000  0.000000  0.013815  1
  Co  Co9  1  0.500000  0.294193  0.434688  1
  Co  Co10  1  0.500000  0.705807  0.434688  1
  Co  Co11  1  0.000000  0.201727  0.570500  1
  Co  Co12  1  0.000000  0.798273  0.570500  1
  Co  Co13  1  0.500000  0.880170  0.707576  1
  Co  Co14  1  0.500000  0.119830  0.707576  1
  Co  Co15  1  0.000000  0.623137  0.297736  1
  Co  Co16  1  0.000000  0.376863  0.297736  1
  Co  Co17  1  0.500000  0.326854  0.987840  1
  Co  Co18  1  0.500000  0.673146  0.987840  1
  Co  Co19  1  0.000000  0.161316  0.001400  1
  Co  Co20  1  0.000000  0.838684  0.001400  1
  Co  Co21  1  0.000000  0.000000  0.836750  1
  Co  Co22  1  0.500000  0.500000  0.702514  1
  Co  Co23  1  0.000000  0.000000  0.296607  1
  P  P24  1  0.500000  0.309292  0.618061  1
  P  P25  1  0.500000  0.690708  0.618061  1
  P  P26  1  0.000000  0.187851  0.386490  1
  P  P27  1  0.000000  0.812149  0.386490  1
  P  P28  1  0.500000  0.500000  0.881006  1
  P  P29  1  0.000000  0.000000  0.116848  1
  P  P30  1  0.500000  0.852452  0.888233  1
  P  P31  1  0.500000  0.147548  0.888233  1
  P  P32  1  0.000000  0.665434  0.099827  1
  P  P33  1  0.000000  0.334566  0.099827  1
  P  P34  1  0.500000  0.500000  0.362171  1
  P  P35  1  0.000000  0.000000  0.654747  1
