# generated using pymatgen
data_Er2Lu2Sc2CoTe2
_symmetry_space_group_name_H-M   'P 1'
_cell_length_a   3.88616200
_cell_length_b   8.12355551
_cell_length_c   8.12355647
_cell_angle_alpha   121.04496021
_cell_angle_beta   90.00000000
_cell_angle_gamma   90.00000000
_symmetry_Int_Tables_number   1
_chemical_formula_structural   Er2Lu2Sc2CoTe2
_chemical_formula_sum   'Er2 Lu2 Sc2 Co1 Te2'
_cell_volume   219.72218127
_cell_formula_units_Z   1
loop_
 _symmetry_equiv_pos_site_id
 _symmetry_equiv_pos_as_xyz
  1  'x, y, z'
loop_
 _atom_site_type_symbol
 _atom_site_label
 _atom_site_symmetry_multiplicity
 _atom_site_fract_x
 _atom_site_fract_y
 _atom_site_fract_z
 _atom_site_occupancy
  Er  Er0  1  0.000000  0.999812  0.601586  1
  Er  Er1  1  0.000000  0.601586  0.999812  1
  Lu  Lu2  1  0.500000  0.770764  0.770764  1
  Lu  Lu3  1  0.000000  0.379474  0.379474  1
  Sc  Sc4  1  0.500000  0.994375  0.226449  1
  Sc  Sc5  1  0.500000  0.226449  0.994375  1
  Co  Co6  1  0.000000  0.036001  0.036001  1
  Te  Te7  1  0.500000  0.662366  0.329173  1
  Te  Te8  1  0.500000  0.329173  0.662366  1
