# generated using pymatgen
data_La5CdAu4
_symmetry_space_group_name_H-M   'P 1'
_cell_length_a   8.41768100
_cell_length_b   8.41768100
_cell_length_c   4.02315100
_cell_angle_alpha   90.00000000
_cell_angle_beta   90.00000000
_cell_angle_gamma   90.00000000
_symmetry_Int_Tables_number   1
_chemical_formula_structural   La5CdAu4
_chemical_formula_sum   'La5 Cd1 Au4'
_cell_volume   285.06983226
_cell_formula_units_Z   1
loop_
 _symmetry_equiv_pos_site_id
 _symmetry_equiv_pos_as_xyz
  1  'x, y, z'
loop_
 _atom_site_type_symbol
 _atom_site_label
 _atom_site_symmetry_multiplicity
 _atom_site_fract_x
 _atom_site_fract_y
 _atom_site_fract_z
 _atom_site_occupancy
  La  La0  1  0.642259  0.191528  0.500000  1
  La  La1  1  0.357741  0.808472  0.500000  1
  La  La2  1  0.191528  0.357741  0.500000  1
  La  La3  1  0.808472  0.642259  0.500000  1
  La  La4  1  0.000000  0.000000  0.000000  1
  Cd  Cd5  1  0.500000  0.500000  0.000000  1
  Au  Au6  1  0.118970  0.640044  0.000000  1
  Au  Au7  1  0.881030  0.359956  0.000000  1
  Au  Au8  1  0.640044  0.881030  0.000000  1
  Au  Au9  1  0.359956  0.118970  0.000000  1
