# generated using pymatgen
data_Li3V3Zn(CoO6)2
_symmetry_space_group_name_H-M   'P 1'
_cell_length_a   8.89292723
_cell_length_b   8.89758078
_cell_length_c   8.89829009
_cell_angle_alpha   107.84231397
_cell_angle_beta   107.82404979
_cell_angle_gamma   107.80705533
_symmetry_Int_Tables_number   1
_chemical_formula_structural   Li3V3Zn(CoO6)2
_chemical_formula_sum   'Li6 V6 Zn2 Co4 O24'
_cell_volume   572.66678113
_cell_formula_units_Z   2
loop_
 _symmetry_equiv_pos_site_id
 _symmetry_equiv_pos_as_xyz
  1  'x, y, z'
loop_
 _atom_site_type_symbol
 _atom_site_label
 _atom_site_symmetry_multiplicity
 _atom_site_fract_x
 _atom_site_fract_y
 _atom_site_fract_z
 _atom_site_occupancy
  Li  Li0  1  0.204039  0.438598  0.610208  1
  Li  Li1  1  0.439243  0.610500  0.204330  1
  Li  Li2  1  0.610387  0.204038  0.438520  1
  Li  Li3  1  0.897079  0.724040  0.125292  1
  Li  Li4  1  0.723911  0.125162  0.896903  1
  Li  Li5  1  0.125278  0.897516  0.724230  1
  V  V6  1  0.538525  0.766026  0.944778  1
  V  V7  1  0.765965  0.944577  0.538298  1
  V  V8  1  0.944943  0.538575  0.766111  1
  V  V9  1  0.460953  0.233124  0.054360  1
  V  V10  1  0.233070  0.054416  0.461147  1
  V  V11  1  0.054691  0.461134  0.233157  1
  Zn  Zn12  1  0.277002  0.872660  0.103236  1
  Zn  Zn13  1  0.872141  0.103161  0.276939  1
  Co  Co14  1  0.797522  0.563601  0.387978  1
  Co  Co15  1  0.563824  0.387872  0.797467  1
  Co  Co16  1  0.388219  0.797625  0.564068  1
  Co  Co17  1  0.102360  0.277927  0.872895  1
  O  O18  1  0.391152  0.687375  0.725206  1
  O  O19  1  0.687419  0.724821  0.391028  1
  O  O20  1  0.725223  0.391310  0.687523  1
  O  O21  1  0.611574  0.318777  0.275068  1
  O  O22  1  0.318439  0.274949  0.611803  1
  O  O23  1  0.275331  0.611882  0.319034  1
  O  O24  1  0.695693  0.983301  0.028762  1
  O  O25  1  0.983164  0.030125  0.695884  1
  O  O26  1  0.029035  0.695649  0.983508  1
  O  O27  1  0.306236  0.016638  0.972984  1
  O  O28  1  0.016691  0.972952  0.306518  1
  O  O29  1  0.973956  0.306855  0.016554  1
  O  O30  1  0.425013  0.751929  0.073291  1
  O  O31  1  0.752090  0.073401  0.425115  1
  O  O32  1  0.073356  0.424589  0.752532  1
  O  O33  1  0.575112  0.245134  0.926037  1
  O  O34  1  0.244846  0.925866  0.574767  1
  O  O35  1  0.925812  0.574503  0.244689  1
  O  O36  1  0.647289  0.633953  0.960177  1
  O  O37  1  0.634106  0.960217  0.647431  1
  O  O38  1  0.960677  0.647043  0.633830  1
  O  O39  1  0.348965  0.362452  0.035505  1
  O  O40  1  0.363417  0.036363  0.349870  1
  O  O41  1  0.036250  0.349364  0.362966  1
