# generated using pymatgen
data_Tm12Hg2Ru3
_symmetry_space_group_name_H-M   'P 1'
_cell_length_a   8.31401283
_cell_length_b   8.31401286
_cell_length_c   8.31401300
_cell_angle_alpha   109.20003263
_cell_angle_beta   109.20004729
_cell_angle_gamma   110.01494807
_symmetry_Int_Tables_number   1
_chemical_formula_structural   Tm12Hg2Ru3
_chemical_formula_sum   'Tm12 Hg2 Ru3'
_cell_volume   442.36509914
_cell_formula_units_Z   1
loop_
 _symmetry_equiv_pos_site_id
 _symmetry_equiv_pos_as_xyz
  1  'x, y, z'
loop_
 _atom_site_type_symbol
 _atom_site_label
 _atom_site_symmetry_multiplicity
 _atom_site_fract_x
 _atom_site_fract_y
 _atom_site_fract_z
 _atom_site_occupancy
  Tm  Tm0  1  0.183848  0.427960  0.244111  1
  Tm  Tm1  1  0.816152  0.572040  0.755889  1
  Tm  Tm2  1  0.183848  0.939737  0.755889  1
  Tm  Tm3  1  0.939737  0.183848  0.755889  1
  Tm  Tm4  1  0.816152  0.060263  0.244111  1
  Tm  Tm5  1  0.060263  0.816152  0.244111  1
  Tm  Tm6  1  0.427960  0.183848  0.244111  1
  Tm  Tm7  1  0.572040  0.816152  0.755889  1
  Tm  Tm8  1  0.318542  0.318542  0.637086  1
  Tm  Tm9  1  0.681458  0.681458  0.362914  1
  Tm  Tm10  1  0.681458  0.318542  0.000000  1
  Tm  Tm11  1  0.318542  0.681458  0.000000  1
  Hg  Hg12  1  0.000000  0.500000  0.500000  1
  Hg  Hg13  1  0.500000  0.000000  0.500000  1
  Ru  Ru14  1  0.341928  0.341928  0.000000  1
  Ru  Ru15  1  0.658072  0.658072  0.000000  1
  Ru  Ru16  1  0.000000  0.000000  0.000000  1
