# generated using pymatgen
data_Ho11Tm(OsRu)2
_symmetry_space_group_name_H-M   'P 1'
_cell_length_a   6.29318742
_cell_length_b   7.31898736
_cell_length_c   9.07051040
_cell_angle_alpha   89.98813699
_cell_angle_beta   90.09209579
_cell_angle_gamma   90.09732659
_symmetry_Int_Tables_number   1
_chemical_formula_structural   Ho11Tm(OsRu)2
_chemical_formula_sum   'Ho11 Tm1 Os2 Ru2'
_cell_volume   417.78437388
_cell_formula_units_Z   1
loop_
 _symmetry_equiv_pos_site_id
 _symmetry_equiv_pos_as_xyz
  1  'x, y, z'
loop_
 _atom_site_type_symbol
 _atom_site_label
 _atom_site_symmetry_multiplicity
 _atom_site_fract_x
 _atom_site_fract_y
 _atom_site_fract_z
 _atom_site_occupancy
  Ho  Ho0  1  0.633913  0.040177  0.250369  1
  Ho  Ho1  1  0.366611  0.960200  0.749758  1
  Ho  Ho2  1  0.131852  0.458780  0.749560  1
  Ho  Ho3  1  0.867667  0.540771  0.250443  1
  Ho  Ho4  1  0.170185  0.176933  0.064655  1
  Ho  Ho5  1  0.829861  0.823264  0.935388  1
  Ho  Ho6  1  0.668483  0.324026  0.936664  1
  Ho  Ho7  1  0.829655  0.823076  0.564558  1
  Ho  Ho8  1  0.331560  0.675750  0.062838  1
  Ho  Ho9  1  0.170101  0.177052  0.435671  1
  Ho  Ho10  1  0.331866  0.675390  0.437545  1
  Tm  Tm11  1  0.668244  0.324609  0.562948  1
  Os  Os12  1  0.460778  0.384375  0.250772  1
  Os  Os13  1  0.539792  0.615115  0.749533  1
  Ru  Ru14  1  0.961329  0.114996  0.749490  1
  Ru  Ru15  1  0.038105  0.885486  0.249811  1
