# generated using pymatgen
data_Ba2VSbF14
_symmetry_space_group_name_H-M   'P 1'
_cell_length_a   4.93129241
_cell_length_b   7.72614014
_cell_length_c   8.02977523
_cell_angle_alpha   106.11877632
_cell_angle_beta   101.15058908
_cell_angle_gamma   90.79803574
_symmetry_Int_Tables_number   1
_chemical_formula_structural   Ba2VSbF14
_chemical_formula_sum   'Ba2 V1 Sb1 F14'
_cell_volume   287.61523921
_cell_formula_units_Z   1
loop_
 _symmetry_equiv_pos_site_id
 _symmetry_equiv_pos_as_xyz
  1  'x, y, z'
loop_
 _atom_site_type_symbol
 _atom_site_label
 _atom_site_symmetry_multiplicity
 _atom_site_fract_x
 _atom_site_fract_y
 _atom_site_fract_z
 _atom_site_occupancy
  Ba  Ba0  1  0.176594  0.340670  0.790548  1
  Ba  Ba1  1  0.824888  0.653651  0.208078  1
  V  V2  1  0.353121  0.185384  0.291069  1
  Sb  Sb3  1  0.645943  0.814485  0.709559  1
  F  F4  1  0.143625  0.181521  0.078283  1
  F  F5  1  0.428417  0.793237  0.477090  1
  F  F6  1  0.561277  0.206393  0.511563  1
  F  F7  1  0.490335  0.034155  0.812324  1
  F  F8  1  0.508761  0.980186  0.198545  1
  F  F9  1  0.360394  0.676445  0.756755  1
  F  F10  1  0.868567  0.821453  0.934900  1
  F  F11  1  0.284645  0.577555  0.096924  1
  F  F12  1  0.086413  0.049898  0.336383  1
  F  F13  1  0.192654  0.388795  0.394898  1
  F  F14  1  0.718449  0.420973  0.900348  1
  F  F15  1  0.808981  0.599514  0.596904  1
  F  F16  1  0.621338  0.320602  0.249285  1
  F  F17  1  0.925599  0.955084  0.656543  1
