# generated using pymatgen
data_NaB2F7
_symmetry_space_group_name_H-M   'P 1'
_cell_length_a   4.82349533
_cell_length_b   5.49690248
_cell_length_c   6.89277715
_cell_angle_alpha   51.83506431
_cell_angle_beta   78.63678584
_cell_angle_gamma   83.59690424
_symmetry_Int_Tables_number   1
_chemical_formula_structural   NaB2F7
_chemical_formula_sum   'Na1 B2 F7'
_cell_volume   140.86099666
_cell_formula_units_Z   1
loop_
 _symmetry_equiv_pos_site_id
 _symmetry_equiv_pos_as_xyz
  1  'x, y, z'
loop_
 _atom_site_type_symbol
 _atom_site_label
 _atom_site_symmetry_multiplicity
 _atom_site_fract_x
 _atom_site_fract_y
 _atom_site_fract_z
 _atom_site_occupancy
  Na  Na0  1  0.859817  0.916130  0.432813  1
  B  B1  1  0.276885  0.231854  0.591539  1
  B  B2  1  0.446225  0.234047  0.968548  1
  F  F3  1  0.340893  0.087249  0.859773  1
  F  F4  1  0.205138  0.257340  0.102216  1
  F  F5  1  0.154159  0.515243  0.502412  1
  F  F6  1  0.638185  0.023817  0.116132  1
  F  F7  1  0.567565  0.516804  0.765922  1
  F  F8  1  0.537044  0.254719  0.453600  1
  F  F9  1  0.096394  0.016089  0.640011  1
