# generated using pymatgen
data_Cs4NaDyS4
_symmetry_space_group_name_H-M   'P 1'
_cell_length_a   8.80841257
_cell_length_b   8.80841190
_cell_length_c   8.80841300
_cell_angle_alpha   133.09532465
_cell_angle_beta   129.15282755
_cell_angle_gamma   71.66301632
_symmetry_Int_Tables_number   1
_chemical_formula_structural   Cs4NaDyS4
_chemical_formula_sum   'Cs4 Na1 Dy1 S4'
_cell_volume   378.67915305
_cell_formula_units_Z   1
loop_
 _symmetry_equiv_pos_site_id
 _symmetry_equiv_pos_as_xyz
  1  'x, y, z'
loop_
 _atom_site_type_symbol
 _atom_site_label
 _atom_site_symmetry_multiplicity
 _atom_site_fract_x
 _atom_site_fract_y
 _atom_site_fract_z
 _atom_site_occupancy
  Cs  Cs0  1  0.509389  0.864519  0.673242  1
  Cs  Cs1  1  0.490611  0.163853  0.355130  1
  Cs  Cs2  1  0.808723  0.635481  0.144870  1
  Cs  Cs3  1  0.191277  0.336147  0.826758  1
  Na  Na4  1  0.000000  0.250000  0.250000  1
  Dy  Dy5  1  0.000000  0.750000  0.750000  1
  S  S6  1  0.090770  0.873769  0.169454  1
  S  S7  1  0.704315  0.421317  0.330546  1
  S  S8  1  0.909230  0.078683  0.782998  1
  S  S9  1  0.295686  0.626231  0.717002  1
