# generated using pymatgen
data_LiErHf4(AsRu)6
_symmetry_space_group_name_H-M   'P 1'
_cell_length_a   7.71554476
_cell_length_b   7.68444522
_cell_length_c   7.71554395
_cell_angle_alpha   128.13411069
_cell_angle_beta   120.84565603
_cell_angle_gamma   82.63096906
_symmetry_Int_Tables_number   1
_chemical_formula_structural   LiErHf4(AsRu)6
_chemical_formula_sum   'Li1 Er1 Hf4 As6 Ru6'
_cell_volume   296.66244210
_cell_formula_units_Z   1
loop_
 _symmetry_equiv_pos_site_id
 _symmetry_equiv_pos_as_xyz
  1  'x, y, z'
loop_
 _atom_site_type_symbol
 _atom_site_label
 _atom_site_symmetry_multiplicity
 _atom_site_fract_x
 _atom_site_fract_y
 _atom_site_fract_z
 _atom_site_occupancy
  Li  Li0  1  0.524812  0.262198  0.237386  1
  Er  Er1  1  0.473472  0.705266  0.731795  1
  Hf  Hf2  1  0.751548  0.832153  0.580604  1
  Hf  Hf3  1  0.250351  0.833639  0.083287  1
  Hf  Hf4  1  0.053559  0.257232  0.703672  1
  Hf  Hf5  1  0.947576  0.652701  0.205125  1
  As  As6  1  0.279151  0.272185  0.493035  1
  As  As7  1  0.713020  0.211548  0.998528  1
  As  As8  1  0.331268  0.578712  0.243164  1
  As  As9  1  0.670791  0.930886  0.264262  1
  As  As10  1  0.166624  0.930886  0.760096  1
  As  As11  1  0.835547  0.578712  0.747443  1
  Ru  Ru12  1  0.502390  0.498036  0.996393  1
  Ru  Ru13  1  0.001643  0.498036  0.495646  1
  Ru  Ru14  1  0.081998  0.251543  0.093965  1
  Ru  Ru15  1  0.916512  0.007163  0.165003  1
  Ru  Ru16  1  0.342160  0.007163  0.590651  1
  Ru  Ru17  1  0.657578  0.251543  0.669545  1
