# generated using pymatgen
data_Ba4LuReO8
_symmetry_space_group_name_H-M   'P 1'
_cell_length_a   7.44591164
_cell_length_b   7.44591266
_cell_length_c   5.90147600
_cell_angle_alpha   90.00000000
_cell_angle_beta   90.00000000
_cell_angle_gamma   133.25675414
_symmetry_Int_Tables_number   1
_chemical_formula_structural   Ba4LuReO8
_chemical_formula_sum   'Ba4 Lu1 Re1 O8'
_cell_volume   238.28731469
_cell_formula_units_Z   1
loop_
 _symmetry_equiv_pos_site_id
 _symmetry_equiv_pos_as_xyz
  1  'x, y, z'
loop_
 _atom_site_type_symbol
 _atom_site_label
 _atom_site_symmetry_multiplicity
 _atom_site_fract_x
 _atom_site_fract_y
 _atom_site_fract_z
 _atom_site_occupancy
  Ba  Ba0  1  0.352962  0.647038  0.000000  1
  Ba  Ba1  1  0.852555  0.147445  0.500000  1
  Ba  Ba2  1  0.147445  0.852555  0.500000  1
  Ba  Ba3  1  0.647038  0.352962  0.000000  1
  Lu  Lu4  1  0.000000  0.000000  0.000000  1
  Re  Re5  1  0.500000  0.500000  0.500000  1
  O  O6  1  0.260807  0.260807  0.734756  1
  O  O7  1  0.739193  0.739193  0.265244  1
  O  O8  1  0.739193  0.739193  0.734756  1
  O  O9  1  0.260807  0.260807  0.265244  1
  O  O10  1  0.162188  0.837812  0.000000  1
  O  O11  1  0.650045  0.349955  0.500000  1
  O  O12  1  0.349955  0.650045  0.500000  1
  O  O13  1  0.837812  0.162188  0.000000  1
