# generated using pymatgen
data_Ho4V3GeF28
_symmetry_space_group_name_H-M   'P 1'
_cell_length_a   5.45768414
_cell_length_b   8.74795584
_cell_length_c   11.73875876
_cell_angle_alpha   63.14760197
_cell_angle_beta   89.99898330
_cell_angle_gamma   89.97592710
_symmetry_Int_Tables_number   1
_chemical_formula_structural   Ho4V3GeF28
_chemical_formula_sum   'Ho4 V3 Ge1 F28'
_cell_volume   500.01869331
_cell_formula_units_Z   1
loop_
 _symmetry_equiv_pos_site_id
 _symmetry_equiv_pos_as_xyz
  1  'x, y, z'
loop_
 _atom_site_type_symbol
 _atom_site_label
 _atom_site_symmetry_multiplicity
 _atom_site_fract_x
 _atom_site_fract_y
 _atom_site_fract_z
 _atom_site_occupancy
  Ho  Ho0  1  0.758696  0.805002  0.770331  1
  Ho  Ho1  1  0.258469  0.190086  0.732766  1
  Ho  Ho2  1  0.240403  0.191956  0.230481  1
  Ho  Ho3  1  0.741765  0.812002  0.266647  1
  V  V4  1  0.256029  0.726535  0.544157  1
  V  V5  1  0.244408  0.726710  0.044534  1
  V  V6  1  0.743963  0.273454  0.455651  1
  Ge  Ge7  1  0.756564  0.272581  0.956078  1
  F  F8  1  0.441449  0.705573  0.920362  1
  F  F9  1  0.942399  0.294181  0.580425  1
  F  F10  1  0.563931  0.295621  0.074876  1
  F  F11  1  0.057737  0.705569  0.420039  1
  F  F12  1  0.451176  0.278929  0.544472  1
  F  F13  1  0.952045  0.720470  0.957025  1
  F  F14  1  0.548395  0.720869  0.455676  1
  F  F15  1  0.040106  0.280724  0.040184  1
  F  F16  1  0.773782  0.505077  0.864541  1
  F  F17  1  0.273641  0.490863  0.637005  1
  F  F18  1  0.227067  0.490806  0.135948  1
  F  F19  1  0.726402  0.508196  0.363536  1
  F  F20  1  0.756335  0.040756  0.045411  1
  F  F21  1  0.256938  0.959846  0.453792  1
  F  F22  1  0.243230  0.960112  0.953644  1
  F  F23  1  0.743264  0.040714  0.545670  1
  F  F24  1  0.973955  0.729203  0.637985  1
  F  F25  1  0.483802  0.271371  0.864442  1
  F  F26  1  0.026376  0.271194  0.361416  1
  F  F27  1  0.526137  0.728056  0.138525  1
  F  F28  1  0.048308  0.746017  0.172054  1
  F  F29  1  0.546710  0.253245  0.327497  1
  F  F30  1  0.948374  0.254826  0.832755  1
  F  F31  1  0.452188  0.747117  0.671509  1
  F  F32  1  0.413839  0.971978  0.230183  1
  F  F33  1  0.916611  0.030153  0.270827  1
  F  F34  1  0.582902  0.028206  0.769490  1
  F  F35  1  0.082605  0.972003  0.730066  1
