# generated using pymatgen
data_Dy2Tm6In3Ru
_symmetry_space_group_name_H-M   'P 1'
_cell_length_a   10.29569900
_cell_length_b   10.28701293
_cell_length_c   7.02324969
_cell_angle_alpha   90.04942959
_cell_angle_beta   90.00000000
_cell_angle_gamma   120.02793877
_symmetry_Int_Tables_number   1
_chemical_formula_structural   Dy2Tm6In3Ru
_chemical_formula_sum   'Dy4 Tm12 In6 Ru2'
_cell_volume   644.00807334
_cell_formula_units_Z   2
loop_
 _symmetry_equiv_pos_site_id
 _symmetry_equiv_pos_as_xyz
  1  'x, y, z'
loop_
 _atom_site_type_symbol
 _atom_site_label
 _atom_site_symmetry_multiplicity
 _atom_site_fract_x
 _atom_site_fract_y
 _atom_site_fract_z
 _atom_site_occupancy
  Dy  Dy0  1  0.532464  0.064931  0.515170  1
  Dy  Dy1  1  0.935781  0.467867  0.515937  1
  Dy  Dy2  1  0.532085  0.467867  0.515937  1
  Dy  Dy3  1  0.467115  0.934229  0.015582  1
  Tm  Tm4  1  0.066296  0.533039  0.016558  1
  Tm  Tm5  1  0.466744  0.533039  0.016558  1
  Tm  Tm6  1  0.177518  0.355036  0.720759  1
  Tm  Tm7  1  0.645564  0.822395  0.720292  1
  Tm  Tm8  1  0.176831  0.822395  0.720292  1
  Tm  Tm9  1  0.822499  0.644997  0.218543  1
  Tm  Tm10  1  0.354198  0.177622  0.218807  1
  Tm  Tm11  1  0.823424  0.177622  0.218807  1
  Tm  Tm12  1  0.667055  0.334109  0.894924  1
  Tm  Tm13  1  0.332907  0.665814  0.394416  1
  Tm  Tm14  1  0.000104  0.000210  0.499550  1
  Tm  Tm15  1  0.000000  0.999998  0.999443  1
  In  In16  1  0.837420  0.674841  0.763090  1
  In  In17  1  0.325293  0.162829  0.763270  1
  In  In18  1  0.837536  0.162829  0.763270  1
  In  In19  1  0.163072  0.326146  0.262721  1
  In  In20  1  0.674169  0.836670  0.263222  1
  In  In21  1  0.162501  0.836670  0.263222  1
  Ru  Ru22  1  0.666592  0.333181  0.288082  1
  Ru  Ru23  1  0.332830  0.665662  0.789551  1
