# generated using pymatgen
data_Y3HoTm8Co5Bi
_symmetry_space_group_name_H-M   'P 1'
_cell_length_a   8.24376166
_cell_length_b   8.24380183
_cell_length_c   8.23037745
_cell_angle_alpha   110.96622517
_cell_angle_beta   110.57991689
_cell_angle_gamma   106.96694466
_symmetry_Int_Tables_number   1
_chemical_formula_structural   Y3HoTm8Co5Bi
_chemical_formula_sum   'Y3 Ho1 Tm8 Co5 Bi1'
_cell_volume   429.57475952
_cell_formula_units_Z   1
loop_
 _symmetry_equiv_pos_site_id
 _symmetry_equiv_pos_as_xyz
  1  'x, y, z'
loop_
 _atom_site_type_symbol
 _atom_site_label
 _atom_site_symmetry_multiplicity
 _atom_site_fract_x
 _atom_site_fract_y
 _atom_site_fract_z
 _atom_site_occupancy
  Y  Y0  1  0.286364  0.185308  0.471670  1
  Y  Y1  1  0.713990  0.815062  0.529053  1
  Y  Y2  1  0.286595  0.814817  0.101411  1
  Ho  Ho3  1  0.713350  0.184086  0.897442  1
  Tm  Tm4  1  0.622452  0.311593  0.310040  1
  Tm  Tm5  1  0.377945  0.688659  0.689614  1
  Tm  Tm6  1  0.000967  0.311675  0.689623  1
  Tm  Tm7  1  0.998454  0.687592  0.310041  1
  Tm  Tm8  1  0.208211  0.403149  0.194104  1
  Tm  Tm9  1  0.791061  0.595828  0.805252  1
  Tm  Tm10  1  0.209424  0.014194  0.805252  1
  Tm  Tm11  1  0.790958  0.985895  0.194110  1
  Co  Co12  1  0.999782  0.374973  0.374762  1
  Co  Co13  1  0.999896  0.624905  0.624801  1
  Co  Co14  1  0.388377  0.888758  0.501722  1
  Co  Co15  1  0.612957  0.113326  0.501715  1
  Co  Co16  1  0.999330  0.000029  0.999355  1
  Bi  Bi17  1  0.499888  0.500151  0.000031  1
