# generated using pymatgen
data_Hf7Sc9(Si4Mo)4
_symmetry_space_group_name_H-M   'P 1'
_cell_length_a   7.02637414
_cell_length_b   7.01878963
_cell_length_c   12.76898630
_cell_angle_alpha   89.95257108
_cell_angle_beta   89.97910833
_cell_angle_gamma   89.99058860
_symmetry_Int_Tables_number   1
_chemical_formula_structural   Hf7Sc9(Si4Mo)4
_chemical_formula_sum   'Hf7 Sc9 Si16 Mo4'
_cell_volume   629.72325921
_cell_formula_units_Z   1
loop_
 _symmetry_equiv_pos_site_id
 _symmetry_equiv_pos_as_xyz
  1  'x, y, z'
loop_
 _atom_site_type_symbol
 _atom_site_label
 _atom_site_symmetry_multiplicity
 _atom_site_fract_x
 _atom_site_fract_y
 _atom_site_fract_z
 _atom_site_occupancy
  Hf  Hf0  1  0.505724  0.643188  0.625306  1
  Hf  Hf1  1  0.856022  0.005832  0.874721  1
  Hf  Hf2  1  0.144067  0.994428  0.375220  1
  Hf  Hf3  1  0.642985  0.505868  0.375161  1
  Hf  Hf4  1  0.355281  0.494046  0.874180  1
  Hf  Hf5  1  0.005381  0.856510  0.124801  1
  Hf  Hf6  1  0.994225  0.143428  0.625025  1
  Sc  Sc7  1  0.498001  0.154907  0.532515  1
  Sc  Sc8  1  0.500895  0.845132  0.032712  1
  Sc  Sc9  1  0.654095  0.000817  0.283531  1
  Sc  Sc10  1  0.345241  0.998217  0.782634  1
  Sc  Sc11  1  0.846954  0.501922  0.966652  1
  Sc  Sc12  1  0.154670  0.498047  0.467492  1
  Sc  Sc13  1  0.001747  0.654275  0.717418  1
  Sc  Sc14  1  0.999598  0.346269  0.216978  1
  Sc  Sc15  1  0.496039  0.356595  0.125475  1
  Si  Si16  1  0.798450  0.147953  0.069370  1
  Si  Si17  1  0.202536  0.852536  0.570171  1
  Si  Si18  1  0.647171  0.702190  0.820437  1
  Si  Si19  1  0.352307  0.298405  0.320118  1
  Si  Si20  1  0.852383  0.202335  0.429954  1
  Si  Si21  1  0.147065  0.797589  0.930119  1
  Si  Si22  1  0.701886  0.646940  0.180682  1
  Si  Si23  1  0.297591  0.352217  0.679398  1
  Si  Si24  1  0.547844  0.196650  0.933682  1
  Si  Si25  1  0.451427  0.804131  0.433337  1
  Si  Si26  1  0.696031  0.951696  0.683083  1
  Si  Si27  1  0.304378  0.048620  0.182949  1
  Si  Si28  1  0.803964  0.451799  0.566743  1
  Si  Si29  1  0.198160  0.547616  0.066655  1
  Si  Si30  1  0.951192  0.696886  0.316839  1
  Si  Si31  1  0.048384  0.303580  0.816728  1
  Mo  Mo32  1  0.678364  0.321914  0.749981  1
  Mo  Mo33  1  0.321006  0.678505  0.250455  1
  Mo  Mo34  1  0.821802  0.822691  0.499839  1
  Mo  Mo35  1  0.177132  0.176268  0.999641  1
