# generated using pymatgen
data_Li3Dy2Tm2AlPt4
_symmetry_space_group_name_H-M   'P 1'
_cell_length_a   4.01598700
_cell_length_b   6.96855805
_cell_length_c   8.43568113
_cell_angle_alpha   90.94747454
_cell_angle_beta   90.00000000
_cell_angle_gamma   90.00000000
_symmetry_Int_Tables_number   1
_chemical_formula_structural   Li3Dy2Tm2AlPt4
_chemical_formula_sum   'Li3 Dy2 Tm2 Al1 Pt4'
_cell_volume   236.04564503
_cell_formula_units_Z   1
loop_
 _symmetry_equiv_pos_site_id
 _symmetry_equiv_pos_as_xyz
  1  'x, y, z'
loop_
 _atom_site_type_symbol
 _atom_site_label
 _atom_site_symmetry_multiplicity
 _atom_site_fract_x
 _atom_site_fract_y
 _atom_site_fract_z
 _atom_site_occupancy
  Li  Li0  1  0.250000  0.128323  0.059606  1
  Li  Li1  1  0.250000  0.628308  0.440381  1
  Li  Li2  1  0.750000  0.876161  0.941690  1
  Dy  Dy3  1  0.750000  0.952359  0.322222  1
  Dy  Dy4  1  0.750000  0.452110  0.177925  1
  Tm  Tm5  1  0.250000  0.045550  0.682259  1
  Tm  Tm6  1  0.250000  0.546840  0.818960  1
  Al  Al7  1  0.750000  0.373951  0.558015  1
  Pt  Pt8  1  0.250000  0.252220  0.390520  1
  Pt  Pt9  1  0.250000  0.742362  0.124195  1
  Pt  Pt10  1  0.750000  0.744363  0.622589  1
  Pt  Pt11  1  0.750000  0.257452  0.861636  1
