# generated using pymatgen
data_Nd3GaNiRh2
_symmetry_space_group_name_H-M   'P 1'
_cell_length_a   5.74538988
_cell_length_b   5.74538893
_cell_length_c   13.64109858
_cell_angle_alpha   92.15789156
_cell_angle_beta   87.84210812
_cell_angle_gamma   137.53023548
_symmetry_Int_Tables_number   1
_chemical_formula_structural   Nd3GaNiRh2
_chemical_formula_sum   'Nd6 Ga2 Ni2 Rh4'
_cell_volume   303.78529714
_cell_formula_units_Z   2
loop_
 _symmetry_equiv_pos_site_id
 _symmetry_equiv_pos_as_xyz
  1  'x, y, z'
loop_
 _atom_site_type_symbol
 _atom_site_label
 _atom_site_symmetry_multiplicity
 _atom_site_fract_x
 _atom_site_fract_y
 _atom_site_fract_z
 _atom_site_occupancy
  Nd  Nd0  1  0.786632  0.213368  0.396779  1
  Nd  Nd1  1  0.213368  0.786632  0.603221  1
  Nd  Nd2  1  0.793103  0.206897  0.107700  1
  Nd  Nd3  1  0.206897  0.793103  0.892300  1
  Nd  Nd4  1  0.513803  0.486197  0.254777  1
  Nd  Nd5  1  0.486197  0.513803  0.745223  1
  Ga  Ga6  1  0.500000  0.500000  0.500000  1
  Ga  Ga7  1  0.500000  0.500000  0.000000  1
  Ni  Ni8  1  0.071878  0.928122  0.416951  1
  Ni  Ni9  1  0.928122  0.071878  0.583049  1
  Rh  Rh10  1  0.076102  0.923898  0.090731  1
  Rh  Rh11  1  0.923898  0.076102  0.909269  1
  Rh  Rh12  1  0.231661  0.768339  0.257456  1
  Rh  Rh13  1  0.768339  0.231661  0.742544  1
