# generated using pymatgen
data_La3Sm(FeH5)4
_symmetry_space_group_name_H-M   'P 1'
_cell_length_a   4.42696678
_cell_length_b   4.73269478
_cell_length_c   11.71573497
_cell_angle_alpha   90.66130716
_cell_angle_beta   89.90768772
_cell_angle_gamma   90.21051767
_symmetry_Int_Tables_number   1
_chemical_formula_structural   La3Sm(FeH5)4
_chemical_formula_sum   'La3 Sm1 Fe4 H20'
_cell_volume   245.44370856
_cell_formula_units_Z   1
loop_
 _symmetry_equiv_pos_site_id
 _symmetry_equiv_pos_as_xyz
  1  'x, y, z'
loop_
 _atom_site_type_symbol
 _atom_site_label
 _atom_site_symmetry_multiplicity
 _atom_site_fract_x
 _atom_site_fract_y
 _atom_site_fract_z
 _atom_site_occupancy
  La  La0  1  0.770854  0.324062  0.355803  1
  La  La1  1  0.228705  0.820374  0.146607  1
  La  La2  1  0.732984  0.678873  0.850657  1
  Sm  Sm3  1  0.281334  0.171284  0.648818  1
  Fe  Fe4  1  0.314729  0.176394  0.910458  1
  Fe  Fe5  1  0.814925  0.320117  0.084982  1
  Fe  Fe6  1  0.182052  0.829281  0.417324  1
  Fe  Fe7  1  0.680919  0.675776  0.587853  1
  H  H8  1  0.531788  0.425060  0.522576  1
  H  H9  1  0.053644  0.086814  0.485673  1
  H  H10  1  0.951548  0.570094  0.018658  1
  H  H11  1  0.446197  0.925212  0.977450  1
  H  H12  1  0.180516  0.955946  0.822018  1
  H  H13  1  0.678218  0.541048  0.172514  1
  H  H14  1  0.321677  0.045164  0.330290  1
  H  H15  1  0.834363  0.450916  0.668434  1
  H  H16  1  0.214374  0.437573  0.831654  1
  H  H17  1  0.712696  0.057032  0.163542  1
  H  H18  1  0.285120  0.564146  0.338330  1
  H  H19  1  0.796212  0.944147  0.664253  1
  H  H20  1  0.597068  0.172669  0.829669  1
  H  H21  1  0.095551  0.325736  0.166707  1
  H  H22  1  0.902266  0.830707  0.334978  1
  H  H23  1  0.399672  0.668977  0.669846  1
  H  H24  1  0.994316  0.102079  0.990444  1
  H  H25  1  0.494534  0.393098  0.005481  1
  H  H26  1  0.504153  0.897237  0.496837  1
  H  H27  1  0.999584  0.610182  0.508145  1
