# generated using pymatgen
data_CaCe(Si7Rh3)2
_symmetry_space_group_name_H-M   'P 1'
_cell_length_a   8.03130640
_cell_length_b   8.03130593
_cell_length_c   8.03130674
_cell_angle_alpha   56.91283627
_cell_angle_beta   56.91282924
_cell_angle_gamma   56.91282486
_symmetry_Int_Tables_number   1
_chemical_formula_structural   CaCe(Si7Rh3)2
_chemical_formula_sum   'Ca1 Ce1 Si14 Rh6'
_cell_volume   340.21966053
_cell_formula_units_Z   1
loop_
 _symmetry_equiv_pos_site_id
 _symmetry_equiv_pos_as_xyz
  1  'x, y, z'
loop_
 _atom_site_type_symbol
 _atom_site_label
 _atom_site_symmetry_multiplicity
 _atom_site_fract_x
 _atom_site_fract_y
 _atom_site_fract_z
 _atom_site_occupancy
  Ca  Ca0  1  0.000000  0.000000  0.000000  1
  Ce  Ce1  1  0.500000  0.500000  0.500000  1
  Si  Si2  1  0.749812  0.749812  0.749812  1
  Si  Si3  1  0.250188  0.250188  0.250188  1
  Si  Si4  1  0.853039  0.064793  0.673421  1
  Si  Si5  1  0.673421  0.853039  0.064793  1
  Si  Si6  1  0.064793  0.673421  0.853039  1
  Si  Si7  1  0.650972  0.828657  0.434193  1
  Si  Si8  1  0.434193  0.650972  0.828657  1
  Si  Si9  1  0.828657  0.434193  0.650972  1
  Si  Si10  1  0.171343  0.565807  0.349028  1
  Si  Si11  1  0.565807  0.349028  0.171343  1
  Si  Si12  1  0.349028  0.171343  0.565807  1
  Si  Si13  1  0.935207  0.326579  0.146961  1
  Si  Si14  1  0.326579  0.146961  0.935207  1
  Si  Si15  1  0.146961  0.935207  0.326579  1
  Rh  Rh16  1  0.070249  0.433106  0.748569  1
  Rh  Rh17  1  0.251431  0.929751  0.566894  1
  Rh  Rh18  1  0.566894  0.251431  0.929751  1
  Rh  Rh19  1  0.929751  0.566894  0.251431  1
  Rh  Rh20  1  0.433106  0.748569  0.070249  1
  Rh  Rh21  1  0.748569  0.070249  0.433106  1
