# generated using pymatgen
data_SrLiCu3P2
_symmetry_space_group_name_H-M   'P 1'
_cell_length_a   8.12724675
_cell_length_b   8.12724620
_cell_length_c   8.12724588
_cell_angle_alpha   28.84895837
_cell_angle_beta   28.84896323
_cell_angle_gamma   28.84896397
_symmetry_Int_Tables_number   1
_chemical_formula_structural   SrLiCu3P2
_chemical_formula_sum   'Sr1 Li1 Cu3 P2'
_cell_volume   110.51678784
_cell_formula_units_Z   1
loop_
 _symmetry_equiv_pos_site_id
 _symmetry_equiv_pos_as_xyz
  1  'x, y, z'
loop_
 _atom_site_type_symbol
 _atom_site_label
 _atom_site_symmetry_multiplicity
 _atom_site_fract_x
 _atom_site_fract_y
 _atom_site_fract_z
 _atom_site_occupancy
  Sr  Sr0  1  0.999865  0.999865  0.999865  1
  Li  Li1  1  0.858688  0.858688  0.858688  1
  Cu  Cu2  1  0.435591  0.435591  0.435591  1
  Cu  Cu3  1  0.141635  0.141635  0.141635  1
  Cu  Cu4  1  0.568586  0.568586  0.568586  1
  P  P5  1  0.752889  0.752889  0.752889  1
  P  P6  1  0.242745  0.242745  0.242745  1
