# generated using pymatgen
data_Ho4Tm(SiBi)2
_symmetry_space_group_name_H-M   'P 1'
_cell_length_a   8.61056460
_cell_length_b   8.61056517
_cell_length_c   7.87662900
_cell_angle_alpha   90.00000000
_cell_angle_beta   90.00000000
_cell_angle_gamma   125.69655412
_symmetry_Int_Tables_number   1
_chemical_formula_structural   Ho4Tm(SiBi)2
_chemical_formula_sum   'Ho8 Tm2 Si4 Bi4'
_cell_volume   474.26726103
_cell_formula_units_Z   2
loop_
 _symmetry_equiv_pos_site_id
 _symmetry_equiv_pos_as_xyz
  1  'x, y, z'
loop_
 _atom_site_type_symbol
 _atom_site_label
 _atom_site_symmetry_multiplicity
 _atom_site_fract_x
 _atom_site_fract_y
 _atom_site_fract_z
 _atom_site_occupancy
  Ho  Ho0  1  0.543584  0.787481  0.165206  1
  Ho  Ho1  1  0.287481  0.043584  0.334794  1
  Ho  Ho2  1  0.212519  0.456416  0.834794  1
  Ho  Ho3  1  0.956416  0.712519  0.665206  1
  Ho  Ho4  1  0.712519  0.956416  0.665206  1
  Ho  Ho5  1  0.456416  0.212519  0.834794  1
  Ho  Ho6  1  0.787481  0.543584  0.165206  1
  Ho  Ho7  1  0.043584  0.287481  0.334794  1
  Tm  Tm8  1  0.500000  0.500000  0.500000  1
  Tm  Tm9  1  0.000000  0.000000  0.000000  1
  Si  Si10  1  0.633636  0.633636  0.867488  1
  Si  Si11  1  0.133636  0.133636  0.632512  1
  Si  Si12  1  0.866364  0.866364  0.367488  1
  Si  Si13  1  0.366364  0.366364  0.132512  1
  Bi  Bi14  1  0.292765  0.707235  0.500000  1
  Bi  Bi15  1  0.207235  0.792765  0.000000  1
  Bi  Bi16  1  0.707235  0.292765  0.500000  1
  Bi  Bi17  1  0.792765  0.207235  0.000000  1
