# generated using pymatgen
data_Tb11HoTc3Ru
_symmetry_space_group_name_H-M   'P 1'
_cell_length_a   6.29600440
_cell_length_b   7.42120857
_cell_length_c   9.21658140
_cell_angle_alpha   90.01441846
_cell_angle_beta   90.03060610
_cell_angle_gamma   89.99234785
_symmetry_Int_Tables_number   1
_chemical_formula_structural   Tb11HoTc3Ru
_chemical_formula_sum   'Tb11 Ho1 Tc3 Ru1'
_cell_volume   430.63511838
_cell_formula_units_Z   1
loop_
 _symmetry_equiv_pos_site_id
 _symmetry_equiv_pos_as_xyz
  1  'x, y, z'
loop_
 _atom_site_type_symbol
 _atom_site_label
 _atom_site_symmetry_multiplicity
 _atom_site_fract_x
 _atom_site_fract_y
 _atom_site_fract_z
 _atom_site_occupancy
  Tb  Tb0  1  0.334654  0.676618  0.063500  1
  Tb  Tb1  1  0.162800  0.175628  0.436998  1
  Tb  Tb2  1  0.662927  0.324397  0.562821  1
  Tb  Tb3  1  0.836233  0.824336  0.937621  1
  Tb  Tb4  1  0.662885  0.324252  0.937291  1
  Tb  Tb5  1  0.836020  0.824065  0.562495  1
  Tb  Tb6  1  0.334877  0.676564  0.436463  1
  Tb  Tb7  1  0.873743  0.540679  0.249878  1
  Tb  Tb8  1  0.625624  0.039750  0.249812  1
  Tb  Tb9  1  0.131052  0.458304  0.750119  1
  Tb  Tb10  1  0.372839  0.957791  0.750146  1
  Ho  Ho11  1  0.162813  0.175576  0.062778  1
  Tc  Tc12  1  0.039852  0.884695  0.249901  1
  Tc  Tc13  1  0.461994  0.386401  0.249783  1
  Tc  Tc14  1  0.962320  0.115180  0.750412  1
  Ru  Ru15  1  0.539370  0.615764  0.749983  1
