# generated using pymatgen
data_La12B(AsBr4)3
_symmetry_space_group_name_H-M   'P 1'
_cell_length_a   10.52477081
_cell_length_b   10.52477193
_cell_length_c   10.52477090
_cell_angle_alpha   109.17311942
_cell_angle_beta   109.17312276
_cell_angle_gamma   109.17312533
_symmetry_Int_Tables_number   1
_chemical_formula_structural   La12B(AsBr4)3
_chemical_formula_sum   'La12 B1 As3 Br12'
_cell_volume   907.23196839
_cell_formula_units_Z   1
loop_
 _symmetry_equiv_pos_site_id
 _symmetry_equiv_pos_as_xyz
  1  'x, y, z'
loop_
 _atom_site_type_symbol
 _atom_site_label
 _atom_site_symmetry_multiplicity
 _atom_site_fract_x
 _atom_site_fract_y
 _atom_site_fract_z
 _atom_site_occupancy
  La  La0  1  0.469163  0.475872  0.242663  1
  La  La1  1  0.750000  0.241307  0.258693  1
  La  La2  1  0.750000  0.008916  0.491084  1
  La  La3  1  0.242663  0.469163  0.475872  1
  La  La4  1  0.258693  0.750000  0.241307  1
  La  La5  1  0.030837  0.257337  0.024128  1
  La  La6  1  0.024128  0.030837  0.257337  1
  La  La7  1  0.491084  0.750000  0.008916  1
  La  La8  1  0.475872  0.242663  0.469163  1
  La  La9  1  0.008916  0.491084  0.750000  1
  La  La10  1  0.257337  0.024128  0.030837  1
  La  La11  1  0.241307  0.258693  0.750000  1
  B  B12  1  0.250000  0.250000  0.250000  1
  As  As13  1  0.500105  0.999895  0.250000  1
  As  As14  1  0.999895  0.250000  0.500105  1
  As  As15  1  0.250000  0.500105  0.999895  1
  Br  Br16  1  0.250000  0.754363  0.745637  1
  Br  Br17  1  0.511901  0.506228  0.755563  1
  Br  Br18  1  0.988099  0.744437  0.993772  1
  Br  Br19  1  0.745637  0.250000  0.754363  1
  Br  Br20  1  0.993772  0.988099  0.744437  1
  Br  Br21  1  0.250000  0.994196  0.505804  1
  Br  Br22  1  0.755563  0.511901  0.506228  1
  Br  Br23  1  0.505804  0.250000  0.994196  1
  Br  Br24  1  0.754363  0.745637  0.250000  1
  Br  Br25  1  0.744437  0.993772  0.988099  1
  Br  Br26  1  0.994196  0.505804  0.250000  1
  Br  Br27  1  0.506228  0.755563  0.511901  1
