# generated using pymatgen
data_Yb4GaAs5Rh7
_symmetry_space_group_name_H-M   'P 1'
_cell_length_a   7.23345687
_cell_length_b   7.23345685
_cell_length_c   7.23345567
_cell_angle_alpha   109.64104546
_cell_angle_beta   109.13210913
_cell_angle_gamma   109.64104097
_symmetry_Int_Tables_number   1
_chemical_formula_structural   Yb4GaAs5Rh7
_chemical_formula_sum   'Yb4 Ga1 As5 Rh7'
_cell_volume   291.34281372
_cell_formula_units_Z   1
loop_
 _symmetry_equiv_pos_site_id
 _symmetry_equiv_pos_as_xyz
  1  'x, y, z'
loop_
 _atom_site_type_symbol
 _atom_site_label
 _atom_site_symmetry_multiplicity
 _atom_site_fract_x
 _atom_site_fract_y
 _atom_site_fract_z
 _atom_site_occupancy
  Yb  Yb0  1  0.495112  0.495776  0.495112  1
  Yb  Yb1  1  0.999335  0.504224  0.999335  1
  Yb  Yb2  1  0.495112  0.000000  0.999335  1
  Yb  Yb3  1  0.999335  0.000000  0.495112  1
  Ga  Ga4  1  0.687175  0.000000  0.687175  1
  As  As5  1  0.678042  0.682232  0.995809  1
  As  As6  1  0.313577  0.317768  0.995809  1
  As  As7  1  0.995809  0.682232  0.678042  1
  As  As8  1  0.995809  0.317768  0.313577  1
  As  As9  1  0.334258  0.000000  0.334258  1
  Rh  Rh10  1  0.501476  0.748284  0.249760  1
  Rh  Rh11  1  0.753193  0.251716  0.501476  1
  Rh  Rh12  1  0.249760  0.748284  0.501476  1
  Rh  Rh13  1  0.246973  0.500000  0.746973  1
  Rh  Rh14  1  0.006584  0.000000  0.006584  1
  Rh  Rh15  1  0.501476  0.251716  0.753193  1
  Rh  Rh16  1  0.746973  0.500000  0.246973  1
