# generated using pymatgen
data_La2Pr14Hg4Ir3Pt
_symmetry_space_group_name_H-M   'P 1'
_cell_length_a   10.04573940
_cell_length_b   10.04573921
_cell_length_c   10.03980047
_cell_angle_alpha   60.03683375
_cell_angle_beta   60.03683206
_cell_angle_gamma   59.92876072
_symmetry_Int_Tables_number   1
_chemical_formula_structural   La2Pr14Hg4Ir3Pt
_chemical_formula_sum   'La2 Pr14 Hg4 Ir3 Pt1'
_cell_volume   716.44165111
_cell_formula_units_Z   1
loop_
 _symmetry_equiv_pos_site_id
 _symmetry_equiv_pos_as_xyz
  1  'x, y, z'
loop_
 _atom_site_type_symbol
 _atom_site_label
 _atom_site_symmetry_multiplicity
 _atom_site_fract_x
 _atom_site_fract_y
 _atom_site_fract_z
 _atom_site_occupancy
  La  La0  1  0.346579  0.346579  0.347654  1
  La  La1  1  0.352030  0.352030  0.951133  1
  Pr  Pr2  1  0.352882  0.945560  0.353511  1
  Pr  Pr3  1  0.945560  0.352882  0.353511  1
  Pr  Pr4  1  0.806398  0.190738  0.190228  1
  Pr  Pr5  1  0.189085  0.809801  0.808486  1
  Pr  Pr6  1  0.190738  0.806398  0.190228  1
  Pr  Pr7  1  0.809801  0.189085  0.808486  1
  Pr  Pr8  1  0.190172  0.190172  0.806835  1
  Pr  Pr9  1  0.809361  0.809361  0.188456  1
  Pr  Pr10  1  0.940602  0.561562  0.561680  1
  Pr  Pr11  1  0.561433  0.939221  0.938573  1
  Pr  Pr12  1  0.561562  0.940602  0.561680  1
  Pr  Pr13  1  0.939221  0.561433  0.938573  1
  Pr  Pr14  1  0.562481  0.562481  0.939658  1
  Pr  Pr15  1  0.938829  0.938829  0.561671  1
  Hg  Hg16  1  0.584762  0.584762  0.583421  1
  Hg  Hg17  1  0.584696  0.584696  0.247231  1
  Hg  Hg18  1  0.585179  0.247286  0.584104  1
  Hg  Hg19  1  0.247286  0.585179  0.584104  1
  Ir  Ir20  1  0.142681  0.142681  0.573321  1
  Ir  Ir21  1  0.142875  0.573003  0.142068  1
  Ir  Ir22  1  0.573003  0.142875  0.142068  1
  Pt  Pt23  1  0.142782  0.142782  0.143314  1
