# generated using pymatgen
data_Dy3Ho3Fe2(P3Rh4)4
_symmetry_space_group_name_H-M   'P 1'
_cell_length_a   3.85804700
_cell_length_b   11.22258700
_cell_length_c   12.69185890
_cell_angle_alpha   89.97735723
_cell_angle_beta   90.00000000
_cell_angle_gamma   90.00000000
_symmetry_Int_Tables_number   1
_chemical_formula_structural   Dy3Ho3Fe2(P3Rh4)4
_chemical_formula_sum   'Dy3 Ho3 Fe2 P12 Rh16'
_cell_volume   549.52277484
_cell_formula_units_Z   1
loop_
 _symmetry_equiv_pos_site_id
 _symmetry_equiv_pos_as_xyz
  1  'x, y, z'
loop_
 _atom_site_type_symbol
 _atom_site_label
 _atom_site_symmetry_multiplicity
 _atom_site_fract_x
 _atom_site_fract_y
 _atom_site_fract_z
 _atom_site_occupancy
  Dy  Dy0  1  0.000000  0.500099  0.520993  1
  Dy  Dy1  1  0.500000  0.000108  0.478829  1
  Dy  Dy2  1  0.000000  0.319588  0.798608  1
  Ho  Ho3  1  0.500000  0.819925  0.201507  1
  Ho  Ho4  1  0.500000  0.180135  0.201376  1
  Ho  Ho5  1  0.000000  0.680045  0.798571  1
  Fe  Fe6  1  0.000000  0.499915  0.989390  1
  Fe  Fe7  1  0.500000  0.999847  0.010897  1
  P  P8  1  0.500000  0.500001  0.886141  1
  P  P9  1  0.000000  0.999903  0.114175  1
  P  P10  1  0.500000  0.500121  0.349284  1
  P  P11  1  0.000000  0.000060  0.650619  1
  P  P12  1  0.500000  0.314824  0.620063  1
  P  P13  1  0.500000  0.685266  0.620412  1
  P  P14  1  0.000000  0.185218  0.379452  1
  P  P15  1  0.000000  0.815012  0.379698  1
  P  P16  1  0.500000  0.850267  0.895658  1
  P  P17  1  0.500000  0.149207  0.895696  1
  P  P18  1  0.000000  0.649852  0.104406  1
  P  P19  1  0.000000  0.350071  0.104337  1
  Rh  Rh20  1  0.500000  0.500349  0.162287  1
  Rh  Rh21  1  0.000000  0.000021  0.837725  1
  Rh  Rh22  1  0.500000  0.500208  0.703319  1
  Rh  Rh23  1  0.000000  0.000017  0.296570  1
  Rh  Rh24  1  0.500000  0.334656  0.993720  1
  Rh  Rh25  1  0.500000  0.665446  0.993386  1
  Rh  Rh26  1  0.000000  0.165027  0.006835  1
  Rh  Rh27  1  0.000000  0.834692  0.006629  1
  Rh  Rh28  1  0.500000  0.294262  0.430091  1
  Rh  Rh29  1  0.500000  0.706038  0.430326  1
  Rh  Rh30  1  0.000000  0.205936  0.569506  1
  Rh  Rh31  1  0.000000  0.794360  0.569785  1
  Rh  Rh32  1  0.500000  0.872307  0.713241  1
  Rh  Rh33  1  0.500000  0.126903  0.712663  1
  Rh  Rh34  1  0.000000  0.627697  0.286964  1
  Rh  Rh35  1  0.000000  0.372618  0.286840  1
