# generated using pymatgen
data_RbSm8Y2(C2Br9)2
_symmetry_space_group_name_H-M   'P 1'
_cell_length_a   10.84486446
_cell_length_b   10.92601631
_cell_length_c   11.08695871
_cell_angle_alpha   113.19459253
_cell_angle_beta   87.61949872
_cell_angle_gamma   118.87574663
_symmetry_Int_Tables_number   1
_chemical_formula_structural   RbSm8Y2(C2Br9)2
_chemical_formula_sum   'Rb1 Sm8 Y2 C4 Br18'
_cell_volume   1039.19849616
_cell_formula_units_Z   1
loop_
 _symmetry_equiv_pos_site_id
 _symmetry_equiv_pos_as_xyz
  1  'x, y, z'
loop_
 _atom_site_type_symbol
 _atom_site_label
 _atom_site_symmetry_multiplicity
 _atom_site_fract_x
 _atom_site_fract_y
 _atom_site_fract_z
 _atom_site_occupancy
  Rb  Rb0  1  0.499470  0.000109  0.499465  1
  Sm  Sm1  1  0.657448  0.715839  0.700219  1
  Sm  Sm2  1  0.282772  0.368164  0.012851  1
  Sm  Sm3  1  0.092037  0.410736  0.303756  1
  Sm  Sm4  1  0.959743  0.035696  0.333239  1
  Sm  Sm5  1  0.905812  0.589377  0.697514  1
  Sm  Sm6  1  0.115434  0.940904  0.000737  1
  Sm  Sm7  1  0.038762  0.963665  0.666229  1
  Sm  Sm8  1  0.343416  0.286099  0.299458  1
  Y  Y9  1  0.718929  0.637229  0.986249  1
  Y  Y10  1  0.889425  0.057039  0.998501  1
  C  C11  1  0.155932  0.228919  0.125182  1
  C  C12  1  0.842956  0.772915  0.875863  1
  C  C13  1  0.919795  0.850389  0.797155  1
  C  C14  1  0.079339  0.150657  0.203474  1
  Br  Br15  1  0.453296  0.530399  0.833721  1
  Br  Br16  1  0.386217  0.037556  0.162166  1
  Br  Br17  1  0.771568  0.857006  0.502112  1
  Br  Br18  1  0.835768  0.304807  0.149690  1
  Br  Br19  1  0.552845  0.472556  0.164976  1
  Br  Br20  1  0.226458  0.142079  0.496546  1
  Br  Br21  1  0.315176  0.099204  0.830820  1
  Br  Br22  1  0.684757  0.896966  0.164839  1
  Br  Br23  1  0.971956  0.757342  0.169073  1
  Br  Br24  1  0.928423  0.299281  0.501252  1
  Br  Br25  1  0.020033  0.237436  0.829911  1
  Br  Br26  1  0.068090  0.698581  0.498535  1
  Br  Br27  1  0.264717  0.630573  0.193094  1
  Br  Br28  1  0.733378  0.376030  0.814122  1
  Br  Br29  1  0.636506  0.428623  0.496616  1
  Br  Br30  1  0.163904  0.685124  0.843729  1
  Br  Br31  1  0.622137  0.967057  0.845109  1
  Br  Br32  1  0.363500  0.571645  0.503798  1
