# generated using pymatgen
data_CeHo(Cd2Ni9)2
_symmetry_space_group_name_H-M   'P 1'
_cell_length_a   8.22506900
_cell_length_b   8.22506900
_cell_length_c   4.83937300
_cell_angle_alpha   90.00000000
_cell_angle_beta   90.00000000
_cell_angle_gamma   90.00000000
_symmetry_Int_Tables_number   1
_chemical_formula_structural   CeHo(Cd2Ni9)2
_chemical_formula_sum   'Ce1 Ho1 Cd4 Ni18'
_cell_volume   327.39210101
_cell_formula_units_Z   1
loop_
 _symmetry_equiv_pos_site_id
 _symmetry_equiv_pos_as_xyz
  1  'x, y, z'
loop_
 _atom_site_type_symbol
 _atom_site_label
 _atom_site_symmetry_multiplicity
 _atom_site_fract_x
 _atom_site_fract_y
 _atom_site_fract_z
 _atom_site_occupancy
  Ce  Ce0  1  0.500000  0.500000  0.000000  1
  Ho  Ho1  1  0.000000  0.000000  0.000000  1
  Cd  Cd2  1  0.119264  0.624432  0.000000  1
  Cd  Cd3  1  0.880736  0.375568  0.000000  1
  Cd  Cd4  1  0.375568  0.119264  0.000000  1
  Cd  Cd5  1  0.624432  0.880736  0.000000  1
  Ni  Ni6  1  0.000000  0.500000  0.500000  1
  Ni  Ni7  1  0.500000  0.000000  0.500000  1
  Ni  Ni8  1  0.563977  0.707120  0.500000  1
  Ni  Ni9  1  0.436023  0.292880  0.500000  1
  Ni  Ni10  1  0.936208  0.205295  0.500000  1
  Ni  Ni11  1  0.063792  0.794705  0.500000  1
  Ni  Ni12  1  0.707120  0.436023  0.500000  1
  Ni  Ni13  1  0.292880  0.563977  0.500000  1
  Ni  Ni14  1  0.205295  0.063792  0.500000  1
  Ni  Ni15  1  0.794705  0.936208  0.500000  1
  Ni  Ni16  1  0.322283  0.822460  0.749346  1
  Ni  Ni17  1  0.677717  0.177540  0.749346  1
  Ni  Ni18  1  0.177540  0.322283  0.749346  1
  Ni  Ni19  1  0.822460  0.677717  0.749346  1
  Ni  Ni20  1  0.677717  0.177540  0.250654  1
  Ni  Ni21  1  0.322283  0.822460  0.250654  1
  Ni  Ni22  1  0.822460  0.677717  0.250654  1
  Ni  Ni23  1  0.177540  0.322283  0.250654  1
