# generated using pymatgen
data_Mg2Nb(Re12Mo)2
_symmetry_space_group_name_H-M   'P 1'
_cell_length_a   8.38590830
_cell_length_b   8.40736439
_cell_length_c   8.37351299
_cell_angle_alpha   109.44594773
_cell_angle_beta   109.32849803
_cell_angle_gamma   109.50556487
_symmetry_Int_Tables_number   1
_chemical_formula_structural   Mg2Nb(Re12Mo)2
_chemical_formula_sum   'Mg2 Nb1 Re24 Mo2'
_cell_volume   455.20734449
_cell_formula_units_Z   1
loop_
 _symmetry_equiv_pos_site_id
 _symmetry_equiv_pos_as_xyz
  1  'x, y, z'
loop_
 _atom_site_type_symbol
 _atom_site_label
 _atom_site_symmetry_multiplicity
 _atom_site_fract_x
 _atom_site_fract_y
 _atom_site_fract_z
 _atom_site_occupancy
  Mg  Mg0  1  0.002875  0.000000  0.999704  1
  Mg  Mg1  1  0.000467  0.000000  0.640145  1
  Nb  Nb2  1  0.637380  0.000000  0.999390  1
  Re  Re3  1  0.323959  0.324952  0.720767  1
  Re  Re4  1  0.395315  0.680250  0.996051  1
  Re  Re5  1  0.683678  0.400198  0.996877  1
  Re  Re6  1  0.600403  0.284014  0.597515  1
  Re  Re7  1  0.397694  0.000000  0.680498  1
  Re  Re8  1  0.998928  0.400623  0.682344  1
  Re  Re9  1  0.283480  0.599802  0.596680  1
  Re  Re10  1  0.715065  0.319750  0.315801  1
  Re  Re11  1  0.316389  0.715986  0.313500  1
  Re  Re12  1  0.675813  0.000000  0.397333  1
  Re  Re13  1  0.999007  0.675048  0.395816  1
  Re  Re14  1  0.598305  0.599377  0.281721  1
  Re  Re15  1  0.807477  0.807235  0.185206  1
  Re  Re16  1  0.375151  0.191521  0.999349  1
  Re  Re17  1  0.192525  0.374700  0.999470  1
  Re  Re18  1  0.625002  0.816641  0.623841  1
  Re  Re19  1  0.375566  0.000000  0.198221  1
  Re  Re20  1  0.001020  0.375505  0.198294  1
  Re  Re21  1  0.817826  0.625300  0.624770  1
  Re  Re22  1  0.183629  0.808479  0.807828  1
  Re  Re23  1  0.808363  0.183359  0.807201  1
  Re  Re24  1  0.193291  0.000000  0.377442  1
  Re  Re25  1  0.000242  0.192765  0.377972  1
  Re  Re26  1  0.625515  0.624495  0.822790  1
  Mo  Mo27  1  0.000414  0.635195  0.999335  1
  Mo  Mo28  1  0.365220  0.364805  0.364140  1
