# generated using pymatgen
data_Lu4Al17GaRh6
_symmetry_space_group_name_H-M   'P 1'
_cell_length_a   7.50998497
_cell_length_b   7.50998466
_cell_length_c   9.42265200
_cell_angle_alpha   90.00000000
_cell_angle_beta   90.00000000
_cell_angle_gamma   119.39775902
_symmetry_Int_Tables_number   1
_chemical_formula_structural   Lu4Al17GaRh6
_chemical_formula_sum   'Lu4 Al17 Ga1 Rh6'
_cell_volume   463.00490530
_cell_formula_units_Z   1
loop_
 _symmetry_equiv_pos_site_id
 _symmetry_equiv_pos_as_xyz
  1  'x, y, z'
loop_
 _atom_site_type_symbol
 _atom_site_label
 _atom_site_symmetry_multiplicity
 _atom_site_fract_x
 _atom_site_fract_y
 _atom_site_fract_z
 _atom_site_occupancy
  Lu  Lu0  1  0.994585  0.672698  0.250000  1
  Lu  Lu1  1  0.004778  0.328728  0.750000  1
  Lu  Lu2  1  0.672698  0.994585  0.250000  1
  Lu  Lu3  1  0.328728  0.004778  0.750000  1
  Al  Al4  1  0.872694  0.872694  0.750000  1
  Al  Al5  1  0.000785  0.335697  0.074821  1
  Al  Al6  1  0.999616  0.664540  0.924689  1
  Al  Al7  1  0.999616  0.664540  0.575311  1
  Al  Al8  1  0.335697  0.000785  0.425179  1
  Al  Al9  1  0.000785  0.335697  0.425179  1
  Al  Al10  1  0.664540  0.999616  0.575311  1
  Al  Al11  1  0.664540  0.999616  0.924689  1
  Al  Al12  1  0.335697  0.000785  0.074821  1
  Al  Al13  1  0.332779  0.332779  0.554927  1
  Al  Al14  1  0.666700  0.666700  0.447452  1
  Al  Al15  1  0.666700  0.666700  0.052548  1
  Al  Al16  1  0.332779  0.332779  0.945073  1
  Al  Al17  1  0.337973  0.550639  0.250000  1
  Al  Al18  1  0.661690  0.450010  0.750000  1
  Al  Al19  1  0.550639  0.337973  0.250000  1
  Al  Al20  1  0.450010  0.661690  0.750000  1
  Ga  Ga21  1  0.128756  0.128756  0.250000  1
  Rh  Rh22  1  0.671802  0.327569  0.000135  1
  Rh  Rh23  1  0.327569  0.671802  0.000135  1
  Rh  Rh24  1  0.327569  0.671802  0.499865  1
  Rh  Rh25  1  0.671802  0.327569  0.499865  1
  Rh  Rh26  1  0.999236  0.999236  0.997601  1
  Rh  Rh27  1  0.999236  0.999236  0.502399  1
