# generated using pymatgen
data_Ho3Er5Ti11Si16W
_symmetry_space_group_name_H-M   'P 1'
_cell_length_a   7.01740138
_cell_length_b   7.01764048
_cell_length_c   12.90200122
_cell_angle_alpha   89.97472552
_cell_angle_beta   90.02937657
_cell_angle_gamma   90.03123401
_symmetry_Int_Tables_number   1
_chemical_formula_structural   Ho3Er5Ti11Si16W
_chemical_formula_sum   'Ho3 Er5 Ti11 Si16 W1'
_cell_volume   635.36655206
_cell_formula_units_Z   1
loop_
 _symmetry_equiv_pos_site_id
 _symmetry_equiv_pos_as_xyz
  1  'x, y, z'
loop_
 _atom_site_type_symbol
 _atom_site_label
 _atom_site_symmetry_multiplicity
 _atom_site_fract_x
 _atom_site_fract_y
 _atom_site_fract_z
 _atom_site_occupancy
  Ho  Ho0  1  0.658065  0.998286  0.967038  1
  Ho  Ho1  1  0.003137  0.340725  0.532997  1
  Ho  Ho2  1  0.998272  0.658040  0.032962  1
  Er  Er3  1  0.340899  0.002974  0.466954  1
  Er  Er4  1  0.497152  0.840524  0.717343  1
  Er  Er5  1  0.501230  0.159290  0.215739  1
  Er  Er6  1  0.840426  0.497154  0.282622  1
  Er  Er7  1  0.159249  0.501180  0.784302  1
  Ti  Ti8  1  0.173965  0.827291  0.249591  1
  Ti  Ti9  1  0.827249  0.173910  0.750437  1
  Ti  Ti10  1  0.672971  0.673133  0.499999  1
  Ti  Ti11  1  0.153557  0.008614  0.876445  1
  Ti  Ti12  1  0.492040  0.651033  0.124476  1
  Ti  Ti13  1  0.506893  0.349057  0.626270  1
  Ti  Ti14  1  0.651006  0.492028  0.875537  1
  Ti  Ti15  1  0.349096  0.506964  0.373725  1
  Ti  Ti16  1  0.848393  0.992681  0.375733  1
  Ti  Ti17  1  0.008640  0.153534  0.123552  1
  Ti  Ti18  1  0.992709  0.848373  0.624244  1
  Si  Si19  1  0.202598  0.130962  0.684274  1
  Si  Si20  1  0.369217  0.700826  0.933962  1
  Si  Si21  1  0.630872  0.297201  0.433922  1
  Si  Si22  1  0.700847  0.369196  0.066038  1
  Si  Si23  1  0.297440  0.631297  0.566009  1
  Si  Si24  1  0.797289  0.869047  0.184319  1
  Si  Si25  1  0.131133  0.202369  0.315785  1
  Si  Si26  1  0.869021  0.797289  0.815693  1
  Si  Si27  1  0.291174  0.954216  0.064856  1
  Si  Si28  1  0.546563  0.791900  0.314884  1
  Si  Si29  1  0.452541  0.208236  0.815420  1
  Si  Si30  1  0.791759  0.546681  0.685230  1
  Si  Si31  1  0.208249  0.452490  0.184576  1
  Si  Si32  1  0.708360  0.047079  0.564939  1
  Si  Si33  1  0.954200  0.291162  0.935154  1
  Si  Si34  1  0.047289  0.708785  0.434983  1
  W  W35  1  0.326499  0.326473  0.999991  1
