# generated using pymatgen
data_Zr6Ta4Ga12Ru2Rh5
_symmetry_space_group_name_H-M   'P 1'
_cell_length_a   8.84026041
_cell_length_b   8.84016885
_cell_length_c   8.83858200
_cell_angle_alpha   60.00595355
_cell_angle_beta   60.00629426
_cell_angle_gamma   60.02022303
_symmetry_Int_Tables_number   1
_chemical_formula_structural   Zr6Ta4Ga12Ru2Rh5
_chemical_formula_sum   'Zr6 Ta4 Ga12 Ru2 Rh5'
_cell_volume   488.53957859
_cell_formula_units_Z   1
loop_
 _symmetry_equiv_pos_site_id
 _symmetry_equiv_pos_as_xyz
  1  'x, y, z'
loop_
 _atom_site_type_symbol
 _atom_site_label
 _atom_site_symmetry_multiplicity
 _atom_site_fract_x
 _atom_site_fract_y
 _atom_site_fract_z
 _atom_site_occupancy
  Zr  Zr0  1  0.697665  0.697692  0.302322  1
  Zr  Zr1  1  0.303520  0.697156  0.304026  1
  Zr  Zr2  1  0.697143  0.303510  0.304045  1
  Zr  Zr3  1  0.301939  0.301970  0.698047  1
  Zr  Zr4  1  0.697143  0.303512  0.695301  1
  Zr  Zr5  1  0.303515  0.697155  0.695301  1
  Ta  Ta6  1  0.879342  0.879375  0.366768  1
  Ta  Ta7  1  0.878291  0.365623  0.878043  1
  Ta  Ta8  1  0.365610  0.878298  0.878046  1
  Ta  Ta9  1  0.879339  0.879375  0.874518  1
  Ga  Ga10  1  0.120206  0.120215  0.636349  1
  Ga  Ga11  1  0.119874  0.637514  0.121299  1
  Ga  Ga12  1  0.637492  0.119882  0.121309  1
  Ga  Ga13  1  0.120202  0.120220  0.123231  1
  Ga  Ga14  1  0.655875  0.655743  0.033173  1
  Ga  Ga15  1  0.654663  0.032808  0.656281  1
  Ga  Ga16  1  0.032780  0.654708  0.656226  1
  Ga  Ga17  1  0.655884  0.655723  0.655218  1
  Ga  Ga18  1  0.342535  0.342472  0.972876  1
  Ga  Ga19  1  0.340971  0.974081  0.342483  1
  Ga  Ga20  1  0.974057  0.340983  0.342477  1
  Ga  Ga21  1  0.342543  0.342468  0.342118  1
  Ru  Ru22  1  0.000794  0.000837  0.999184  1
  Ru  Ru23  1  0.994777  0.994805  0.505211  1
  Rh  Rh24  1  0.503669  0.996211  0.504135  1
  Rh  Rh25  1  0.996238  0.503674  0.504105  1
  Rh  Rh26  1  0.504051  0.504089  0.995932  1
  Rh  Rh27  1  0.996230  0.503680  0.995980  1
  Rh  Rh28  1  0.503650  0.996221  0.995995  1
