# generated using pymatgen
data_Pr7Nd(Si3Au)4
_symmetry_space_group_name_H-M   'P 1'
_cell_length_a   8.31043164
_cell_length_b   8.31043199
_cell_length_c   8.75361600
_cell_angle_alpha   90.00000000
_cell_angle_beta   90.00000000
_cell_angle_gamma   119.98559958
_symmetry_Int_Tables_number   1
_chemical_formula_structural   Pr7Nd(Si3Au)4
_chemical_formula_sum   'Pr7 Nd1 Si12 Au4'
_cell_volume   523.63456368
_cell_formula_units_Z   1
loop_
 _symmetry_equiv_pos_site_id
 _symmetry_equiv_pos_as_xyz
  1  'x, y, z'
loop_
 _atom_site_type_symbol
 _atom_site_label
 _atom_site_symmetry_multiplicity
 _atom_site_fract_x
 _atom_site_fract_y
 _atom_site_fract_z
 _atom_site_occupancy
  Pr  Pr0  1  0.500257  0.499743  0.250000  1
  Pr  Pr1  1  0.000536  0.500238  0.750000  1
  Pr  Pr2  1  0.999483  0.499758  0.250000  1
  Pr  Pr3  1  0.499762  0.999464  0.750000  1
  Pr  Pr4  1  0.500242  0.000517  0.250000  1
  Pr  Pr5  1  0.000003  0.999997  0.750000  1
  Pr  Pr6  1  0.000003  0.999997  0.250000  1
  Nd  Nd7  1  0.499732  0.500268  0.750000  1
  Si  Si8  1  0.836090  0.163910  0.000268  1
  Si  Si9  1  0.163905  0.836095  0.999778  1
  Si  Si10  1  0.327764  0.164011  0.999789  1
  Si  Si11  1  0.163905  0.836095  0.500222  1
  Si  Si12  1  0.672234  0.835984  0.999236  1
  Si  Si13  1  0.836090  0.163910  0.499732  1
  Si  Si14  1  0.835989  0.672236  0.999789  1
  Si  Si15  1  0.672234  0.835984  0.500764  1
  Si  Si16  1  0.164016  0.327766  0.999236  1
  Si  Si17  1  0.327764  0.164011  0.500211  1
  Si  Si18  1  0.164016  0.327766  0.500764  1
  Si  Si19  1  0.835989  0.672236  0.500211  1
  Au  Au20  1  0.666441  0.333559  0.998239  1
  Au  Au21  1  0.333551  0.666449  0.999916  1
  Au  Au22  1  0.333551  0.666449  0.500084  1
  Au  Au23  1  0.666441  0.333559  0.501761  1
