# generated using pymatgen
data_Hf4Cu2(NiRh)5
_symmetry_space_group_name_H-M   'P 1'
_cell_length_a   3.91753900
_cell_length_b   5.38946912
_cell_length_c   10.79416936
_cell_angle_alpha   89.38607832
_cell_angle_beta   90.00000000
_cell_angle_gamma   90.00000000
_symmetry_Int_Tables_number   1
_chemical_formula_structural   Hf4Cu2(NiRh)5
_chemical_formula_sum   'Hf4 Cu2 Ni5 Rh5'
_cell_volume   227.88913150
_cell_formula_units_Z   1
loop_
 _symmetry_equiv_pos_site_id
 _symmetry_equiv_pos_as_xyz
  1  'x, y, z'
loop_
 _atom_site_type_symbol
 _atom_site_label
 _atom_site_symmetry_multiplicity
 _atom_site_fract_x
 _atom_site_fract_y
 _atom_site_fract_z
 _atom_site_occupancy
  Hf  Hf0  1  0.500000  0.228618  0.628440  1
  Hf  Hf1  1  0.500000  0.771382  0.371560  1
  Hf  Hf2  1  0.500000  0.729110  0.869623  1
  Hf  Hf3  1  0.500000  0.270890  0.130377  1
  Cu  Cu4  1  0.000000  0.500000  0.500000  1
  Cu  Cu5  1  0.000000  0.000000  0.000000  1
  Ni  Ni6  1  0.000000  0.475356  0.746165  1
  Ni  Ni7  1  0.000000  0.524644  0.253835  1
  Ni  Ni8  1  0.000000  0.000000  0.500000  1
  Ni  Ni9  1  0.000000  0.024266  0.253926  1
  Ni  Ni10  1  0.000000  0.975734  0.746074  1
  Rh  Rh11  1  0.500000  0.226597  0.872618  1
  Rh  Rh12  1  0.500000  0.773403  0.127382  1
  Rh  Rh13  1  0.500000  0.734256  0.621352  1
  Rh  Rh14  1  0.500000  0.265744  0.378648  1
  Rh  Rh15  1  0.000000  0.500000  0.000000  1
