# generated using pymatgen
data_TlNiPS4
_symmetry_space_group_name_H-M   'P 1'
_cell_length_a   8.33756300
_cell_length_b   8.33756300
_cell_length_c   10.78293500
_cell_angle_alpha   90.00000000
_cell_angle_beta   90.00000000
_cell_angle_gamma   90.00000000
_symmetry_Int_Tables_number   1
_chemical_formula_structural   TlNiPS4
_chemical_formula_sum   'Tl4 Ni4 P4 S16'
_cell_volume   749.57526048
_cell_formula_units_Z   4
loop_
 _symmetry_equiv_pos_site_id
 _symmetry_equiv_pos_as_xyz
  1  'x, y, z'
loop_
 _atom_site_type_symbol
 _atom_site_label
 _atom_site_symmetry_multiplicity
 _atom_site_fract_x
 _atom_site_fract_y
 _atom_site_fract_z
 _atom_site_occupancy
  Tl  Tl0  1  0.500000  0.000000  0.250000  1
  Tl  Tl1  1  0.000000  0.500000  0.250000  1
  Tl  Tl2  1  0.500000  0.000000  0.750000  1
  Tl  Tl3  1  0.000000  0.500000  0.750000  1
  Ni  Ni4  1  0.000000  0.000000  0.000000  1
  Ni  Ni5  1  0.500000  0.500000  0.000000  1
  Ni  Ni6  1  0.000000  0.000000  0.500000  1
  Ni  Ni7  1  0.500000  0.500000  0.500000  1
  P  P8  1  0.250398  0.250398  0.000000  1
  P  P9  1  0.749602  0.749602  0.000000  1
  P  P10  1  0.750398  0.249602  0.500000  1
  P  P11  1  0.249602  0.750398  0.500000  1
  S  S12  1  0.264273  0.004449  0.000000  1
  S  S13  1  0.004449  0.264273  0.000000  1
  S  S14  1  0.995552  0.735727  0.000000  1
  S  S15  1  0.735727  0.995552  0.000000  1
  S  S16  1  0.365150  0.365150  0.142815  1
  S  S17  1  0.634850  0.634850  0.142815  1
  S  S18  1  0.865150  0.134850  0.357185  1
  S  S19  1  0.134850  0.865150  0.357185  1
  S  S20  1  0.504448  0.235727  0.500000  1
  S  S21  1  0.764272  0.495551  0.500000  1
  S  S22  1  0.235727  0.504448  0.500000  1
  S  S23  1  0.495551  0.764272  0.500000  1
  S  S24  1  0.865150  0.134850  0.642815  1
  S  S25  1  0.134850  0.865150  0.642815  1
  S  S26  1  0.365150  0.365150  0.857185  1
  S  S27  1  0.634850  0.634850  0.857185  1
