# generated using pymatgen
data_Lu2Al9Os2Rh
_symmetry_space_group_name_H-M   'P 1'
_cell_length_a   7.51924190
_cell_length_b   7.51924188
_cell_length_c   9.52398300
_cell_angle_alpha   90.00000000
_cell_angle_beta   90.00000000
_cell_angle_gamma   119.81475918
_symmetry_Int_Tables_number   1
_chemical_formula_structural   Lu2Al9Os2Rh
_chemical_formula_sum   'Lu4 Al18 Os4 Rh2'
_cell_volume   467.20232015
_cell_formula_units_Z   2
loop_
 _symmetry_equiv_pos_site_id
 _symmetry_equiv_pos_as_xyz
  1  'x, y, z'
loop_
 _atom_site_type_symbol
 _atom_site_label
 _atom_site_symmetry_multiplicity
 _atom_site_fract_x
 _atom_site_fract_y
 _atom_site_fract_z
 _atom_site_occupancy
  Lu  Lu0  1  0.997582  0.667200  0.250000  1
  Lu  Lu1  1  0.002418  0.332800  0.750000  1
  Lu  Lu2  1  0.667200  0.997582  0.250000  1
  Lu  Lu3  1  0.332800  0.002418  0.750000  1
  Al  Al4  1  0.125818  0.125818  0.250000  1
  Al  Al5  1  0.874182  0.874182  0.750000  1
  Al  Al6  1  0.002715  0.335407  0.072524  1
  Al  Al7  1  0.997285  0.664593  0.927476  1
  Al  Al8  1  0.997285  0.664593  0.572524  1
  Al  Al9  1  0.335407  0.002715  0.427476  1
  Al  Al10  1  0.002715  0.335407  0.427476  1
  Al  Al11  1  0.664593  0.997285  0.572524  1
  Al  Al12  1  0.664593  0.997285  0.927476  1
  Al  Al13  1  0.335407  0.002715  0.072524  1
  Al  Al14  1  0.336379  0.336379  0.552398  1
  Al  Al15  1  0.663621  0.663621  0.447602  1
  Al  Al16  1  0.663621  0.663621  0.052398  1
  Al  Al17  1  0.336379  0.336379  0.947602  1
  Al  Al18  1  0.337209  0.548598  0.250000  1
  Al  Al19  1  0.662791  0.451402  0.750000  1
  Al  Al20  1  0.548598  0.337209  0.250000  1
  Al  Al21  1  0.451402  0.662791  0.750000  1
  Os  Os22  1  0.673313  0.326687  0.000000  1
  Os  Os23  1  0.326687  0.673313  0.000000  1
  Os  Os24  1  0.326687  0.673313  0.500000  1
  Os  Os25  1  0.673313  0.326687  0.500000  1
  Rh  Rh26  1  0.000000  0.000000  0.000000  1
  Rh  Rh27  1  0.000000  0.000000  0.500000  1
