# generated using pymatgen
data_U4Zn3Ir5
_symmetry_space_group_name_H-M   'P 1'
_cell_length_a   5.48332123
_cell_length_b   5.48333438
_cell_length_c   7.93552400
_cell_angle_alpha   90.00000000
_cell_angle_beta   90.00000000
_cell_angle_gamma   118.11957492
_symmetry_Int_Tables_number   1
_chemical_formula_structural   U4Zn3Ir5
_chemical_formula_sum   'U4 Zn3 Ir5'
_cell_volume   210.43395651
_cell_formula_units_Z   1
loop_
 _symmetry_equiv_pos_site_id
 _symmetry_equiv_pos_as_xyz
  1  'x, y, z'
loop_
 _atom_site_type_symbol
 _atom_site_label
 _atom_site_symmetry_multiplicity
 _atom_site_fract_x
 _atom_site_fract_y
 _atom_site_fract_z
 _atom_site_occupancy
  U  U0  1  0.651180  0.348800  0.578409  1
  U  U1  1  0.339743  0.660263  0.432646  1
  U  U2  1  0.339743  0.660263  0.067354  1
  U  U3  1  0.651180  0.348800  0.921591  1
  Zn  Zn4  1  0.839035  0.160967  0.250000  1
  Zn  Zn5  1  0.997274  0.002723  0.003474  1
  Zn  Zn6  1  0.997274  0.002723  0.496526  1
  Ir  Ir7  1  0.157467  0.341097  0.750000  1
  Ir  Ir8  1  0.658883  0.842506  0.750000  1
  Ir  Ir9  1  0.165416  0.834565  0.750000  1
  Ir  Ir10  1  0.847074  0.644295  0.250000  1
  Ir  Ir11  1  0.355731  0.153000  0.250000  1
