# generated using pymatgen
data_PaNi4Pd
_symmetry_space_group_name_H-M   'P 1'
_cell_length_a   4.90035415
_cell_length_b   4.90054981
_cell_length_c   4.90033200
_cell_angle_alpha   60.00145678
_cell_angle_beta   60.00013603
_cell_angle_gamma   60.00144907
_symmetry_Int_Tables_number   1
_chemical_formula_structural   PaNi4Pd
_chemical_formula_sum   'Pa1 Ni4 Pd1'
_cell_volume   83.21330410
_cell_formula_units_Z   1
loop_
 _symmetry_equiv_pos_site_id
 _symmetry_equiv_pos_as_xyz
  1  'x, y, z'
loop_
 _atom_site_type_symbol
 _atom_site_label
 _atom_site_symmetry_multiplicity
 _atom_site_fract_x
 _atom_site_fract_y
 _atom_site_fract_z
 _atom_site_occupancy
  Pa  Pa0  1  0.749969  0.749720  0.750156  1
  Ni  Ni1  1  0.125671  0.125703  0.125612  1
  Ni  Ni2  1  0.623093  0.125686  0.125611  1
  Ni  Ni3  1  0.125623  0.623216  0.125581  1
  Ni  Ni4  1  0.125671  0.125703  0.623015  1
  Pd  Pd5  1  0.499974  0.499973  0.500027  1
