# generated using pymatgen
data_Mg3Ni(WO3)8
_symmetry_space_group_name_H-M   'P 1'
_cell_length_a   4.68522751
_cell_length_b   10.68088857
_cell_length_c   9.37172915
_cell_angle_alpha   63.98164386
_cell_angle_beta   89.94485093
_cell_angle_gamma   89.97588789
_symmetry_Int_Tables_number   1
_chemical_formula_structural   Mg3Ni(WO3)8
_chemical_formula_sum   'Mg3 Ni1 W8 O24'
_cell_volume   421.45372243
_cell_formula_units_Z   1
loop_
 _symmetry_equiv_pos_site_id
 _symmetry_equiv_pos_as_xyz
  1  'x, y, z'
loop_
 _atom_site_type_symbol
 _atom_site_label
 _atom_site_symmetry_multiplicity
 _atom_site_fract_x
 _atom_site_fract_y
 _atom_site_fract_z
 _atom_site_occupancy
  Mg  Mg0  1  0.500007  0.499954  0.000013  1
  Mg  Mg1  1  0.000081  0.000017  0.500036  1
  Mg  Mg2  1  0.499890  0.500028  0.500017  1
  Ni  Ni3  1  0.000053  0.000071  0.000271  1
  W  W4  1  0.501129  0.163839  0.167568  1
  W  W5  1  0.498945  0.163817  0.668619  1
  W  W6  1  0.999962  0.664423  0.167762  1
  W  W7  1  0.999951  0.663916  0.668024  1
  W  W8  1  0.498833  0.836159  0.832414  1
  W  W9  1  0.501104  0.836175  0.331419  1
  W  W10  1  0.000026  0.336075  0.331967  1
  W  W11  1  0.000059  0.335567  0.832206  1
  O  O12  1  0.191232  0.499949  0.845579  1
  O  O13  1  0.191204  0.500081  0.345528  1
  O  O14  1  0.808825  0.500041  0.154369  1
  O  O15  1  0.808802  0.499915  0.654449  1
  O  O16  1  0.309536  0.000022  0.345258  1
  O  O17  1  0.306912  0.000002  0.846322  1
  O  O18  1  0.693003  0.999984  0.153724  1
  O  O19  1  0.690400  0.999982  0.654695  1
  O  O20  1  0.206109  0.172771  0.016328  1
  O  O21  1  0.206444  0.173128  0.516746  1
  O  O22  1  0.793673  0.173094  0.310129  1
  O  O23  1  0.793985  0.172747  0.810887  1
  O  O24  1  0.293955  0.672926  0.016674  1
  O  O25  1  0.293575  0.673656  0.516125  1
  O  O26  1  0.706307  0.673607  0.810196  1
  O  O27  1  0.705990  0.672926  0.310352  1
  O  O28  1  0.793913  0.827213  0.983643  1
  O  O29  1  0.793620  0.826900  0.483229  1
  O  O30  1  0.206347  0.826904  0.689852  1
  O  O31  1  0.206026  0.827230  0.189114  1
  O  O32  1  0.706063  0.327054  0.983295  1
  O  O33  1  0.706447  0.326369  0.483855  1
  O  O34  1  0.293576  0.326374  0.189738  1
  O  O35  1  0.294019  0.327089  0.689593  1
