# generated using pymatgen
data_Pr6B(NO2)3
_symmetry_space_group_name_H-M   'P 1'
_cell_length_a   3.62235818
_cell_length_b   10.90246800
_cell_length_c   12.56894958
_cell_angle_alpha   90.00000000
_cell_angle_beta   81.71486617
_cell_angle_gamma   90.00000000
_symmetry_Int_Tables_number   1
_chemical_formula_structural   Pr6B(NO2)3
_chemical_formula_sum   'Pr12 B2 N6 O12'
_cell_volume   491.20042846
_cell_formula_units_Z   2
loop_
 _symmetry_equiv_pos_site_id
 _symmetry_equiv_pos_as_xyz
  1  'x, y, z'
loop_
 _atom_site_type_symbol
 _atom_site_label
 _atom_site_symmetry_multiplicity
 _atom_site_fract_x
 _atom_site_fract_y
 _atom_site_fract_z
 _atom_site_occupancy
  Pr  Pr0  1  0.451990  0.250000  0.096016  1
  Pr  Pr1  1  0.932225  0.566100  0.135551  1
  Pr  Pr2  1  0.932225  0.933900  0.135551  1
  Pr  Pr3  1  0.313158  0.068655  0.373681  1
  Pr  Pr4  1  0.313158  0.431345  0.373681  1
  Pr  Pr5  1  0.300768  0.750000  0.398462  1
  Pr  Pr6  1  0.699231  0.250000  0.601538  1
  Pr  Pr7  1  0.686841  0.568655  0.626319  1
  Pr  Pr8  1  0.686841  0.931345  0.626319  1
  Pr  Pr9  1  0.067774  0.066100  0.864449  1
  Pr  Pr10  1  0.067774  0.433900  0.864449  1
  Pr  Pr11  1  0.548009  0.750000  0.903983  1
  B  B12  1  0.859528  0.250000  0.280943  1
  B  B13  1  0.140471  0.750000  0.719056  1
  N  N14  1  0.889365  0.132935  0.221271  1
  N  N15  1  0.889365  0.367065  0.221271  1
  N  N16  1  0.800430  0.250000  0.399141  1
  N  N17  1  0.199569  0.750000  0.600858  1
  N  N18  1  0.110634  0.632935  0.778730  1
  N  N19  1  0.110634  0.867065  0.778730  1
  O  O20  1  0.499999  0.000000  0.000000  1
  O  O21  1  0.499999  0.500000  0.000000  1
  O  O22  1  0.986724  0.750000  0.026553  1
  O  O23  1  0.376385  0.608202  0.247227  1
  O  O24  1  0.376385  0.891797  0.247227  1
  O  O25  1  0.783292  0.591179  0.433418  1
  O  O26  1  0.783292  0.908821  0.433418  1
  O  O27  1  0.216707  0.091179  0.566582  1
  O  O28  1  0.216707  0.408821  0.566582  1
  O  O29  1  0.623613  0.108202  0.752773  1
  O  O30  1  0.623613  0.391798  0.752773  1
  O  O31  1  0.013275  0.250000  0.973448  1
