# generated using pymatgen
data_LuSc19Si7Sb9
_symmetry_space_group_name_H-M   'P 1'
_cell_length_a   7.38443420
_cell_length_b   7.42438800
_cell_length_c   14.31033504
_cell_angle_alpha   89.97685576
_cell_angle_beta   90.30498169
_cell_angle_gamma   89.02089039
_symmetry_Int_Tables_number   1
_chemical_formula_structural   LuSc19Si7Sb9
_chemical_formula_sum   'Lu1 Sc19 Si7 Sb9'
_cell_volume   784.43699214
_cell_formula_units_Z   1
loop_
 _symmetry_equiv_pos_site_id
 _symmetry_equiv_pos_as_xyz
  1  'x, y, z'
loop_
 _atom_site_type_symbol
 _atom_site_label
 _atom_site_symmetry_multiplicity
 _atom_site_fract_x
 _atom_site_fract_y
 _atom_site_fract_z
 _atom_site_occupancy
  Lu  Lu0  1  0.046186  0.691385  0.610355  1
  Sc  Sc1  1  0.218221  0.993165  0.750698  1
  Sc  Sc2  1  0.782799  0.000471  0.250023  1
  Sc  Sc3  1  0.281726  0.494002  0.249159  1
  Sc  Sc4  1  0.708489  0.509281  0.750472  1
  Sc  Sc5  1  0.951525  0.319665  0.382706  1
  Sc  Sc6  1  0.450497  0.173596  0.381347  1
  Sc  Sc7  1  0.949791  0.320870  0.117611  1
  Sc  Sc8  1  0.548322  0.824862  0.614186  1
  Sc  Sc9  1  0.052348  0.690485  0.885619  1
  Sc  Sc10  1  0.549303  0.825585  0.886571  1
  Sc  Sc11  1  0.446374  0.173225  0.119094  1
  Sc  Sc12  1  0.398665  0.337904  0.629328  1
  Sc  Sc13  1  0.612197  0.661008  0.367296  1
  Sc  Sc14  1  0.115844  0.835751  0.367763  1
  Sc  Sc15  1  0.610496  0.661095  0.131725  1
  Sc  Sc16  1  0.873069  0.153078  0.627313  1
  Sc  Sc17  1  0.402441  0.337242  0.872514  1
  Sc  Sc18  1  0.873692  0.152635  0.874758  1
  Sc  Sc19  1  0.112984  0.835119  0.131162  1
  Si  Si20  1  0.911833  0.615429  0.249707  1
  Si  Si21  1  0.410708  0.881242  0.249709  1
  Si  Si22  1  0.586843  0.116598  0.750650  1
  Si  Si23  1  0.362254  0.648896  0.750381  1
  Si  Si24  1  0.652639  0.361321  0.249776  1
  Si  Si25  1  0.151790  0.133517  0.249906  1
  Si  Si26  1  0.844253  0.867173  0.751631  1
  Sb  Sb27  1  0.084627  0.377979  0.751648  1
  Sb  Sb28  1  0.227977  0.034823  0.539586  1
  Sb  Sb29  1  0.772977  0.969517  0.456751  1
  Sb  Sb30  1  0.274498  0.520872  0.456205  1
  Sb  Sb31  1  0.768562  0.973770  0.044548  1
  Sb  Sb32  1  0.729206  0.473950  0.539768  1
  Sb  Sb33  1  0.226762  0.029945  0.959932  1
  Sb  Sb34  1  0.738503  0.482432  0.958857  1
  Sb  Sb35  1  0.271602  0.522114  0.041247  1
