# generated using pymatgen
data_PrErSi5(AsRh6)2
_symmetry_space_group_name_H-M   'P 1'
_cell_length_a   9.84100227
_cell_length_b   9.84551020
_cell_length_c   3.89775427
_cell_angle_alpha   89.95714802
_cell_angle_beta   90.00454921
_cell_angle_gamma   120.13585452
_symmetry_Int_Tables_number   1
_chemical_formula_structural   PrErSi5(AsRh6)2
_chemical_formula_sum   'Pr1 Er1 Si5 As2 Rh12'
_cell_volume   326.60763860
_cell_formula_units_Z   1
loop_
 _symmetry_equiv_pos_site_id
 _symmetry_equiv_pos_as_xyz
  1  'x, y, z'
loop_
 _atom_site_type_symbol
 _atom_site_label
 _atom_site_symmetry_multiplicity
 _atom_site_fract_x
 _atom_site_fract_y
 _atom_site_fract_z
 _atom_site_occupancy
  Pr  Pr0  1  0.666814  0.330217  0.748885  1
  Er  Er1  1  0.334449  0.668974  0.253273  1
  Si  Si2  1  0.000013  0.000276  0.565751  1
  Si  Si3  1  0.291348  0.888236  0.753147  1
  Si  Si4  1  0.109915  0.400456  0.752629  1
  Si  Si5  1  0.598222  0.713421  0.751605  1
  Si  Si6  1  0.711040  0.106002  0.250061  1
  As  As7  1  0.887925  0.599039  0.249676  1
  As  As8  1  0.400431  0.288978  0.248714  1
  Rh  Rh9  1  0.073053  0.623247  0.754211  1
  Rh  Rh10  1  0.374696  0.450815  0.752535  1
  Rh  Rh11  1  0.556104  0.933237  0.753634  1
  Rh  Rh12  1  0.943732  0.381362  0.250031  1
  Rh  Rh13  1  0.612867  0.563231  0.248685  1
  Rh  Rh14  1  0.442299  0.054436  0.250314  1
  Rh  Rh15  1  0.264732  0.116802  0.749050  1
  Rh  Rh16  1  0.879632  0.145903  0.747690  1
  Rh  Rh17  1  0.851549  0.736276  0.748593  1
  Rh  Rh18  1  0.744358  0.883059  0.257184  1
  Rh  Rh19  1  0.119266  0.860150  0.259011  1
  Rh  Rh20  1  0.137551  0.255886  0.258943  1
