# generated using pymatgen
data_Nd6Sn5HgPd6
_symmetry_space_group_name_H-M   'P 1'
_cell_length_a   7.71153600
_cell_length_b   7.65311018
_cell_length_c   8.28387317
_cell_angle_alpha   89.94706283
_cell_angle_beta   90.00000000
_cell_angle_gamma   120.25285354
_symmetry_Int_Tables_number   1
_chemical_formula_structural   Nd6Sn5HgPd6
_chemical_formula_sum   'Nd6 Sn5 Hg1 Pd6'
_cell_volume   422.30914348
_cell_formula_units_Z   1
loop_
 _symmetry_equiv_pos_site_id
 _symmetry_equiv_pos_as_xyz
  1  'x, y, z'
loop_
 _atom_site_type_symbol
 _atom_site_label
 _atom_site_symmetry_multiplicity
 _atom_site_fract_x
 _atom_site_fract_y
 _atom_site_fract_z
 _atom_site_occupancy
  Nd  Nd0  1  0.414983  0.001181  0.246914  1
  Nd  Nd1  1  0.590441  0.590948  0.248058  1
  Nd  Nd2  1  0.996619  0.407645  0.248198  1
  Nd  Nd3  1  0.413802  0.998819  0.753086  1
  Nd  Nd4  1  0.588975  0.592355  0.751802  1
  Nd  Nd5  1  0.999493  0.409052  0.751942  1
  Sn  Sn6  1  0.259720  0.256698  0.499910  1
  Sn  Sn7  1  0.003022  0.743302  0.500090  1
  Sn  Sn8  1  0.997877  0.753706  0.999843  1
  Sn  Sn9  1  0.244171  0.246294  0.000157  1
  Sn  Sn10  1  0.747217  0.000000  0.500000  1
  Hg  Hg11  1  0.739670  0.000000  0.000000  1
  Pd  Pd12  1  0.319542  0.656517  0.002397  1
  Pd  Pd13  1  0.335062  0.666143  0.497135  1
  Pd  Pd14  1  0.663026  0.343483  0.997603  1
  Pd  Pd15  1  0.668919  0.333857  0.502865  1
  Pd  Pd16  1  0.008692  0.999924  0.257798  1
  Pd  Pd17  1  0.008768  0.000076  0.742202  1
