# generated using pymatgen
data_Hf6Sc2V12Si15As
_symmetry_space_group_name_H-M   'P 1'
_cell_length_a   6.60613956
_cell_length_b   6.60893874
_cell_length_c   12.23438411
_cell_angle_alpha   89.87907238
_cell_angle_beta   90.02507730
_cell_angle_gamma   90.02809333
_symmetry_Int_Tables_number   1
_chemical_formula_structural   Hf6Sc2V12Si15As
_chemical_formula_sum   'Hf6 Sc2 V12 Si15 As1'
_cell_volume   534.14666527
_cell_formula_units_Z   1
loop_
 _symmetry_equiv_pos_site_id
 _symmetry_equiv_pos_as_xyz
  1  'x, y, z'
loop_
 _atom_site_type_symbol
 _atom_site_label
 _atom_site_symmetry_multiplicity
 _atom_site_fract_x
 _atom_site_fract_y
 _atom_site_fract_z
 _atom_site_occupancy
  Hf  Hf0  1  0.003900  0.659511  0.029256  1
  Hf  Hf1  1  0.837299  0.503040  0.280374  1
  Hf  Hf2  1  0.161131  0.495414  0.779056  1
  Hf  Hf3  1  0.502802  0.837802  0.719521  1
  Hf  Hf4  1  0.499478  0.165114  0.221726  1
  Hf  Hf5  1  0.996102  0.339248  0.530104  1
  Sc  Sc6  1  0.662750  0.000874  0.970120  1
  Sc  Sc7  1  0.337816  0.998290  0.470580  1
  V  V8  1  0.330399  0.337502  0.000027  1
  V  V9  1  0.165856  0.833178  0.250707  1
  V  V10  1  0.834157  0.166378  0.749323  1
  V  V11  1  0.668610  0.665387  0.500065  1
  V  V12  1  0.999618  0.163905  0.128687  1
  V  V13  1  0.340761  0.504056  0.376264  1
  V  V14  1  0.661587  0.494988  0.875599  1
  V  V15  1  0.505157  0.341140  0.623907  1
  V  V16  1  0.495836  0.658367  0.123601  1
  V  V17  1  0.995925  0.839496  0.627070  1
  V  V18  1  0.159470  0.002211  0.871986  1
  V  V19  1  0.840502  0.995863  0.373162  1
  Si  Si20  1  0.538102  0.792737  0.315522  1
  Si  Si21  1  0.462402  0.207600  0.814920  1
  Si  Si22  1  0.791490  0.539588  0.685388  1
  Si  Si23  1  0.207880  0.461257  0.186276  1
  Si  Si24  1  0.708256  0.038238  0.563959  1
  Si  Si25  1  0.959155  0.289220  0.935106  1
  Si  Si26  1  0.040315  0.710173  0.435694  1
  Si  Si27  1  0.703522  0.372897  0.070460  1
  Si  Si28  1  0.127594  0.204727  0.322110  1
  Si  Si29  1  0.872268  0.795200  0.821143  1
  Si  Si30  1  0.205241  0.126791  0.678794  1
  Si  Si31  1  0.794866  0.872296  0.179450  1
  Si  Si32  1  0.296030  0.627906  0.570696  1
  Si  Si33  1  0.375714  0.698971  0.924727  1
  Si  Si34  1  0.626628  0.294959  0.429305  1
  As  As35  1  0.291382  0.965676  0.065314  1
