# generated using pymatgen
data_Ac2Nd2DySn4
_symmetry_space_group_name_H-M   'P 1'
_cell_length_a   8.22957000
_cell_length_b   8.62195400
_cell_length_c   16.25154900
_cell_angle_alpha   90.00000000
_cell_angle_beta   90.00000000
_cell_angle_gamma   90.00000000
_symmetry_Int_Tables_number   1
_chemical_formula_structural   Ac2Nd2DySn4
_chemical_formula_sum   'Ac8 Nd8 Dy4 Sn16'
_cell_volume   1153.12823643
_cell_formula_units_Z   4
loop_
 _symmetry_equiv_pos_site_id
 _symmetry_equiv_pos_as_xyz
  1  'x, y, z'
loop_
 _atom_site_type_symbol
 _atom_site_label
 _atom_site_symmetry_multiplicity
 _atom_site_fract_x
 _atom_site_fract_y
 _atom_site_fract_z
 _atom_site_occupancy
  Ac  Ac0  1  0.498385  0.322361  0.904800  1
  Ac  Ac1  1  0.998385  0.177639  0.595200  1
  Ac  Ac2  1  0.501615  0.677639  0.404800  1
  Ac  Ac3  1  0.001615  0.822361  0.095200  1
  Ac  Ac4  1  0.501615  0.677639  0.095200  1
  Ac  Ac5  1  0.001615  0.822361  0.404800  1
  Ac  Ac6  1  0.498385  0.322361  0.595200  1
  Ac  Ac7  1  0.998385  0.177639  0.904800  1
  Nd  Nd8  1  0.332692  0.833525  0.875500  1
  Nd  Nd9  1  0.832692  0.666475  0.624500  1
  Nd  Nd10  1  0.667308  0.166475  0.375500  1
  Nd  Nd11  1  0.167308  0.333525  0.124500  1
  Nd  Nd12  1  0.667308  0.166475  0.124500  1
  Nd  Nd13  1  0.167308  0.333525  0.375500  1
  Nd  Nd14  1  0.332692  0.833525  0.624500  1
  Nd  Nd15  1  0.832692  0.666475  0.875500  1
  Dy  Dy16  1  0.169674  0.500263  0.750000  1
  Dy  Dy17  1  0.669674  0.999737  0.750000  1
  Dy  Dy18  1  0.830326  0.499737  0.250000  1
  Dy  Dy19  1  0.330326  0.000263  0.250000  1
  Sn  Sn20  1  0.328828  0.039275  0.043324  1
  Sn  Sn21  1  0.828828  0.460725  0.456676  1
  Sn  Sn22  1  0.671172  0.960725  0.543324  1
  Sn  Sn23  1  0.171172  0.539275  0.956676  1
  Sn  Sn24  1  0.671172  0.960725  0.956676  1
  Sn  Sn25  1  0.171172  0.539275  0.543324  1
  Sn  Sn26  1  0.328828  0.039275  0.456676  1
  Sn  Sn27  1  0.828828  0.460725  0.043324  1
  Sn  Sn28  1  0.530237  0.622681  0.750000  1
  Sn  Sn29  1  0.030237  0.877319  0.750000  1
  Sn  Sn30  1  0.469763  0.377319  0.250000  1
  Sn  Sn31  1  0.969763  0.122681  0.250000  1
  Sn  Sn32  1  0.301733  0.141874  0.750000  1
  Sn  Sn33  1  0.801733  0.358126  0.750000  1
  Sn  Sn34  1  0.698267  0.858126  0.250000  1
  Sn  Sn35  1  0.198267  0.641874  0.250000  1
