# generated using pymatgen
data_Sc7SI12
_symmetry_space_group_name_H-M   'P 1'
_cell_length_a   9.36491857
_cell_length_b   9.36491934
_cell_length_c   9.36491988
_cell_angle_alpha   107.67949335
_cell_angle_beta   107.67950289
_cell_angle_gamma   107.67949840
_symmetry_Int_Tables_number   1
_chemical_formula_structural   Sc7SI12
_chemical_formula_sum   'Sc7 S1 I12'
_cell_volume   670.92038805
_cell_formula_units_Z   1
loop_
 _symmetry_equiv_pos_site_id
 _symmetry_equiv_pos_as_xyz
  1  'x, y, z'
loop_
 _atom_site_type_symbol
 _atom_site_label
 _atom_site_symmetry_multiplicity
 _atom_site_fract_x
 _atom_site_fract_y
 _atom_site_fract_z
 _atom_site_occupancy
  Sc  Sc0  1  0.500000  0.500000  0.500000  1
  Sc  Sc1  1  0.971331  0.905876  0.712402  1
  Sc  Sc2  1  0.712402  0.971331  0.905876  1
  Sc  Sc3  1  0.905876  0.712402  0.971331  1
  Sc  Sc4  1  0.028669  0.094124  0.287598  1
  Sc  Sc5  1  0.287598  0.028669  0.094124  1
  Sc  Sc6  1  0.094124  0.287598  0.028669  1
  S  S7  1  0.000000  0.000000  0.000000  1
  I  I8  1  0.073070  0.221615  0.691241  1
  I  I9  1  0.691241  0.073070  0.221615  1
  I  I10  1  0.221615  0.691241  0.073070  1
  I  I11  1  0.926930  0.778385  0.308759  1
  I  I12  1  0.308759  0.926930  0.778385  1
  I  I13  1  0.778385  0.308759  0.926930  1
  I  I14  1  0.621253  0.849237  0.546624  1
  I  I15  1  0.546624  0.621253  0.849237  1
  I  I16  1  0.849237  0.546624  0.621253  1
  I  I17  1  0.378747  0.150763  0.453376  1
  I  I18  1  0.453376  0.378747  0.150763  1
  I  I19  1  0.150763  0.453376  0.378747  1
