# generated using pymatgen
data_Ho10Be3Si15Au2
_symmetry_space_group_name_H-M   'P 1'
_cell_length_a   4.07419986
_cell_length_b   4.01764919
_cell_length_c   34.34374575
_cell_angle_alpha   86.64886399
_cell_angle_beta   86.59925086
_cell_angle_gamma   89.99946980
_symmetry_Int_Tables_number   1
_chemical_formula_structural   Ho10Be3Si15Au2
_chemical_formula_sum   'Ho10 Be3 Si15 Au2'
_cell_volume   560.20977566
_cell_formula_units_Z   1
loop_
 _symmetry_equiv_pos_site_id
 _symmetry_equiv_pos_as_xyz
  1  'x, y, z'
loop_
 _atom_site_type_symbol
 _atom_site_label
 _atom_site_symmetry_multiplicity
 _atom_site_fract_x
 _atom_site_fract_y
 _atom_site_fract_z
 _atom_site_occupancy
  Ho  Ho0  1  0.948173  0.448140  0.103726  1
  Ho  Ho1  1  0.350636  0.850689  0.298579  1
  Ho  Ho2  1  0.753402  0.253419  0.493192  1
  Ho  Ho3  1  0.149467  0.649598  0.700921  1
  Ho  Ho4  1  0.545538  0.045636  0.908999  1
  Ho  Ho5  1  0.997184  0.997183  0.005734  1
  Ho  Ho6  1  0.399633  0.399677  0.200696  1
  Ho  Ho7  1  0.802097  0.802227  0.395767  1
  Ho  Ho8  1  0.205317  0.205322  0.589471  1
  Ho  Ho9  1  0.601824  0.601874  0.796398  1
  Be  Be10  1  0.464985  0.964887  0.069963  1
  Be  Be11  1  0.867332  0.367401  0.265038  1
  Be  Be12  1  0.270199  0.770384  0.459728  1
  Si  Si13  1  0.667003  0.167013  0.665606  1
  Si  Si14  1  0.063141  0.563202  0.873720  1
  Si  Si15  1  0.916223  0.916159  0.167689  1
  Si  Si16  1  0.318656  0.318756  0.362547  1
  Si  Si17  1  0.721225  0.721273  0.557488  1
  Si  Si18  1  0.116892  0.116936  0.766054  1
  Si  Si19  1  0.513400  0.513379  0.973299  1
  Si  Si20  1  0.433199  0.933125  0.133719  1
  Si  Si21  1  0.835557  0.335712  0.328708  1
  Si  Si22  1  0.238081  0.738114  0.523669  1
  Si  Si23  1  0.633625  0.133803  0.732616  1
  Si  Si24  1  0.029927  0.529955  0.940337  1
  Si  Si25  1  0.479419  0.479275  0.041247  1
  Si  Si26  1  0.882120  0.882117  0.235625  1
  Si  Si27  1  0.284792  0.284933  0.430497  1
  Au  Au28  1  0.686119  0.685235  0.628182  1
  Au  Au29  1  0.082036  0.081780  0.836386  1
