# generated using pymatgen
data_Dy2Y5Ho5Rh4
_symmetry_space_group_name_H-M   'P 1'
_cell_length_a   6.27670470
_cell_length_b   7.18057548
_cell_length_c   9.49411396
_cell_angle_alpha   89.98255384
_cell_angle_beta   89.71272642
_cell_angle_gamma   90.07045362
_symmetry_Int_Tables_number   1
_chemical_formula_structural   Dy2Y5Ho5Rh4
_chemical_formula_sum   'Dy2 Y5 Ho5 Rh4'
_cell_volume   427.89733438
_cell_formula_units_Z   1
loop_
 _symmetry_equiv_pos_site_id
 _symmetry_equiv_pos_as_xyz
  1  'x, y, z'
loop_
 _atom_site_type_symbol
 _atom_site_label
 _atom_site_symmetry_multiplicity
 _atom_site_fract_x
 _atom_site_fract_y
 _atom_site_fract_z
 _atom_site_occupancy
  Dy  Dy0  1  0.170085  0.176101  0.063450  1
  Dy  Dy1  1  0.829400  0.823899  0.936519  1
  Y  Y2  1  0.632453  0.031899  0.249902  1
  Y  Y3  1  0.367391  0.967520  0.749582  1
  Y  Y4  1  0.132798  0.467147  0.749676  1
  Y  Y5  1  0.867433  0.532889  0.249710  1
  Y  Y6  1  0.669834  0.324156  0.562432  1
  Ho  Ho7  1  0.670010  0.323937  0.936588  1
  Ho  Ho8  1  0.829490  0.823768  0.563030  1
  Ho  Ho9  1  0.329990  0.676198  0.063337  1
  Ho  Ho10  1  0.170569  0.175980  0.436681  1
  Ho  Ho11  1  0.329134  0.676015  0.436093  1
  Rh  Rh12  1  0.436740  0.384167  0.248753  1
  Rh  Rh13  1  0.562213  0.617387  0.752252  1
  Rh  Rh14  1  0.938041  0.115170  0.750058  1
  Rh  Rh15  1  0.064419  0.883766  0.251937  1
