# generated using pymatgen
data_Sr3(IO5)2
_symmetry_space_group_name_H-M   'P 1'
_cell_length_a   5.73626555
_cell_length_b   5.73626636
_cell_length_c   7.24756300
_cell_angle_alpha   72.76477203
_cell_angle_beta   72.76475904
_cell_angle_gamma   88.96315653
_symmetry_Int_Tables_number   1
_chemical_formula_structural   Sr3(IO5)2
_chemical_formula_sum   'Sr3 I2 O10'
_cell_volume   216.90702294
_cell_formula_units_Z   1
loop_
 _symmetry_equiv_pos_site_id
 _symmetry_equiv_pos_as_xyz
  1  'x, y, z'
loop_
 _atom_site_type_symbol
 _atom_site_label
 _atom_site_symmetry_multiplicity
 _atom_site_fract_x
 _atom_site_fract_y
 _atom_site_fract_z
 _atom_site_occupancy
  Sr  Sr0  1  0.500001  0.499999  0.000000  1
  Sr  Sr1  1  0.753236  0.246764  0.500000  1
  Sr  Sr2  1  0.246699  0.753301  0.500000  1
  I  I3  1  0.156279  0.156239  0.787786  1
  I  I4  1  0.843761  0.843721  0.212214  1
  O  O5  1  0.826470  0.826485  0.475745  1
  O  O6  1  0.173515  0.173530  0.524255  1
  O  O7  1  0.599131  0.599233  0.276055  1
  O  O8  1  0.400767  0.400869  0.723945  1
  O  O9  1  0.384555  0.920532  0.780451  1
  O  O10  1  0.885848  0.885695  0.917575  1
  O  O11  1  0.114305  0.114152  0.082425  1
  O  O12  1  0.920395  0.384428  0.780548  1
  O  O13  1  0.615572  0.079605  0.219452  1
  O  O14  1  0.079468  0.615445  0.219549  1
