# generated using pymatgen
data_Rb3DyI6
_symmetry_space_group_name_H-M   'P 1'
_cell_length_a   10.46837000
_cell_length_b   10.46837000
_cell_length_c   8.64153700
_cell_angle_alpha   90.00000000
_cell_angle_beta   90.00000000
_cell_angle_gamma   90.00000000
_symmetry_Int_Tables_number   1
_chemical_formula_structural   Rb3DyI6
_chemical_formula_sum   'Rb6 Dy2 I12'
_cell_volume   946.99813161
_cell_formula_units_Z   2
loop_
 _symmetry_equiv_pos_site_id
 _symmetry_equiv_pos_as_xyz
  1  'x, y, z'
loop_
 _atom_site_type_symbol
 _atom_site_label
 _atom_site_symmetry_multiplicity
 _atom_site_fract_x
 _atom_site_fract_y
 _atom_site_fract_z
 _atom_site_occupancy
  Rb  Rb0  1  0.000000  0.000000  0.500000  1
  Rb  Rb1  1  0.000000  0.000000  0.000000  1
  Rb  Rb2  1  0.234276  0.583715  0.500000  1
  Rb  Rb3  1  0.765724  0.416285  0.500000  1
  Rb  Rb4  1  0.416285  0.234276  0.000000  1
  Rb  Rb5  1  0.583715  0.765724  0.000000  1
  Dy  Dy6  1  0.500000  0.000000  0.500000  1
  Dy  Dy7  1  0.000000  0.500000  0.000000  1
  I  I8  1  0.699790  0.050070  0.749056  1
  I  I9  1  0.300210  0.949930  0.749056  1
  I  I10  1  0.949930  0.699790  0.249056  1
  I  I11  1  0.050070  0.300210  0.249056  1
  I  I12  1  0.300210  0.949930  0.250944  1
  I  I13  1  0.699790  0.050070  0.250944  1
  I  I14  1  0.050070  0.300210  0.750944  1
  I  I15  1  0.949930  0.699790  0.750944  1
  I  I16  1  0.561899  0.716069  0.500000  1
  I  I17  1  0.438101  0.283931  0.500000  1
  I  I18  1  0.283931  0.561899  0.000000  1
  I  I19  1  0.716069  0.438101  0.000000  1
