# generated using pymatgen
data_YbPu2RhCl12
_symmetry_space_group_name_H-M   'P 1'
_cell_length_a   12.95382302
_cell_length_b   12.35674640
_cell_length_c   6.45536700
_cell_angle_alpha   80.41675098
_cell_angle_beta   70.15177017
_cell_angle_gamma   32.29765838
_symmetry_Int_Tables_number   1
_chemical_formula_structural   YbPu2RhCl12
_chemical_formula_sum   'Yb1 Pu2 Rh1 Cl12'
_cell_volume   504.15617896
_cell_formula_units_Z   1
loop_
 _symmetry_equiv_pos_site_id
 _symmetry_equiv_pos_as_xyz
  1  'x, y, z'
loop_
 _atom_site_type_symbol
 _atom_site_label
 _atom_site_symmetry_multiplicity
 _atom_site_fract_x
 _atom_site_fract_y
 _atom_site_fract_z
 _atom_site_occupancy
  Yb  Yb0  1  0.423231  0.423231  0.576769  1
  Pu  Pu1  1  0.836709  0.836709  0.663291  1
  Pu  Pu2  1  0.657475  0.657475  0.842525  1
  Rh  Rh3  1  0.583581  0.583581  0.416419  1
  Cl  Cl4  1  0.714754  0.312378  0.255077  1
  Cl  Cl5  1  0.868060  0.442566  0.115858  1
  Cl  Cl6  1  0.361118  0.801208  0.208001  1
  Cl  Cl7  1  0.442566  0.868060  0.573514  1
  Cl  Cl8  1  0.161115  0.662443  0.346079  1
  Cl  Cl9  1  0.312378  0.714754  0.717790  1
  Cl  Cl10  1  0.528457  0.963846  0.970839  1
  Cl  Cl11  1  0.963846  0.528457  0.536858  1
  Cl  Cl12  1  0.077989  0.605070  0.896445  1
  Cl  Cl13  1  0.801208  0.361118  0.629676  1
  Cl  Cl14  1  0.662443  0.161115  0.830363  1
  Cl  Cl15  1  0.605070  0.077989  0.420495  1
