# generated using pymatgen
data_Zr6Mn5Si12Ir
_symmetry_space_group_name_H-M   'P 1'
_cell_length_a   9.90071245
_cell_length_b   9.90071188
_cell_length_c   9.90071105
_cell_angle_alpha   149.62599258
_cell_angle_beta   132.90086215
_cell_angle_gamma   57.07948948
_symmetry_Int_Tables_number   1
_chemical_formula_structural   Zr6Mn5Si12Ir
_chemical_formula_sum   'Zr6 Mn5 Si12 Ir1'
_cell_volume   356.95119497
_cell_formula_units_Z   1
loop_
 _symmetry_equiv_pos_site_id
 _symmetry_equiv_pos_as_xyz
  1  'x, y, z'
loop_
 _atom_site_type_symbol
 _atom_site_label
 _atom_site_symmetry_multiplicity
 _atom_site_fract_x
 _atom_site_fract_y
 _atom_site_fract_z
 _atom_site_occupancy
  Zr  Zr0  1  0.356728  0.095849  0.260879  1
  Zr  Zr1  1  0.644827  0.903991  0.740835  1
  Zr  Zr2  1  0.165032  0.904151  0.260879  1
  Zr  Zr3  1  0.836843  0.096009  0.740835  1
  Zr  Zr4  1  0.643099  0.641294  0.001806  1
  Zr  Zr5  1  0.360513  0.358706  0.001806  1
  Mn  Mn6  1  0.501340  0.002203  0.002464  1
  Mn  Mn7  1  0.501340  0.498876  0.499137  1
  Mn  Mn8  1  0.000260  0.997797  0.499137  1
  Mn  Mn9  1  0.000260  0.501124  0.002464  1
  Mn  Mn10  1  0.752285  0.500000  0.252285  1
  Si  Si11  1  0.990893  0.765253  0.756146  1
  Si  Si12  1  0.990893  0.234747  0.225639  1
  Si  Si13  1  0.505382  0.239618  0.745000  1
  Si  Si14  1  0.505382  0.760382  0.265765  1
  Si  Si15  1  0.203131  0.202800  0.000332  1
  Si  Si16  1  0.797532  0.797200  0.000332  1
  Si  Si17  1  0.288988  0.788261  0.500726  1
  Si  Si18  1  0.712464  0.211739  0.500726  1
  Si  Si19  1  0.715509  0.363708  0.351799  1
  Si  Si20  1  0.290064  0.641770  0.648296  1
  Si  Si21  1  0.988091  0.636292  0.351799  1
  Si  Si22  1  0.006525  0.358230  0.648296  1
  Ir  Ir23  1  0.242620  0.500000  0.742620  1
