# generated using pymatgen
data_DyHo3Ga12Os
_symmetry_space_group_name_H-M   'P 1'
_cell_length_a   7.45573395
_cell_length_b   7.45495909
_cell_length_c   7.45573401
_cell_angle_alpha   109.46911397
_cell_angle_beta   109.47331955
_cell_angle_gamma   109.46911803
_symmetry_Int_Tables_number   1
_chemical_formula_structural   DyHo3Ga12Os
_chemical_formula_sum   'Dy1 Ho3 Ga12 Os1'
_cell_volume   319.01822321
_cell_formula_units_Z   1
loop_
 _symmetry_equiv_pos_site_id
 _symmetry_equiv_pos_as_xyz
  1  'x, y, z'
loop_
 _atom_site_type_symbol
 _atom_site_label
 _atom_site_symmetry_multiplicity
 _atom_site_fract_x
 _atom_site_fract_y
 _atom_site_fract_z
 _atom_site_occupancy
  Dy  Dy0  1  0.000000  0.500000  0.000000  1
  Ho  Ho1  1  0.000000  0.000000  0.500000  1
  Ho  Ho2  1  0.500000  0.000000  0.000000  1
  Ho  Ho3  1  0.500000  0.500000  0.500000  1
  Ga  Ga4  1  0.749971  0.249971  0.499942  1
  Ga  Ga5  1  0.749971  0.500000  0.250029  1
  Ga  Ga6  1  0.499942  0.249971  0.749971  1
  Ga  Ga7  1  0.250029  0.500000  0.749971  1
  Ga  Ga8  1  0.250029  0.750029  0.500058  1
  Ga  Ga9  1  0.500058  0.750029  0.250029  1
  Ga  Ga10  1  0.708406  0.708459  0.000000  1
  Ga  Ga11  1  0.291594  0.000053  0.291594  1
  Ga  Ga12  1  0.000000  0.291541  0.291594  1
  Ga  Ga13  1  0.291594  0.291541  0.000000  1
  Ga  Ga14  1  0.708406  0.999947  0.708406  1
  Ga  Ga15  1  0.000000  0.708459  0.708406  1
  Os  Os16  1  0.000000  0.000000  0.000000  1
