# generated using pymatgen
data_NdCuTeO6
_symmetry_space_group_name_H-M   'P 1'
_cell_length_a   5.19390707
_cell_length_b   5.19400860
_cell_length_c   10.26201928
_cell_angle_alpha   90.02797698
_cell_angle_beta   89.99034698
_cell_angle_gamma   120.01611033
_symmetry_Int_Tables_number   1
_chemical_formula_structural   NdCuTeO6
_chemical_formula_sum   'Nd2 Cu2 Te2 O12'
_cell_volume   239.71196858
_cell_formula_units_Z   2
loop_
 _symmetry_equiv_pos_site_id
 _symmetry_equiv_pos_as_xyz
  1  'x, y, z'
loop_
 _atom_site_type_symbol
 _atom_site_label
 _atom_site_symmetry_multiplicity
 _atom_site_fract_x
 _atom_site_fract_y
 _atom_site_fract_z
 _atom_site_occupancy
  Nd  Nd0  1  0.000032  0.999971  0.999988  1
  Nd  Nd1  1  0.000020  0.000006  0.500000  1
  Cu  Cu2  1  0.333701  0.666716  0.250043  1
  Cu  Cu3  1  0.666210  0.333213  0.750004  1
  Te  Te4  1  0.666593  0.333420  0.250006  1
  Te  Te5  1  0.333392  0.666569  0.749994  1
  O  O6  1  0.635630  0.625333  0.142218  1
  O  O7  1  0.989383  0.364054  0.142095  1
  O  O8  1  0.374387  0.009909  0.142324  1
  O  O9  1  0.374427  0.364575  0.357650  1
  O  O10  1  0.989559  0.625417  0.357778  1
  O  O11  1  0.635803  0.010557  0.357903  1
  O  O12  1  0.364363  0.989596  0.642138  1
  O  O13  1  0.010646  0.374715  0.642098  1
  O  O14  1  0.625657  0.635411  0.642371  1
  O  O15  1  0.625523  0.990103  0.857720  1
  O  O16  1  0.010451  0.635786  0.857839  1
  O  O17  1  0.364220  0.374648  0.857828  1
