# generated using pymatgen
data_Y5Ti3Co16(AsP3)3
_symmetry_space_group_name_H-M   'P 1'
_cell_length_a   12.25184600
_cell_length_b   12.25184660
_cell_length_c   3.72394200
_cell_angle_alpha   90.00000000
_cell_angle_beta   90.00000000
_cell_angle_gamma   120.00000377
_symmetry_Int_Tables_number   1
_chemical_formula_structural   Y5Ti3Co16(AsP3)3
_chemical_formula_sum   'Y5 Ti3 Co16 As3 P9'
_cell_volume   484.10169526
_cell_formula_units_Z   1
loop_
 _symmetry_equiv_pos_site_id
 _symmetry_equiv_pos_as_xyz
  1  'x, y, z'
loop_
 _atom_site_type_symbol
 _atom_site_label
 _atom_site_symmetry_multiplicity
 _atom_site_fract_x
 _atom_site_fract_y
 _atom_site_fract_z
 _atom_site_occupancy
  Y  Y0  1  0.181354  0.181354  0.500000  1
  Y  Y1  1  0.818646  0.000000  0.500000  1
  Y  Y2  1  0.000000  0.818646  0.500000  1
  Y  Y3  1  0.333333  0.666667  0.000000  1
  Y  Y4  1  0.666667  0.333333  0.000000  1
  Ti  Ti5  1  0.564121  0.564121  0.000000  1
  Ti  Ti6  1  0.435879  0.000000  0.000000  1
  Ti  Ti7  1  0.000000  0.435879  0.000000  1
  Co  Co8  1  0.718462  0.718462  0.500000  1
  Co  Co9  1  0.281538  0.000000  0.500000  1
  Co  Co10  1  0.000000  0.281538  0.500000  1
  Co  Co11  1  0.173045  0.376629  0.000000  1
  Co  Co12  1  0.623371  0.796416  0.000000  1
  Co  Co13  1  0.203584  0.826955  0.000000  1
  Co  Co14  1  0.796416  0.623371  0.000000  1
  Co  Co15  1  0.826955  0.203584  0.000000  1
  Co  Co16  1  0.376629  0.173045  0.000000  1
  Co  Co17  1  0.356073  0.486439  0.500000  1
  Co  Co18  1  0.513561  0.869634  0.500000  1
  Co  Co19  1  0.130366  0.643927  0.500000  1
  Co  Co20  1  0.869634  0.513561  0.500000  1
  Co  Co21  1  0.643927  0.130366  0.500000  1
  Co  Co22  1  0.486439  0.356073  0.500000  1
  Co  Co23  1  0.000000  0.000000  0.000000  1
  As  As24  1  0.358754  0.358754  0.000000  1
  As  As25  1  0.641246  0.000000  0.000000  1
  As  As26  1  0.000000  0.641246  0.000000  1
  P  P27  1  0.820119  0.820119  0.000000  1
  P  P28  1  0.179881  0.000000  0.000000  1
  P  P29  1  0.000000  0.179881  0.000000  1
  P  P30  1  0.167712  0.480230  0.500000  1
  P  P31  1  0.519770  0.687483  0.500000  1
  P  P32  1  0.312517  0.832288  0.500000  1
  P  P33  1  0.687483  0.519770  0.500000  1
  P  P34  1  0.832288  0.312517  0.500000  1
  P  P35  1  0.480230  0.167712  0.500000  1
