# generated using pymatgen
data_Er6Al16Os6Ru
_symmetry_space_group_name_H-M   'P 1'
_cell_length_a   8.91019976
_cell_length_b   8.90965228
_cell_length_c   8.91075803
_cell_angle_alpha   59.98714483
_cell_angle_beta   59.99360551
_cell_angle_gamma   59.97652841
_symmetry_Int_Tables_number   1
_chemical_formula_structural   Er6Al16Os6Ru
_chemical_formula_sum   'Er6 Al16 Os6 Ru1'
_cell_volume   500.04325619
_cell_formula_units_Z   1
loop_
 _symmetry_equiv_pos_site_id
 _symmetry_equiv_pos_as_xyz
  1  'x, y, z'
loop_
 _atom_site_type_symbol
 _atom_site_label
 _atom_site_symmetry_multiplicity
 _atom_site_fract_x
 _atom_site_fract_y
 _atom_site_fract_z
 _atom_site_occupancy
  Er  Er0  1  0.711517  0.711528  0.288500  1
  Er  Er1  1  0.288560  0.711423  0.288566  1
  Er  Er2  1  0.711440  0.288534  0.288550  1
  Er  Er3  1  0.288483  0.288472  0.711500  1
  Er  Er4  1  0.711440  0.288577  0.711434  1
  Er  Er5  1  0.288560  0.711466  0.711450  1
  Al  Al6  1  0.878900  0.878874  0.363289  1
  Al  Al7  1  0.878864  0.363281  0.878920  1
  Al  Al8  1  0.363281  0.878847  0.878931  1
  Al  Al9  1  0.878904  0.878884  0.878930  1
  Al  Al10  1  0.121100  0.121126  0.636711  1
  Al  Al11  1  0.121136  0.636719  0.121080  1
  Al  Al12  1  0.636719  0.121153  0.121069  1
  Al  Al13  1  0.121096  0.121116  0.121070  1
  Al  Al14  1  0.667247  0.667199  0.998210  1
  Al  Al15  1  0.667241  0.998037  0.667340  1
  Al  Al16  1  0.998108  0.667191  0.667335  1
  Al  Al17  1  0.667238  0.667203  0.667307  1
  Al  Al18  1  0.332753  0.332801  0.001790  1
  Al  Al19  1  0.332759  0.001963  0.332660  1
  Al  Al20  1  0.001892  0.332809  0.332665  1
  Al  Al21  1  0.332762  0.332797  0.332693  1
  Os  Os22  1  0.000000  0.000000  0.500000  1
  Os  Os23  1  0.500000  0.000000  0.500000  1
  Os  Os24  1  0.000000  0.500000  0.500000  1
  Os  Os25  1  0.500000  0.500000  0.000000  1
  Os  Os26  1  0.000000  0.500000  0.000000  1
  Os  Os27  1  0.500000  0.000000  0.000000  1
  Ru  Ru28  1  0.000000  0.000000  0.000000  1
