# generated using pymatgen
data_MgZr6Co17P12
_symmetry_space_group_name_H-M   'P 1'
_cell_length_a   3.64669400
_cell_length_b   10.36084400
_cell_length_c   11.97700300
_cell_angle_alpha   90.00000000
_cell_angle_beta   90.00000000
_cell_angle_gamma   90.00000000
_symmetry_Int_Tables_number   1
_chemical_formula_structural   MgZr6Co17P12
_chemical_formula_sum   'Mg1 Zr6 Co17 P12'
_cell_volume   452.52504011
_cell_formula_units_Z   1
loop_
 _symmetry_equiv_pos_site_id
 _symmetry_equiv_pos_as_xyz
  1  'x, y, z'
loop_
 _atom_site_type_symbol
 _atom_site_label
 _atom_site_symmetry_multiplicity
 _atom_site_fract_x
 _atom_site_fract_y
 _atom_site_fract_z
 _atom_site_occupancy
  Mg  Mg0  1  0.500000  0.500000  0.156567  1
  Zr  Zr1  1  0.000000  0.500000  0.528005  1
  Zr  Zr2  1  0.500000  0.000000  0.473122  1
  Zr  Zr3  1  0.500000  0.823898  0.208298  1
  Zr  Zr4  1  0.500000  0.176102  0.208298  1
  Zr  Zr5  1  0.000000  0.678746  0.794523  1
  Zr  Zr6  1  0.000000  0.321254  0.794523  1
  Co  Co7  1  0.000000  0.500000  0.988154  1
  Co  Co8  1  0.500000  0.000000  0.011388  1
  Co  Co9  1  0.500000  0.296645  0.435005  1
  Co  Co10  1  0.500000  0.703355  0.435005  1
  Co  Co11  1  0.000000  0.200234  0.568699  1
  Co  Co12  1  0.000000  0.799766  0.568699  1
  Co  Co13  1  0.500000  0.877143  0.706138  1
  Co  Co14  1  0.500000  0.122857  0.706138  1
  Co  Co15  1  0.000000  0.625956  0.294912  1
  Co  Co16  1  0.000000  0.374044  0.294912  1
  Co  Co17  1  0.500000  0.328660  0.992823  1
  Co  Co18  1  0.500000  0.671340  0.992823  1
  Co  Co19  1  0.000000  0.163886  0.002195  1
  Co  Co20  1  0.000000  0.836114  0.002195  1
  Co  Co21  1  0.000000  0.000000  0.834892  1
  Co  Co22  1  0.500000  0.500000  0.703245  1
  Co  Co23  1  0.000000  0.000000  0.296728  1
  P  P24  1  0.500000  0.315961  0.618437  1
  P  P25  1  0.500000  0.684039  0.618437  1
  P  P26  1  0.000000  0.183568  0.383783  1
  P  P27  1  0.000000  0.816432  0.383783  1
  P  P28  1  0.500000  0.500000  0.880649  1
  P  P29  1  0.000000  0.000000  0.119325  1
  P  P30  1  0.500000  0.846427  0.887015  1
  P  P31  1  0.500000  0.153573  0.887015  1
  P  P32  1  0.000000  0.664814  0.108255  1
  P  P33  1  0.000000  0.335186  0.108255  1
  P  P34  1  0.500000  0.500000  0.359376  1
  P  P35  1  0.000000  0.000000  0.648385  1
