# generated using pymatgen
data_BaCeGe4N7
_symmetry_space_group_name_H-M   'P 1'
_cell_length_a   6.33244200
_cell_length_b   6.33244218
_cell_length_c   10.41601600
_cell_angle_alpha   90.00000000
_cell_angle_beta   90.00000000
_cell_angle_gamma   119.99997818
_symmetry_Int_Tables_number   1
_chemical_formula_structural   BaCeGe4N7
_chemical_formula_sum   'Ba2 Ce2 Ge8 N14'
_cell_volume   361.72191313
_cell_formula_units_Z   2
loop_
 _symmetry_equiv_pos_site_id
 _symmetry_equiv_pos_as_xyz
  1  'x, y, z'
loop_
 _atom_site_type_symbol
 _atom_site_label
 _atom_site_symmetry_multiplicity
 _atom_site_fract_x
 _atom_site_fract_y
 _atom_site_fract_z
 _atom_site_occupancy
  Ba  Ba0  1  0.666667  0.333333  0.578947  1
  Ba  Ba1  1  0.333333  0.666667  0.078947  1
  Ce  Ce2  1  0.666667  0.333333  0.949710  1
  Ce  Ce3  1  0.333333  0.666667  0.449710  1
  Ge  Ge4  1  0.172356  0.344709  0.761096  1
  Ge  Ge5  1  0.827644  0.172356  0.261096  1
  Ge  Ge6  1  0.344709  0.172356  0.261096  1
  Ge  Ge7  1  0.655291  0.827644  0.761096  1
  Ge  Ge8  1  0.172356  0.827644  0.761096  1
  Ge  Ge9  1  0.827644  0.655291  0.261096  1
  Ge  Ge10  1  0.000000  0.000000  0.025371  1
  Ge  Ge11  1  0.000000  0.000000  0.525371  1
  N  N12  1  0.000000  0.000000  0.835826  1
  N  N13  1  0.000000  0.000000  0.335826  1
  N  N14  1  0.842538  0.685074  0.084045  1
  N  N15  1  0.157462  0.842538  0.584045  1
  N  N16  1  0.685074  0.842538  0.584045  1
  N  N17  1  0.314926  0.157462  0.084045  1
  N  N18  1  0.842538  0.157462  0.084045  1
  N  N19  1  0.157462  0.314926  0.584045  1
  N  N20  1  0.492730  0.507270  0.815848  1
  N  N21  1  0.985457  0.492730  0.315848  1
  N  N22  1  0.507270  0.014543  0.315848  1
  N  N23  1  0.492730  0.985457  0.815848  1
  N  N24  1  0.507270  0.492730  0.315848  1
  N  N25  1  0.014543  0.507270  0.815848  1
