# generated using pymatgen
data_Ca3Mn(PO3)8
_symmetry_space_group_name_H-M   'P 1'
_cell_length_a   7.68239805
_cell_length_b   7.73521865
_cell_length_c   10.59936097
_cell_angle_alpha   66.59129994
_cell_angle_beta   66.30608976
_cell_angle_gamma   70.24483781
_symmetry_Int_Tables_number   1
_chemical_formula_structural   Ca3Mn(PO3)8
_chemical_formula_sum   'Ca3 Mn1 P8 O24'
_cell_volume   517.24264867
_cell_formula_units_Z   1
loop_
 _symmetry_equiv_pos_site_id
 _symmetry_equiv_pos_as_xyz
  1  'x, y, z'
loop_
 _atom_site_type_symbol
 _atom_site_label
 _atom_site_symmetry_multiplicity
 _atom_site_fract_x
 _atom_site_fract_y
 _atom_site_fract_z
 _atom_site_occupancy
  Ca  Ca0  1  0.000000  0.500000  0.500000  1
  Ca  Ca1  1  0.535839  0.457521  0.753389  1
  Ca  Ca2  1  0.464161  0.542479  0.246611  1
  Mn  Mn3  1  0.500000  0.000000  0.000000  1
  P  P4  1  0.802515  0.821350  0.692961  1
  P  P5  1  0.185665  0.190489  0.812717  1
  P  P6  1  0.197485  0.178650  0.307039  1
  P  P7  1  0.814335  0.809511  0.187283  1
  P  P8  1  0.765809  0.215224  0.477086  1
  P  P9  1  0.779180  0.230764  0.022670  1
  P  P10  1  0.234191  0.784776  0.522914  1
  P  P11  1  0.220820  0.769236  0.977330  1
  O  O12  1  0.032196  0.809167  0.652919  1
  O  O13  1  0.196062  0.965634  0.845914  1
  O  O14  1  0.967804  0.190833  0.347081  1
  O  O15  1  0.803938  0.034366  0.154086  1
  O  O16  1  0.742286  0.995405  0.559450  1
  O  O17  1  0.001182  0.252744  0.940659  1
  O  O18  1  0.257714  0.004595  0.440550  1
  O  O19  1  0.998818  0.747256  0.059341  1
  O  O20  1  0.699952  0.866528  0.832109  1
  O  O21  1  0.153961  0.297392  0.669892  1
  O  O22  1  0.300048  0.133472  0.167891  1
  O  O23  1  0.846039  0.702608  0.330108  1
  O  O24  1  0.778004  0.643129  0.679972  1
  O  O25  1  0.360289  0.209045  0.836328  1
  O  O26  1  0.221996  0.356871  0.320028  1
  O  O27  1  0.639711  0.790955  0.163672  1
  O  O28  1  0.789003  0.296551  0.577103  1
  O  O29  1  0.696275  0.200590  0.926398  1
  O  O30  1  0.210997  0.703449  0.422897  1
  O  O31  1  0.303725  0.799410  0.073602  1
  O  O32  1  0.393864  0.680855  0.588100  1
  O  O33  1  0.323482  0.606013  0.916544  1
  O  O34  1  0.606136  0.319145  0.411900  1
  O  O35  1  0.676518  0.393987  0.083456  1
