# generated using pymatgen
data_NaNb9Se16
_symmetry_space_group_name_H-M   'P 1'
_cell_length_a   6.99348300
_cell_length_b   6.99348367
_cell_length_c   14.32251200
_cell_angle_alpha   90.00000000
_cell_angle_beta   90.00000000
_cell_angle_gamma   119.99999211
_symmetry_Int_Tables_number   1
_chemical_formula_structural   NaNb9Se16
_chemical_formula_sum   'Na1 Nb9 Se16'
_cell_volume   606.64825068
_cell_formula_units_Z   1
loop_
 _symmetry_equiv_pos_site_id
 _symmetry_equiv_pos_as_xyz
  1  'x, y, z'
loop_
 _atom_site_type_symbol
 _atom_site_label
 _atom_site_symmetry_multiplicity
 _atom_site_fract_x
 _atom_site_fract_y
 _atom_site_fract_z
 _atom_site_occupancy
  Na  Na0  1  0.000000  0.000000  0.500000  1
  Nb  Nb1  1  0.000000  0.000000  0.230644  1
  Nb  Nb2  1  0.000000  0.000000  0.769356  1
  Nb  Nb3  1  0.506374  0.493626  0.231360  1
  Nb  Nb4  1  0.506374  0.012747  0.231360  1
  Nb  Nb5  1  0.987253  0.493626  0.231360  1
  Nb  Nb6  1  0.493626  0.506374  0.768640  1
  Nb  Nb7  1  0.493626  0.987253  0.768640  1
  Nb  Nb8  1  0.012747  0.506374  0.768640  1
  Nb  Nb9  1  0.000000  0.000000  0.000000  1
  Se  Se10  1  0.333333  0.666667  0.888620  1
  Se  Se11  1  0.666667  0.333333  0.111380  1
  Se  Se12  1  0.666667  0.333333  0.352376  1
  Se  Se13  1  0.333333  0.666667  0.647624  1
  Se  Se14  1  0.167478  0.832522  0.346875  1
  Se  Se15  1  0.167478  0.334958  0.346875  1
  Se  Se16  1  0.665042  0.832522  0.346875  1
  Se  Se17  1  0.832522  0.167478  0.653125  1
  Se  Se18  1  0.832522  0.665042  0.653125  1
  Se  Se19  1  0.334958  0.167478  0.653125  1
  Se  Se20  1  0.831407  0.168593  0.885842  1
  Se  Se21  1  0.831407  0.662813  0.885842  1
  Se  Se22  1  0.337187  0.168593  0.885842  1
  Se  Se23  1  0.168593  0.831407  0.114158  1
  Se  Se24  1  0.168593  0.337187  0.114158  1
  Se  Se25  1  0.662813  0.831407  0.114158  1
