# generated using pymatgen
data_Li3Tb2YSi2Ge
_symmetry_space_group_name_H-M   'P 1'
_cell_length_a   7.03184136
_cell_length_b   7.03184177
_cell_length_c   4.26498400
_cell_angle_alpha   90.00000000
_cell_angle_beta   90.00000000
_cell_angle_gamma   119.80778453
_symmetry_Int_Tables_number   1
_chemical_formula_structural   Li3Tb2YSi2Ge
_chemical_formula_sum   'Li3 Tb2 Y1 Si2 Ge1'
_cell_volume   182.98863560
_cell_formula_units_Z   1
loop_
 _symmetry_equiv_pos_site_id
 _symmetry_equiv_pos_as_xyz
  1  'x, y, z'
loop_
 _atom_site_type_symbol
 _atom_site_label
 _atom_site_symmetry_multiplicity
 _atom_site_fract_x
 _atom_site_fract_y
 _atom_site_fract_z
 _atom_site_occupancy
  Li  Li0  1  0.234566  0.000327  0.500000  1
  Li  Li1  1  0.000327  0.234566  0.500000  1
  Li  Li2  1  0.765438  0.765438  0.500000  1
  Tb  Tb3  1  0.573022  0.999699  0.000000  1
  Tb  Tb4  1  0.999699  0.573022  0.000000  1
  Y  Y5  1  0.426229  0.426229  0.000000  1
  Si  Si6  1  0.333455  0.665683  0.500000  1
  Si  Si7  1  0.665683  0.333455  0.500000  1
  Ge  Ge8  1  0.001580  0.001580  0.000000  1
