# generated using pymatgen
data_La11Yb3(PrIr2)6
_symmetry_space_group_name_H-M   'P 1'
_cell_length_a   11.37476728
_cell_length_b   11.39802121
_cell_length_c   6.54324534
_cell_angle_alpha   90.00595222
_cell_angle_beta   89.90323962
_cell_angle_gamma   90.11961217
_symmetry_Int_Tables_number   1
_chemical_formula_structural   La11Yb3(PrIr2)6
_chemical_formula_sum   'La11 Yb3 Pr6 Ir12'
_cell_volume   848.32763950
_cell_formula_units_Z   1
loop_
 _symmetry_equiv_pos_site_id
 _symmetry_equiv_pos_as_xyz
  1  'x, y, z'
loop_
 _atom_site_type_symbol
 _atom_site_label
 _atom_site_symmetry_multiplicity
 _atom_site_fract_x
 _atom_site_fract_y
 _atom_site_fract_z
 _atom_site_occupancy
  La  La0  1  0.286518  0.090250  0.392366  1
  La  La1  1  0.286996  0.911635  0.890487  1
  La  La2  1  0.712996  0.088163  0.891405  1
  La  La3  1  0.713749  0.908956  0.393251  1
  La  La4  1  0.591081  0.786673  0.890633  1
  La  La5  1  0.592515  0.208604  0.391179  1
  La  La6  1  0.408067  0.791501  0.389742  1
  La  La7  1  0.409287  0.213066  0.891860  1
  La  La8  1  0.206685  0.410364  0.608238  1
  La  La9  1  0.210958  0.589348  0.108289  1
  La  La10  1  0.789489  0.411855  0.108346  1
  Yb  Yb11  1  0.999624  0.000315  0.498632  1
  Yb  Yb12  1  0.999946  0.999810  0.998669  1
  Yb  Yb13  1  0.500044  0.499864  0.000441  1
  Pr  Pr14  1  0.793060  0.588796  0.610484  1
  Pr  Pr15  1  0.912197  0.713077  0.112774  1
  Pr  Pr16  1  0.911561  0.286943  0.611637  1
  Pr  Pr17  1  0.086841  0.713465  0.611586  1
  Pr  Pr18  1  0.086977  0.285900  0.112807  1
  Pr  Pr19  1  0.500597  0.500587  0.501049  1
  Ir  Ir20  1  0.844356  0.154675  0.245217  1
  Ir  Ir21  1  0.844713  0.845816  0.748105  1
  Ir  Ir22  1  0.155820  0.154010  0.747307  1
  Ir  Ir23  1  0.155111  0.845549  0.245071  1
  Ir  Ir24  1  0.656562  0.345820  0.746435  1
  Ir  Ir25  1  0.653005  0.656752  0.250716  1
  Ir  Ir26  1  0.345923  0.343826  0.253568  1
  Ir  Ir27  1  0.343946  0.654944  0.746188  1
  Ir  Ir28  1  0.499825  0.000279  0.117225  1
  Ir  Ir29  1  0.500117  0.999822  0.620120  1
  Ir  Ir30  1  0.001093  0.499379  0.886159  1
  Ir  Ir31  1  0.000341  0.499954  0.380010  1
