# generated using pymatgen
data_Yb(Gd2Ir)2
_symmetry_space_group_name_H-M   'P 1'
_cell_length_a   6.43174599
_cell_length_b   7.26868084
_cell_length_c   8.55820200
_cell_angle_alpha   96.72586379
_cell_angle_beta   112.07161170
_cell_angle_gamma   90.00000549
_symmetry_Int_Tables_number   1
_chemical_formula_structural   Yb(Gd2Ir)2
_chemical_formula_sum   'Yb2 Gd8 Ir4'
_cell_volume   367.80435949
_cell_formula_units_Z   2
loop_
 _symmetry_equiv_pos_site_id
 _symmetry_equiv_pos_as_xyz
  1  'x, y, z'
loop_
 _atom_site_type_symbol
 _atom_site_label
 _atom_site_symmetry_multiplicity
 _atom_site_fract_x
 _atom_site_fract_y
 _atom_site_fract_z
 _atom_site_occupancy
  Yb  Yb0  1  0.975707  0.919441  0.185319  1
  Yb  Yb1  1  0.790390  0.580559  0.814681  1
  Gd  Gd2  1  0.028402  0.079454  0.818297  1
  Gd  Gd3  1  0.210105  0.420546  0.181703  1
  Gd  Gd4  1  0.643495  0.816172  0.439547  1
  Gd  Gd5  1  0.203949  0.683828  0.560453  1
  Gd  Gd6  1  0.344739  0.187081  0.557162  1
  Gd  Gd7  1  0.787577  0.312919  0.442838  1
  Gd  Gd8  1  0.435362  0.750000  0.000000  1
  Gd  Gd9  1  0.581269  0.250000  0.000000  1
  Ir  Ir10  1  0.822174  0.569245  0.231317  1
  Ir  Ir11  1  0.590857  0.930755  0.768683  1
  Ir  Ir12  1  0.185335  0.424195  0.784698  1
  Ir  Ir13  1  0.400637  0.075805  0.215302  1
