# generated using pymatgen
data_Nd2Bi2O7
_symmetry_space_group_name_H-M   'P 1'
_cell_length_a   6.74983670
_cell_length_b   6.83328054
_cell_length_c   7.97232449
_cell_angle_alpha   106.54784013
_cell_angle_beta   89.59022018
_cell_angle_gamma   97.32415947
_symmetry_Int_Tables_number   1
_chemical_formula_structural   Nd2Bi2O7
_chemical_formula_sum   'Nd4 Bi4 O14'
_cell_volume   349.44152406
_cell_formula_units_Z   2
loop_
 _symmetry_equiv_pos_site_id
 _symmetry_equiv_pos_as_xyz
  1  'x, y, z'
loop_
 _atom_site_type_symbol
 _atom_site_label
 _atom_site_symmetry_multiplicity
 _atom_site_fract_x
 _atom_site_fract_y
 _atom_site_fract_z
 _atom_site_occupancy
  Nd  Nd0  1  0.457411  0.002887  0.250719  1
  Nd  Nd1  1  0.542589  0.997113  0.749281  1
  Nd  Nd2  1  0.256340  0.533292  0.883643  1
  Nd  Nd3  1  0.743660  0.466708  0.116357  1
  Bi  Bi4  1  0.000000  0.000000  0.500000  1
  Bi  Bi5  1  0.000000  0.000000  0.000000  1
  Bi  Bi6  1  0.722252  0.459612  0.609693  1
  Bi  Bi7  1  0.277748  0.540388  0.390307  1
  O  O8  1  0.438752  0.642387  0.168859  1
  O  O9  1  0.561248  0.357613  0.831141  1
  O  O10  1  0.298282  0.923416  0.950189  1
  O  O11  1  0.701718  0.076584  0.049811  1
  O  O12  1  0.295594  0.911405  0.507879  1
  O  O13  1  0.704406  0.088595  0.492121  1
  O  O14  1  0.544115  0.365574  0.348644  1
  O  O15  1  0.455885  0.634426  0.651356  1
  O  O16  1  0.933517  0.680035  0.968533  1
  O  O17  1  0.066483  0.319965  0.031467  1
  O  O18  1  0.093770  0.315378  0.623740  1
  O  O19  1  0.906230  0.684622  0.376260  1
  O  O20  1  0.887927  0.924491  0.732261  1
  O  O21  1  0.112073  0.075509  0.267739  1
