# generated using pymatgen
data_RbSbOF4
_symmetry_space_group_name_H-M   'P 1'
_cell_length_a   6.36735100
_cell_length_b   5.72489297
_cell_length_c   15.66607083
_cell_angle_alpha   70.63419684
_cell_angle_beta   90.00000000
_cell_angle_gamma   90.00000000
_symmetry_Int_Tables_number   1
_chemical_formula_structural   RbSbOF4
_chemical_formula_sum   'Rb4 Sb4 O4 F16'
_cell_volume   538.75543922
_cell_formula_units_Z   4
loop_
 _symmetry_equiv_pos_site_id
 _symmetry_equiv_pos_as_xyz
  1  'x, y, z'
loop_
 _atom_site_type_symbol
 _atom_site_label
 _atom_site_symmetry_multiplicity
 _atom_site_fract_x
 _atom_site_fract_y
 _atom_site_fract_z
 _atom_site_occupancy
  Rb  Rb0  1  0.631982  0.639091  0.852925  1
  Rb  Rb1  1  0.131982  0.360909  0.647075  1
  Rb  Rb2  1  0.368018  0.360909  0.147075  1
  Rb  Rb3  1  0.868018  0.639091  0.352925  1
  Sb  Sb4  1  0.121075  0.028788  0.915703  1
  Sb  Sb5  1  0.621075  0.971212  0.584297  1
  Sb  Sb6  1  0.878925  0.971212  0.084297  1
  Sb  Sb7  1  0.378925  0.028788  0.415703  1
  O  O8  1  0.619378  0.830983  0.484080  1
  O  O9  1  0.119378  0.169017  0.015920  1
  O  O10  1  0.380622  0.169017  0.515920  1
  O  O11  1  0.880622  0.830983  0.984080  1
  F  F12  1  0.170681  0.774592  0.472447  1
  F  F13  1  0.670681  0.225408  0.027553  1
  F  F14  1  0.829319  0.225408  0.527553  1
  F  F15  1  0.329319  0.774592  0.972447  1
  F  F16  1  0.937715  0.283856  0.837228  1
  F  F17  1  0.437715  0.716144  0.662772  1
  F  F18  1  0.062285  0.716144  0.162772  1
  F  F19  1  0.562285  0.283856  0.337228  1
  F  F20  1  0.100096  0.877655  0.822090  1
  F  F21  1  0.600096  0.122345  0.677910  1
  F  F22  1  0.899904  0.122345  0.177910  1
  F  F23  1  0.399904  0.877655  0.322090  1
  F  F24  1  0.351261  0.231097  0.850914  1
  F  F25  1  0.851261  0.768903  0.649086  1
  F  F26  1  0.648739  0.768903  0.149086  1
  F  F27  1  0.148739  0.231097  0.350914  1
