# generated using pymatgen
data_Ca2SmZn6(CuNi2)3
_symmetry_space_group_name_H-M   'P 1'
_cell_length_a   8.87803700
_cell_length_b   8.90547909
_cell_length_c   4.05415400
_cell_angle_alpha   90.00000000
_cell_angle_beta   90.00000000
_cell_angle_gamma   119.89811388
_symmetry_Int_Tables_number   1
_chemical_formula_structural   Ca2SmZn6(CuNi2)3
_chemical_formula_sum   'Ca2 Sm1 Zn6 Cu3 Ni6'
_cell_volume   277.87538359
_cell_formula_units_Z   1
loop_
 _symmetry_equiv_pos_site_id
 _symmetry_equiv_pos_as_xyz
  1  'x, y, z'
loop_
 _atom_site_type_symbol
 _atom_site_label
 _atom_site_symmetry_multiplicity
 _atom_site_fract_x
 _atom_site_fract_y
 _atom_site_fract_z
 _atom_site_occupancy
  Ca  Ca0  1  0.330687  0.665247  0.000000  1
  Ca  Ca1  1  0.665442  0.334753  0.000000  1
  Sm  Sm2  1  0.004288  0.000000  0.500000  1
  Zn  Zn3  1  0.496703  0.000000  0.500000  1
  Zn  Zn4  1  0.300090  0.297030  0.000000  1
  Zn  Zn5  1  0.003059  0.702970  0.000000  1
  Zn  Zn6  1  0.999833  0.301155  0.000000  1
  Zn  Zn7  1  0.698678  0.698845  0.000000  1
  Zn  Zn8  1  0.709128  0.000000  0.000000  1
  Cu  Cu9  1  0.499185  0.500483  0.500000  1
  Cu  Cu10  1  0.998702  0.499517  0.500000  1
  Cu  Cu11  1  0.295828  0.000000  0.000000  1
  Ni  Ni12  1  0.180173  0.360592  0.500000  1
  Ni  Ni13  1  0.817650  0.181172  0.500000  1
  Ni  Ni14  1  0.363539  0.182583  0.500000  1
  Ni  Ni15  1  0.636478  0.818828  0.500000  1
  Ni  Ni16  1  0.180956  0.817417  0.500000  1
  Ni  Ni17  1  0.819582  0.639408  0.500000  1
