# generated using pymatgen
data_Sm2Tm3Sn3Pb
_symmetry_space_group_name_H-M   'P 1'
_cell_length_a   8.10581600
_cell_length_b   8.15112800
_cell_length_c   15.36096500
_cell_angle_alpha   90.00000000
_cell_angle_beta   90.00000000
_cell_angle_gamma   90.00000000
_symmetry_Int_Tables_number   1
_chemical_formula_structural   Sm2Tm3Sn3Pb
_chemical_formula_sum   'Sm8 Tm12 Sn12 Pb4'
_cell_volume   1014.92267120
_cell_formula_units_Z   4
loop_
 _symmetry_equiv_pos_site_id
 _symmetry_equiv_pos_as_xyz
  1  'x, y, z'
loop_
 _atom_site_type_symbol
 _atom_site_label
 _atom_site_symmetry_multiplicity
 _atom_site_fract_x
 _atom_site_fract_y
 _atom_site_fract_z
 _atom_site_occupancy
  Sm  Sm0  1  0.526631  0.322763  0.901089  1
  Sm  Sm1  1  0.026631  0.177237  0.598911  1
  Sm  Sm2  1  0.473369  0.677237  0.401089  1
  Sm  Sm3  1  0.973369  0.822763  0.098911  1
  Sm  Sm4  1  0.479934  0.677580  0.098735  1
  Sm  Sm5  1  0.979934  0.822420  0.401265  1
  Sm  Sm6  1  0.520066  0.322420  0.598735  1
  Sm  Sm7  1  0.020066  0.177580  0.901265  1
  Tm  Tm8  1  0.369655  0.838727  0.875905  1
  Tm  Tm9  1  0.869655  0.661273  0.624095  1
  Tm  Tm10  1  0.630345  0.161273  0.375905  1
  Tm  Tm11  1  0.130345  0.338727  0.124095  1
  Tm  Tm12  1  0.634091  0.162321  0.123198  1
  Tm  Tm13  1  0.134091  0.337679  0.376802  1
  Tm  Tm14  1  0.365909  0.837679  0.623198  1
  Tm  Tm15  1  0.865909  0.662321  0.876802  1
  Tm  Tm16  1  0.199250  0.504501  0.748452  1
  Tm  Tm17  1  0.699250  0.995499  0.751548  1
  Tm  Tm18  1  0.800750  0.495499  0.248452  1
  Tm  Tm19  1  0.300750  0.004501  0.251548  1
  Sn  Sn20  1  0.704324  0.961529  0.957829  1
  Sn  Sn21  1  0.204324  0.538471  0.542171  1
  Sn  Sn22  1  0.295676  0.038471  0.457829  1
  Sn  Sn23  1  0.795676  0.461529  0.042171  1
  Sn  Sn24  1  0.564808  0.623646  0.749646  1
  Sn  Sn25  1  0.064808  0.876354  0.750354  1
  Sn  Sn26  1  0.435192  0.376354  0.249646  1
  Sn  Sn27  1  0.935192  0.123646  0.250354  1
  Sn  Sn28  1  0.331679  0.145979  0.750738  1
  Sn  Sn29  1  0.831679  0.354021  0.749262  1
  Sn  Sn30  1  0.668321  0.854021  0.250738  1
  Sn  Sn31  1  0.168321  0.645979  0.249262  1
  Pb  Pb32  1  0.294370  0.039196  0.042328  1
  Pb  Pb33  1  0.794370  0.460804  0.457672  1
  Pb  Pb34  1  0.705630  0.960804  0.542328  1
  Pb  Pb35  1  0.205630  0.539196  0.957672  1
