# generated using pymatgen
data_Y2Er3Pt4
_symmetry_space_group_name_H-M   'P 1'
_cell_length_a   7.46929800
_cell_length_b   7.54376600
_cell_length_c   14.66054300
_cell_angle_alpha   90.00000000
_cell_angle_beta   90.00000000
_cell_angle_gamma   90.00000000
_symmetry_Int_Tables_number   1
_chemical_formula_structural   Y2Er3Pt4
_chemical_formula_sum   'Y8 Er12 Pt16'
_cell_volume   826.07228433
_cell_formula_units_Z   4
loop_
 _symmetry_equiv_pos_site_id
 _symmetry_equiv_pos_as_xyz
  1  'x, y, z'
loop_
 _atom_site_type_symbol
 _atom_site_label
 _atom_site_symmetry_multiplicity
 _atom_site_fract_x
 _atom_site_fract_y
 _atom_site_fract_z
 _atom_site_occupancy
  Y  Y0  1  0.998204  0.819850  0.407062  1
  Y  Y1  1  0.498204  0.680150  0.092938  1
  Y  Y2  1  0.501796  0.319850  0.592938  1
  Y  Y3  1  0.001796  0.180150  0.907062  1
  Y  Y4  1  0.001796  0.180150  0.592938  1
  Y  Y5  1  0.501796  0.319850  0.907062  1
  Y  Y6  1  0.498204  0.680150  0.407062  1
  Y  Y7  1  0.998204  0.819850  0.092938  1
  Er  Er8  1  0.681311  0.988890  0.250000  1
  Er  Er9  1  0.181311  0.511110  0.250000  1
  Er  Er10  1  0.818689  0.488890  0.750000  1
  Er  Er11  1  0.318689  0.011110  0.750000  1
  Er  Er12  1  0.656280  0.832656  0.622415  1
  Er  Er13  1  0.156280  0.667344  0.877585  1
  Er  Er14  1  0.843720  0.332656  0.377585  1
  Er  Er15  1  0.343720  0.167344  0.122415  1
  Er  Er16  1  0.343720  0.167344  0.377585  1
  Er  Er17  1  0.843720  0.332656  0.122415  1
  Er  Er18  1  0.156280  0.667344  0.622415  1
  Er  Er19  1  0.656280  0.832656  0.877585  1
  Pt  Pt20  1  0.815638  0.641554  0.250000  1
  Pt  Pt21  1  0.315638  0.858446  0.250000  1
  Pt  Pt22  1  0.684362  0.141554  0.750000  1
  Pt  Pt23  1  0.184362  0.358446  0.750000  1
  Pt  Pt24  1  0.546584  0.386495  0.250000  1
  Pt  Pt25  1  0.046584  0.113505  0.250000  1
  Pt  Pt26  1  0.953416  0.886495  0.750000  1
  Pt  Pt27  1  0.453416  0.613505  0.750000  1
  Pt  Pt28  1  0.817236  0.532896  0.542057  1
  Pt  Pt29  1  0.317236  0.967104  0.957943  1
  Pt  Pt30  1  0.682764  0.032896  0.457943  1
  Pt  Pt31  1  0.182764  0.467104  0.042057  1
  Pt  Pt32  1  0.182764  0.467104  0.457943  1
  Pt  Pt33  1  0.682764  0.032896  0.042057  1
  Pt  Pt34  1  0.317236  0.967104  0.542057  1
  Pt  Pt35  1  0.817236  0.532896  0.957943  1
