# generated using pymatgen
data_Y7Er3(CoRu)2
_symmetry_space_group_name_H-M   'P 1'
_cell_length_a   6.33067957
_cell_length_b   7.13746878
_cell_length_c   8.51276447
_cell_angle_alpha   96.63511677
_cell_angle_beta   111.61291059
_cell_angle_gamma   89.90643180
_symmetry_Int_Tables_number   1
_chemical_formula_structural   Y7Er3(CoRu)2
_chemical_formula_sum   'Y7 Er3 Co2 Ru2'
_cell_volume   354.86193716
_cell_formula_units_Z   1
loop_
 _symmetry_equiv_pos_site_id
 _symmetry_equiv_pos_as_xyz
  1  'x, y, z'
loop_
 _atom_site_type_symbol
 _atom_site_label
 _atom_site_symmetry_multiplicity
 _atom_site_fract_x
 _atom_site_fract_y
 _atom_site_fract_z
 _atom_site_occupancy
  Y  Y0  1  0.789188  0.587907  0.810635  1
  Y  Y1  1  0.978202  0.912488  0.191166  1
  Y  Y2  1  0.199258  0.416289  0.185228  1
  Y  Y3  1  0.015648  0.083319  0.814604  1
  Y  Y4  1  0.214325  0.688509  0.569050  1
  Y  Y5  1  0.645075  0.813045  0.431166  1
  Y  Y6  1  0.792607  0.318061  0.433368  1
  Er  Er7  1  0.359232  0.181307  0.567641  1
  Er  Er8  1  0.429289  0.749963  0.000211  1
  Er  Er9  1  0.575089  0.248782  0.999177  1
  Co  Co10  1  0.599926  0.925642  0.779287  1
  Co  Co11  1  0.820041  0.575267  0.217950  1
  Ru  Ru12  1  0.398518  0.072902  0.219297  1
  Ru  Ru13  1  0.183604  0.426518  0.781219  1
