# generated using pymatgen
data_Tb2Pr2AsBr6
_symmetry_space_group_name_H-M   'P 1'
_cell_length_a   4.15416900
_cell_length_b   13.66031400
_cell_length_c   14.33891300
_cell_angle_alpha   90.00000000
_cell_angle_beta   90.00000000
_cell_angle_gamma   90.00000000
_symmetry_Int_Tables_number   1
_chemical_formula_structural   Tb2Pr2AsBr6
_chemical_formula_sum   'Tb4 Pr4 As2 Br12'
_cell_volume   813.69392303
_cell_formula_units_Z   2
loop_
 _symmetry_equiv_pos_site_id
 _symmetry_equiv_pos_as_xyz
  1  'x, y, z'
loop_
 _atom_site_type_symbol
 _atom_site_label
 _atom_site_symmetry_multiplicity
 _atom_site_fract_x
 _atom_site_fract_y
 _atom_site_fract_z
 _atom_site_occupancy
  Tb  Tb0  1  0.500000  0.117690  0.342010  1
  Tb  Tb1  1  0.500000  0.882310  0.657990  1
  Tb  Tb2  1  0.500000  0.617690  0.157990  1
  Tb  Tb3  1  0.500000  0.382310  0.842010  1
  Pr  Pr4  1  0.000000  0.120627  0.580696  1
  Pr  Pr5  1  0.000000  0.879373  0.419304  1
  Pr  Pr6  1  0.000000  0.620627  0.919304  1
  Pr  Pr7  1  0.000000  0.379373  0.080696  1
  As  As8  1  0.500000  0.000000  0.500000  1
  As  As9  1  0.500000  0.500000  0.000000  1
  Br  Br10  1  0.500000  0.237156  0.168464  1
  Br  Br11  1  0.500000  0.762844  0.831536  1
  Br  Br12  1  0.500000  0.737156  0.331536  1
  Br  Br13  1  0.500000  0.262844  0.668464  1
  Br  Br14  1  0.000000  0.251433  0.406066  1
  Br  Br15  1  0.000000  0.748567  0.593934  1
  Br  Br16  1  0.000000  0.751433  0.093934  1
  Br  Br17  1  0.000000  0.248567  0.906066  1
  Br  Br18  1  0.000000  0.008057  0.244218  1
  Br  Br19  1  0.000000  0.991943  0.755782  1
  Br  Br20  1  0.000000  0.508057  0.255782  1
  Br  Br21  1  0.000000  0.491943  0.744218  1
