# generated using pymatgen
data_Er12GaNi4Pb
_symmetry_space_group_name_H-M   'P 1'
_cell_length_a   8.30999609
_cell_length_b   8.30999680
_cell_length_c   8.30999649
_cell_angle_alpha   112.75324673
_cell_angle_beta   109.92778719
_cell_angle_gamma   105.80720688
_symmetry_Int_Tables_number   1
_chemical_formula_structural   Er12GaNi4Pb
_chemical_formula_sum   'Er12 Ga1 Ni4 Pb1'
_cell_volume   440.12341257
_cell_formula_units_Z   1
loop_
 _symmetry_equiv_pos_site_id
 _symmetry_equiv_pos_as_xyz
  1  'x, y, z'
loop_
 _atom_site_type_symbol
 _atom_site_label
 _atom_site_symmetry_multiplicity
 _atom_site_fract_x
 _atom_site_fract_y
 _atom_site_fract_z
 _atom_site_occupancy
  Er  Er0  1  0.968269  0.270443  0.697827  1
  Er  Er1  1  0.031731  0.729557  0.302173  1
  Er  Er2  1  0.676248  0.864570  0.188322  1
  Er  Er3  1  0.323752  0.512075  0.188322  1
  Er  Er4  1  0.323752  0.135430  0.811678  1
  Er  Er5  1  0.676248  0.487925  0.811678  1
  Er  Er6  1  0.572616  0.270443  0.302173  1
  Er  Er7  1  0.427384  0.729557  0.697827  1
  Er  Er8  1  0.179265  0.785742  0.965007  1
  Er  Er9  1  0.820735  0.785742  0.606478  1
  Er  Er10  1  0.179265  0.214258  0.393522  1
  Er  Er11  1  0.820735  0.214258  0.034993  1
  Ga  Ga12  1  0.000000  0.500000  0.500000  1
  Ni  Ni13  1  0.121738  0.121738  0.000000  1
  Ni  Ni14  1  0.878262  0.878262  0.000000  1
  Ni  Ni15  1  0.654582  0.500000  0.154582  1
  Ni  Ni16  1  0.345418  0.500000  0.845418  1
  Pb  Pb17  1  0.500000  0.000000  0.500000  1
