# generated using pymatgen
data_Tc5Te8WI2
_symmetry_space_group_name_H-M   'P 1'
_cell_length_a   12.87608900
_cell_length_b   6.96295783
_cell_length_c   12.19223972
_cell_angle_alpha   70.66415106
_cell_angle_beta   90.00000000
_cell_angle_gamma   90.00000000
_symmetry_Int_Tables_number   1
_chemical_formula_structural   Tc5Te8WI2
_chemical_formula_sum   'Tc10 Te16 W2 I4'
_cell_volume   1031.44573560
_cell_formula_units_Z   2
loop_
 _symmetry_equiv_pos_site_id
 _symmetry_equiv_pos_as_xyz
  1  'x, y, z'
loop_
 _atom_site_type_symbol
 _atom_site_label
 _atom_site_symmetry_multiplicity
 _atom_site_fract_x
 _atom_site_fract_y
 _atom_site_fract_z
 _atom_site_occupancy
  Tc  Tc0  1  0.432922  0.983161  0.643502  1
  Tc  Tc1  1  0.067078  0.983161  0.143502  1
  Tc  Tc2  1  0.364045  0.969301  0.436484  1
  Tc  Tc3  1  0.135955  0.969301  0.936484  1
  Tc  Tc4  1  0.634334  0.031905  0.563316  1
  Tc  Tc5  1  0.865666  0.031905  0.063316  1
  Tc  Tc6  1  0.516198  0.712800  0.552126  1
  Tc  Tc7  1  0.983802  0.712800  0.052126  1
  Tc  Tc8  1  0.482839  0.286593  0.447508  1
  Tc  Tc9  1  0.017161  0.286593  0.947508  1
  Te  Te10  1  0.444853  0.706744  0.336890  1
  Te  Te11  1  0.055147  0.706744  0.836890  1
  Te  Te12  1  0.552767  0.290516  0.662374  1
  Te  Te13  1  0.947233  0.290516  0.162374  1
  Te  Te14  1  0.319705  0.664137  0.632229  1
  Te  Te15  1  0.180295  0.664137  0.132229  1
  Te  Te16  1  0.680908  0.342945  0.368534  1
  Te  Te17  1  0.819092  0.342945  0.868534  1
  Te  Te18  1  0.412261  0.271569  0.238598  1
  Te  Te19  1  0.087739  0.271569  0.738598  1
  Te  Te20  1  0.584320  0.730879  0.759152  1
  Te  Te21  1  0.915680  0.730879  0.259152  1
  Te  Te22  1  0.714502  0.749080  0.475725  1
  Te  Te23  1  0.785498  0.749080  0.975725  1
  Te  Te24  1  0.286688  0.243309  0.527184  1
  Te  Te25  1  0.213312  0.243309  0.027184  1
  W  W26  1  0.566557  0.016843  0.357216  1
  W  W27  1  0.933443  0.016843  0.857216  1
  I  I28  1  0.153943  0.923100  0.368780  1
  I  I29  1  0.346057  0.923100  0.868780  1
  I  I30  1  0.844219  0.077117  0.630383  1
  I  I31  1  0.655781  0.077117  0.130383  1
