# generated using pymatgen
data_Ce4Tm4Mn3B24Ru
_symmetry_space_group_name_H-M   'P 1'
_cell_length_a   3.62341900
_cell_length_b   9.10283229
_cell_length_c   11.47794536
_cell_angle_alpha   89.97119622
_cell_angle_beta   90.00000000
_cell_angle_gamma   90.00000000
_symmetry_Int_Tables_number   1
_chemical_formula_structural   Ce4Tm4Mn3B24Ru
_chemical_formula_sum   'Ce4 Tm4 Mn3 B24 Ru1'
_cell_volume   378.58133362
_cell_formula_units_Z   1
loop_
 _symmetry_equiv_pos_site_id
 _symmetry_equiv_pos_as_xyz
  1  'x, y, z'
loop_
 _atom_site_type_symbol
 _atom_site_label
 _atom_site_symmetry_multiplicity
 _atom_site_fract_x
 _atom_site_fract_y
 _atom_site_fract_z
 _atom_site_occupancy
  Ce  Ce0  1  0.000000  0.323672  0.413484  1
  Ce  Ce1  1  0.000000  0.674176  0.583372  1
  Ce  Ce2  1  0.000000  0.823427  0.089012  1
  Ce  Ce3  1  0.000000  0.179187  0.915524  1
  Tm  Tm4  1  0.000000  0.943999  0.371102  1
  Tm  Tm5  1  0.000000  0.058645  0.627019  1
  Tm  Tm6  1  0.000000  0.444006  0.129414  1
  Tm  Tm7  1  0.000000  0.553172  0.871367  1
  Mn  Mn8  1  0.000000  0.639725  0.320117  1
  Mn  Mn9  1  0.000000  0.360528  0.680189  1
  Mn  Mn10  1  0.000000  0.139184  0.179369  1
  B  B11  1  0.500000  0.555602  0.429952  1
  B  B12  1  0.500000  0.444117  0.569569  1
  B  B13  1  0.500000  0.055905  0.069855  1
  B  B14  1  0.500000  0.945193  0.931879  1
  B  B15  1  0.500000  0.748303  0.417324  1
  B  B16  1  0.500000  0.252188  0.582365  1
  B  B17  1  0.500000  0.248481  0.082804  1
  B  B18  1  0.500000  0.749622  0.919210  1
  B  B19  1  0.500000  0.790347  0.266761  1
  B  B20  1  0.500000  0.209767  0.733518  1
  B  B21  1  0.500000  0.290329  0.233546  1
  B  B22  1  0.500000  0.707687  0.765593  1
  B  B23  1  0.500000  0.631783  0.186167  1
  B  B24  1  0.500000  0.367928  0.814075  1
  B  B25  1  0.500000  0.131862  0.314008  1
  B  B26  1  0.500000  0.868294  0.684074  1
  B  B27  1  0.500000  0.986713  0.213227  1
  B  B28  1  0.500000  0.016023  0.786416  1
  B  B29  1  0.500000  0.486429  0.286946  1
  B  B30  1  0.500000  0.513247  0.712838  1
  B  B31  1  0.500000  0.605223  0.028929  1
  B  B32  1  0.500000  0.394733  0.971459  1
  B  B33  1  0.500000  0.105421  0.470804  1
  B  B34  1  0.500000  0.894778  0.528736  1
  Ru  Ru35  1  0.000000  0.860306  0.819979  1
