# generated using pymatgen
data_Pr2U(ZnIr)3
_symmetry_space_group_name_H-M   'P 1'
_cell_length_a   7.41146400
_cell_length_b   7.29385653
_cell_length_c   3.93040300
_cell_angle_alpha   90.00000000
_cell_angle_beta   90.00000000
_cell_angle_gamma   120.53211510
_symmetry_Int_Tables_number   1
_chemical_formula_structural   Pr2U(ZnIr)3
_chemical_formula_sum   'Pr2 U1 Zn3 Ir3'
_cell_volume   183.01016355
_cell_formula_units_Z   1
loop_
 _symmetry_equiv_pos_site_id
 _symmetry_equiv_pos_as_xyz
  1  'x, y, z'
loop_
 _atom_site_type_symbol
 _atom_site_label
 _atom_site_symmetry_multiplicity
 _atom_site_fract_x
 _atom_site_fract_y
 _atom_site_fract_z
 _atom_site_occupancy
  Pr  Pr0  1  0.000908  0.593060  0.000000  1
  Pr  Pr1  1  0.407801  0.406896  0.000000  1
  U  U2  1  0.595916  0.000016  0.000000  1
  Zn  Zn3  1  0.233364  0.000036  0.500000  1
  Zn  Zn4  1  0.003732  0.250229  0.500000  1
  Zn  Zn5  1  0.753440  0.749753  0.500000  1
  Ir  Ir6  1  0.370305  0.710973  0.500000  1
  Ir  Ir7  1  0.659378  0.289063  0.500000  1
  Ir  Ir8  1  0.975159  0.999973  0.000000  1
