# generated using pymatgen
data_Lu2AlB2Ru5
_symmetry_space_group_name_H-M   'P 1'
_cell_length_a   9.50183000
_cell_length_b   9.50183000
_cell_length_c   3.07910800
_cell_angle_alpha   90.00000000
_cell_angle_beta   90.00000000
_cell_angle_gamma   90.00000000
_symmetry_Int_Tables_number   1
_chemical_formula_structural   Lu2AlB2Ru5
_chemical_formula_sum   'Lu4 Al2 B4 Ru10'
_cell_volume   277.99656790
_cell_formula_units_Z   2
loop_
 _symmetry_equiv_pos_site_id
 _symmetry_equiv_pos_as_xyz
  1  'x, y, z'
loop_
 _atom_site_type_symbol
 _atom_site_label
 _atom_site_symmetry_multiplicity
 _atom_site_fract_x
 _atom_site_fract_y
 _atom_site_fract_z
 _atom_site_occupancy
  Lu  Lu0  1  0.824218  0.675782  0.000000  1
  Lu  Lu1  1  0.175782  0.324218  0.000000  1
  Lu  Lu2  1  0.324218  0.824218  0.000000  1
  Lu  Lu3  1  0.675782  0.175782  0.000000  1
  Al  Al4  1  0.500000  0.500000  0.000000  1
  Al  Al5  1  0.000000  0.000000  0.000000  1
  B  B6  1  0.623468  0.876532  0.000000  1
  B  B7  1  0.376532  0.123468  0.000000  1
  B  B8  1  0.123468  0.623468  0.000000  1
  B  B9  1  0.876532  0.376532  0.000000  1
  Ru  Ru10  1  0.569233  0.716330  0.500000  1
  Ru  Ru11  1  0.430767  0.283670  0.500000  1
  Ru  Ru12  1  0.069233  0.783670  0.500000  1
  Ru  Ru13  1  0.930767  0.216330  0.500000  1
  Ru  Ru14  1  0.283670  0.569233  0.500000  1
  Ru  Ru15  1  0.716330  0.430767  0.500000  1
  Ru  Ru16  1  0.216330  0.069233  0.500000  1
  Ru  Ru17  1  0.783670  0.930767  0.500000  1
  Ru  Ru18  1  0.500000  0.000000  0.500000  1
  Ru  Ru19  1  0.000000  0.500000  0.500000  1
