# generated using pymatgen
data_Tb5Ta3(Ni4P3)4
_symmetry_space_group_name_H-M   'P 1'
_cell_length_a   12.24197300
_cell_length_b   12.24197322
_cell_length_c   3.75887700
_cell_angle_alpha   90.00000000
_cell_angle_beta   90.00000000
_cell_angle_gamma   120.00000751
_symmetry_Int_Tables_number   1
_chemical_formula_structural   Tb5Ta3(Ni4P3)4
_chemical_formula_sum   'Tb5 Ta3 Ni16 P12'
_cell_volume   487.85589377
_cell_formula_units_Z   1
loop_
 _symmetry_equiv_pos_site_id
 _symmetry_equiv_pos_as_xyz
  1  'x, y, z'
loop_
 _atom_site_type_symbol
 _atom_site_label
 _atom_site_symmetry_multiplicity
 _atom_site_fract_x
 _atom_site_fract_y
 _atom_site_fract_z
 _atom_site_occupancy
  Tb  Tb0  1  0.185984  0.185984  0.500000  1
  Tb  Tb1  1  0.814016  0.000000  0.500000  1
  Tb  Tb2  1  0.000000  0.814016  0.500000  1
  Tb  Tb3  1  0.333333  0.666667  0.000000  1
  Tb  Tb4  1  0.666667  0.333333  0.000000  1
  Ta  Ta5  1  0.561145  0.561145  0.000000  1
  Ta  Ta6  1  0.438855  0.000000  0.000000  1
  Ta  Ta7  1  0.000000  0.438855  0.000000  1
  Ni  Ni8  1  0.722778  0.722778  0.500000  1
  Ni  Ni9  1  0.277222  0.000000  0.500000  1
  Ni  Ni10  1  0.000000  0.277222  0.500000  1
  Ni  Ni11  1  0.183346  0.376076  0.000000  1
  Ni  Ni12  1  0.623924  0.807270  0.000000  1
  Ni  Ni13  1  0.192730  0.816654  0.000000  1
  Ni  Ni14  1  0.807270  0.623924  0.000000  1
  Ni  Ni15  1  0.816654  0.192730  0.000000  1
  Ni  Ni16  1  0.376076  0.183346  0.000000  1
  Ni  Ni17  1  0.361113  0.484932  0.500000  1
  Ni  Ni18  1  0.515068  0.876183  0.500000  1
  Ni  Ni19  1  0.123817  0.638887  0.500000  1
  Ni  Ni20  1  0.876183  0.515068  0.500000  1
  Ni  Ni21  1  0.638887  0.123817  0.500000  1
  Ni  Ni22  1  0.484932  0.361113  0.500000  1
  Ni  Ni23  1  0.000000  0.000000  0.000000  1
  P  P24  1  0.821739  0.821739  0.000000  1
  P  P25  1  0.178261  0.000000  0.000000  1
  P  P26  1  0.000000  0.178261  0.000000  1
  P  P27  1  0.167381  0.477503  0.500000  1
  P  P28  1  0.522497  0.689878  0.500000  1
  P  P29  1  0.310122  0.832619  0.500000  1
  P  P30  1  0.689878  0.522497  0.500000  1
  P  P31  1  0.832619  0.310122  0.500000  1
  P  P32  1  0.477503  0.167381  0.500000  1
  P  P33  1  0.362037  0.362037  0.000000  1
  P  P34  1  0.637963  0.000000  0.000000  1
  P  P35  1  0.000000  0.637963  0.000000  1
