# generated using pymatgen
data_Gd3Er9CoTc3
_symmetry_space_group_name_H-M   'P 1'
_cell_length_a   6.24378200
_cell_length_b   7.30963738
_cell_length_c   9.10927300
_cell_angle_alpha   90.00000000
_cell_angle_beta   90.00000000
_cell_angle_gamma   90.13530639
_symmetry_Int_Tables_number   1
_chemical_formula_structural   Gd3Er9CoTc3
_chemical_formula_sum   'Gd3 Er9 Co1 Tc3'
_cell_volume   415.74407749
_cell_formula_units_Z   1
loop_
 _symmetry_equiv_pos_site_id
 _symmetry_equiv_pos_as_xyz
  1  'x, y, z'
loop_
 _atom_site_type_symbol
 _atom_site_label
 _atom_site_symmetry_multiplicity
 _atom_site_fract_x
 _atom_site_fract_y
 _atom_site_fract_z
 _atom_site_occupancy
  Gd  Gd0  1  0.871890  0.541608  0.250000  1
  Gd  Gd1  1  0.139401  0.457872  0.750000  1
  Gd  Gd2  1  0.375774  0.951259  0.750000  1
  Er  Er3  1  0.332918  0.677838  0.065354  1
  Er  Er4  1  0.163144  0.175779  0.436604  1
  Er  Er5  1  0.663578  0.325263  0.563878  1
  Er  Er6  1  0.833359  0.823713  0.937220  1
  Er  Er7  1  0.663578  0.325263  0.936122  1
  Er  Er8  1  0.833359  0.823713  0.562780  1
  Er  Er9  1  0.332918  0.677838  0.434646  1
  Er  Er10  1  0.163144  0.175779  0.063396  1
  Er  Er11  1  0.623489  0.039612  0.250000  1
  Co  Co12  1  0.542993  0.617034  0.750000  1
  Tc  Tc13  1  0.035777  0.884587  0.250000  1
  Tc  Tc14  1  0.461136  0.387709  0.250000  1
  Tc  Tc15  1  0.963541  0.115133  0.750000  1
