# generated using pymatgen
data_Li3(EuAu3)2
_symmetry_space_group_name_H-M   'P 1'
_cell_length_a   8.84933654
_cell_length_b   8.84933661
_cell_length_c   8.84933748
_cell_angle_alpha   56.89445229
_cell_angle_beta   56.89445313
_cell_angle_gamma   56.89445008
_symmetry_Int_Tables_number   1
_chemical_formula_structural   Li3(EuAu3)2
_chemical_formula_sum   'Li6 Eu4 Au12'
_cell_volume   454.91652589
_cell_formula_units_Z   2
loop_
 _symmetry_equiv_pos_site_id
 _symmetry_equiv_pos_as_xyz
  1  'x, y, z'
loop_
 _atom_site_type_symbol
 _atom_site_label
 _atom_site_symmetry_multiplicity
 _atom_site_fract_x
 _atom_site_fract_y
 _atom_site_fract_z
 _atom_site_occupancy
  Li  Li0  1  0.552411  0.750000  0.947589  1
  Li  Li1  1  0.947589  0.552411  0.750000  1
  Li  Li2  1  0.750000  0.947589  0.552411  1
  Li  Li3  1  0.447589  0.250000  0.052411  1
  Li  Li4  1  0.052411  0.447589  0.250000  1
  Li  Li5  1  0.250000  0.052411  0.447589  1
  Eu  Eu6  1  0.907451  0.907451  0.907451  1
  Eu  Eu7  1  0.407451  0.407451  0.407451  1
  Eu  Eu8  1  0.092549  0.092549  0.092549  1
  Eu  Eu9  1  0.592549  0.592549  0.592549  1
  Au  Au10  1  0.486210  0.864046  0.202190  1
  Au  Au11  1  0.202190  0.486210  0.864046  1
  Au  Au12  1  0.864046  0.202190  0.486210  1
  Au  Au13  1  0.702190  0.364046  0.986210  1
  Au  Au14  1  0.986210  0.702190  0.364046  1
  Au  Au15  1  0.364046  0.986210  0.702190  1
  Au  Au16  1  0.513790  0.135954  0.797810  1
  Au  Au17  1  0.797810  0.513790  0.135954  1
  Au  Au18  1  0.135954  0.797810  0.513790  1
  Au  Au19  1  0.297810  0.635954  0.013790  1
  Au  Au20  1  0.013790  0.297810  0.635954  1
  Au  Au21  1  0.635954  0.013790  0.297810  1
