# generated using pymatgen
data_La3Mg2CdGe2Au
_symmetry_space_group_name_H-M   'P 1'
_cell_length_a   7.64601000
_cell_length_b   7.58617659
_cell_length_c   4.51101100
_cell_angle_alpha   90.00000000
_cell_angle_beta   90.00000000
_cell_angle_gamma   120.26126751
_symmetry_Int_Tables_number   1
_chemical_formula_structural   La3Mg2CdGe2Au
_chemical_formula_sum   'La3 Mg2 Cd1 Ge2 Au1'
_cell_volume   226.00233563
_cell_formula_units_Z   1
loop_
 _symmetry_equiv_pos_site_id
 _symmetry_equiv_pos_as_xyz
  1  'x, y, z'
loop_
 _atom_site_type_symbol
 _atom_site_label
 _atom_site_symmetry_multiplicity
 _atom_site_fract_x
 _atom_site_fract_y
 _atom_site_fract_z
 _atom_site_occupancy
  La  La0  1  0.581888  0.000000  0.000000  1
  La  La1  1  0.002062  0.585878  0.000000  1
  La  La2  1  0.416185  0.414122  0.000000  1
  Mg  Mg3  1  0.001104  0.238745  0.500000  1
  Mg  Mg4  1  0.762359  0.761255  0.500000  1
  Cd  Cd5  1  0.243655  0.000000  0.500000  1
  Ge  Ge6  1  0.333777  0.663609  0.500000  1
  Ge  Ge7  1  0.670169  0.336391  0.500000  1
  Au  Au8  1  0.988802  0.000000  0.000000  1
