# generated using pymatgen
data_Tb3Y(AgTe)12
_symmetry_space_group_name_H-M   'P 1'
_cell_length_a   7.25939500
_cell_length_b   8.19390727
_cell_length_c   13.83437400
_cell_angle_alpha   89.99851759
_cell_angle_beta   89.99930545
_cell_angle_gamma   90.01466322
_symmetry_Int_Tables_number   1
_chemical_formula_structural   Tb3Y(AgTe)12
_chemical_formula_sum   'Tb3 Y1 Ag12 Te12'
_cell_volume   822.90740561
_cell_formula_units_Z   1
loop_
 _symmetry_equiv_pos_site_id
 _symmetry_equiv_pos_as_xyz
  1  'x, y, z'
loop_
 _atom_site_type_symbol
 _atom_site_label
 _atom_site_symmetry_multiplicity
 _atom_site_fract_x
 _atom_site_fract_y
 _atom_site_fract_z
 _atom_site_occupancy
  Tb  Tb0  1  0.243567  0.749437  0.832843  1
  Tb  Tb1  1  0.743566  0.250563  0.332832  1
  Tb  Tb2  1  0.743568  0.250565  0.667150  1
  Y  Y3  1  0.243562  0.749431  0.167048  1
  Ag  Ag4  1  0.381604  0.121844  0.833900  1
  Ag  Ag5  1  0.633442  0.601489  0.999986  1
  Ag  Ag6  1  0.881619  0.878155  0.666102  1
  Ag  Ag7  1  0.605284  0.624166  0.667134  1
  Ag  Ag8  1  0.858308  0.892736  0.999988  1
  Ag  Ag9  1  0.133401  0.398518  0.499987  1
  Ag  Ag10  1  0.605284  0.624171  0.332868  1
  Ag  Ag11  1  0.358343  0.107258  0.499987  1
  Ag  Ag12  1  0.881609  0.878150  0.333902  1
  Ag  Ag13  1  0.381522  0.121713  0.166104  1
  Ag  Ag14  1  0.105309  0.375833  0.832868  1
  Ag  Ag15  1  0.105377  0.375951  0.167140  1
  Te  Te16  1  0.011542  0.558707  0.330985  1
  Te  Te17  1  0.511042  0.441817  0.168854  1
  Te  Te18  1  0.976225  0.056607  0.168503  1
  Te  Te19  1  0.011312  0.558531  0.668899  1
  Te  Te20  1  0.027760  0.576438  0.000225  1
  Te  Te21  1  0.511323  0.441482  0.831119  1
  Te  Te22  1  0.475738  0.942873  0.331355  1
  Te  Te23  1  0.475936  0.943043  0.668544  1
  Te  Te24  1  0.963239  0.080185  0.499995  1
  Te  Te25  1  0.463036  0.919570  0.000215  1
  Te  Te26  1  0.975926  0.056947  0.831473  1
  Te  Te27  1  0.527549  0.423822  0.499994  1
