# generated using pymatgen
data_Ac3Ge2Rh3
_symmetry_space_group_name_H-M   'P 1'
_cell_length_a   6.23138900
_cell_length_b   8.09631900
_cell_length_c   15.53858500
_cell_angle_alpha   90.00000000
_cell_angle_beta   90.00000000
_cell_angle_gamma   90.00000000
_symmetry_Int_Tables_number   1
_chemical_formula_structural   Ac3Ge2Rh3
_chemical_formula_sum   'Ac12 Ge8 Rh12'
_cell_volume   783.94201785
_cell_formula_units_Z   4
loop_
 _symmetry_equiv_pos_site_id
 _symmetry_equiv_pos_as_xyz
  1  'x, y, z'
loop_
 _atom_site_type_symbol
 _atom_site_label
 _atom_site_symmetry_multiplicity
 _atom_site_fract_x
 _atom_site_fract_y
 _atom_site_fract_z
 _atom_site_occupancy
  Ac  Ac0  1  0.155250  0.482596  0.892049  1
  Ac  Ac1  1  0.344750  0.982596  0.892049  1
  Ac  Ac2  1  0.632741  0.346470  0.750000  1
  Ac  Ac3  1  0.367259  0.653530  0.250000  1
  Ac  Ac4  1  0.655250  0.017404  0.392049  1
  Ac  Ac5  1  0.844750  0.517404  0.107951  1
  Ac  Ac6  1  0.844750  0.517404  0.392049  1
  Ac  Ac7  1  0.344750  0.982596  0.607951  1
  Ac  Ac8  1  0.867259  0.846470  0.750000  1
  Ac  Ac9  1  0.155250  0.482596  0.607951  1
  Ac  Ac10  1  0.655250  0.017404  0.107951  1
  Ac  Ac11  1  0.132741  0.153530  0.250000  1
  Ge  Ge12  1  0.360529  0.361789  0.093760  1
  Ge  Ge13  1  0.639471  0.638211  0.906240  1
  Ge  Ge14  1  0.860529  0.138211  0.906240  1
  Ge  Ge15  1  0.360529  0.361789  0.406240  1
  Ge  Ge16  1  0.860529  0.138211  0.593760  1
  Ge  Ge17  1  0.639471  0.638211  0.593760  1
  Ge  Ge18  1  0.139471  0.861789  0.406240  1
  Ge  Ge19  1  0.139471  0.861789  0.093760  1
  Rh  Rh20  1  0.601841  0.347058  0.961625  1
  Rh  Rh21  1  0.398159  0.652942  0.038375  1
  Rh  Rh22  1  0.559337  0.310984  0.250000  1
  Rh  Rh23  1  0.398159  0.652942  0.461625  1
  Rh  Rh24  1  0.059337  0.189016  0.750000  1
  Rh  Rh25  1  0.101841  0.152942  0.461625  1
  Rh  Rh26  1  0.440663  0.689016  0.750000  1
  Rh  Rh27  1  0.940663  0.810984  0.250000  1
  Rh  Rh28  1  0.101841  0.152942  0.038375  1
  Rh  Rh29  1  0.601841  0.347058  0.538375  1
  Rh  Rh30  1  0.898159  0.847058  0.538375  1
  Rh  Rh31  1  0.898159  0.847058  0.961625  1
