# generated using pymatgen
data_Lu4AlCo4
_symmetry_space_group_name_H-M   'P 1'
_cell_length_a   5.34344805
_cell_length_b   5.34344752
_cell_length_c   8.77326317
_cell_angle_alpha   70.98835805
_cell_angle_beta   70.98836149
_cell_angle_gamma   43.31057171
_symmetry_Int_Tables_number   1
_chemical_formula_structural   Lu4AlCo4
_chemical_formula_sum   'Lu4 Al1 Co4'
_cell_volume   160.92948426
_cell_formula_units_Z   1
loop_
 _symmetry_equiv_pos_site_id
 _symmetry_equiv_pos_as_xyz
  1  'x, y, z'
loop_
 _atom_site_type_symbol
 _atom_site_label
 _atom_site_symmetry_multiplicity
 _atom_site_fract_x
 _atom_site_fract_y
 _atom_site_fract_z
 _atom_site_occupancy
  Lu  Lu0  1  0.745353  0.745353  0.663345  1
  Lu  Lu1  1  0.254647  0.254647  0.336655  1
  Lu  Lu2  1  0.390450  0.390450  0.887281  1
  Lu  Lu3  1  0.609550  0.609550  0.112719  1
  Al  Al4  1  0.500000  0.500000  0.500000  1
  Co  Co5  1  0.038867  0.038867  0.645345  1
  Co  Co6  1  0.961133  0.961133  0.354655  1
  Co  Co7  1  0.096363  0.096363  0.880941  1
  Co  Co8  1  0.903637  0.903637  0.119059  1
