# generated using pymatgen
data_Sb4PdRu3
_symmetry_space_group_name_H-M   'P 1'
_cell_length_a   3.93875300
_cell_length_b   5.91462801
_cell_length_c   6.59081629
_cell_angle_alpha   89.63571656
_cell_angle_beta   90.00000000
_cell_angle_gamma   90.00000000
_symmetry_Int_Tables_number   1
_chemical_formula_structural   Sb4PdRu3
_chemical_formula_sum   'Sb4 Pd1 Ru3'
_cell_volume   153.53825887
_cell_formula_units_Z   1
loop_
 _symmetry_equiv_pos_site_id
 _symmetry_equiv_pos_as_xyz
  1  'x, y, z'
loop_
 _atom_site_type_symbol
 _atom_site_label
 _atom_site_symmetry_multiplicity
 _atom_site_fract_x
 _atom_site_fract_y
 _atom_site_fract_z
 _atom_site_occupancy
  Sb  Sb0  1  0.750000  0.793809  0.597715  1
  Sb  Sb1  1  0.250000  0.209169  0.417296  1
  Sb  Sb2  1  0.750000  0.305609  0.908371  1
  Sb  Sb3  1  0.250000  0.687693  0.082167  1
  Pd  Pd4  1  0.750000  0.993850  0.199093  1
  Ru  Ru5  1  0.250000  0.005572  0.791581  1
  Ru  Ru6  1  0.750000  0.498476  0.301367  1
  Ru  Ru7  1  0.250000  0.505822  0.702411  1
