# generated using pymatgen
data_Sc7(PSe3)2
_symmetry_space_group_name_H-M   'P 1'
_cell_length_a   7.64486082
_cell_length_b   6.62318393
_cell_length_c   7.66174331
_cell_angle_alpha   89.97499715
_cell_angle_beta   59.97771862
_cell_angle_gamma   73.05161669
_symmetry_Int_Tables_number   1
_chemical_formula_structural   Sc7(PSe3)2
_chemical_formula_sum   'Sc7 P2 Se6'
_cell_volume   316.31039396
_cell_formula_units_Z   1
loop_
 _symmetry_equiv_pos_site_id
 _symmetry_equiv_pos_as_xyz
  1  'x, y, z'
loop_
 _atom_site_type_symbol
 _atom_site_label
 _atom_site_symmetry_multiplicity
 _atom_site_fract_x
 _atom_site_fract_y
 _atom_site_fract_z
 _atom_site_occupancy
  Sc  Sc0  1  0.159413  0.687602  0.979223  1
  Sc  Sc1  1  0.662921  0.184661  0.744413  1
  Sc  Sc2  1  0.146043  0.178705  0.738574  1
  Sc  Sc3  1  0.658624  0.689598  0.981387  1
  Sc  Sc4  1  0.161908  0.686985  0.479444  1
  Sc  Sc5  1  0.658488  0.189685  0.213390  1
  Sc  Sc6  1  0.171954  0.201043  0.225350  1
  P  P7  1  0.409537  0.445151  0.103936  1
  P  P8  1  0.911312  0.930740  0.854622  1
  Se  Se9  1  0.413305  0.936636  0.358638  1
  Se  Se10  1  0.905592  0.441920  0.604254  1
  Se  Se11  1  0.904224  0.442482  0.113331  1
  Se  Se12  1  0.410249  0.428878  0.605454  1
  Se  Se13  1  0.912049  0.946569  0.353714  1
  Se  Se14  1  0.412314  0.936284  0.850688  1
