# generated using pymatgen
data_LiZr6Zn22As
_symmetry_space_group_name_H-M   'P 1'
_cell_length_a   8.77304935
_cell_length_b   8.77304859
_cell_length_c   8.77305000
_cell_angle_alpha   60.00000223
_cell_angle_beta   60.00000511
_cell_angle_gamma   59.99999617
_symmetry_Int_Tables_number   1
_chemical_formula_structural   LiZr6Zn22As
_chemical_formula_sum   'Li1 Zr6 Zn22 As1'
_cell_volume   477.45970515
_cell_formula_units_Z   1
loop_
 _symmetry_equiv_pos_site_id
 _symmetry_equiv_pos_as_xyz
  1  'x, y, z'
loop_
 _atom_site_type_symbol
 _atom_site_label
 _atom_site_symmetry_multiplicity
 _atom_site_fract_x
 _atom_site_fract_y
 _atom_site_fract_z
 _atom_site_occupancy
  Li  Li0  1  0.000000  0.000000  0.000000  1
  Zr  Zr1  1  0.712270  0.287730  0.287730  1
  Zr  Zr2  1  0.287730  0.712270  0.712270  1
  Zr  Zr3  1  0.287730  0.712270  0.287730  1
  Zr  Zr4  1  0.712270  0.287730  0.712270  1
  Zr  Zr5  1  0.287730  0.287730  0.712270  1
  Zr  Zr6  1  0.712270  0.712270  0.287730  1
  Zn  Zn7  1  0.121169  0.121169  0.121169  1
  Zn  Zn8  1  0.878831  0.878831  0.878831  1
  Zn  Zn9  1  0.121169  0.121169  0.636495  1
  Zn  Zn10  1  0.121169  0.636495  0.121169  1
  Zn  Zn11  1  0.878831  0.878831  0.363505  1
  Zn  Zn12  1  0.878831  0.363505  0.878831  1
  Zn  Zn13  1  0.636495  0.121169  0.121169  1
  Zn  Zn14  1  0.363505  0.878831  0.878831  1
  Zn  Zn15  1  0.500000  0.000000  0.000000  1
  Zn  Zn16  1  0.000000  0.500000  0.500000  1
  Zn  Zn17  1  0.000000  0.500000  0.000000  1
  Zn  Zn18  1  0.500000  0.000000  0.500000  1
  Zn  Zn19  1  0.000000  0.000000  0.500000  1
  Zn  Zn20  1  0.500000  0.500000  0.000000  1
  Zn  Zn21  1  0.333883  0.333883  0.333883  1
  Zn  Zn22  1  0.666117  0.666117  0.666117  1
  Zn  Zn23  1  0.333883  0.333883  0.998351  1
  Zn  Zn24  1  0.333883  0.998351  0.333883  1
  Zn  Zn25  1  0.666117  0.666117  0.001649  1
  Zn  Zn26  1  0.666117  0.001649  0.666117  1
  Zn  Zn27  1  0.998351  0.333883  0.333883  1
  Zn  Zn28  1  0.001649  0.666117  0.666117  1
  As  As29  1  0.500000  0.500000  0.500000  1
