# generated using pymatgen
data_Rb3Na2SiAs3
_symmetry_space_group_name_H-M   'P 1'
_cell_length_a   10.83124783
_cell_length_b   10.83124731
_cell_length_c   15.71430500
_cell_angle_alpha   90.00000000
_cell_angle_beta   90.00000000
_cell_angle_gamma   142.78616712
_symmetry_Int_Tables_number   1
_chemical_formula_structural   Rb3Na2SiAs3
_chemical_formula_sum   'Rb12 Na8 Si4 As12'
_cell_volume   1114.95605961
_cell_formula_units_Z   4
loop_
 _symmetry_equiv_pos_site_id
 _symmetry_equiv_pos_as_xyz
  1  'x, y, z'
loop_
 _atom_site_type_symbol
 _atom_site_label
 _atom_site_symmetry_multiplicity
 _atom_site_fract_x
 _atom_site_fract_y
 _atom_site_fract_z
 _atom_site_occupancy
  Rb  Rb0  1  0.937806  0.607568  0.827942  1
  Rb  Rb1  1  0.562194  0.892432  0.327942  1
  Rb  Rb2  1  0.392432  0.062194  0.172058  1
  Rb  Rb3  1  0.062194  0.392432  0.172058  1
  Rb  Rb4  1  0.892432  0.562194  0.327942  1
  Rb  Rb5  1  0.437806  0.107568  0.672058  1
  Rb  Rb6  1  0.607568  0.937806  0.827942  1
  Rb  Rb7  1  0.265567  0.265567  0.320341  1
  Rb  Rb8  1  0.765567  0.765567  0.179659  1
  Rb  Rb9  1  0.234433  0.234433  0.820341  1
  Rb  Rb10  1  0.734433  0.734433  0.679659  1
  Rb  Rb11  1  0.107568  0.437806  0.672058  1
  Na  Na12  1  0.921228  0.078772  0.000000  1
  Na  Na13  1  0.578772  0.421228  0.500000  1
  Na  Na14  1  0.078772  0.921228  0.000000  1
  Na  Na15  1  0.421228  0.578772  0.500000  1
  Na  Na16  1  0.755611  0.244389  0.000000  1
  Na  Na17  1  0.744389  0.255611  0.500000  1
  Na  Na18  1  0.244389  0.755611  0.000000  1
  Na  Na19  1  0.255611  0.744389  0.500000  1
  Si  Si20  1  0.584718  0.415282  0.000000  1
  Si  Si21  1  0.915282  0.084718  0.500000  1
  Si  Si22  1  0.415282  0.584718  0.000000  1
  Si  Si23  1  0.084718  0.915282  0.500000  1
  As  As24  1  0.853665  0.549453  0.092874  1
  As  As25  1  0.450547  0.146335  0.907126  1
  As  As26  1  0.646335  0.950547  0.592874  1
  As  As27  1  0.950547  0.646335  0.592874  1
  As  As28  1  0.146335  0.450547  0.907126  1
  As  As29  1  0.549453  0.853665  0.092874  1
  As  As30  1  0.353665  0.049453  0.407126  1
  As  As31  1  0.182830  0.182830  0.580720  1
  As  As32  1  0.682830  0.682830  0.919280  1
  As  As33  1  0.317170  0.317170  0.080720  1
  As  As34  1  0.049453  0.353665  0.407126  1
  As  As35  1  0.817170  0.817170  0.419280  1
