# generated using pymatgen
data_La6Yb2ZnPd24
_symmetry_space_group_name_H-M   'P 1'
_cell_length_a   8.48708848
_cell_length_b   8.48708795
_cell_length_c   8.48708800
_cell_angle_alpha   89.94114534
_cell_angle_beta   90.05885466
_cell_angle_gamma   90.05885433
_symmetry_Int_Tables_number   1
_chemical_formula_structural   La6Yb2ZnPd24
_chemical_formula_sum   'La6 Yb2 Zn1 Pd24'
_cell_volume   611.32963680
_cell_formula_units_Z   1
loop_
 _symmetry_equiv_pos_site_id
 _symmetry_equiv_pos_as_xyz
  1  'x, y, z'
loop_
 _atom_site_type_symbol
 _atom_site_label
 _atom_site_symmetry_multiplicity
 _atom_site_fract_x
 _atom_site_fract_y
 _atom_site_fract_z
 _atom_site_occupancy
  La  La0  1  0.250625  0.251419  0.251419  1
  La  La1  1  0.749375  0.748581  0.748581  1
  La  La2  1  0.748581  0.749375  0.251419  1
  La  La3  1  0.748581  0.251419  0.749375  1
  La  La4  1  0.251419  0.250625  0.748581  1
  La  La5  1  0.251419  0.748581  0.250625  1
  Yb  Yb6  1  0.249547  0.750453  0.750453  1
  Yb  Yb7  1  0.750453  0.249547  0.249547  1
  Zn  Zn8  1  0.000000  0.000000  0.000000  1
  Pd  Pd9  1  0.261216  0.502413  0.995424  1
  Pd  Pd10  1  0.738784  0.497587  0.004576  1
  Pd  Pd11  1  0.995424  0.261216  0.497587  1
  Pd  Pd12  1  0.502413  0.261216  0.004576  1
  Pd  Pd13  1  0.004576  0.738784  0.502413  1
  Pd  Pd14  1  0.497587  0.738784  0.995424  1
  Pd  Pd15  1  0.502413  0.004576  0.261216  1
  Pd  Pd16  1  0.261216  0.995424  0.502413  1
  Pd  Pd17  1  0.497587  0.995424  0.738784  1
  Pd  Pd18  1  0.738784  0.004576  0.497587  1
  Pd  Pd19  1  0.995424  0.497587  0.261216  1
  Pd  Pd20  1  0.004576  0.502413  0.738784  1
  Pd  Pd21  1  0.253267  0.504112  0.504112  1
  Pd  Pd22  1  0.746733  0.495888  0.495888  1
  Pd  Pd23  1  0.504112  0.253267  0.495888  1
  Pd  Pd24  1  0.495888  0.746733  0.504112  1
  Pd  Pd25  1  0.504112  0.495888  0.253267  1
  Pd  Pd26  1  0.495888  0.504112  0.746733  1
  Pd  Pd27  1  0.295660  0.996228  0.996228  1
  Pd  Pd28  1  0.704340  0.003772  0.003772  1
  Pd  Pd29  1  0.996228  0.295660  0.003772  1
  Pd  Pd30  1  0.003772  0.704340  0.996228  1
  Pd  Pd31  1  0.996228  0.003772  0.295660  1
  Pd  Pd32  1  0.003772  0.996228  0.704340  1
