# generated using pymatgen
data_Sc2MnB2Ir4Rh
_symmetry_space_group_name_H-M   'P 1'
_cell_length_a   3.05114600
_cell_length_b   9.42809800
_cell_length_c   9.42809800
_cell_angle_alpha   90.00000000
_cell_angle_beta   90.00000000
_cell_angle_gamma   90.00000000
_symmetry_Int_Tables_number   1
_chemical_formula_structural   Sc2MnB2Ir4Rh
_chemical_formula_sum   'Sc4 Mn2 B4 Ir8 Rh2'
_cell_volume   271.21341412
_cell_formula_units_Z   2
loop_
 _symmetry_equiv_pos_site_id
 _symmetry_equiv_pos_as_xyz
  1  'x, y, z'
loop_
 _atom_site_type_symbol
 _atom_site_label
 _atom_site_symmetry_multiplicity
 _atom_site_fract_x
 _atom_site_fract_y
 _atom_site_fract_z
 _atom_site_occupancy
  Sc  Sc0  1  0.000000  0.675313  0.175313  1
  Sc  Sc1  1  0.000000  0.175313  0.324687  1
  Sc  Sc2  1  0.000000  0.824686  0.675313  1
  Sc  Sc3  1  0.000000  0.324687  0.824686  1
  Mn  Mn4  1  0.000000  0.000000  0.000000  1
  Mn  Mn5  1  0.000000  0.499999  0.499999  1
  B  B6  1  0.000000  0.375840  0.124161  1
  B  B7  1  0.000000  0.875839  0.375840  1
  B  B8  1  0.000000  0.124161  0.624160  1
  B  B9  1  0.000000  0.624160  0.875839  1
  Ir  Ir10  1  0.499997  0.217122  0.069812  1
  Ir  Ir11  1  0.499997  0.930188  0.217122  1
  Ir  Ir12  1  0.499997  0.430188  0.282878  1
  Ir  Ir13  1  0.499997  0.717122  0.430188  1
  Ir  Ir14  1  0.499997  0.282878  0.569812  1
  Ir  Ir15  1  0.499997  0.569812  0.717122  1
  Ir  Ir16  1  0.499997  0.069812  0.782877  1
  Ir  Ir17  1  0.499997  0.782877  0.930188  1
  Rh  Rh18  1  0.499997  0.499999  0.000000  1
  Rh  Rh19  1  0.499997  0.000000  0.499999  1
