# generated using pymatgen
data_Lu5Al3Si4Ni3
_symmetry_space_group_name_H-M   'P 1'
_cell_length_a   4.09660000
_cell_length_b   18.76597200
_cell_length_c   6.72328500
_cell_angle_alpha   90.00000000
_cell_angle_beta   90.00000000
_cell_angle_gamma   90.00000000
_symmetry_Int_Tables_number   1
_chemical_formula_structural   Lu5Al3Si4Ni3
_chemical_formula_sum   'Lu10 Al6 Si8 Ni6'
_cell_volume   516.86383551
_cell_formula_units_Z   2
loop_
 _symmetry_equiv_pos_site_id
 _symmetry_equiv_pos_as_xyz
  1  'x, y, z'
loop_
 _atom_site_type_symbol
 _atom_site_label
 _atom_site_symmetry_multiplicity
 _atom_site_fract_x
 _atom_site_fract_y
 _atom_site_fract_z
 _atom_site_occupancy
  Lu  Lu0  1  0.750000  0.119456  0.003417  1
  Lu  Lu1  1  0.750000  0.380544  0.003417  1
  Lu  Lu2  1  0.750000  0.250000  0.381747  1
  Lu  Lu3  1  0.750000  0.070628  0.499919  1
  Lu  Lu4  1  0.750000  0.429371  0.499919  1
  Lu  Lu5  1  0.250001  0.570628  0.500081  1
  Lu  Lu6  1  0.250001  0.929372  0.500081  1
  Lu  Lu7  1  0.250001  0.750000  0.618253  1
  Lu  Lu8  1  0.250001  0.619456  0.996583  1
  Lu  Lu9  1  0.250001  0.880544  0.996583  1
  Al  Al10  1  0.250001  0.250000  0.030808  1
  Al  Al11  1  0.750000  0.676134  0.321181  1
  Al  Al12  1  0.750000  0.823866  0.321181  1
  Al  Al13  1  0.250001  0.176134  0.678819  1
  Al  Al14  1  0.250001  0.323866  0.678819  1
  Al  Al15  1  0.750000  0.750000  0.969192  1
  Si  Si16  1  0.750000  0.538403  0.203386  1
  Si  Si17  1  0.750000  0.961597  0.203386  1
  Si  Si18  1  0.250001  0.143965  0.288391  1
  Si  Si19  1  0.250001  0.356035  0.288391  1
  Si  Si20  1  0.750000  0.643965  0.711609  1
  Si  Si21  1  0.750000  0.856035  0.711609  1
  Si  Si22  1  0.250001  0.038404  0.796614  1
  Si  Si23  1  0.250001  0.461596  0.796614  1
  Ni  Ni24  1  0.250001  0.024480  0.157683  1
  Ni  Ni25  1  0.250001  0.475520  0.157683  1
  Ni  Ni26  1  0.250001  0.750000  0.208717  1
  Ni  Ni27  1  0.750000  0.250000  0.791283  1
  Ni  Ni28  1  0.750000  0.524480  0.842317  1
  Ni  Ni29  1  0.750000  0.975520  0.842317  1
