# generated using pymatgen
data_La5Sm2PaSe12
_symmetry_space_group_name_H-M   'P 1'
_cell_length_a   4.24271200
_cell_length_b   11.24148350
_cell_length_c   11.51850400
_cell_angle_alpha   90.43801959
_cell_angle_beta   90.00000000
_cell_angle_gamma   90.00000000
_symmetry_Int_Tables_number   1
_chemical_formula_structural   La5Sm2PaSe12
_chemical_formula_sum   'La5 Sm2 Pa1 Se12'
_cell_volume   549.35181790
_cell_formula_units_Z   1
loop_
 _symmetry_equiv_pos_site_id
 _symmetry_equiv_pos_as_xyz
  1  'x, y, z'
loop_
 _atom_site_type_symbol
 _atom_site_label
 _atom_site_symmetry_multiplicity
 _atom_site_fract_x
 _atom_site_fract_y
 _atom_site_fract_z
 _atom_site_occupancy
  La  La0  1  0.250000  0.998968  0.694820  1
  La  La1  1  0.750000  0.001100  0.304887  1
  La  La2  1  0.750000  0.493202  0.810275  1
  La  La3  1  0.250000  0.506014  0.192313  1
  La  La4  1  0.250000  0.312559  0.509634  1
  Sm  Sm5  1  0.750000  0.813606  0.988475  1
  Sm  Sm6  1  0.250000  0.186256  0.012494  1
  Pa  Pa7  1  0.750000  0.687067  0.490537  1
  Se  Se8  1  0.750000  0.053316  0.883949  1
  Se  Se9  1  0.250000  0.943583  0.115398  1
  Se  Se10  1  0.250000  0.562157  0.617728  1
  Se  Se11  1  0.750000  0.450331  0.380727  1
  Se  Se12  1  0.250000  0.863262  0.453690  1
  Se  Se13  1  0.750000  0.124270  0.545352  1
  Se  Se14  1  0.750000  0.369218  0.047199  1
  Se  Se15  1  0.250000  0.632468  0.953079  1
  Se  Se16  1  0.250000  0.296459  0.772814  1
  Se  Se17  1  0.750000  0.706955  0.234419  1
  Se  Se18  1  0.750000  0.797869  0.723419  1
  Se  Se19  1  0.250000  0.201340  0.268790  1
