# generated using pymatgen
data_Ho4MgNi2Bi
_symmetry_space_group_name_H-M   'P 1'
_cell_length_a   8.70901527
_cell_length_b   8.70901579
_cell_length_c   8.70901500
_cell_angle_alpha   129.28510111
_cell_angle_beta   129.28510568
_cell_angle_gamma   74.55226572
_symmetry_Int_Tables_number   1
_chemical_formula_structural   Ho4MgNi2Bi
_chemical_formula_sum   'Ho8 Mg2 Ni4 Bi2'
_cell_volume   385.61510712
_cell_formula_units_Z   2
loop_
 _symmetry_equiv_pos_site_id
 _symmetry_equiv_pos_as_xyz
  1  'x, y, z'
loop_
 _atom_site_type_symbol
 _atom_site_label
 _atom_site_symmetry_multiplicity
 _atom_site_fract_x
 _atom_site_fract_y
 _atom_site_fract_z
 _atom_site_occupancy
  Ho  Ho0  1  0.038865  0.538865  0.830615  1
  Ho  Ho1  1  0.708250  0.208250  0.169385  1
  Ho  Ho2  1  0.538865  0.708250  0.500000  1
  Ho  Ho3  1  0.208250  0.038865  0.500000  1
  Ho  Ho4  1  0.961135  0.461135  0.169385  1
  Ho  Ho5  1  0.291750  0.791750  0.830615  1
  Ho  Ho6  1  0.461135  0.291750  0.500000  1
  Ho  Ho7  1  0.791750  0.961135  0.500000  1
  Mg  Mg8  1  0.000000  0.000000  0.000000  1
  Mg  Mg9  1  0.500000  0.500000  0.000000  1
  Ni  Ni10  1  0.373445  0.873445  0.246888  1
  Ni  Ni11  1  0.626555  0.126555  0.753112  1
  Ni  Ni12  1  0.873445  0.626555  0.500000  1
  Ni  Ni13  1  0.126555  0.373445  0.500000  1
  Bi  Bi14  1  0.750000  0.750000  0.000000  1
  Bi  Bi15  1  0.250000  0.250000  0.000000  1
