# generated using pymatgen
data_Tb(Pr4Rh3)2
_symmetry_space_group_name_H-M   'P 1'
_cell_length_a   7.66790527
_cell_length_b   7.66790509
_cell_length_c   7.66790424
_cell_angle_alpha   71.29043443
_cell_angle_beta   71.29043377
_cell_angle_gamma   71.29042948
_symmetry_Int_Tables_number   1
_chemical_formula_structural   Tb(Pr4Rh3)2
_chemical_formula_sum   'Tb1 Pr8 Rh6'
_cell_volume   392.34878295
_cell_formula_units_Z   1
loop_
 _symmetry_equiv_pos_site_id
 _symmetry_equiv_pos_as_xyz
  1  'x, y, z'
loop_
 _atom_site_type_symbol
 _atom_site_label
 _atom_site_symmetry_multiplicity
 _atom_site_fract_x
 _atom_site_fract_y
 _atom_site_fract_z
 _atom_site_occupancy
  Tb  Tb0  1  0.000000  0.000000  0.000000  1
  Pr  Pr1  1  0.798606  0.798606  0.798606  1
  Pr  Pr2  1  0.201394  0.201394  0.201394  1
  Pr  Pr3  1  0.163182  0.389633  0.667049  1
  Pr  Pr4  1  0.667049  0.163182  0.389633  1
  Pr  Pr5  1  0.389633  0.667049  0.163182  1
  Pr  Pr6  1  0.836818  0.610367  0.332951  1
  Pr  Pr7  1  0.332951  0.836818  0.610367  1
  Pr  Pr8  1  0.610367  0.332951  0.836818  1
  Rh  Rh9  1  0.958786  0.158675  0.596257  1
  Rh  Rh10  1  0.596257  0.958786  0.158675  1
  Rh  Rh11  1  0.158675  0.596257  0.958786  1
  Rh  Rh12  1  0.041214  0.841325  0.403743  1
  Rh  Rh13  1  0.403743  0.041214  0.841325  1
  Rh  Rh14  1  0.841325  0.403743  0.041214  1
