# generated using pymatgen
data_Pa4ReNi3Sn2
_symmetry_space_group_name_H-M   'P 1'
_cell_length_a   7.52318444
_cell_length_b   7.52318444
_cell_length_c   3.60983200
_cell_angle_alpha   90.00000000
_cell_angle_beta   90.00000000
_cell_angle_gamma   90.39387961
_symmetry_Int_Tables_number   1
_chemical_formula_structural   Pa4ReNi3Sn2
_chemical_formula_sum   'Pa4 Re1 Ni3 Sn2'
_cell_volume   204.30554176
_cell_formula_units_Z   1
loop_
 _symmetry_equiv_pos_site_id
 _symmetry_equiv_pos_as_xyz
  1  'x, y, z'
loop_
 _atom_site_type_symbol
 _atom_site_label
 _atom_site_symmetry_multiplicity
 _atom_site_fract_x
 _atom_site_fract_y
 _atom_site_fract_z
 _atom_site_occupancy
  Pa  Pa0  1  0.674837  0.170764  0.500000  1
  Pa  Pa1  1  0.329236  0.825163  0.500000  1
  Pa  Pa2  1  0.829516  0.670484  0.500000  1
  Pa  Pa3  1  0.169965  0.330035  0.500000  1
  Re  Re4  1  0.627725  0.872275  0.000000  1
  Ni  Ni5  1  0.125570  0.620091  0.000000  1
  Ni  Ni6  1  0.879909  0.374430  0.000000  1
  Ni  Ni7  1  0.362657  0.137343  0.000000  1
  Sn  Sn8  1  0.499355  0.498770  0.000000  1
  Sn  Sn9  1  0.001230  0.000645  0.000000  1
