# generated using pymatgen
data_Y2Er3Ru2
_symmetry_space_group_name_H-M   'P 1'
_cell_length_a   6.32008418
_cell_length_b   7.28446912
_cell_length_c   8.43508155
_cell_angle_alpha   96.81198509
_cell_angle_beta   112.00149838
_cell_angle_gamma   89.99999566
_symmetry_Int_Tables_number   1
_chemical_formula_structural   Y2Er3Ru2
_chemical_formula_sum   'Y4 Er6 Ru4'
_cell_volume   357.09862596
_cell_formula_units_Z   2
loop_
 _symmetry_equiv_pos_site_id
 _symmetry_equiv_pos_as_xyz
  1  'x, y, z'
loop_
 _atom_site_type_symbol
 _atom_site_label
 _atom_site_symmetry_multiplicity
 _atom_site_fract_x
 _atom_site_fract_y
 _atom_site_fract_z
 _atom_site_occupancy
  Y  Y0  1  0.790127  0.583712  0.812697  1
  Y  Y1  1  0.977430  0.916288  0.187303  1
  Y  Y2  1  0.209873  0.416288  0.187303  1
  Y  Y3  1  0.022570  0.083712  0.812697  1
  Er  Er4  1  0.205062  0.684733  0.565400  1
  Er  Er5  1  0.639662  0.815267  0.434600  1
  Er  Er6  1  0.794938  0.315267  0.434600  1
  Er  Er7  1  0.360338  0.184733  0.565400  1
  Er  Er8  1  0.419491  0.750000  0.000000  1
  Er  Er9  1  0.580509  0.250000  0.000000  1
  Ru  Ru10  1  0.598737  0.924417  0.778605  1
  Ru  Ru11  1  0.820131  0.575583  0.221395  1
  Ru  Ru12  1  0.401263  0.075583  0.221395  1
  Ru  Ru13  1  0.179869  0.424417  0.778605  1
