# generated using pymatgen
data_Tb5Y3Np4O24
_symmetry_space_group_name_H-M   'P 1'
_cell_length_a   5.55547504
_cell_length_b   7.85885629
_cell_length_c   11.87819391
_cell_angle_alpha   73.96230420
_cell_angle_beta   90.01169726
_cell_angle_gamma   90.01071267
_symmetry_Int_Tables_number   1
_chemical_formula_structural   Tb5Y3Np4O24
_chemical_formula_sum   'Tb5 Y3 Np4 O24'
_cell_volume   498.41436341
_cell_formula_units_Z   1
loop_
 _symmetry_equiv_pos_site_id
 _symmetry_equiv_pos_as_xyz
  1  'x, y, z'
loop_
 _atom_site_type_symbol
 _atom_site_label
 _atom_site_symmetry_multiplicity
 _atom_site_fract_x
 _atom_site_fract_y
 _atom_site_fract_z
 _atom_site_occupancy
  Tb  Tb0  1  0.186183  0.794192  0.079016  1
  Tb  Tb1  1  0.255543  0.000081  0.749864  1
  Tb  Tb2  1  0.744387  0.000032  0.250152  1
  Tb  Tb3  1  0.303010  0.499955  0.749976  1
  Tb  Tb4  1  0.697052  0.499932  0.250114  1
  Y  Y5  1  0.186303  0.206281  0.420557  1
  Y  Y6  1  0.813613  0.206368  0.920546  1
  Y  Y7  1  0.813683  0.793747  0.579387  1
  Np  Np8  1  0.744475  0.721566  0.886011  1
  Np  Np9  1  0.255679  0.721637  0.386327  1
  Np  Np10  1  0.744400  0.278296  0.613804  1
  Np  Np11  1  0.255530  0.278351  0.113832  1
  O  O12  1  0.872321  0.371433  0.446216  1
  O  O13  1  0.448136  0.847979  0.930954  1
  O  O14  1  0.871481  0.628157  0.053801  1
  O  O15  1  0.034777  0.287205  0.732786  1
  O  O16  1  0.965263  0.287334  0.232859  1
  O  O17  1  0.127695  0.371526  0.946136  1
  O  O18  1  0.613189  0.482488  0.883246  1
  O  O19  1  0.552517  0.152000  0.068358  1
  O  O20  1  0.127609  0.628477  0.553930  1
  O  O21  1  0.034890  0.712728  0.767216  1
  O  O22  1  0.449361  0.199594  0.273420  1
  O  O23  1  0.045770  0.944232  0.396288  1
  O  O24  1  0.447230  0.152306  0.568390  1
  O  O25  1  0.965287  0.712713  0.267407  1
  O  O26  1  0.954254  0.055793  0.603743  1
  O  O27  1  0.550589  0.199647  0.773374  1
  O  O28  1  0.550558  0.800345  0.726442  1
  O  O29  1  0.045204  0.056549  0.103853  1
  O  O30  1  0.613345  0.517335  0.616675  1
  O  O31  1  0.387012  0.517131  0.116720  1
  O  O32  1  0.449673  0.800142  0.227104  1
  O  O33  1  0.386603  0.482568  0.383340  1
  O  O34  1  0.552822  0.847772  0.431755  1
  O  O35  1  0.954557  0.944108  0.896401  1
