# generated using pymatgen
data_Ba4Dy3Y(FeO4)4
_symmetry_space_group_name_H-M   'P 1'
_cell_length_a   5.74460300
_cell_length_b   10.36168400
_cell_length_c   13.32405300
_cell_angle_alpha   90.00000000
_cell_angle_beta   90.00000000
_cell_angle_gamma   90.00000000
_symmetry_Int_Tables_number   1
_chemical_formula_structural   Ba4Dy3Y(FeO4)4
_chemical_formula_sum   'Ba8 Dy6 Y2 Fe8 O32'
_cell_volume   793.09774621
_cell_formula_units_Z   2
loop_
 _symmetry_equiv_pos_site_id
 _symmetry_equiv_pos_as_xyz
  1  'x, y, z'
loop_
 _atom_site_type_symbol
 _atom_site_label
 _atom_site_symmetry_multiplicity
 _atom_site_fract_x
 _atom_site_fract_y
 _atom_site_fract_z
 _atom_site_occupancy
  Ba  Ba0  1  0.250000  0.826873  0.712240  1
  Ba  Ba1  1  0.250000  0.673127  0.212240  1
  Ba  Ba2  1  0.750000  0.173607  0.287513  1
  Ba  Ba3  1  0.750000  0.326393  0.787513  1
  Ba  Ba4  1  0.250000  0.103051  0.915248  1
  Ba  Ba5  1  0.250000  0.396949  0.415248  1
  Ba  Ba6  1  0.750000  0.897258  0.084735  1
  Ba  Ba7  1  0.750000  0.602742  0.584735  1
  Dy  Dy8  1  0.250000  0.485610  0.915812  1
  Dy  Dy9  1  0.250000  0.014390  0.415812  1
  Dy  Dy10  1  0.750000  0.514174  0.084219  1
  Dy  Dy11  1  0.750000  0.985826  0.584219  1
  Dy  Dy12  1  0.250000  0.190249  0.642768  1
  Dy  Dy13  1  0.250000  0.309751  0.142768  1
  Y  Y14  1  0.750000  0.809723  0.357131  1
  Y  Y15  1  0.750000  0.690277  0.857131  1
  Fe  Fe16  1  0.250000  0.782909  0.969331  1
  Fe  Fe17  1  0.250000  0.717091  0.469331  1
  Fe  Fe18  1  0.750000  0.217358  0.030752  1
  Fe  Fe19  1  0.750000  0.282642  0.530752  1
  Fe  Fe20  1  0.250000  0.476081  0.692873  1
  Fe  Fe21  1  0.250000  0.023919  0.192873  1
  Fe  Fe22  1  0.750000  0.523231  0.306903  1
  Fe  Fe23  1  0.750000  0.976769  0.806903  1
  O  O24  1  0.250000  0.881230  0.089073  1
  O  O25  1  0.250000  0.618770  0.589073  1
  O  O26  1  0.750000  0.119004  0.911104  1
  O  O27  1  0.750000  0.380996  0.411104  1
  O  O28  1  0.250000  0.317926  0.790672  1
  O  O29  1  0.250000  0.182074  0.290672  1
  O  O30  1  0.750000  0.681127  0.208850  1
  O  O31  1  0.750000  0.818873  0.708850  1
  O  O32  1  0.509133  0.139044  0.507310  1
  O  O33  1  0.990867  0.360956  0.007310  1
  O  O34  1  0.009747  0.861074  0.493054  1
  O  O35  1  0.490253  0.638926  0.993054  1
  O  O36  1  0.490253  0.861074  0.493054  1
  O  O37  1  0.009747  0.638926  0.993054  1
  O  O38  1  0.990867  0.139044  0.507310  1
  O  O39  1  0.509133  0.360956  0.007310  1
  O  O40  1  0.509649  0.057687  0.716511  1
  O  O41  1  0.990351  0.442313  0.216511  1
  O  O42  1  0.009811  0.943121  0.283442  1
  O  O43  1  0.490189  0.556879  0.783442  1
  O  O44  1  0.490189  0.943121  0.283442  1
  O  O45  1  0.009811  0.556879  0.783442  1
  O  O46  1  0.990351  0.057687  0.716511  1
  O  O47  1  0.509649  0.442313  0.216511  1
  O  O48  1  0.999413  0.367122  0.611317  1
  O  O49  1  0.500587  0.132878  0.111317  1
  O  O50  1  0.499151  0.632365  0.388755  1
  O  O51  1  0.000849  0.867635  0.888755  1
  O  O52  1  0.000849  0.632365  0.388755  1
  O  O53  1  0.499151  0.867635  0.888755  1
  O  O54  1  0.500587  0.367122  0.611317  1
  O  O55  1  0.999413  0.132878  0.111317  1
