# generated using pymatgen
data_Pr2NdDy(ZnSn)4
_symmetry_space_group_name_H-M   'P 1'
_cell_length_a   4.58678800
_cell_length_b   4.58678893
_cell_length_c   16.28946500
_cell_angle_alpha   90.00000000
_cell_angle_beta   90.00000000
_cell_angle_gamma   119.99999332
_symmetry_Int_Tables_number   1
_chemical_formula_structural   Pr2NdDy(ZnSn)4
_chemical_formula_sum   'Pr2 Nd1 Dy1 Zn4 Sn4'
_cell_volume   296.79385503
_cell_formula_units_Z   1
loop_
 _symmetry_equiv_pos_site_id
 _symmetry_equiv_pos_as_xyz
  1  'x, y, z'
loop_
 _atom_site_type_symbol
 _atom_site_label
 _atom_site_symmetry_multiplicity
 _atom_site_fract_x
 _atom_site_fract_y
 _atom_site_fract_z
 _atom_site_occupancy
  Pr  Pr0  1  0.000000  0.000000  0.503840  1
  Pr  Pr1  1  0.000000  0.000000  0.996160  1
  Nd  Nd2  1  0.000000  0.000000  0.250000  1
  Dy  Dy3  1  0.000000  0.000000  0.750000  1
  Zn  Zn4  1  0.333333  0.666667  0.343364  1
  Zn  Zn5  1  0.666667  0.333333  0.663913  1
  Zn  Zn6  1  0.666667  0.333333  0.836087  1
  Zn  Zn7  1  0.333333  0.666667  0.156636  1
  Sn  Sn8  1  0.333333  0.666667  0.879386  1
  Sn  Sn9  1  0.666667  0.333333  0.115078  1
  Sn  Sn10  1  0.666667  0.333333  0.384922  1
  Sn  Sn11  1  0.333333  0.666667  0.620614  1
