# generated using pymatgen
data_Ca5Sm3(Si3Pt)4
_symmetry_space_group_name_H-M   'P 1'
_cell_length_a   8.27143700
_cell_length_b   8.27786696
_cell_length_c   8.30624800
_cell_angle_alpha   90.00000000
_cell_angle_beta   90.00000000
_cell_angle_gamma   119.97431212
_symmetry_Int_Tables_number   1
_chemical_formula_structural   Ca5Sm3(Si3Pt)4
_chemical_formula_sum   'Ca5 Sm3 Si12 Pt4'
_cell_volume   492.65998828
_cell_formula_units_Z   1
loop_
 _symmetry_equiv_pos_site_id
 _symmetry_equiv_pos_as_xyz
  1  'x, y, z'
loop_
 _atom_site_type_symbol
 _atom_site_label
 _atom_site_symmetry_multiplicity
 _atom_site_fract_x
 _atom_site_fract_y
 _atom_site_fract_z
 _atom_site_occupancy
  Ca  Ca0  1  0.499032  0.500919  0.750000  1
  Ca  Ca1  1  0.501115  0.499236  0.250000  1
  Ca  Ca2  1  0.001888  0.500919  0.750000  1
  Ca  Ca3  1  0.998121  0.499236  0.250000  1
  Ca  Ca4  1  0.499045  0.998091  0.750000  1
  Sm  Sm5  1  0.500880  0.001760  0.250000  1
  Sm  Sm6  1  0.000108  0.000215  0.750000  1
  Sm  Sm7  1  0.999953  0.999906  0.250000  1
  Si  Si8  1  0.834981  0.165535  0.001151  1
  Si  Si9  1  0.164973  0.834422  0.002145  1
  Si  Si10  1  0.330555  0.165535  0.001151  1
  Si  Si11  1  0.164973  0.834422  0.497855  1
  Si  Si12  1  0.669449  0.834422  0.002145  1
  Si  Si13  1  0.834981  0.165535  0.498849  1
  Si  Si14  1  0.834106  0.668214  0.000008  1
  Si  Si15  1  0.669449  0.834422  0.497855  1
  Si  Si16  1  0.165882  0.331766  0.001277  1
  Si  Si17  1  0.330555  0.165535  0.498849  1
  Si  Si18  1  0.165882  0.331766  0.498723  1
  Si  Si19  1  0.834106  0.668214  0.499992  1
  Pt  Pt20  1  0.666026  0.332051  0.999931  1
  Pt  Pt21  1  0.333955  0.667911  0.003777  1
  Pt  Pt22  1  0.333955  0.667911  0.496223  1
  Pt  Pt23  1  0.666026  0.332051  0.500069  1
