# generated using pymatgen
data_Tb3ErTcPt3F28
_symmetry_space_group_name_H-M   'P 1'
_cell_length_a   5.56047288
_cell_length_b   8.91448074
_cell_length_c   12.01579561
_cell_angle_alpha   62.36914999
_cell_angle_beta   90.06987019
_cell_angle_gamma   90.06855912
_symmetry_Int_Tables_number   1
_chemical_formula_structural   Tb3ErTcPt3F28
_chemical_formula_sum   'Tb3 Er1 Tc1 Pt3 F28'
_cell_volume   527.68050434
_cell_formula_units_Z   1
loop_
 _symmetry_equiv_pos_site_id
 _symmetry_equiv_pos_as_xyz
  1  'x, y, z'
loop_
 _atom_site_type_symbol
 _atom_site_label
 _atom_site_symmetry_multiplicity
 _atom_site_fract_x
 _atom_site_fract_y
 _atom_site_fract_z
 _atom_site_occupancy
  Tb  Tb0  1  0.739857  0.186474  0.735849  1
  Tb  Tb1  1  0.760831  0.183885  0.236726  1
  Tb  Tb2  1  0.239806  0.813440  0.763606  1
  Er  Er3  1  0.259730  0.813473  0.265005  1
  Tc  Tc4  1  0.757393  0.726405  0.044255  1
  Pt  Pt5  1  0.241366  0.271839  0.957976  1
  Pt  Pt6  1  0.258921  0.274003  0.456886  1
  Pt  Pt7  1  0.740944  0.726730  0.542009  1
  F  F8  1  0.937164  0.704433  0.414147  1
  F  F9  1  0.063441  0.296238  0.584746  1
  F  F10  1  0.437485  0.295331  0.085489  1
  F  F11  1  0.555337  0.708442  0.917638  1
  F  F12  1  0.472641  0.730297  0.139789  1
  F  F13  1  0.533033  0.272859  0.865284  1
  F  F14  1  0.966660  0.273722  0.364454  1
  F  F15  1  0.033153  0.726022  0.634558  1
  F  F16  1  0.958689  0.745601  0.172701  1
  F  F17  1  0.051103  0.256319  0.825306  1
  F  F18  1  0.450344  0.257263  0.325035  1
  F  F19  1  0.552100  0.742540  0.674969  1
  F  F20  1  0.770598  0.478582  0.140958  1
  F  F21  1  0.229438  0.520085  0.858721  1
  F  F22  1  0.269795  0.523001  0.358181  1
  F  F23  1  0.729860  0.478563  0.641346  1
  F  F24  1  0.942068  0.279664  0.043498  1
  F  F25  1  0.051374  0.720662  0.954711  1
  F  F26  1  0.440669  0.719508  0.456207  1
  F  F27  1  0.558094  0.281094  0.542610  1
  F  F28  1  0.742036  0.975337  0.449136  1
  F  F29  1  0.258618  0.025371  0.549877  1
  F  F30  1  0.241906  0.023013  0.052307  1
  F  F31  1  0.758821  0.973310  0.946832  1
  F  F32  1  0.582175  0.967127  0.232529  1
  F  F33  1  0.412964  0.031560  0.767706  1
  F  F34  1  0.088171  0.027587  0.268588  1
  F  F35  1  0.913415  0.970226  0.730365  1
