# generated using pymatgen
data_Nd4Dy4Tc3B24Ru
_symmetry_space_group_name_H-M   'P 1'
_cell_length_a   3.74034600
_cell_length_b   9.23931761
_cell_length_c   11.68907824
_cell_angle_alpha   89.93343320
_cell_angle_beta   90.00000000
_cell_angle_gamma   90.00000000
_symmetry_Int_Tables_number   1
_chemical_formula_structural   Nd4Dy4Tc3B24Ru
_chemical_formula_sum   'Nd4 Dy4 Tc3 B24 Ru1'
_cell_volume   403.95375292
_cell_formula_units_Z   1
loop_
 _symmetry_equiv_pos_site_id
 _symmetry_equiv_pos_as_xyz
  1  'x, y, z'
loop_
 _atom_site_type_symbol
 _atom_site_label
 _atom_site_symmetry_multiplicity
 _atom_site_fract_x
 _atom_site_fract_y
 _atom_site_fract_z
 _atom_site_occupancy
  Nd  Nd0  1  0.000000  0.323094  0.413946  1
  Nd  Nd1  1  0.000000  0.675525  0.584255  1
  Nd  Nd2  1  0.000000  0.822997  0.087034  1
  Nd  Nd3  1  0.000000  0.177838  0.914805  1
  Dy  Dy4  1  0.000000  0.942326  0.369277  1
  Dy  Dy5  1  0.000000  0.058215  0.631488  1
  Dy  Dy6  1  0.000000  0.442798  0.130987  1
  Dy  Dy7  1  0.000000  0.557959  0.868291  1
  Tc  Tc8  1  0.000000  0.639064  0.319489  1
  Tc  Tc9  1  0.000000  0.360989  0.681020  1
  Tc  Tc10  1  0.000000  0.138455  0.179668  1
  B  B11  1  0.500000  0.554612  0.430553  1
  B  B12  1  0.500000  0.445046  0.568990  1
  B  B13  1  0.500000  0.054822  0.069242  1
  B  B14  1  0.500000  0.944613  0.930591  1
  B  B15  1  0.500000  0.748853  0.416210  1
  B  B16  1  0.500000  0.250531  0.583958  1
  B  B17  1  0.500000  0.249540  0.083724  1
  B  B18  1  0.500000  0.751276  0.915900  1
  B  B19  1  0.500000  0.790634  0.266298  1
  B  B20  1  0.500000  0.209751  0.734282  1
  B  B21  1  0.500000  0.290505  0.233726  1
  B  B22  1  0.500000  0.710386  0.766061  1
  B  B23  1  0.500000  0.630003  0.186445  1
  B  B24  1  0.500000  0.370202  0.813983  1
  B  B25  1  0.500000  0.129547  0.313193  1
  B  B26  1  0.500000  0.870027  0.686761  1
  B  B27  1  0.500000  0.983843  0.212831  1
  B  B28  1  0.500000  0.014785  0.787597  1
  B  B29  1  0.500000  0.484293  0.286846  1
  B  B30  1  0.500000  0.515476  0.712566  1
  B  B31  1  0.500000  0.598454  0.026904  1
  B  B32  1  0.500000  0.402900  0.972653  1
  B  B33  1  0.500000  0.097656  0.473378  1
  B  B34  1  0.500000  0.902115  0.527556  1
  Ru  Ru35  1  0.000000  0.860871  0.819492  1
