# generated using pymatgen
data_AlV2(Co10B3)2
_symmetry_space_group_name_H-M   'P 1'
_cell_length_a   7.37203064
_cell_length_b   7.37203065
_cell_length_c   7.37203100
_cell_angle_alpha   60.00000292
_cell_angle_beta   60.00000289
_cell_angle_gamma   60.00000196
_symmetry_Int_Tables_number   1
_chemical_formula_structural   AlV2(Co10B3)2
_chemical_formula_sum   'Al1 V2 Co20 B6'
_cell_volume   283.29991519
_cell_formula_units_Z   1
loop_
 _symmetry_equiv_pos_site_id
 _symmetry_equiv_pos_as_xyz
  1  'x, y, z'
loop_
 _atom_site_type_symbol
 _atom_site_label
 _atom_site_symmetry_multiplicity
 _atom_site_fract_x
 _atom_site_fract_y
 _atom_site_fract_z
 _atom_site_occupancy
  Al  Al0  1  0.000000  0.000000  0.000000  1
  V  V1  1  0.250000  0.250000  0.250000  1
  V  V2  1  0.750000  0.750000  0.750000  1
  Co  Co3  1  0.859269  0.380244  0.380244  1
  Co  Co4  1  0.380244  0.859269  0.380244  1
  Co  Co5  1  0.380244  0.380244  0.859269  1
  Co  Co6  1  0.380244  0.380244  0.380244  1
  Co  Co7  1  0.140731  0.619756  0.619756  1
  Co  Co8  1  0.619756  0.140731  0.619756  1
  Co  Co9  1  0.619756  0.619756  0.140731  1
  Co  Co10  1  0.619756  0.619756  0.619756  1
  Co  Co11  1  0.658242  0.000000  0.000000  1
  Co  Co12  1  0.658242  0.000000  0.341758  1
  Co  Co13  1  0.658242  0.341758  0.000000  1
  Co  Co14  1  0.000000  0.658242  0.341758  1
  Co  Co15  1  0.000000  0.658242  0.000000  1
  Co  Co16  1  0.341758  0.658242  0.000000  1
  Co  Co17  1  0.000000  0.341758  0.658242  1
  Co  Co18  1  0.341758  0.000000  0.658242  1
  Co  Co19  1  0.000000  0.000000  0.658242  1
  Co  Co20  1  0.341758  0.000000  0.000000  1
  Co  Co21  1  0.000000  0.341758  0.000000  1
  Co  Co22  1  0.000000  0.000000  0.341758  1
  B  B23  1  0.723986  0.276014  0.276014  1
  B  B24  1  0.723986  0.276014  0.723986  1
  B  B25  1  0.723986  0.723986  0.276014  1
  B  B26  1  0.276014  0.723986  0.723986  1
  B  B27  1  0.276014  0.723986  0.276014  1
  B  B28  1  0.276014  0.276014  0.723986  1
