# generated using pymatgen
data_NdDy4Ta3(Co4P3)4
_symmetry_space_group_name_H-M   'P 1'
_cell_length_a   12.21057100
_cell_length_b   12.21057139
_cell_length_c   3.71161600
_cell_angle_alpha   90.00000000
_cell_angle_beta   90.00000000
_cell_angle_gamma   119.99999081
_symmetry_Int_Tables_number   1
_chemical_formula_structural   NdDy4Ta3(Co4P3)4
_chemical_formula_sum   'Nd1 Dy4 Ta3 Co16 P12'
_cell_volume   479.25391638
_cell_formula_units_Z   1
loop_
 _symmetry_equiv_pos_site_id
 _symmetry_equiv_pos_as_xyz
  1  'x, y, z'
loop_
 _atom_site_type_symbol
 _atom_site_label
 _atom_site_symmetry_multiplicity
 _atom_site_fract_x
 _atom_site_fract_y
 _atom_site_fract_z
 _atom_site_occupancy
  Nd  Nd0  1  0.666667  0.333333  0.000000  1
  Dy  Dy1  1  0.333333  0.666667  0.000000  1
  Dy  Dy2  1  0.183889  0.183709  0.500000  1
  Dy  Dy3  1  0.816291  0.000180  0.500000  1
  Dy  Dy4  1  0.999820  0.816111  0.500000  1
  Ta  Ta5  1  0.556193  0.557581  0.000000  1
  Ta  Ta6  1  0.442419  0.998612  0.000000  1
  Ta  Ta7  1  0.001388  0.443807  0.000000  1
  Co  Co8  1  0.824956  0.197074  0.000000  1
  Co  Co9  1  0.802926  0.627881  0.000000  1
  Co  Co10  1  0.372119  0.175044  0.000000  1
  Co  Co11  1  0.197399  0.822879  0.000000  1
  Co  Co12  1  0.625478  0.802601  0.000000  1
  Co  Co13  1  0.177121  0.374522  0.000000  1
  Co  Co14  1  0.645174  0.123001  0.500000  1
  Co  Co15  1  0.876999  0.522173  0.500000  1
  Co  Co16  1  0.477827  0.354826  0.500000  1
  Co  Co17  1  0.127056  0.644706  0.500000  1
  Co  Co18  1  0.517649  0.872944  0.500000  1
  Co  Co19  1  0.355294  0.482351  0.500000  1
  Co  Co20  1  0.719789  0.721469  0.500000  1
  Co  Co21  1  0.278531  0.998320  0.500000  1
  Co  Co22  1  0.001680  0.280211  0.500000  1
  Co  Co23  1  0.000000  0.000000  0.000000  1
  P  P24  1  0.356068  0.355980  0.000000  1
  P  P25  1  0.644020  0.000089  0.000000  1
  P  P26  1  0.999911  0.643932  0.000000  1
  P  P27  1  0.835141  0.310373  0.500000  1
  P  P28  1  0.689627  0.524768  0.500000  1
  P  P29  1  0.475232  0.164859  0.500000  1
  P  P30  1  0.310796  0.831243  0.500000  1
  P  P31  1  0.520447  0.689204  0.500000  1
  P  P32  1  0.168757  0.479553  0.500000  1
  P  P33  1  0.822193  0.823081  0.000000  1
  P  P34  1  0.176919  0.999112  0.000000  1
  P  P35  1  0.000888  0.177807  0.000000  1
