# generated using pymatgen
data_Ho7Er3Ga2(NiBi)2
_symmetry_space_group_name_H-M   'P 1'
_cell_length_a   8.52364304
_cell_length_b   8.51875247
_cell_length_c   8.74498445
_cell_angle_alpha   124.58568028
_cell_angle_beta   124.56308196
_cell_angle_gamma   80.51701813
_symmetry_Int_Tables_number   1
_chemical_formula_structural   Ho7Er3Ga2(NiBi)2
_chemical_formula_sum   'Ho7 Er3 Ga2 Ni2 Bi2'
_cell_volume   418.75502805
_cell_formula_units_Z   1
loop_
 _symmetry_equiv_pos_site_id
 _symmetry_equiv_pos_as_xyz
  1  'x, y, z'
loop_
 _atom_site_type_symbol
 _atom_site_label
 _atom_site_symmetry_multiplicity
 _atom_site_fract_x
 _atom_site_fract_y
 _atom_site_fract_z
 _atom_site_occupancy
  Ho  Ho0  1  0.780181  0.280223  0.788025  1
  Ho  Ho1  1  0.219649  0.719967  0.211909  1
  Ho  Ho2  1  0.492071  0.992438  0.212148  1
  Ho  Ho3  1  0.303108  0.460595  0.499763  1
  Ho  Ho4  1  0.039488  0.196069  0.500047  1
  Ho  Ho5  1  0.507491  0.007548  0.787980  1
  Ho  Ho6  1  0.696717  0.539066  0.500042  1
  Er  Er7  1  0.998987  0.999635  0.998468  1
  Er  Er8  1  0.500578  0.500490  0.000821  1
  Er  Er9  1  0.959811  0.802961  0.499766  1
  Ga  Ga10  1  0.144512  0.643873  0.786883  1
  Ga  Ga11  1  0.855795  0.356967  0.213547  1
  Ni  Ni12  1  0.626544  0.872271  0.497247  1
  Ni  Ni13  1  0.374961  0.127472  0.503029  1
  Bi  Bi14  1  0.249805  0.250110  0.000001  1
  Bi  Bi15  1  0.750302  0.750315  0.000323  1
