# generated using pymatgen
data_Ho2Tm14ZnIn3Rh4
_symmetry_space_group_name_H-M   'P 1'
_cell_length_a   9.48857146
_cell_length_b   9.48575329
_cell_length_c   9.48783930
_cell_angle_alpha   60.09165881
_cell_angle_beta   60.07090574
_cell_angle_gamma   60.10465882
_symmetry_Int_Tables_number   1
_chemical_formula_structural   Ho2Tm14ZnIn3Rh4
_chemical_formula_sum   'Ho2 Tm14 Zn1 In3 Rh4'
_cell_volume   605.06300789
_cell_formula_units_Z   1
loop_
 _symmetry_equiv_pos_site_id
 _symmetry_equiv_pos_as_xyz
  1  'x, y, z'
loop_
 _atom_site_type_symbol
 _atom_site_label
 _atom_site_symmetry_multiplicity
 _atom_site_fract_x
 _atom_site_fract_y
 _atom_site_fract_z
 _atom_site_occupancy
  Ho  Ho0  1  0.061152  0.061838  0.438261  1
  Ho  Ho1  1  0.435166  0.070673  0.434354  1
  Tm  Tm2  1  0.061856  0.438885  0.061178  1
  Tm  Tm3  1  0.054399  0.646240  0.647268  1
  Tm  Tm4  1  0.435583  0.436326  0.068151  1
  Tm  Tm5  1  0.646495  0.053997  0.646751  1
  Tm  Tm6  1  0.189631  0.810976  0.189511  1
  Tm  Tm7  1  0.189106  0.189285  0.812012  1
  Tm  Tm8  1  0.810353  0.809510  0.190829  1
  Tm  Tm9  1  0.439269  0.061374  0.060080  1
  Tm  Tm10  1  0.811783  0.189326  0.189038  1
  Tm  Tm11  1  0.068039  0.437204  0.435603  1
  Tm  Tm12  1  0.809534  0.190813  0.810425  1
  Tm  Tm13  1  0.190782  0.809183  0.810903  1
  Tm  Tm14  1  0.647003  0.646272  0.054255  1
  Tm  Tm15  1  0.651888  0.652511  0.652122  1
  Zn  Zn16  1  0.416053  0.416097  0.416389  1
  In  In17  1  0.745436  0.417814  0.416909  1
  In  In18  1  0.417820  0.745097  0.417231  1
  In  In19  1  0.417282  0.416957  0.745940  1
  Rh  Rh20  1  0.859660  0.858101  0.426964  1
  Rh  Rh21  1  0.855845  0.855954  0.856831  1
  Rh  Rh22  1  0.426886  0.858507  0.859973  1
  Rh  Rh23  1  0.858979  0.427060  0.859024  1
