# generated using pymatgen
data_Zr2Ni4BRu2
_symmetry_space_group_name_H-M   'P 1'
_cell_length_a   5.63164574
_cell_length_b   5.49771712
_cell_length_c   5.49771647
_cell_angle_alpha   60.16711076
_cell_angle_beta   59.19082167
_cell_angle_gamma   59.19081899
_symmetry_Int_Tables_number   1
_chemical_formula_structural   Zr2Ni4BRu2
_chemical_formula_sum   'Zr2 Ni4 B1 Ru2'
_cell_volume   119.01320913
_cell_formula_units_Z   1
loop_
 _symmetry_equiv_pos_site_id
 _symmetry_equiv_pos_as_xyz
  1  'x, y, z'
loop_
 _atom_site_type_symbol
 _atom_site_label
 _atom_site_symmetry_multiplicity
 _atom_site_fract_x
 _atom_site_fract_y
 _atom_site_fract_z
 _atom_site_occupancy
  Zr  Zr0  1  0.753128  0.744151  0.749593  1
  Zr  Zr1  1  0.246872  0.250407  0.255849  1
  Ni  Ni2  1  0.740452  0.253076  0.266020  1
  Ni  Ni3  1  0.266470  0.256194  0.743806  1
  Ni  Ni4  1  0.733530  0.256194  0.743806  1
  Ni  Ni5  1  0.259548  0.733980  0.746924  1
  B  B6  1  0.000000  0.018933  0.981067  1
  Ru  Ru7  1  0.742839  0.743531  0.256469  1
  Ru  Ru8  1  0.257161  0.743531  0.256469  1
