# generated using pymatgen
data_Cs2Cr3SbO8
_symmetry_space_group_name_H-M   'P 1'
_cell_length_a   13.44462200
_cell_length_b   5.27480538
_cell_length_c   6.10114400
_cell_angle_alpha   90.08181382
_cell_angle_beta   90.00000000
_cell_angle_gamma   90.00000000
_symmetry_Int_Tables_number   1
_chemical_formula_structural   Cs2Cr3SbO8
_chemical_formula_sum   'Cs4 Cr6 Sb2 O16'
_cell_volume   432.67905181
_cell_formula_units_Z   2
loop_
 _symmetry_equiv_pos_site_id
 _symmetry_equiv_pos_as_xyz
  1  'x, y, z'
loop_
 _atom_site_type_symbol
 _atom_site_label
 _atom_site_symmetry_multiplicity
 _atom_site_fract_x
 _atom_site_fract_y
 _atom_site_fract_z
 _atom_site_occupancy
  Cs  Cs0  1  0.250000  0.645558  0.732517  1
  Cs  Cs1  1  0.750000  0.354442  0.267483  1
  Cs  Cs2  1  0.750000  0.960214  0.749947  1
  Cs  Cs3  1  0.250000  0.039786  0.250053  1
  Cr  Cr4  1  0.497702  0.000298  0.743520  1
  Cr  Cr5  1  0.002298  0.000298  0.743520  1
  Cr  Cr6  1  0.502298  0.999702  0.256480  1
  Cr  Cr7  1  0.997702  0.999702  0.256480  1
  Cr  Cr8  1  0.000000  0.500000  0.500000  1
  Cr  Cr9  1  0.500000  0.500000  0.500000  1
  Sb  Sb10  1  0.500000  0.500000  0.000000  1
  Sb  Sb11  1  0.000000  0.500000  0.000000  1
  O  O12  1  0.576216  0.170668  0.998653  1
  O  O13  1  0.926560  0.167015  0.502479  1
  O  O14  1  0.426560  0.832985  0.497521  1
  O  O15  1  0.076216  0.829332  0.001347  1
  O  O16  1  0.423784  0.829332  0.001347  1
  O  O17  1  0.073440  0.832985  0.497521  1
  O  O18  1  0.573440  0.167015  0.502479  1
  O  O19  1  0.923784  0.170668  0.998653  1
  O  O20  1  0.422487  0.333126  0.752613  1
  O  O21  1  0.077513  0.333126  0.752613  1
  O  O22  1  0.577513  0.666874  0.247387  1
  O  O23  1  0.922487  0.666874  0.247387  1
  O  O24  1  0.575397  0.662642  0.752051  1
  O  O25  1  0.924603  0.662642  0.752051  1
  O  O26  1  0.424603  0.337358  0.247949  1
  O  O27  1  0.075397  0.337358  0.247949  1
