# generated using pymatgen
data_LiErH6Ru
_symmetry_space_group_name_H-M   'P 1'
_cell_length_a   4.81680705
_cell_length_b   4.81680706
_cell_length_c   4.81680700
_cell_angle_alpha   59.99999352
_cell_angle_beta   59.99999350
_cell_angle_gamma   59.99998775
_symmetry_Int_Tables_number   1
_chemical_formula_structural   LiErH6Ru
_chemical_formula_sum   'Li1 Er1 H6 Ru1'
_cell_volume   79.02466532
_cell_formula_units_Z   1
loop_
 _symmetry_equiv_pos_site_id
 _symmetry_equiv_pos_as_xyz
  1  'x, y, z'
loop_
 _atom_site_type_symbol
 _atom_site_label
 _atom_site_symmetry_multiplicity
 _atom_site_fract_x
 _atom_site_fract_y
 _atom_site_fract_z
 _atom_site_occupancy
  Li  Li0  1  0.750000  0.750000  0.750000  1
  Er  Er1  1  0.250000  0.250000  0.250000  1
  H  H2  1  0.750635  0.750635  0.249365  1
  H  H3  1  0.249365  0.750635  0.249365  1
  H  H4  1  0.750635  0.249365  0.249365  1
  H  H5  1  0.249365  0.249365  0.750635  1
  H  H6  1  0.750635  0.249365  0.750635  1
  H  H7  1  0.249365  0.750635  0.750635  1
  Ru  Ru8  1  0.000000  0.000000  0.000000  1
