# generated using pymatgen
data_AcYP7Ru12
_symmetry_space_group_name_H-M   'P 1'
_cell_length_a   9.51763900
_cell_length_b   9.51763811
_cell_length_c   3.97548200
_cell_angle_alpha   90.00000000
_cell_angle_beta   90.00000000
_cell_angle_gamma   119.99999266
_symmetry_Int_Tables_number   1
_chemical_formula_structural   AcYP7Ru12
_chemical_formula_sum   'Ac1 Y1 P7 Ru12'
_cell_volume   311.87378506
_cell_formula_units_Z   1
loop_
 _symmetry_equiv_pos_site_id
 _symmetry_equiv_pos_as_xyz
  1  'x, y, z'
loop_
 _atom_site_type_symbol
 _atom_site_label
 _atom_site_symmetry_multiplicity
 _atom_site_fract_x
 _atom_site_fract_y
 _atom_site_fract_z
 _atom_site_occupancy
  Ac  Ac0  1  0.333333  0.666667  0.000000  1
  Y  Y1  1  0.666667  0.333333  0.500000  1
  P  P2  1  0.611448  0.717997  0.500000  1
  P  P3  1  0.000000  0.000000  0.000000  1
  P  P4  1  0.282003  0.893451  0.500000  1
  P  P5  1  0.106549  0.388552  0.500000  1
  P  P6  1  0.889023  0.570978  0.000000  1
  P  P7  1  0.429022  0.318044  0.000000  1
  P  P8  1  0.681956  0.110977  0.000000  1
  Ru  Ru9  1  0.561929  0.960159  0.500000  1
  Ru  Ru10  1  0.398233  0.438071  0.500000  1
  Ru  Ru11  1  0.914348  0.117011  0.500000  1
  Ru  Ru12  1  0.202663  0.085652  0.500000  1
  Ru  Ru13  1  0.882989  0.797337  0.500000  1
  Ru  Ru14  1  0.730076  0.893134  0.000000  1
  Ru  Ru15  1  0.106866  0.836942  0.000000  1
  Ru  Ru16  1  0.163058  0.269924  0.000000  1
  Ru  Ru17  1  0.420153  0.071672  0.000000  1
  Ru  Ru18  1  0.928328  0.348483  0.000000  1
  Ru  Ru19  1  0.651517  0.579847  0.000000  1
  Ru  Ru20  1  0.039841  0.601767  0.500000  1
