# generated using pymatgen
data_Ti18NbSi16Ir
_symmetry_space_group_name_H-M   'P 1'
_cell_length_a   6.69591171
_cell_length_b   6.69591183
_cell_length_c   12.16371798
_cell_angle_alpha   89.64421205
_cell_angle_beta   90.35579088
_cell_angle_gamma   89.96446610
_symmetry_Int_Tables_number   1
_chemical_formula_structural   Ti18NbSi16Ir
_chemical_formula_sum   'Ti18 Nb1 Si16 Ir1'
_cell_volume   545.34200033
_cell_formula_units_Z   1
loop_
 _symmetry_equiv_pos_site_id
 _symmetry_equiv_pos_as_xyz
  1  'x, y, z'
loop_
 _atom_site_type_symbol
 _atom_site_label
 _atom_site_symmetry_multiplicity
 _atom_site_fract_x
 _atom_site_fract_y
 _atom_site_fract_z
 _atom_site_occupancy
  Ti  Ti0  1  0.996390  0.146465  0.624607  1
  Ti  Ti1  1  0.353788  0.500835  0.869545  1
  Ti  Ti2  1  0.648647  0.504538  0.371077  1
  Ti  Ti3  1  0.500835  0.353788  0.130455  1
  Ti  Ti4  1  0.504538  0.648647  0.628923  1
  Ti  Ti5  1  0.004419  0.848386  0.120110  1
  Ti  Ti6  1  0.146465  0.996390  0.375393  1
  Ti  Ti7  1  0.848386  0.004419  0.879890  1
  Ti  Ti8  1  0.000635  0.346462  0.219956  1
  Ti  Ti9  1  0.155255  0.501106  0.469021  1
  Ti  Ti10  1  0.839648  0.500482  0.970255  1
  Ti  Ti11  1  0.501106  0.155255  0.530979  1
  Ti  Ti12  1  0.500482  0.839648  0.029745  1
  Ti  Ti13  1  0.998688  0.655863  0.721054  1
  Ti  Ti14  1  0.346462  0.000635  0.780044  1
  Ti  Ti15  1  0.655863  0.998688  0.278946  1
  Ti  Ti16  1  0.327854  0.671438  0.246898  1
  Ti  Ti17  1  0.671438  0.327854  0.753102  1
  Nb  Nb18  1  0.828419  0.828419  0.500000  1
  Si  Si19  1  0.047449  0.299498  0.816637  1
  Si  Si20  1  0.199931  0.540850  0.061565  1
  Si  Si21  1  0.800624  0.451525  0.565512  1
  Si  Si22  1  0.540850  0.199931  0.938435  1
  Si  Si23  1  0.451525  0.800624  0.434488  1
  Si  Si24  1  0.957133  0.696985  0.311974  1
  Si  Si25  1  0.299498  0.047449  0.183363  1
  Si  Si26  1  0.696985  0.957133  0.688026  1
  Si  Si27  1  0.294617  0.356535  0.673616  1
  Si  Si28  1  0.140067  0.792413  0.921703  1
  Si  Si29  1  0.858451  0.207774  0.422899  1
  Si  Si30  1  0.792413  0.140067  0.078297  1
  Si  Si31  1  0.207774  0.858451  0.577101  1
  Si  Si32  1  0.705305  0.645233  0.173594  1
  Si  Si33  1  0.356535  0.294617  0.326384  1
  Si  Si34  1  0.645233  0.705305  0.826406  1
  Ir  Ir35  1  0.176290  0.176290  0.000000  1
