# generated using pymatgen
data_Ho3Cd5Pt
_symmetry_space_group_name_H-M   'P 1'
_cell_length_a   8.09159500
_cell_length_b   8.09159440
_cell_length_c   3.78674800
_cell_angle_alpha   90.00000000
_cell_angle_beta   90.00000000
_cell_angle_gamma   119.99999727
_symmetry_Int_Tables_number   1
_chemical_formula_structural   Ho3Cd5Pt
_chemical_formula_sum   'Ho3 Cd5 Pt1'
_cell_volume   214.71643650
_cell_formula_units_Z   1
loop_
 _symmetry_equiv_pos_site_id
 _symmetry_equiv_pos_as_xyz
  1  'x, y, z'
loop_
 _atom_site_type_symbol
 _atom_site_label
 _atom_site_symmetry_multiplicity
 _atom_site_fract_x
 _atom_site_fract_y
 _atom_site_fract_z
 _atom_site_occupancy
  Ho  Ho0  1  0.576385  0.961069  0.000000  1
  Ho  Ho1  1  0.038931  0.615316  0.000000  1
  Ho  Ho2  1  0.384684  0.423615  0.000000  1
  Cd  Cd3  1  0.280309  0.009786  0.500000  1
  Cd  Cd4  1  0.990214  0.270522  0.500000  1
  Cd  Cd5  1  0.729478  0.719691  0.500000  1
  Cd  Cd6  1  0.666667  0.333333  0.500000  1
  Cd  Cd7  1  0.000000  0.000000  0.000000  1
  Pt  Pt8  1  0.333333  0.666667  0.500000  1
