# generated using pymatgen
data_Ce2PuMn3
_symmetry_space_group_name_H-M   'P 1'
_cell_length_a   5.21205625
_cell_length_b   5.21205647
_cell_length_c   5.21205611
_cell_angle_alpha   63.51294594
_cell_angle_beta   63.51294213
_cell_angle_gamma   63.51293876
_symmetry_Int_Tables_number   1
_chemical_formula_structural   Ce2PuMn3
_chemical_formula_sum   'Ce2 Pu1 Mn3'
_cell_volume   107.89468008
_cell_formula_units_Z   1
loop_
 _symmetry_equiv_pos_site_id
 _symmetry_equiv_pos_as_xyz
  1  'x, y, z'
loop_
 _atom_site_type_symbol
 _atom_site_label
 _atom_site_symmetry_multiplicity
 _atom_site_fract_x
 _atom_site_fract_y
 _atom_site_fract_z
 _atom_site_occupancy
  Ce  Ce0  1  0.742760  0.742760  0.742760  1
  Ce  Ce1  1  0.507240  0.507240  0.507240  1
  Pu  Pu2  1  0.125000  0.125000  0.125000  1
  Mn  Mn3  1  0.125000  0.125000  0.625000  1
  Mn  Mn4  1  0.125000  0.625000  0.125000  1
  Mn  Mn5  1  0.625000  0.125000  0.125000  1
