# generated using pymatgen
data_LiYb2DyMg2Pb3
_symmetry_space_group_name_H-M   'P 1'
_cell_length_a   7.62965044
_cell_length_b   7.62965067
_cell_length_c   4.71692200
_cell_angle_alpha   90.00000000
_cell_angle_beta   90.00000000
_cell_angle_gamma   119.84118094
_symmetry_Int_Tables_number   1
_chemical_formula_structural   LiYb2DyMg2Pb3
_chemical_formula_sum   'Li1 Yb2 Dy1 Mg2 Pb3'
_cell_volume   238.17239800
_cell_formula_units_Z   1
loop_
 _symmetry_equiv_pos_site_id
 _symmetry_equiv_pos_as_xyz
  1  'x, y, z'
loop_
 _atom_site_type_symbol
 _atom_site_label
 _atom_site_symmetry_multiplicity
 _atom_site_fract_x
 _atom_site_fract_y
 _atom_site_fract_z
 _atom_site_occupancy
  Li  Li0  1  0.758825  0.758825  0.000000  1
  Yb  Yb1  1  0.569042  0.001236  0.500000  1
  Yb  Yb2  1  0.001236  0.569042  0.500000  1
  Dy  Dy3  1  0.428628  0.428628  0.500000  1
  Mg  Mg4  1  0.241121  0.998186  0.000000  1
  Mg  Mg5  1  0.998186  0.241121  0.000000  1
  Pb  Pb6  1  0.664405  0.342913  0.000000  1
  Pb  Pb7  1  0.342913  0.664405  0.000000  1
  Pb  Pb8  1  0.995643  0.995643  0.500000  1
