# generated using pymatgen
data_Er12C6I17
_symmetry_space_group_name_H-M   'P 1'
_cell_length_a   11.33779744
_cell_length_b   11.33779697
_cell_length_c   18.38825000
_cell_angle_alpha   89.25034456
_cell_angle_beta   89.25034459
_cell_angle_gamma   63.97617988
_symmetry_Int_Tables_number   1
_chemical_formula_structural   Er12C6I17
_chemical_formula_sum   'Er24 C12 I34'
_cell_volume   2123.82226648
_cell_formula_units_Z   2
loop_
 _symmetry_equiv_pos_site_id
 _symmetry_equiv_pos_as_xyz
  1  'x, y, z'
loop_
 _atom_site_type_symbol
 _atom_site_label
 _atom_site_symmetry_multiplicity
 _atom_site_fract_x
 _atom_site_fract_y
 _atom_site_fract_z
 _atom_site_occupancy
  Er  Er0  1  0.019427  0.075995  0.153172  1
  Er  Er1  1  0.193808  0.662859  0.711617  1
  Er  Er2  1  0.705276  0.301979  0.023204  1
  Er  Er3  1  0.806192  0.337141  0.288383  1
  Er  Er4  1  0.893661  0.420727  0.117260  1
  Er  Er5  1  0.579273  0.106339  0.382740  1
  Er  Er6  1  0.357435  0.358952  0.050403  1
  Er  Er7  1  0.642565  0.641048  0.949597  1
  Er  Er8  1  0.420727  0.893661  0.617260  1
  Er  Er9  1  0.548215  0.532077  0.625238  1
  Er  Er10  1  0.532077  0.548215  0.125238  1
  Er  Er11  1  0.075995  0.019427  0.653172  1
  Er  Er12  1  0.358952  0.357435  0.550403  1
  Er  Er13  1  0.337141  0.806192  0.788383  1
  Er  Er14  1  0.106339  0.579273  0.882740  1
  Er  Er15  1  0.698021  0.294724  0.476796  1
  Er  Er16  1  0.301979  0.705276  0.523204  1
  Er  Er17  1  0.980573  0.924005  0.846828  1
  Er  Er18  1  0.641048  0.642565  0.449597  1
  Er  Er19  1  0.451785  0.467923  0.374762  1
  Er  Er20  1  0.924005  0.980573  0.346828  1
  Er  Er21  1  0.662859  0.193808  0.211617  1
  Er  Er22  1  0.294724  0.698021  0.976796  1
  Er  Er23  1  0.467923  0.451785  0.874762  1
  C  C24  1  0.466151  0.464270  0.512389  1
  C  C25  1  0.535730  0.533849  0.987611  1
  C  C26  1  0.252081  0.833633  0.654254  1
  C  C27  1  0.533849  0.535730  0.487611  1
  C  C28  1  0.370235  0.714531  0.650949  1
  C  C29  1  0.285469  0.629765  0.849051  1
  C  C30  1  0.166367  0.747919  0.845746  1
  C  C31  1  0.464270  0.466151  0.012389  1
  C  C32  1  0.747919  0.166367  0.345746  1
  C  C33  1  0.833633  0.252081  0.154254  1
  C  C34  1  0.629765  0.285469  0.349051  1
  C  C35  1  0.714531  0.370235  0.150949  1
  I  I36  1  0.093923  0.604022  0.048932  1
  I  I37  1  0.788023  0.817649  0.399058  1
  I  I38  1  0.603076  0.103412  0.060083  1
  I  I39  1  0.000000  0.000000  0.000000  1
  I  I40  1  0.906077  0.395978  0.951068  1
  I  I41  1  0.806648  0.284592  0.638237  1
  I  I42  1  0.033036  0.500833  0.747234  1
  I  I43  1  0.890312  0.901646  0.196474  1
  I  I44  1  0.395978  0.906077  0.451068  1
  I  I45  1  0.193352  0.715408  0.361763  1
  I  I46  1  0.574591  0.628843  0.291793  1
  I  I47  1  0.966964  0.499167  0.252766  1
  I  I48  1  0.604022  0.093923  0.548932  1
  I  I49  1  0.103412  0.603076  0.560083  1
  I  I50  1  0.628843  0.574591  0.791793  1
  I  I51  1  0.098354  0.109688  0.303526  1
  I  I52  1  0.896588  0.396924  0.439917  1
  I  I53  1  0.500833  0.033036  0.247234  1
  I  I54  1  0.817649  0.788023  0.899058  1
  I  I55  1  0.396924  0.896588  0.939917  1
  I  I56  1  0.284592  0.806648  0.138237  1
  I  I57  1  0.309847  0.288896  0.899598  1
  I  I58  1  0.499167  0.966964  0.752766  1
  I  I59  1  0.211977  0.182351  0.600942  1
  I  I60  1  0.690153  0.711104  0.100402  1
  I  I61  1  0.425409  0.371157  0.708207  1
  I  I62  1  0.182351  0.211977  0.100942  1
  I  I63  1  0.288896  0.309847  0.399598  1
  I  I64  1  0.715408  0.193352  0.861763  1
  I  I65  1  0.711104  0.690153  0.600402  1
  I  I66  1  0.109688  0.098354  0.803526  1
  I  I67  1  0.901646  0.890312  0.696474  1
  I  I68  1  0.371157  0.425409  0.208207  1
  I  I69  1  0.000000  0.000000  0.500000  1
