# generated using pymatgen
data_Hf9Re2PW2
_symmetry_space_group_name_H-M   'P 1'
_cell_length_a   8.64252559
_cell_length_b   8.65960098
_cell_length_c   8.58414200
_cell_angle_alpha   90.00000000
_cell_angle_beta   90.00000000
_cell_angle_gamma   120.06501522
_symmetry_Int_Tables_number   1
_chemical_formula_structural   Hf9Re2PW2
_chemical_formula_sum   'Hf18 Re4 P2 W4'
_cell_volume   556.00818535
_cell_formula_units_Z   2
loop_
 _symmetry_equiv_pos_site_id
 _symmetry_equiv_pos_as_xyz
  1  'x, y, z'
loop_
 _atom_site_type_symbol
 _atom_site_label
 _atom_site_symmetry_multiplicity
 _atom_site_fract_x
 _atom_site_fract_y
 _atom_site_fract_z
 _atom_site_occupancy
  Hf  Hf0  1  0.196516  0.803624  0.451814  1
  Hf  Hf1  1  0.196519  0.392891  0.451810  1
  Hf  Hf2  1  0.607435  0.803718  0.451869  1
  Hf  Hf3  1  0.803182  0.196492  0.551510  1
  Hf  Hf4  1  0.803183  0.606695  0.551510  1
  Hf  Hf5  1  0.392887  0.196444  0.550530  1
  Hf  Hf6  1  0.803182  0.196492  0.948490  1
  Hf  Hf7  1  0.803183  0.606695  0.948490  1
  Hf  Hf8  1  0.392887  0.196444  0.949470  1
  Hf  Hf9  1  0.196516  0.803624  0.048186  1
  Hf  Hf10  1  0.196519  0.392891  0.048190  1
  Hf  Hf11  1  0.607435  0.803718  0.048131  1
  Hf  Hf12  1  0.538278  0.460370  0.250000  1
  Hf  Hf13  1  0.538280  0.077911  0.250000  1
  Hf  Hf14  1  0.923133  0.461566  0.250000  1
  Hf  Hf15  1  0.459361  0.540071  0.750000  1
  Hf  Hf16  1  0.459360  0.919294  0.750000  1
  Hf  Hf17  1  0.080618  0.540312  0.750000  1
  Re  Re18  1  0.221690  0.110832  0.250000  1
  Re  Re19  1  0.111094  0.889311  0.750000  1
  Re  Re20  1  0.111084  0.221784  0.750000  1
  Re  Re21  1  0.777917  0.888953  0.750000  1
  P  P22  1  0.332339  0.666168  0.250000  1
  P  P23  1  0.666252  0.333126  0.750000  1
  W  W24  1  0.889569  0.110238  0.250000  1
  W  W25  1  0.889568  0.779321  0.250000  1
  W  W26  1  0.001007  0.000507  0.500895  1
  W  W27  1  0.001007  0.000507  0.999105  1
