# generated using pymatgen
data_Ho3Er5Ti11Si16Ru
_symmetry_space_group_name_H-M   'P 1'
_cell_length_a   7.00483477
_cell_length_b   7.00456594
_cell_length_c   12.84201501
_cell_angle_alpha   90.02356143
_cell_angle_beta   89.97469284
_cell_angle_gamma   89.88652571
_symmetry_Int_Tables_number   1
_chemical_formula_structural   Ho3Er5Ti11Si16Ru
_chemical_formula_sum   'Ho3 Er5 Ti11 Si16 Ru1'
_cell_volume   630.10273648
_cell_formula_units_Z   1
loop_
 _symmetry_equiv_pos_site_id
 _symmetry_equiv_pos_as_xyz
  1  'x, y, z'
loop_
 _atom_site_type_symbol
 _atom_site_label
 _atom_site_symmetry_multiplicity
 _atom_site_fract_x
 _atom_site_fract_y
 _atom_site_fract_z
 _atom_site_occupancy
  Ho  Ho0  1  0.340793  0.003979  0.467439  1
  Ho  Ho1  1  0.496715  0.841067  0.717970  1
  Ho  Ho2  1  0.500343  0.159059  0.215012  1
  Er  Er3  1  0.841247  0.496997  0.282018  1
  Er  Er4  1  0.158888  0.500140  0.784995  1
  Er  Er5  1  0.657913  0.998490  0.968456  1
  Er  Er6  1  0.003652  0.341058  0.532591  1
  Er  Er7  1  0.998621  0.657946  0.031611  1
  Ti  Ti8  1  0.174655  0.827374  0.248392  1
  Ti  Ti9  1  0.827581  0.174833  0.751603  1
  Ti  Ti10  1  0.674224  0.673941  0.499981  1
  Ti  Ti11  1  0.149759  0.003067  0.875062  1
  Ti  Ti12  1  0.492621  0.655219  0.125063  1
  Ti  Ti13  1  0.507068  0.349537  0.627983  1
  Ti  Ti14  1  0.655275  0.492652  0.874941  1
  Ti  Ti15  1  0.349501  0.506964  0.372063  1
  Ti  Ti16  1  0.849149  0.994338  0.374932  1
  Ti  Ti17  1  0.002952  0.149838  0.124963  1
  Ti  Ti18  1  0.994368  0.849084  0.625099  1
  Si  Si19  1  0.202896  0.132977  0.684752  1
  Si  Si20  1  0.371928  0.700755  0.933355  1
  Si  Si21  1  0.631919  0.296643  0.434102  1
  Si  Si22  1  0.701057  0.372189  0.066609  1
  Si  Si23  1  0.296178  0.631233  0.565913  1
  Si  Si24  1  0.796392  0.867300  0.183416  1
  Si  Si25  1  0.132325  0.203358  0.315253  1
  Si  Si26  1  0.867778  0.796139  0.816647  1
  Si  Si27  1  0.287271  0.953725  0.064194  1
  Si  Si28  1  0.547232  0.792345  0.315500  1
  Si  Si29  1  0.449739  0.209107  0.818143  1
  Si  Si30  1  0.792913  0.546842  0.684456  1
  Si  Si31  1  0.208626  0.450011  0.181916  1
  Si  Si32  1  0.708538  0.048268  0.565633  1
  Si  Si33  1  0.953993  0.287443  0.935710  1
  Si  Si34  1  0.047862  0.707918  0.434335  1
  Ru  Ru35  1  0.328025  0.328168  0.999891  1
