# generated using pymatgen
data_U5Co(P2Ru3)6
_symmetry_space_group_name_H-M   'P 1'
_cell_length_a   12.51540800
_cell_length_b   12.51540777
_cell_length_c   3.98151400
_cell_angle_alpha   90.00000000
_cell_angle_beta   90.00000000
_cell_angle_gamma   120.00000061
_symmetry_Int_Tables_number   1
_chemical_formula_structural   U5Co(P2Ru3)6
_chemical_formula_sum   'U5 Co1 P12 Ru18'
_cell_volume   540.09342756
_cell_formula_units_Z   1
loop_
 _symmetry_equiv_pos_site_id
 _symmetry_equiv_pos_as_xyz
  1  'x, y, z'
loop_
 _atom_site_type_symbol
 _atom_site_label
 _atom_site_symmetry_multiplicity
 _atom_site_fract_x
 _atom_site_fract_y
 _atom_site_fract_z
 _atom_site_occupancy
  U  U0  1  0.333333  0.666667  0.000000  1
  U  U1  1  0.666667  0.333333  0.000000  1
  U  U2  1  0.183556  0.000000  0.500000  1
  U  U3  1  0.000000  0.183556  0.500000  1
  U  U4  1  0.816444  0.816444  0.500000  1
  Co  Co5  1  0.000000  0.000000  0.000000  1
  P  P6  1  0.370957  0.000000  0.000000  1
  P  P7  1  0.000000  0.370957  0.000000  1
  P  P8  1  0.629043  0.629043  0.000000  1
  P  P9  1  0.307117  0.477339  0.500000  1
  P  P10  1  0.522661  0.829778  0.500000  1
  P  P11  1  0.170222  0.692883  0.500000  1
  P  P12  1  0.829778  0.522661  0.500000  1
  P  P13  1  0.692883  0.170222  0.500000  1
  P  P14  1  0.477339  0.307117  0.500000  1
  P  P15  1  0.826957  0.000000  0.000000  1
  P  P16  1  0.000000  0.826957  0.000000  1
  P  P17  1  0.173043  0.173043  0.000000  1
  Ru  Ru18  1  0.188747  0.370370  0.000000  1
  Ru  Ru19  1  0.629630  0.818377  0.000000  1
  Ru  Ru20  1  0.181623  0.811253  0.000000  1
  Ru  Ru21  1  0.818377  0.629630  0.000000  1
  Ru  Ru22  1  0.811253  0.181623  0.000000  1
  Ru  Ru23  1  0.370370  0.188747  0.000000  1
  Ru  Ru24  1  0.554873  0.000000  0.000000  1
  Ru  Ru25  1  0.000000  0.554873  0.000000  1
  Ru  Ru26  1  0.445127  0.445127  0.000000  1
  Ru  Ru27  1  0.128145  0.492396  0.500000  1
  Ru  Ru28  1  0.507604  0.635747  0.500000  1
  Ru  Ru29  1  0.364253  0.871855  0.500000  1
  Ru  Ru30  1  0.635747  0.507604  0.500000  1
  Ru  Ru31  1  0.871855  0.364253  0.500000  1
  Ru  Ru32  1  0.492396  0.128145  0.500000  1
  Ru  Ru33  1  0.720783  0.000000  0.500000  1
  Ru  Ru34  1  0.000000  0.720783  0.500000  1
  Ru  Ru35  1  0.279217  0.279217  0.500000  1
