# generated using pymatgen
data_DyY4IrPb3
_symmetry_space_group_name_H-M   'P 1'
_cell_length_a   9.23341268
_cell_length_b   9.23341206
_cell_length_c   6.88635400
_cell_angle_alpha   90.00000000
_cell_angle_beta   90.00000000
_cell_angle_gamma   120.08725334
_symmetry_Int_Tables_number   1
_chemical_formula_structural   DyY4IrPb3
_chemical_formula_sum   'Dy2 Y8 Ir2 Pb6'
_cell_volume   507.99791069
_cell_formula_units_Z   2
loop_
 _symmetry_equiv_pos_site_id
 _symmetry_equiv_pos_as_xyz
  1  'x, y, z'
loop_
 _atom_site_type_symbol
 _atom_site_label
 _atom_site_symmetry_multiplicity
 _atom_site_fract_x
 _atom_site_fract_y
 _atom_site_fract_z
 _atom_site_occupancy
  Dy  Dy0  1  0.235059  0.235059  0.750000  1
  Dy  Dy1  1  0.764941  0.764941  0.250000  1
  Y  Y2  1  0.236459  0.000010  0.250000  1
  Y  Y3  1  0.999990  0.763541  0.750000  1
  Y  Y4  1  0.000010  0.236459  0.250000  1
  Y  Y5  1  0.333347  0.666653  0.500000  1
  Y  Y6  1  0.763541  0.999990  0.750000  1
  Y  Y7  1  0.666653  0.333347  0.500000  1
  Y  Y8  1  0.333347  0.666653  0.000000  1
  Y  Y9  1  0.666653  0.333347  0.000000  1
  Ir  Ir10  1  0.000000  0.000000  0.000000  1
  Ir  Ir11  1  0.000000  0.000000  0.500000  1
  Pb  Pb12  1  0.593868  0.999886  0.250000  1
  Pb  Pb13  1  0.406132  0.000114  0.750000  1
  Pb  Pb14  1  0.999886  0.593868  0.250000  1
  Pb  Pb15  1  0.593740  0.593740  0.750000  1
  Pb  Pb16  1  0.406260  0.406260  0.250000  1
  Pb  Pb17  1  0.000114  0.406132  0.750000  1
