# generated using pymatgen
data_Ho2ErZnSn3Ir2
_symmetry_space_group_name_H-M   'P 1'
_cell_length_a   7.46863103
_cell_length_b   7.47265002
_cell_length_c   4.01223100
_cell_angle_alpha   90.00000000
_cell_angle_beta   90.00000000
_cell_angle_gamma   119.99296575
_symmetry_Int_Tables_number   1
_chemical_formula_structural   Ho2ErZnSn3Ir2
_chemical_formula_sum   'Ho2 Er1 Zn1 Sn3 Ir2'
_cell_volume   193.93803347
_cell_formula_units_Z   1
loop_
 _symmetry_equiv_pos_site_id
 _symmetry_equiv_pos_as_xyz
  1  'x, y, z'
loop_
 _atom_site_type_symbol
 _atom_site_label
 _atom_site_symmetry_multiplicity
 _atom_site_fract_x
 _atom_site_fract_y
 _atom_site_fract_z
 _atom_site_occupancy
  Ho  Ho0  1  0.393441  0.410179  0.500000  1
  Ho  Ho1  1  0.589827  0.983317  0.500000  1
  Er  Er2  1  0.016997  0.606891  0.500000  1
  Zn  Zn3  1  0.666908  0.333491  0.000000  1
  Sn  Sn4  1  0.743947  0.742665  0.000000  1
  Sn  Sn5  1  0.257176  0.000934  0.000000  1
  Sn  Sn6  1  0.998814  0.256272  0.000000  1
  Ir  Ir7  1  0.332880  0.666537  0.000000  1
  Ir  Ir8  1  0.000011  0.999713  0.500000  1
