# generated using pymatgen
data_Ho5Er3(ZrGa5)4
_symmetry_space_group_name_H-M   'P 1'
_cell_length_a   5.96808974
_cell_length_b   9.44809911
_cell_length_c   11.32918300
_cell_angle_alpha   89.99137661
_cell_angle_beta   89.97137174
_cell_angle_gamma   90.00083256
_symmetry_Int_Tables_number   1
_chemical_formula_structural   Ho5Er3(ZrGa5)4
_chemical_formula_sum   'Ho5 Er3 Zr4 Ga20'
_cell_volume   638.81972617
_cell_formula_units_Z   1
loop_
 _symmetry_equiv_pos_site_id
 _symmetry_equiv_pos_as_xyz
  1  'x, y, z'
loop_
 _atom_site_type_symbol
 _atom_site_label
 _atom_site_symmetry_multiplicity
 _atom_site_fract_x
 _atom_site_fract_y
 _atom_site_fract_z
 _atom_site_occupancy
  Ho  Ho0  1  0.886720  0.507537  0.352483  1
  Ho  Ho1  1  0.613266  0.992418  0.852801  1
  Ho  Ho2  1  0.113253  0.007531  0.647217  1
  Ho  Ho3  1  0.386785  0.492393  0.147195  1
  Ho  Ho4  1  0.113100  0.492493  0.647530  1
  Er  Er5  1  0.386936  0.007631  0.147379  1
  Er  Er6  1  0.886887  0.992458  0.352504  1
  Er  Er7  1  0.613166  0.507579  0.852801  1
  Zr  Zr8  1  0.857154  0.750005  0.074676  1
  Zr  Zr9  1  0.642613  0.750076  0.574550  1
  Zr  Zr10  1  0.142834  0.249844  0.925422  1
  Zr  Zr11  1  0.357214  0.250023  0.425311  1
  Ga  Ga12  1  0.874883  0.052451  0.089387  1
  Ga  Ga13  1  0.624879  0.447390  0.589317  1
  Ga  Ga14  1  0.125067  0.552542  0.910911  1
  Ga  Ga15  1  0.374952  0.947530  0.410611  1
  Ga  Ga16  1  0.124912  0.947377  0.911069  1
  Ga  Ga17  1  0.375139  0.552738  0.410907  1
  Ga  Ga18  1  0.875127  0.447339  0.088882  1
  Ga  Ga19  1  0.624859  0.052606  0.588946  1
  Ga  Ga20  1  0.163031  0.750437  0.253245  1
  Ga  Ga21  1  0.337045  0.749771  0.753591  1
  Ga  Ga22  1  0.836844  0.250270  0.746793  1
  Ga  Ga23  1  0.663233  0.249550  0.246584  1
  Ga  Ga24  1  0.387507  0.750216  0.003270  1
  Ga  Ga25  1  0.112491  0.750120  0.502905  1
  Ga  Ga26  1  0.612519  0.250168  0.996794  1
  Ga  Ga27  1  0.887340  0.249770  0.496761  1
  Ga  Ga28  1  0.606300  0.750335  0.294409  1
  Ga  Ga29  1  0.893717  0.749704  0.794460  1
  Ga  Ga30  1  0.394020  0.250046  0.705709  1
  Ga  Ga31  1  0.106204  0.249654  0.205581  1
