# generated using pymatgen
data_Y4Tm(SiBi)2
_symmetry_space_group_name_H-M   'P 1'
_cell_length_a   8.67388409
_cell_length_b   8.67388483
_cell_length_c   7.91611600
_cell_angle_alpha   90.00000000
_cell_angle_beta   90.00000000
_cell_angle_gamma   125.80226082
_symmetry_Int_Tables_number   1
_chemical_formula_structural   Y4Tm(SiBi)2
_chemical_formula_sum   'Y8 Tm2 Si4 Bi4'
_cell_volume   483.03887437
_cell_formula_units_Z   2
loop_
 _symmetry_equiv_pos_site_id
 _symmetry_equiv_pos_as_xyz
  1  'x, y, z'
loop_
 _atom_site_type_symbol
 _atom_site_label
 _atom_site_symmetry_multiplicity
 _atom_site_fract_x
 _atom_site_fract_y
 _atom_site_fract_z
 _atom_site_occupancy
  Y  Y0  1  0.042725  0.287172  0.335310  1
  Y  Y1  1  0.957275  0.712828  0.664690  1
  Y  Y2  1  0.457275  0.212828  0.835310  1
  Y  Y3  1  0.787172  0.542725  0.164690  1
  Y  Y4  1  0.542725  0.787172  0.164690  1
  Y  Y5  1  0.212828  0.457275  0.835310  1
  Y  Y6  1  0.712828  0.957275  0.664690  1
  Y  Y7  1  0.287172  0.042725  0.335310  1
  Tm  Tm8  1  0.000000  0.000000  0.000000  1
  Tm  Tm9  1  0.500000  0.500000  0.500000  1
  Si  Si10  1  0.364196  0.364196  0.134612  1
  Si  Si11  1  0.635804  0.635804  0.865388  1
  Si  Si12  1  0.135804  0.135804  0.634612  1
  Si  Si13  1  0.864196  0.864196  0.365388  1
  Bi  Bi14  1  0.793352  0.206648  0.000000  1
  Bi  Bi15  1  0.206648  0.793352  0.000000  1
  Bi  Bi16  1  0.706648  0.293352  0.500000  1
  Bi  Bi17  1  0.293352  0.706648  0.500000  1
