# generated using pymatgen
data_NaCa2LaB24
_symmetry_space_group_name_H-M   'P 1'
_cell_length_a   7.19697814
_cell_length_b   7.19697891
_cell_length_c   5.88147000
_cell_angle_alpha   90.00000000
_cell_angle_beta   90.00000000
_cell_angle_gamma   109.42397468
_symmetry_Int_Tables_number   1
_chemical_formula_structural   NaCa2LaB24
_chemical_formula_sum   'Na1 Ca2 La1 B24'
_cell_volume   287.30056923
_cell_formula_units_Z   1
loop_
 _symmetry_equiv_pos_site_id
 _symmetry_equiv_pos_as_xyz
  1  'x, y, z'
loop_
 _atom_site_type_symbol
 _atom_site_label
 _atom_site_symmetry_multiplicity
 _atom_site_fract_x
 _atom_site_fract_y
 _atom_site_fract_z
 _atom_site_occupancy
  Na  Na0  1  0.748192  0.251808  0.500000  1
  Ca  Ca1  1  0.501156  0.498844  0.000000  1
  Ca  Ca2  1  0.251886  0.748114  0.500000  1
  La  La3  1  0.998231  0.001769  0.000000  1
  B  B4  1  0.175410  0.325183  0.648026  1
  B  B5  1  0.925587  0.573795  0.149744  1
  B  B6  1  0.674817  0.824590  0.648026  1
  B  B7  1  0.426205  0.074413  0.149744  1
  B  B8  1  0.175410  0.325183  0.351974  1
  B  B9  1  0.925587  0.573795  0.850256  1
  B  B10  1  0.674817  0.824590  0.351974  1
  B  B11  1  0.426205  0.074413  0.850256  1
  B  B12  1  0.399909  0.398302  0.500000  1
  B  B13  1  0.149369  0.648992  0.000000  1
  B  B14  1  0.898067  0.899493  0.500000  1
  B  B15  1  0.648508  0.148867  0.000000  1
  B  B16  1  0.325383  0.175414  0.648000  1
  B  B17  1  0.074755  0.426577  0.149828  1
  B  B18  1  0.824586  0.674617  0.648000  1
  B  B19  1  0.573423  0.925245  0.149828  1
  B  B20  1  0.100507  0.101933  0.500000  1
  B  B21  1  0.851133  0.351492  0.000000  1
  B  B22  1  0.601698  0.600091  0.500000  1
  B  B23  1  0.351008  0.850631  0.000000  1
  B  B24  1  0.325383  0.175414  0.352000  1
  B  B25  1  0.074755  0.426577  0.850172  1
  B  B26  1  0.824586  0.674617  0.352000  1
  B  B27  1  0.573423  0.925245  0.850172  1
