# generated using pymatgen
data_Y20Mg3Co2Pd3
_symmetry_space_group_name_H-M   'P 1'
_cell_length_a   9.68837000
_cell_length_b   9.68836953
_cell_length_c   9.63198300
_cell_angle_alpha   90.00000000
_cell_angle_beta   90.00000000
_cell_angle_gamma   120.00000160
_symmetry_Int_Tables_number   1
_chemical_formula_structural   Y20Mg3Co2Pd3
_chemical_formula_sum   'Y20 Mg3 Co2 Pd3'
_cell_volume   782.97472602
_cell_formula_units_Z   1
loop_
 _symmetry_equiv_pos_site_id
 _symmetry_equiv_pos_as_xyz
  1  'x, y, z'
loop_
 _atom_site_type_symbol
 _atom_site_label
 _atom_site_symmetry_multiplicity
 _atom_site_fract_x
 _atom_site_fract_y
 _atom_site_fract_z
 _atom_site_occupancy
  Y  Y0  1  0.000000  0.000000  0.437048  1
  Y  Y1  1  0.000000  0.000000  0.062952  1
  Y  Y2  1  0.542238  0.457762  0.250000  1
  Y  Y3  1  0.542238  0.084476  0.250000  1
  Y  Y4  1  0.915524  0.457762  0.250000  1
  Y  Y5  1  0.457075  0.542925  0.750000  1
  Y  Y6  1  0.457075  0.914149  0.750000  1
  Y  Y7  1  0.085851  0.542925  0.750000  1
  Y  Y8  1  0.211705  0.788295  0.434745  1
  Y  Y9  1  0.211705  0.423411  0.434745  1
  Y  Y10  1  0.576589  0.788295  0.434745  1
  Y  Y11  1  0.789307  0.210693  0.558810  1
  Y  Y12  1  0.789307  0.578613  0.558810  1
  Y  Y13  1  0.421387  0.210693  0.558810  1
  Y  Y14  1  0.789307  0.210693  0.941190  1
  Y  Y15  1  0.789307  0.578613  0.941190  1
  Y  Y16  1  0.421387  0.210693  0.941190  1
  Y  Y17  1  0.211705  0.788295  0.065255  1
  Y  Y18  1  0.211705  0.423411  0.065255  1
  Y  Y19  1  0.576589  0.788295  0.065255  1
  Mg  Mg20  1  0.105766  0.894234  0.750000  1
  Mg  Mg21  1  0.105766  0.211530  0.750000  1
  Mg  Mg22  1  0.788470  0.894234  0.750000  1
  Co  Co23  1  0.333333  0.666667  0.250000  1
  Co  Co24  1  0.666667  0.333333  0.750000  1
  Pd  Pd25  1  0.865088  0.134912  0.250000  1
  Pd  Pd26  1  0.865088  0.730177  0.250000  1
  Pd  Pd27  1  0.269823  0.134912  0.250000  1
