# generated using pymatgen
data_K3HoRhO6
_symmetry_space_group_name_H-M   'P 1'
_cell_length_a   7.20759810
_cell_length_b   7.20750048
_cell_length_c   7.20758613
_cell_angle_alpha   94.47656716
_cell_angle_beta   94.47889179
_cell_angle_gamma   94.47812415
_symmetry_Int_Tables_number   1
_chemical_formula_structural   K3HoRhO6
_chemical_formula_sum   'K6 Ho2 Rh2 O12'
_cell_volume   370.80604893
_cell_formula_units_Z   2
loop_
 _symmetry_equiv_pos_site_id
 _symmetry_equiv_pos_as_xyz
  1  'x, y, z'
loop_
 _atom_site_type_symbol
 _atom_site_label
 _atom_site_symmetry_multiplicity
 _atom_site_fract_x
 _atom_site_fract_y
 _atom_site_fract_z
 _atom_site_occupancy
  K  K0  1  0.384244  0.750012  0.115745  1
  K  K1  1  0.884224  0.615745  0.250007  1
  K  K2  1  0.749991  0.115796  0.384228  1
  K  K3  1  0.250009  0.884204  0.615772  1
  K  K4  1  0.115776  0.384255  0.749993  1
  K  K5  1  0.615756  0.249988  0.884255  1
  Ho  Ho6  1  0.249993  0.250002  0.249998  1
  Ho  Ho7  1  0.750007  0.749998  0.750002  1
  Rh  Rh8  1  0.000000  0.000000  0.000000  1
  Rh  Rh9  1  0.500000  0.500000  0.500000  1
  O  O10  1  0.737272  0.909731  0.030681  1
  O  O11  1  0.969315  0.262732  0.090250  1
  O  O12  1  0.530672  0.409740  0.237264  1
  O  O13  1  0.090269  0.969329  0.262734  1
  O  O14  1  0.237268  0.530690  0.409734  1
  O  O15  1  0.590270  0.762730  0.469314  1
  O  O16  1  0.409730  0.237270  0.530686  1
  O  O17  1  0.762732  0.469310  0.590266  1
  O  O18  1  0.909731  0.030671  0.737266  1
  O  O19  1  0.469328  0.590260  0.762736  1
  O  O20  1  0.030685  0.737268  0.909750  1
  O  O21  1  0.262728  0.090269  0.969319  1
