# generated using pymatgen
data_TbTmPa2(Al8Pt3)3
_symmetry_space_group_name_H-M   'P 1'
_cell_length_a   7.56655368
_cell_length_b   7.57511237
_cell_length_c   13.10870101
_cell_angle_alpha   84.49898465
_cell_angle_beta   78.91155844
_cell_angle_gamma   59.93148139
_symmetry_Int_Tables_number   1
_chemical_formula_structural   TbTmPa2(Al8Pt3)3
_chemical_formula_sum   'Tb1 Tm1 Pa2 Al24 Pt9'
_cell_volume   638.10606941
_cell_formula_units_Z   1
loop_
 _symmetry_equiv_pos_site_id
 _symmetry_equiv_pos_as_xyz
  1  'x, y, z'
loop_
 _atom_site_type_symbol
 _atom_site_label
 _atom_site_symmetry_multiplicity
 _atom_site_fract_x
 _atom_site_fract_y
 _atom_site_fract_z
 _atom_site_occupancy
  Tb  Tb0  1  0.733634  0.498470  0.808344  1
  Tm  Tm1  1  0.265882  0.501476  0.192699  1
  Pa  Pa2  1  0.395051  0.168203  0.805044  1
  Pa  Pa3  1  0.604766  0.832012  0.194909  1
  Al  Al4  1  0.684210  0.833730  0.944599  1
  Al  Al5  1  0.315590  0.167127  0.055921  1
  Al  Al6  1  0.145618  0.832626  0.561294  1
  Al  Al7  1  0.854466  0.167289  0.438544  1
  Al  Al8  1  0.480373  0.167696  0.557927  1
  Al  Al9  1  0.519624  0.832326  0.441893  1
  Al  Al10  1  0.214670  0.168282  0.330243  1
  Al  Al11  1  0.785646  0.832252  0.669221  1
  Al  Al12  1  0.436954  0.509332  0.670128  1
  Al  Al13  1  0.562557  0.490712  0.329386  1
  Al  Al14  1  0.108017  0.159159  0.668216  1
  Al  Al15  1  0.892844  0.840186  0.331246  1
  Al  Al16  1  0.353028  0.499490  0.943870  1
  Al  Al17  1  0.645843  0.500434  0.057125  1
  Al  Al18  1  0.015884  0.167671  0.952261  1
  Al  Al19  1  0.984640  0.831657  0.048360  1
  Al  Al20  1  0.185840  0.500222  0.441105  1
  Al  Al21  1  0.814327  0.499775  0.558517  1
  Al  Al22  1  0.735873  0.162826  0.182738  1
  Al  Al23  1  0.263306  0.837729  0.817249  1
  Al  Al24  1  0.062842  0.631320  0.816033  1
  Al  Al25  1  0.937842  0.368897  0.183936  1
  Al  Al26  1  0.855296  0.039834  0.816879  1
  Al  Al27  1  0.144954  0.959170  0.183099  1
  Pt  Pt28  1  0.120358  0.490856  0.639846  1
  Pt  Pt29  1  0.880321  0.509197  0.359814  1
  Pt  Pt30  1  0.656605  0.172646  0.999996  1
  Pt  Pt31  1  0.343188  0.827383  0.000180  1
  Pt  Pt32  1  0.537079  0.166502  0.360111  1
  Pt  Pt33  1  0.462562  0.834011  0.639542  1
  Pt  Pt34  1  0.777758  0.175191  0.638417  1
  Pt  Pt35  1  0.222465  0.824207  0.361200  1
  Pt  Pt36  1  0.000086  0.500104  0.000109  1
