# generated using pymatgen
data_DyY5TcIr
_symmetry_space_group_name_H-M   'P 1'
_cell_length_a   6.38905100
_cell_length_b   7.34966600
_cell_length_c   9.25630200
_cell_angle_alpha   90.00000000
_cell_angle_beta   90.00000000
_cell_angle_gamma   90.00000000
_symmetry_Int_Tables_number   1
_chemical_formula_structural   DyY5TcIr
_chemical_formula_sum   'Dy2 Y10 Tc2 Ir2'
_cell_volume   434.65179137
_cell_formula_units_Z   2
loop_
 _symmetry_equiv_pos_site_id
 _symmetry_equiv_pos_as_xyz
  1  'x, y, z'
loop_
 _atom_site_type_symbol
 _atom_site_label
 _atom_site_symmetry_multiplicity
 _atom_site_fract_x
 _atom_site_fract_y
 _atom_site_fract_z
 _atom_site_occupancy
  Dy  Dy0  1  0.871555  0.541185  0.250000  1
  Dy  Dy1  1  0.628445  0.041185  0.250000  1
  Y  Y2  1  0.328966  0.675860  0.066564  1
  Y  Y3  1  0.171034  0.175860  0.433436  1
  Y  Y4  1  0.670830  0.324361  0.561719  1
  Y  Y5  1  0.829170  0.824361  0.938281  1
  Y  Y6  1  0.670830  0.324361  0.938281  1
  Y  Y7  1  0.829170  0.824361  0.561719  1
  Y  Y8  1  0.328966  0.675860  0.433436  1
  Y  Y9  1  0.171034  0.175860  0.066564  1
  Y  Y10  1  0.134204  0.458490  0.750000  1
  Y  Y11  1  0.365796  0.958490  0.750000  1
  Tc  Tc12  1  0.029131  0.885416  0.250000  1
  Tc  Tc13  1  0.470869  0.385416  0.250000  1
  Ir  Ir14  1  0.957959  0.114465  0.750000  1
  Ir  Ir15  1  0.542041  0.614465  0.750000  1
