# generated using pymatgen
data_Tm6Zr4Sn5Sb
_symmetry_space_group_name_H-M   'P 1'
_cell_length_a   6.06514000
_cell_length_b   8.77800086
_cell_length_c   8.77800200
_cell_angle_alpha   59.97879057
_cell_angle_beta   90.00058658
_cell_angle_gamma   89.99941111
_symmetry_Int_Tables_number   1
_chemical_formula_structural   Tm6Zr4Sn5Sb
_chemical_formula_sum   'Tm6 Zr4 Sn5 Sb1'
_cell_volume   404.64101259
_cell_formula_units_Z   1
loop_
 _symmetry_equiv_pos_site_id
 _symmetry_equiv_pos_as_xyz
  1  'x, y, z'
loop_
 _atom_site_type_symbol
 _atom_site_label
 _atom_site_symmetry_multiplicity
 _atom_site_fract_x
 _atom_site_fract_y
 _atom_site_fract_z
 _atom_site_occupancy
  Tm  Tm0  1  0.749965  0.239872  0.760128  1
  Tm  Tm1  1  0.749951  0.760449  0.998910  1
  Tm  Tm2  1  0.749951  0.001090  0.239551  1
  Tm  Tm3  1  0.249996  0.759445  0.240555  1
  Tm  Tm4  1  0.250051  0.239534  0.000596  1
  Tm  Tm5  1  0.250051  0.999404  0.760466  1
  Zr  Zr6  1  0.499932  0.333285  0.333561  1
  Zr  Zr7  1  0.499932  0.666439  0.666715  1
  Zr  Zr8  1  0.000067  0.666398  0.666666  1
  Zr  Zr9  1  0.000067  0.333334  0.333602  1
  Sn  Sn10  1  0.750134  0.400117  0.999531  1
  Sn  Sn11  1  0.750134  0.000469  0.599883  1
  Sn  Sn12  1  0.250000  0.398612  0.601388  1
  Sn  Sn13  1  0.249921  0.600343  0.000721  1
  Sn  Sn14  1  0.249921  0.999279  0.399657  1
  Sb  Sb15  1  0.749931  0.601932  0.398068  1
