# generated using pymatgen
data_Na2SrPb4
_symmetry_space_group_name_H-M   'P 1'
_cell_length_a   6.85331572
_cell_length_b   6.92762186
_cell_length_c   10.50396532
_cell_angle_alpha   109.25433712
_cell_angle_beta   94.15271821
_cell_angle_gamma   90.00000873
_symmetry_Int_Tables_number   1
_chemical_formula_structural   Na2SrPb4
_chemical_formula_sum   'Na4 Sr2 Pb8'
_cell_volume   469.41637654
_cell_formula_units_Z   2
loop_
 _symmetry_equiv_pos_site_id
 _symmetry_equiv_pos_as_xyz
  1  'x, y, z'
loop_
 _atom_site_type_symbol
 _atom_site_label
 _atom_site_symmetry_multiplicity
 _atom_site_fract_x
 _atom_site_fract_y
 _atom_site_fract_z
 _atom_site_occupancy
  Na  Na0  1  0.699199  0.803382  0.403509  1
  Na  Na1  1  0.199199  0.600126  0.403510  1
  Na  Na2  1  0.800802  0.399873  0.596490  1
  Na  Na3  1  0.300802  0.196619  0.596491  1
  Sr  Sr4  1  0.750000  0.794184  0.000000  1
  Sr  Sr5  1  0.250001  0.205817  0.000000  1
  Pb  Pb6  1  0.777281  0.387691  0.157127  1
  Pb  Pb7  1  0.277281  0.769436  0.157127  1
  Pb  Pb8  1  0.511945  0.179940  0.310222  1
  Pb  Pb9  1  0.011945  0.130282  0.310223  1
  Pb  Pb10  1  0.988056  0.869717  0.689777  1
  Pb  Pb11  1  0.488056  0.820060  0.689778  1
  Pb  Pb12  1  0.722718  0.230563  0.842873  1
  Pb  Pb13  1  0.222718  0.612309  0.842873  1
