# generated using pymatgen
data_TbEr2Mn2Co9B4
_symmetry_space_group_name_H-M   'P 1'
_cell_length_a   5.07254900
_cell_length_b   5.07645354
_cell_length_c   9.69353500
_cell_angle_alpha   89.99981246
_cell_angle_beta   90.00036408
_cell_angle_gamma   119.97456661
_symmetry_Int_Tables_number   1
_chemical_formula_structural   TbEr2Mn2Co9B4
_chemical_formula_sum   'Tb1 Er2 Mn2 Co9 B4'
_cell_volume   216.22740011
_cell_formula_units_Z   1
loop_
 _symmetry_equiv_pos_site_id
 _symmetry_equiv_pos_as_xyz
  1  'x, y, z'
loop_
 _atom_site_type_symbol
 _atom_site_label
 _atom_site_symmetry_multiplicity
 _atom_site_fract_x
 _atom_site_fract_y
 _atom_site_fract_z
 _atom_site_occupancy
  Tb  Tb0  1  0.000419  0.000000  0.000205  1
  Er  Er1  1  0.999980  0.000000  0.341413  1
  Er  Er2  1  0.999961  0.000000  0.658725  1
  Mn  Mn3  1  0.333428  0.666570  0.000175  1
  Mn  Mn4  1  0.666858  0.333430  0.000175  1
  Co  Co5  1  0.499874  0.000000  0.500056  1
  Co  Co6  1  0.499904  0.499971  0.500072  1
  Co  Co7  1  0.999935  0.500029  0.500072  1
  Co  Co8  1  0.499896  0.000000  0.206226  1
  Co  Co9  1  0.499931  0.499966  0.206067  1
  Co  Co10  1  0.999965  0.500034  0.206067  1
  Co  Co11  1  0.499912  0.000000  0.793504  1
  Co  Co12  1  0.499956  0.499956  0.793744  1
  Co  Co13  1  0.999999  0.500044  0.793744  1
  B  B14  1  0.333356  0.666782  0.350412  1
  B  B15  1  0.666574  0.333218  0.350412  1
  B  B16  1  0.666626  0.333299  0.649468  1
  B  B17  1  0.333326  0.666701  0.649468  1
