# generated using pymatgen
data_BeV2Si5(MoW3)2
_symmetry_space_group_name_H-M   'P 1'
_cell_length_a   7.22239876
_cell_length_b   7.22239167
_cell_length_c   7.20676058
_cell_angle_alpha   96.56854016
_cell_angle_beta   96.21583874
_cell_angle_gamma   141.06106024
_symmetry_Int_Tables_number   1
_chemical_formula_structural   BeV2Si5(MoW3)2
_chemical_formula_sum   'Be1 V2 Si5 Mo2 W6'
_cell_volume   222.69484697
_cell_formula_units_Z   1
loop_
 _symmetry_equiv_pos_site_id
 _symmetry_equiv_pos_as_xyz
  1  'x, y, z'
loop_
 _atom_site_type_symbol
 _atom_site_label
 _atom_site_symmetry_multiplicity
 _atom_site_fract_x
 _atom_site_fract_y
 _atom_site_fract_z
 _atom_site_occupancy
  Be  Be0  1  0.249367  0.249371  0.999996  1
  V  V1  1  0.250794  0.750794  0.500000  1
  V  V2  1  0.749235  0.249237  0.499998  1
  Si  Si3  1  0.749209  0.749209  0.000001  1
  Si  Si4  1  0.164265  0.661382  0.826271  1
  Si  Si5  1  0.835110  0.337990  0.173729  1
  Si  Si6  1  0.335756  0.163985  0.498498  1
  Si  Si7  1  0.665489  0.837258  0.501504  1
  Mo  Mo8  1  0.720127  0.574553  0.300081  1
  Mo  Mo9  1  0.274474  0.420045  0.699917  1
  W  W10  1  0.077736  0.227673  0.298534  1
  W  W11  1  0.929142  0.779204  0.701467  1
  W  W12  1  0.781014  0.081246  0.854655  1
  W  W13  1  0.419822  0.720284  0.148414  1
  W  W14  1  0.226590  0.926358  0.145344  1
  W  W15  1  0.571872  0.271410  0.851589  1
