# generated using pymatgen
data_Na2Dy3ZnP11Ir19
_symmetry_space_group_name_H-M   'P 1'
_cell_length_a   12.70101583
_cell_length_b   12.72801112
_cell_length_c   3.97438600
_cell_angle_alpha   90.00000000
_cell_angle_beta   90.00000000
_cell_angle_gamma   119.85530512
_symmetry_Int_Tables_number   1
_chemical_formula_structural   Na2Dy3ZnP11Ir19
_chemical_formula_sum   'Na2 Dy3 Zn1 P11 Ir19'
_cell_volume   557.22559203
_cell_formula_units_Z   1
loop_
 _symmetry_equiv_pos_site_id
 _symmetry_equiv_pos_as_xyz
  1  'x, y, z'
loop_
 _atom_site_type_symbol
 _atom_site_label
 _atom_site_symmetry_multiplicity
 _atom_site_fract_x
 _atom_site_fract_y
 _atom_site_fract_z
 _atom_site_occupancy
  Na  Na0  1  0.001054  0.816986  0.000000  1
  Na  Na1  1  0.182720  0.179266  0.000000  1
  Dy  Dy2  1  0.329450  0.664070  0.500000  1
  Dy  Dy3  1  0.671765  0.334238  0.500000  1
  Dy  Dy4  1  0.819242  0.996632  0.000000  1
  Zn  Zn5  1  0.000100  0.651032  0.500000  1
  P  P6  1  0.354981  0.355387  0.500000  1
  P  P7  1  0.644374  0.000098  0.500000  1
  P  P8  1  0.513430  0.688951  0.000000  1
  P  P9  1  0.307442  0.824624  0.000000  1
  P  P10  1  0.163915  0.477791  0.000000  1
  P  P11  1  0.485205  0.176669  0.000000  1
  P  P12  1  0.690891  0.516268  0.000000  1
  P  P13  1  0.837560  0.315763  0.000000  1
  P  P14  1  0.004605  0.175009  0.500000  1
  P  P15  1  0.818436  0.815280  0.500000  1
  P  P16  1  0.182621  0.001432  0.500000  1
  Ir  Ir17  1  0.506363  0.872580  0.000000  1
  Ir  Ir18  1  0.129965  0.635681  0.000000  1
  Ir  Ir19  1  0.355497  0.494345  0.000000  1
  Ir  Ir20  1  0.493263  0.367430  0.000000  1
  Ir  Ir21  1  0.868743  0.506489  0.000000  1
  Ir  Ir22  1  0.645084  0.140230  0.000000  1
  Ir  Ir23  1  0.995640  0.445725  0.500000  1
  Ir  Ir24  1  0.527296  0.542374  0.500000  1
  Ir  Ir25  1  0.471780  0.012932  0.500000  1
  Ir  Ir26  1  0.999197  0.277298  0.000000  1
  Ir  Ir27  1  0.708342  0.715887  0.000000  1
  Ir  Ir28  1  0.291850  0.007164  0.000000  1
  Ir  Ir29  1  0.620127  0.805107  0.500000  1
  Ir  Ir30  1  0.217264  0.830558  0.500000  1
  Ir  Ir31  1  0.180404  0.374756  0.500000  1
  Ir  Ir32  1  0.383239  0.186410  0.500000  1
  Ir  Ir33  1  0.781700  0.611658  0.500000  1
  Ir  Ir34  1  0.820515  0.190151  0.500000  1
  Ir  Ir35  1  0.995938  0.993729  0.500000  1
