# generated using pymatgen
data_Li2Dy16CdCo4Hg
_symmetry_space_group_name_H-M   'P 1'
_cell_length_a   9.50073621
_cell_length_b   9.52578466
_cell_length_c   9.48518985
_cell_angle_alpha   59.85831703
_cell_angle_beta   59.75131396
_cell_angle_gamma   59.91274616
_symmetry_Int_Tables_number   1
_chemical_formula_structural   Li2Dy16CdCo4Hg
_chemical_formula_sum   'Li2 Dy16 Cd1 Co4 Hg1'
_cell_volume   604.80477038
_cell_formula_units_Z   1
loop_
 _symmetry_equiv_pos_site_id
 _symmetry_equiv_pos_as_xyz
  1  'x, y, z'
loop_
 _atom_site_type_symbol
 _atom_site_label
 _atom_site_symmetry_multiplicity
 _atom_site_fract_x
 _atom_site_fract_y
 _atom_site_fract_z
 _atom_site_occupancy
  Li  Li0  1  0.927506  0.218274  0.929855  1
  Li  Li1  1  0.927506  0.924365  0.929855  1
  Dy  Dy2  1  0.154437  0.538598  0.154879  1
  Dy  Dy3  1  0.684003  0.316443  0.683110  1
  Dy  Dy4  1  0.686498  0.312857  0.313443  1
  Dy  Dy5  1  0.936645  0.564094  0.561431  1
  Dy  Dy6  1  0.532948  0.155347  0.156358  1
  Dy  Dy7  1  0.156609  0.156126  0.531139  1
  Dy  Dy8  1  0.936645  0.937829  0.561431  1
  Dy  Dy9  1  0.310636  0.689611  0.310141  1
  Dy  Dy10  1  0.562382  0.937907  0.936491  1
  Dy  Dy11  1  0.564886  0.936233  0.562648  1
  Dy  Dy12  1  0.686498  0.687203  0.313443  1
  Dy  Dy13  1  0.562382  0.563220  0.936491  1
  Dy  Dy14  1  0.939394  0.560731  0.939144  1
  Dy  Dy15  1  0.314569  0.686824  0.685513  1
  Dy  Dy16  1  0.154437  0.152086  0.154879  1
  Dy  Dy17  1  0.314569  0.313095  0.685513  1
  Cd  Cd18  1  0.241762  0.921225  0.915788  1
  Co  Co19  1  0.356116  0.361006  0.921874  1
  Co  Co20  1  0.357410  0.923907  0.357020  1
  Co  Co21  1  0.922190  0.361301  0.355211  1
  Co  Co22  1  0.357410  0.361665  0.357020  1
  Hg  Hg23  1  0.912566  0.920056  0.247322  1
