# generated using pymatgen
data_Sr3La(PPd3)8
_symmetry_space_group_name_H-M   'P 1'
_cell_length_a   8.57372165
_cell_length_b   8.57372165
_cell_length_c   8.57372165
_cell_angle_alpha   89.87219536
_cell_angle_beta   90.12780464
_cell_angle_gamma   90.12780464
_symmetry_Int_Tables_number   1
_chemical_formula_structural   Sr3La(PPd3)8
_chemical_formula_sum   'Sr3 La1 P8 Pd24'
_cell_volume   630.23846166
_cell_formula_units_Z   1
loop_
 _symmetry_equiv_pos_site_id
 _symmetry_equiv_pos_as_xyz
  1  'x, y, z'
loop_
 _atom_site_type_symbol
 _atom_site_label
 _atom_site_symmetry_multiplicity
 _atom_site_fract_x
 _atom_site_fract_y
 _atom_site_fract_z
 _atom_site_occupancy
  Sr  Sr0  1  0.500000  0.000000  0.500000  1
  Sr  Sr1  1  0.000000  0.500000  0.500000  1
  Sr  Sr2  1  0.000000  0.000000  0.000000  1
  La  La3  1  0.500000  0.500000  0.000000  1
  P  P4  1  0.807543  0.306994  0.191764  1
  P  P5  1  0.192012  0.807988  0.307988  1
  P  P6  1  0.693006  0.691764  0.692457  1
  P  P7  1  0.308236  0.192457  0.806994  1
  P  P8  1  0.192457  0.693006  0.808236  1
  P  P9  1  0.807988  0.192012  0.692012  1
  P  P10  1  0.306994  0.308236  0.307543  1
  P  P11  1  0.691764  0.807543  0.193006  1
  Pd  Pd12  1  0.420509  0.846203  0.161011  1
  Pd  Pd13  1  0.578589  0.349744  0.334883  1
  Pd  Pd14  1  0.078766  0.151941  0.662420  1
  Pd  Pd15  1  0.921545  0.652719  0.837929  1
  Pd  Pd16  1  0.165117  0.421411  0.849744  1
  Pd  Pd17  1  0.338989  0.579491  0.346203  1
  Pd  Pd18  1  0.662071  0.078455  0.152719  1
  Pd  Pd19  1  0.837580  0.921234  0.651941  1
  Pd  Pd20  1  0.848059  0.162420  0.421234  1
  Pd  Pd21  1  0.347281  0.337929  0.578455  1
  Pd  Pd22  1  0.153797  0.661011  0.079491  1
  Pd  Pd23  1  0.650256  0.834883  0.921411  1
  Pd  Pd24  1  0.579491  0.153797  0.838989  1
  Pd  Pd25  1  0.421411  0.650256  0.665117  1
  Pd  Pd26  1  0.921234  0.848059  0.337580  1
  Pd  Pd27  1  0.078455  0.347281  0.162071  1
  Pd  Pd28  1  0.834883  0.578589  0.150256  1
  Pd  Pd29  1  0.661011  0.420509  0.653797  1
  Pd  Pd30  1  0.337929  0.921545  0.847281  1
  Pd  Pd31  1  0.162420  0.078766  0.348059  1
  Pd  Pd32  1  0.151941  0.837580  0.578766  1
  Pd  Pd33  1  0.652719  0.662071  0.421545  1
  Pd  Pd34  1  0.846203  0.338989  0.920509  1
  Pd  Pd35  1  0.349744  0.165117  0.078589  1
