# generated using pymatgen
data_Ac4YbInSn3
_symmetry_space_group_name_H-M   'P 1'
_cell_length_a   8.42682200
_cell_length_b   9.13180100
_cell_length_c   16.57992100
_cell_angle_alpha   90.00000000
_cell_angle_beta   90.00000000
_cell_angle_gamma   90.00000000
_symmetry_Int_Tables_number   1
_chemical_formula_structural   Ac4YbInSn3
_chemical_formula_sum   'Ac16 Yb4 In4 Sn12'
_cell_volume   1275.85910156
_cell_formula_units_Z   4
loop_
 _symmetry_equiv_pos_site_id
 _symmetry_equiv_pos_as_xyz
  1  'x, y, z'
loop_
 _atom_site_type_symbol
 _atom_site_label
 _atom_site_symmetry_multiplicity
 _atom_site_fract_x
 _atom_site_fract_y
 _atom_site_fract_z
 _atom_site_occupancy
  Ac  Ac0  1  0.672191  0.173072  0.626959  1
  Ac  Ac1  1  0.172191  0.326928  0.873041  1
  Ac  Ac2  1  0.327809  0.826928  0.126959  1
  Ac  Ac3  1  0.827809  0.673072  0.373041  1
  Ac  Ac4  1  0.327809  0.826928  0.373041  1
  Ac  Ac5  1  0.827809  0.673072  0.126959  1
  Ac  Ac6  1  0.672191  0.173072  0.873041  1
  Ac  Ac7  1  0.172191  0.326928  0.626959  1
  Ac  Ac8  1  0.512294  0.689135  0.593101  1
  Ac  Ac9  1  0.012294  0.810865  0.906899  1
  Ac  Ac10  1  0.487706  0.310865  0.093101  1
  Ac  Ac11  1  0.987706  0.189135  0.406899  1
  Ac  Ac12  1  0.487706  0.310865  0.406899  1
  Ac  Ac13  1  0.987706  0.189135  0.093101  1
  Ac  Ac14  1  0.512294  0.689135  0.906899  1
  Ac  Ac15  1  0.012294  0.810865  0.593101  1
  Yb  Yb16  1  0.839328  0.519651  0.750000  1
  Yb  Yb17  1  0.339328  0.980349  0.750000  1
  Yb  Yb18  1  0.160672  0.480349  0.250000  1
  Yb  Yb19  1  0.660672  0.019651  0.250000  1
  In  In20  1  0.479207  0.417914  0.750000  1
  In  In21  1  0.979207  0.082086  0.750000  1
  In  In22  1  0.520793  0.582086  0.250000  1
  In  In23  1  0.020793  0.917914  0.250000  1
  Sn  Sn24  1  0.668864  0.967810  0.459575  1
  Sn  Sn25  1  0.168864  0.532190  0.040425  1
  Sn  Sn26  1  0.331136  0.032190  0.959575  1
  Sn  Sn27  1  0.831136  0.467810  0.540425  1
  Sn  Sn28  1  0.331136  0.032190  0.540425  1
  Sn  Sn29  1  0.831136  0.467810  0.959575  1
  Sn  Sn30  1  0.668864  0.967810  0.040425  1
  Sn  Sn31  1  0.168864  0.532190  0.459575  1
  Sn  Sn32  1  0.716815  0.859596  0.750000  1
  Sn  Sn33  1  0.216815  0.640404  0.750000  1
  Sn  Sn34  1  0.283185  0.140404  0.250000  1
  Sn  Sn35  1  0.783185  0.359596  0.250000  1
