# generated using pymatgen
data_TbDy3ReB12Ir
_symmetry_space_group_name_H-M   'P 1'
_cell_length_a   3.67826100
_cell_length_b   9.17906794
_cell_length_c   11.56569501
_cell_angle_alpha   90.34298834
_cell_angle_beta   90.00000000
_cell_angle_gamma   90.00000000
_symmetry_Int_Tables_number   1
_chemical_formula_structural   TbDy3ReB12Ir
_chemical_formula_sum   'Tb2 Dy6 Re2 B24 Ir2'
_cell_volume   390.48565220
_cell_formula_units_Z   2
loop_
 _symmetry_equiv_pos_site_id
 _symmetry_equiv_pos_as_xyz
  1  'x, y, z'
loop_
 _atom_site_type_symbol
 _atom_site_label
 _atom_site_symmetry_multiplicity
 _atom_site_fract_x
 _atom_site_fract_y
 _atom_site_fract_z
 _atom_site_occupancy
  Tb  Tb0  1  0.000000  0.317943  0.409774  1
  Tb  Tb1  1  0.000000  0.682057  0.590226  1
  Dy  Dy2  1  0.000000  0.826962  0.082388  1
  Dy  Dy3  1  0.000000  0.173038  0.917612  1
  Dy  Dy4  1  0.000000  0.946196  0.372214  1
  Dy  Dy5  1  0.000000  0.053804  0.627786  1
  Dy  Dy6  1  0.000000  0.441808  0.125718  1
  Dy  Dy7  1  0.000000  0.558192  0.874282  1
  Re  Re8  1  0.000000  0.138271  0.179410  1
  Re  Re9  1  0.000000  0.861729  0.820590  1
  B  B10  1  0.500000  0.554259  0.433504  1
  B  B11  1  0.500000  0.445741  0.566496  1
  B  B12  1  0.500000  0.053322  0.067359  1
  B  B13  1  0.500000  0.946678  0.932641  1
  B  B14  1  0.500000  0.749009  0.420948  1
  B  B15  1  0.500000  0.250991  0.579052  1
  B  B16  1  0.500000  0.247292  0.080675  1
  B  B17  1  0.500000  0.752708  0.919325  1
  B  B18  1  0.500000  0.790733  0.266365  1
  B  B19  1  0.500000  0.209267  0.733635  1
  B  B20  1  0.500000  0.291930  0.233707  1
  B  B21  1  0.500000  0.708070  0.766293  1
  B  B22  1  0.500000  0.632183  0.184289  1
  B  B23  1  0.500000  0.367817  0.815711  1
  B  B24  1  0.500000  0.131949  0.314231  1
  B  B25  1  0.500000  0.868051  0.685769  1
  B  B26  1  0.500000  0.983476  0.212948  1
  B  B27  1  0.500000  0.016524  0.787052  1
  B  B28  1  0.500000  0.483230  0.287083  1
  B  B29  1  0.500000  0.516770  0.712917  1
  B  B30  1  0.500000  0.608548  0.030413  1
  B  B31  1  0.500000  0.391452  0.969587  1
  B  B32  1  0.500000  0.108813  0.470429  1
  B  B33  1  0.500000  0.891187  0.529571  1
  Ir  Ir34  1  0.000000  0.636872  0.322078  1
  Ir  Ir35  1  0.000000  0.363128  0.677922  1
