# generated using pymatgen
data_Ho7Er(Ta3Ge4)4
_symmetry_space_group_name_H-M   'P 1'
_cell_length_a   6.98664363
_cell_length_b   7.14665246
_cell_length_c   13.53385062
_cell_angle_alpha   90.00259065
_cell_angle_beta   90.02191941
_cell_angle_gamma   89.99245110
_symmetry_Int_Tables_number   1
_chemical_formula_structural   Ho7Er(Ta3Ge4)4
_chemical_formula_sum   'Ho7 Er1 Ta12 Ge16'
_cell_volume   675.76018057
_cell_formula_units_Z   1
loop_
 _symmetry_equiv_pos_site_id
 _symmetry_equiv_pos_as_xyz
  1  'x, y, z'
loop_
 _atom_site_type_symbol
 _atom_site_label
 _atom_site_symmetry_multiplicity
 _atom_site_fract_x
 _atom_site_fract_y
 _atom_site_fract_z
 _atom_site_occupancy
  Ho  Ho0  1  0.495632  0.325636  0.094244  1
  Ho  Ho1  1  0.995569  0.174389  0.405749  1
  Ho  Ho2  1  0.504433  0.674452  0.594222  1
  Ho  Ho3  1  0.004417  0.825698  0.905700  1
  Ho  Ho4  1  0.504441  0.674286  0.905654  1
  Ho  Ho5  1  0.004469  0.825646  0.594231  1
  Ho  Ho6  1  0.495573  0.325625  0.405907  1
  Er  Er7  1  0.995763  0.174278  0.094372  1
  Ta  Ta8  1  0.664235  0.013363  0.749962  1
  Ta  Ta9  1  0.164211  0.486692  0.749977  1
  Ta  Ta10  1  0.335671  0.986639  0.250036  1
  Ta  Ta11  1  0.835777  0.513213  0.250016  1
  Ta  Ta12  1  0.840406  0.329828  0.626196  1
  Ta  Ta13  1  0.340427  0.170343  0.873774  1
  Ta  Ta14  1  0.159527  0.670269  0.126213  1
  Ta  Ta15  1  0.659518  0.829780  0.373858  1
  Ta  Ta16  1  0.159565  0.670163  0.373852  1
  Ta  Ta17  1  0.659578  0.829675  0.126216  1
  Ta  Ta18  1  0.840316  0.329799  0.873792  1
  Ta  Ta19  1  0.340334  0.170220  0.626225  1
  Ge  Ge20  1  0.804694  0.641520  0.749885  1
  Ge  Ge21  1  0.304658  0.858579  0.749927  1
  Ge  Ge22  1  0.195541  0.358542  0.250038  1
  Ge  Ge23  1  0.695329  0.141472  0.250078  1
  Ge  Ge24  1  0.540192  0.379378  0.750002  1
  Ge  Ge25  1  0.040203  0.120741  0.750074  1
  Ge  Ge26  1  0.459744  0.620726  0.250022  1
  Ge  Ge27  1  0.959550  0.879185  0.249970  1
  Ge  Ge28  1  0.676830  0.037979  0.541503  1
  Ge  Ge29  1  0.176588  0.461991  0.958553  1
  Ge  Ge30  1  0.323562  0.961772  0.041319  1
  Ge  Ge31  1  0.823261  0.538074  0.458549  1
  Ge  Ge32  1  0.323234  0.961976  0.458582  1
  Ge  Ge33  1  0.823258  0.537994  0.041310  1
  Ge  Ge34  1  0.676703  0.038058  0.958500  1
  Ge  Ge35  1  0.176796  0.462023  0.541493  1
