# generated using pymatgen
data_Dy7ErIn3Ru
_symmetry_space_group_name_H-M   'P 1'
_cell_length_a   10.43344400
_cell_length_b   10.43344302
_cell_length_c   7.05356800
_cell_angle_alpha   90.00000000
_cell_angle_beta   90.00000000
_cell_angle_gamma   119.99999676
_symmetry_Int_Tables_number   1
_chemical_formula_structural   Dy7ErIn3Ru
_chemical_formula_sum   'Dy14 Er2 In6 Ru2'
_cell_volume   664.95895860
_cell_formula_units_Z   2
loop_
 _symmetry_equiv_pos_site_id
 _symmetry_equiv_pos_as_xyz
  1  'x, y, z'
loop_
 _atom_site_type_symbol
 _atom_site_label
 _atom_site_symmetry_multiplicity
 _atom_site_fract_x
 _atom_site_fract_y
 _atom_site_fract_z
 _atom_site_occupancy
  Dy  Dy0  1  0.532966  0.065931  0.794323  1
  Dy  Dy1  1  0.934069  0.467034  0.794323  1
  Dy  Dy2  1  0.532966  0.467034  0.794323  1
  Dy  Dy3  1  0.467034  0.934069  0.294323  1
  Dy  Dy4  1  0.065931  0.532966  0.294323  1
  Dy  Dy5  1  0.467034  0.532966  0.294323  1
  Dy  Dy6  1  0.823251  0.646502  0.499496  1
  Dy  Dy7  1  0.353498  0.176749  0.499496  1
  Dy  Dy8  1  0.823251  0.176749  0.499496  1
  Dy  Dy9  1  0.176749  0.353498  0.999496  1
  Dy  Dy10  1  0.646502  0.823251  0.999496  1
  Dy  Dy11  1  0.176749  0.823251  0.999496  1
  Dy  Dy12  1  0.666667  0.333333  0.170547  1
  Dy  Dy13  1  0.333333  0.666667  0.670547  1
  Er  Er14  1  0.000000  0.000000  0.778711  1
  Er  Er15  1  0.000000  0.000000  0.278711  1
  In  In16  1  0.837550  0.675099  0.039623  1
  In  In17  1  0.324901  0.162450  0.039623  1
  In  In18  1  0.837550  0.162450  0.039623  1
  In  In19  1  0.162450  0.324901  0.539623  1
  In  In20  1  0.675099  0.837550  0.539623  1
  In  In21  1  0.162450  0.837550  0.539623  1
  Ru  Ru22  1  0.666667  0.333333  0.568366  1
  Ru  Ru23  1  0.333333  0.666667  0.068366  1
