# generated using pymatgen
data_YbDy4HfH18
_symmetry_space_group_name_H-M   'P 1'
_cell_length_a   6.24478715
_cell_length_b   6.25411497
_cell_length_c   6.50559905
_cell_angle_alpha   89.90379574
_cell_angle_beta   89.97546853
_cell_angle_gamma   119.94283937
_symmetry_Int_Tables_number   1
_chemical_formula_structural   YbDy4HfH18
_chemical_formula_sum   'Yb1 Dy4 Hf1 H18'
_cell_volume   220.16597914
_cell_formula_units_Z   1
loop_
 _symmetry_equiv_pos_site_id
 _symmetry_equiv_pos_as_xyz
  1  'x, y, z'
loop_
 _atom_site_type_symbol
 _atom_site_label
 _atom_site_symmetry_multiplicity
 _atom_site_fract_x
 _atom_site_fract_y
 _atom_site_fract_z
 _atom_site_occupancy
  Yb  Yb0  1  0.335716  0.338284  0.750149  1
  Dy  Dy1  1  0.995881  0.658939  0.749740  1
  Dy  Dy2  1  0.661863  0.663742  0.252886  1
  Dy  Dy3  1  0.000873  0.333519  0.246077  1
  Dy  Dy4  1  0.336861  0.002424  0.250977  1
  Hf  Hf5  1  0.656967  0.998549  0.750070  1
  H  H6  1  0.347707  0.957534  0.903920  1
  H  H7  1  0.649205  0.706625  0.902361  1
  H  H8  1  0.012912  0.350747  0.906314  1
  H  H9  1  0.315714  0.339959  0.405766  1
  H  H10  1  0.029675  0.680654  0.408925  1
  H  H11  1  0.659747  0.975297  0.423265  1
  H  H12  1  0.683223  0.025873  0.076966  1
  H  H13  1  0.345242  0.319648  0.094386  1
  H  H14  1  0.974495  0.661463  0.090987  1
  H  H15  1  0.684012  0.660868  0.592612  1
  H  H16  1  0.933865  0.303012  0.597109  1
  H  H17  1  0.382177  0.025646  0.597352  1
  H  H18  1  0.976077  0.997401  0.749806  1
  H  H19  1  0.000057  0.998525  0.250699  1
  H  H20  1  0.665504  0.309601  0.816303  1
  H  H21  1  0.668026  0.334991  0.309428  1
  H  H22  1  0.332182  0.666491  0.190067  1
  H  H23  1  0.352015  0.690208  0.683835  1
