# generated using pymatgen
data_NaLa2Pr4IrBr12
_symmetry_space_group_name_H-M   'P 1'
_cell_length_a   9.63471504
_cell_length_b   9.64724827
_cell_length_c   9.76997312
_cell_angle_alpha   107.15492181
_cell_angle_beta   107.43138759
_cell_angle_gamma   107.03060464
_symmetry_Int_Tables_number   1
_chemical_formula_structural   NaLa2Pr4IrBr12
_chemical_formula_sum   'Na1 La2 Pr4 Ir1 Br12'
_cell_volume   751.98771986
_cell_formula_units_Z   1
loop_
 _symmetry_equiv_pos_site_id
 _symmetry_equiv_pos_as_xyz
  1  'x, y, z'
loop_
 _atom_site_type_symbol
 _atom_site_label
 _atom_site_symmetry_multiplicity
 _atom_site_fract_x
 _atom_site_fract_y
 _atom_site_fract_z
 _atom_site_occupancy
  Na  Na0  1  0.500069  0.500153  0.500279  1
  La  La1  1  0.112632  0.317673  0.029560  1
  La  La2  1  0.319532  0.030438  0.113780  1
  Pr  Pr3  1  0.030437  0.117094  0.327221  1
  Pr  Pr4  1  0.969357  0.881283  0.672021  1
  Pr  Pr5  1  0.683550  0.970148  0.886699  1
  Pr  Pr6  1  0.886865  0.684720  0.970348  1
  Ir  Ir7  1  0.003253  0.002234  0.000563  1
  Br  Br8  1  0.214032  0.681247  0.071434  1
  Br  Br9  1  0.458475  0.374139  0.160747  1
  Br  Br10  1  0.683400  0.070886  0.211985  1
  Br  Br11  1  0.927375  0.783507  0.313422  1
  Br  Br12  1  0.157195  0.453938  0.371081  1
  Br  Br13  1  0.370022  0.157871  0.454834  1
  Br  Br14  1  0.629299  0.843271  0.547954  1
  Br  Br15  1  0.842412  0.545543  0.632260  1
  Br  Br16  1  0.071222  0.213437  0.683121  1
  Br  Br17  1  0.316480  0.927982  0.784686  1
  Br  Br18  1  0.544325  0.628859  0.841243  1
  Br  Br19  1  0.780072  0.315579  0.926766  1
