# generated using pymatgen
data_Gd11U3O24
_symmetry_space_group_name_H-M   'P 1'
_cell_length_a   8.69259809
_cell_length_b   8.76117783
_cell_length_c   8.80453000
_cell_angle_alpha   71.18634910
_cell_angle_beta   72.38848567
_cell_angle_gamma   71.54778765
_symmetry_Int_Tables_number   1
_chemical_formula_structural   Gd11U3O24
_chemical_formula_sum   'Gd11 U3 O24'
_cell_volume   586.87349060
_cell_formula_units_Z   1
loop_
 _symmetry_equiv_pos_site_id
 _symmetry_equiv_pos_as_xyz
  1  'x, y, z'
loop_
 _atom_site_type_symbol
 _atom_site_label
 _atom_site_symmetry_multiplicity
 _atom_site_fract_x
 _atom_site_fract_y
 _atom_site_fract_z
 _atom_site_occupancy
  Gd  Gd0  1  0.387665  0.917262  0.223108  1
  Gd  Gd1  1  0.718980  0.887562  0.424453  1
  Gd  Gd2  1  0.422037  0.724530  0.886043  1
  Gd  Gd3  1  0.079649  0.784133  0.609251  1
  Gd  Gd4  1  0.886800  0.422188  0.716891  1
  Gd  Gd5  1  0.774045  0.614736  0.081697  1
  Gd  Gd6  1  0.109208  0.577041  0.289085  1
  Gd  Gd7  1  0.921384  0.214230  0.392940  1
  Gd  Gd8  1  0.586314  0.280679  0.109846  1
  Gd  Gd9  1  0.287010  0.108725  0.564415  1
  Gd  Gd10  1  0.612814  0.075759  0.774816  1
  U  U11  1  0.000208  0.998743  0.002410  1
  U  U12  1  0.500656  0.496858  0.499584  1
  U  U13  1  0.209653  0.392328  0.933566  1
  O  O14  1  0.143669  0.916017  0.781556  1
  O  O15  1  0.590732  0.716392  0.359617  1
  O  O16  1  0.513292  0.917146  0.663283  1
  O  O17  1  0.219220  0.858475  0.089896  1
  O  O18  1  0.832917  0.988522  0.581470  1
  O  O19  1  0.924003  0.664774  0.518053  1
  O  O20  1  0.576080  0.839149  0.990414  1
  O  O21  1  0.669469  0.514909  0.919648  1
  O  O22  1  0.281664  0.646593  0.405634  1
  O  O23  1  0.004995  0.577689  0.846342  1
  O  O24  1  0.645579  0.410448  0.277815  1
  O  O25  1  0.912672  0.773874  0.146026  1
  O  O26  1  0.089315  0.235963  0.868793  1
  O  O27  1  0.352012  0.579356  0.725034  1
  O  O28  1  0.021271  0.406726  0.160168  1
  O  O29  1  0.719864  0.353351  0.592574  1
  O  O30  1  0.321357  0.492399  0.069955  1
  O  O31  1  0.403042  0.186787  0.001736  1
  O  O32  1  0.076074  0.332219  0.489310  1
  O  O33  1  0.167283  0.007620  0.419654  1
  O  O34  1  0.779750  0.142719  0.911621  1
  O  O35  1  0.489580  0.079369  0.323713  1
  O  O36  1  0.414233  0.276458  0.631235  1
  O  O37  1  0.855503  0.088267  0.218347  1
