# generated using pymatgen
data_Er3AlGaNi6
_symmetry_space_group_name_H-M   'P 1'
_cell_length_a   7.67094345
_cell_length_b   7.65741831
_cell_length_c   7.65741902
_cell_angle_alpha   109.46203804
_cell_angle_beta   109.44009159
_cell_angle_gamma   109.44009100
_symmetry_Int_Tables_number   1
_chemical_formula_structural   Er3AlGaNi6
_chemical_formula_sum   'Er6 Al2 Ga2 Ni12'
_cell_volume   346.55644400
_cell_formula_units_Z   2
loop_
 _symmetry_equiv_pos_site_id
 _symmetry_equiv_pos_as_xyz
  1  'x, y, z'
loop_
 _atom_site_type_symbol
 _atom_site_label
 _atom_site_symmetry_multiplicity
 _atom_site_fract_x
 _atom_site_fract_y
 _atom_site_fract_z
 _atom_site_occupancy
  Er  Er0  1  0.709144  0.707063  0.002081  1
  Er  Er1  1  0.290856  0.997919  0.292937  1
  Er  Er2  1  0.000000  0.292264  0.292264  1
  Er  Er3  1  0.290856  0.292937  0.997919  1
  Er  Er4  1  0.709144  0.002081  0.707063  1
  Er  Er5  1  0.000000  0.707736  0.707736  1
  Al  Al6  1  0.500000  0.000000  0.000000  1
  Al  Al7  1  0.500000  0.500000  0.500000  1
  Ga  Ga8  1  0.000000  0.000000  0.500000  1
  Ga  Ga9  1  0.000000  0.500000  0.000000  1
  Ni  Ni10  1  0.337587  0.338174  0.672229  1
  Ni  Ni11  1  0.662413  0.000587  0.334642  1
  Ni  Ni12  1  0.000000  0.662631  0.337369  1
  Ni  Ni13  1  0.662413  0.334642  0.000587  1
  Ni  Ni14  1  0.337587  0.672229  0.338174  1
  Ni  Ni15  1  0.000000  0.337369  0.662631  1
  Ni  Ni16  1  0.337587  0.665358  0.999413  1
  Ni  Ni17  1  0.337587  0.999413  0.665358  1
  Ni  Ni18  1  0.671601  0.335801  0.335801  1
  Ni  Ni19  1  0.662413  0.661826  0.327771  1
  Ni  Ni20  1  0.662413  0.327771  0.661826  1
  Ni  Ni21  1  0.328399  0.664199  0.664199  1
