# generated using pymatgen
data_Nb4GeB4SbRu10
_symmetry_space_group_name_H-M   'P 1'
_cell_length_a   9.45322100
_cell_length_b   9.45322100
_cell_length_c   2.99045800
_cell_angle_alpha   90.00000000
_cell_angle_beta   90.00000000
_cell_angle_gamma   90.00000000
_symmetry_Int_Tables_number   1
_chemical_formula_structural   Nb4GeB4SbRu10
_chemical_formula_sum   'Nb4 Ge1 B4 Sb1 Ru10'
_cell_volume   267.23745638
_cell_formula_units_Z   1
loop_
 _symmetry_equiv_pos_site_id
 _symmetry_equiv_pos_as_xyz
  1  'x, y, z'
loop_
 _atom_site_type_symbol
 _atom_site_label
 _atom_site_symmetry_multiplicity
 _atom_site_fract_x
 _atom_site_fract_y
 _atom_site_fract_z
 _atom_site_occupancy
  Nb  Nb0  1  0.820975  0.674156  0.000000  1
  Nb  Nb1  1  0.179025  0.325844  0.000000  1
  Nb  Nb2  1  0.325844  0.820975  0.000000  1
  Nb  Nb3  1  0.674156  0.179025  0.000000  1
  Ge  Ge4  1  0.500000  0.500000  0.000000  1
  B  B5  1  0.618066  0.872944  0.000000  1
  B  B6  1  0.381934  0.127056  0.000000  1
  B  B7  1  0.127056  0.618066  0.000000  1
  B  B8  1  0.872944  0.381934  0.000000  1
  Sb  Sb9  1  0.000000  0.000000  0.000000  1
  Ru  Ru10  1  0.500000  0.000000  0.500000  1
  Ru  Ru11  1  0.000000  0.500000  0.500000  1
  Ru  Ru12  1  0.566208  0.713740  0.500000  1
  Ru  Ru13  1  0.433792  0.286260  0.500000  1
  Ru  Ru14  1  0.071816  0.778853  0.500000  1
  Ru  Ru15  1  0.928184  0.221147  0.500000  1
  Ru  Ru16  1  0.286260  0.566208  0.500000  1
  Ru  Ru17  1  0.713740  0.433792  0.500000  1
  Ru  Ru18  1  0.221147  0.071816  0.500000  1
  Ru  Ru19  1  0.778853  0.928184  0.500000  1
