# generated using pymatgen
data_DyPa3(Pd2Pb)2
_symmetry_space_group_name_H-M   'P 1'
_cell_length_a   7.89694443
_cell_length_b   7.89694443
_cell_length_c   3.66890400
_cell_angle_alpha   90.00000000
_cell_angle_beta   90.00000000
_cell_angle_gamma   89.56677685
_symmetry_Int_Tables_number   1
_chemical_formula_structural   DyPa3(Pd2Pb)2
_chemical_formula_sum   'Dy1 Pa3 Pd4 Pb2'
_cell_volume   228.79266546
_cell_formula_units_Z   1
loop_
 _symmetry_equiv_pos_site_id
 _symmetry_equiv_pos_as_xyz
  1  'x, y, z'
loop_
 _atom_site_type_symbol
 _atom_site_label
 _atom_site_symmetry_multiplicity
 _atom_site_fract_x
 _atom_site_fract_y
 _atom_site_fract_z
 _atom_site_occupancy
  Dy  Dy0  1  0.326198  0.826198  0.500000  1
  Pa  Pa1  1  0.670733  0.170733  0.500000  1
  Pa  Pa2  1  0.173770  0.326766  0.500000  1
  Pa  Pa3  1  0.826766  0.673770  0.500000  1
  Pd  Pd4  1  0.378042  0.134942  0.000000  1
  Pd  Pd5  1  0.116310  0.616310  0.000000  1
  Pd  Pd6  1  0.634942  0.878042  0.000000  1
  Pd  Pd7  1  0.868002  0.368002  0.000000  1
  Pb  Pb8  1  0.008372  0.996864  0.000000  1
  Pb  Pb9  1  0.496864  0.508372  0.000000  1
