# generated using pymatgen
data_Hf18Re8AsRh
_symmetry_space_group_name_H-M   'P 1'
_cell_length_a   8.60637600
_cell_length_b   8.60637654
_cell_length_c   8.63832400
_cell_angle_alpha   90.00000000
_cell_angle_beta   90.00000000
_cell_angle_gamma   119.99676718
_symmetry_Int_Tables_number   1
_chemical_formula_structural   Hf18Re8AsRh
_chemical_formula_sum   'Hf18 Re8 As1 Rh1'
_cell_volume   554.13416413
_cell_formula_units_Z   1
loop_
 _symmetry_equiv_pos_site_id
 _symmetry_equiv_pos_as_xyz
  1  'x, y, z'
loop_
 _atom_site_type_symbol
 _atom_site_label
 _atom_site_symmetry_multiplicity
 _atom_site_fract_x
 _atom_site_fract_y
 _atom_site_fract_z
 _atom_site_occupancy
  Hf  Hf0  1  0.804015  0.607964  0.553708  1
  Hf  Hf1  1  0.803984  0.196016  0.553781  1
  Hf  Hf2  1  0.392036  0.195985  0.553708  1
  Hf  Hf3  1  0.192698  0.385485  0.452125  1
  Hf  Hf4  1  0.192731  0.807269  0.452096  1
  Hf  Hf5  1  0.614515  0.807302  0.452125  1
  Hf  Hf6  1  0.192698  0.385485  0.047875  1
  Hf  Hf7  1  0.192731  0.807269  0.047904  1
  Hf  Hf8  1  0.614515  0.807302  0.047875  1
  Hf  Hf9  1  0.804015  0.607964  0.946292  1
  Hf  Hf10  1  0.803984  0.196016  0.946219  1
  Hf  Hf11  1  0.392036  0.195985  0.946292  1
  Hf  Hf12  1  0.458094  0.916145  0.750000  1
  Hf  Hf13  1  0.458170  0.541830  0.750000  1
  Hf  Hf14  1  0.083855  0.541906  0.750000  1
  Hf  Hf15  1  0.542020  0.084124  0.250000  1
  Hf  Hf16  1  0.542009  0.457991  0.250000  1
  Hf  Hf17  1  0.915876  0.457980  0.250000  1
  Re  Re18  1  0.110454  0.220822  0.750000  1
  Re  Re19  1  0.110459  0.889541  0.750000  1
  Re  Re20  1  0.779178  0.889546  0.750000  1
  Re  Re21  1  0.889916  0.779982  0.250000  1
  Re  Re22  1  0.889959  0.110041  0.250000  1
  Re  Re23  1  0.220018  0.110084  0.250000  1
  Re  Re24  1  0.999979  0.000021  0.500617  1
  Re  Re25  1  0.999979  0.000021  0.999383  1
  As  As26  1  0.333351  0.666649  0.250000  1
  Rh  Rh27  1  0.666730  0.333270  0.750000  1
