# generated using pymatgen
data_DyTm7(InPt)2
_symmetry_space_group_name_H-M   'P 1'
_cell_length_a   9.61187358
_cell_length_b   9.61187422
_cell_length_c   9.60383800
_cell_angle_alpha   60.02765318
_cell_angle_beta   60.02765099
_cell_angle_gamma   59.94469202
_symmetry_Int_Tables_number   1
_chemical_formula_structural   DyTm7(InPt)2
_chemical_formula_sum   'Dy2 Tm14 In4 Pt4'
_cell_volume   627.40118914
_cell_formula_units_Z   2
loop_
 _symmetry_equiv_pos_site_id
 _symmetry_equiv_pos_as_xyz
  1  'x, y, z'
loop_
 _atom_site_type_symbol
 _atom_site_label
 _atom_site_symmetry_multiplicity
 _atom_site_fract_x
 _atom_site_fract_y
 _atom_site_fract_z
 _atom_site_occupancy
  Dy  Dy0  1  0.563775  0.563775  0.936225  1
  Dy  Dy1  1  0.936225  0.936225  0.563774  1
  Tm  Tm2  1  0.351182  0.351182  0.350972  1
  Tm  Tm3  1  0.351182  0.351182  0.946663  1
  Tm  Tm4  1  0.350972  0.946663  0.351182  1
  Tm  Tm5  1  0.946663  0.350972  0.351182  1
  Tm  Tm6  1  0.810584  0.189416  0.189416  1
  Tm  Tm7  1  0.189416  0.810584  0.810584  1
  Tm  Tm8  1  0.189416  0.810584  0.189416  1
  Tm  Tm9  1  0.810584  0.189416  0.810584  1
  Tm  Tm10  1  0.189436  0.189436  0.810564  1
  Tm  Tm11  1  0.810564  0.810564  0.189436  1
  Tm  Tm12  1  0.938228  0.561772  0.561772  1
  Tm  Tm13  1  0.561772  0.938228  0.938228  1
  Tm  Tm14  1  0.561772  0.938228  0.561772  1
  Tm  Tm15  1  0.938228  0.561771  0.938228  1
  In  In16  1  0.583408  0.583408  0.582751  1
  In  In17  1  0.583408  0.583408  0.250432  1
  In  In18  1  0.582751  0.250432  0.583408  1
  In  In19  1  0.250432  0.582751  0.583408  1
  Pt  Pt20  1  0.143118  0.143118  0.141972  1
  Pt  Pt21  1  0.143118  0.143118  0.571793  1
  Pt  Pt22  1  0.141972  0.571793  0.143118  1
  Pt  Pt23  1  0.571793  0.141972  0.143118  1
