# generated using pymatgen
data_Tm2Lu8Sn5Sb
_symmetry_space_group_name_H-M   'P 1'
_cell_length_a   8.79394706
_cell_length_b   8.79394832
_cell_length_c   6.34669000
_cell_angle_alpha   90.00000000
_cell_angle_beta   90.00000000
_cell_angle_gamma   120.07916299
_symmetry_Int_Tables_number   1
_chemical_formula_structural   Tm2Lu8Sn5Sb
_chemical_formula_sum   'Tm2 Lu8 Sn5 Sb1'
_cell_volume   424.71606125
_cell_formula_units_Z   1
loop_
 _symmetry_equiv_pos_site_id
 _symmetry_equiv_pos_as_xyz
  1  'x, y, z'
loop_
 _atom_site_type_symbol
 _atom_site_label
 _atom_site_symmetry_multiplicity
 _atom_site_fract_x
 _atom_site_fract_y
 _atom_site_fract_z
 _atom_site_occupancy
  Tm  Tm0  1  0.762573  0.762573  0.750000  1
  Tm  Tm1  1  0.238087  0.238087  0.250000  1
  Lu  Lu2  1  0.667451  0.333143  0.000111  1
  Lu  Lu3  1  0.333143  0.667451  0.000111  1
  Lu  Lu4  1  0.333143  0.667451  0.499889  1
  Lu  Lu5  1  0.667451  0.333143  0.499889  1
  Lu  Lu6  1  0.237902  0.998253  0.750000  1
  Lu  Lu7  1  0.998253  0.237902  0.750000  1
  Lu  Lu8  1  0.761678  0.000492  0.250000  1
  Lu  Lu9  1  0.000492  0.761678  0.250000  1
  Sn  Sn10  1  0.604962  0.000009  0.750000  1
  Sn  Sn11  1  0.000009  0.604962  0.750000  1
  Sn  Sn12  1  0.606418  0.606418  0.250000  1
  Sn  Sn13  1  0.394743  0.000705  0.250000  1
  Sn  Sn14  1  0.000705  0.394743  0.250000  1
  Sb  Sb15  1  0.392989  0.392989  0.750000  1
