# generated using pymatgen
data_Sm2Lu3Pt4
_symmetry_space_group_name_H-M   'P 1'
_cell_length_a   7.50009700
_cell_length_b   7.57417500
_cell_length_c   14.70999300
_cell_angle_alpha   90.00000000
_cell_angle_beta   90.00000000
_cell_angle_gamma   90.00000000
_symmetry_Int_Tables_number   1
_chemical_formula_structural   Sm2Lu3Pt4
_chemical_formula_sum   'Sm8 Lu12 Pt16'
_cell_volume   835.63126659
_cell_formula_units_Z   4
loop_
 _symmetry_equiv_pos_site_id
 _symmetry_equiv_pos_as_xyz
  1  'x, y, z'
loop_
 _atom_site_type_symbol
 _atom_site_label
 _atom_site_symmetry_multiplicity
 _atom_site_fract_x
 _atom_site_fract_y
 _atom_site_fract_z
 _atom_site_occupancy
  Sm  Sm0  1  0.500627  0.678324  0.593387  1
  Sm  Sm1  1  0.000627  0.821676  0.906613  1
  Sm  Sm2  1  0.499373  0.321676  0.093387  1
  Sm  Sm3  1  0.999373  0.178324  0.406613  1
  Sm  Sm4  1  0.499373  0.321676  0.406613  1
  Sm  Sm5  1  0.999373  0.178324  0.093387  1
  Sm  Sm6  1  0.500627  0.678324  0.906613  1
  Sm  Sm7  1  0.000627  0.821676  0.593387  1
  Lu  Lu8  1  0.656311  0.167660  0.623497  1
  Lu  Lu9  1  0.156311  0.332340  0.876503  1
  Lu  Lu10  1  0.343689  0.832340  0.123497  1
  Lu  Lu11  1  0.843689  0.667660  0.376503  1
  Lu  Lu12  1  0.343689  0.832340  0.376503  1
  Lu  Lu13  1  0.843689  0.667660  0.123497  1
  Lu  Lu14  1  0.656311  0.167660  0.876503  1
  Lu  Lu15  1  0.156311  0.332340  0.623497  1
  Lu  Lu16  1  0.819677  0.508626  0.750000  1
  Lu  Lu17  1  0.319677  0.991374  0.750000  1
  Lu  Lu18  1  0.180323  0.491374  0.250000  1
  Lu  Lu19  1  0.680323  0.008626  0.250000  1
  Pt  Pt20  1  0.680188  0.963693  0.457589  1
  Pt  Pt21  1  0.180188  0.536307  0.042411  1
  Pt  Pt22  1  0.319812  0.036307  0.957589  1
  Pt  Pt23  1  0.819812  0.463693  0.542411  1
  Pt  Pt24  1  0.319812  0.036307  0.542411  1
  Pt  Pt25  1  0.819812  0.463693  0.957589  1
  Pt  Pt26  1  0.680188  0.963693  0.042411  1
  Pt  Pt27  1  0.180188  0.536307  0.457589  1
  Pt  Pt28  1  0.454501  0.379590  0.750000  1
  Pt  Pt29  1  0.954501  0.120410  0.750000  1
  Pt  Pt30  1  0.545499  0.620410  0.250000  1
  Pt  Pt31  1  0.045499  0.879590  0.250000  1
  Pt  Pt32  1  0.683389  0.860571  0.750000  1
  Pt  Pt33  1  0.183389  0.639429  0.750000  1
  Pt  Pt34  1  0.316611  0.139429  0.250000  1
  Pt  Pt35  1  0.816611  0.360571  0.250000  1
