# generated using pymatgen
data_Tb3Dy7Rh4
_symmetry_space_group_name_H-M   'P 1'
_cell_length_a   6.40039104
_cell_length_b   7.18097933
_cell_length_c   8.69597719
_cell_angle_alpha   96.80595736
_cell_angle_beta   111.86715438
_cell_angle_gamma   90.04680976
_symmetry_Int_Tables_number   1
_chemical_formula_structural   Tb3Dy7Rh4
_chemical_formula_sum   'Tb3 Dy7 Rh4'
_cell_volume   367.86737633
_cell_formula_units_Z   1
loop_
 _symmetry_equiv_pos_site_id
 _symmetry_equiv_pos_as_xyz
  1  'x, y, z'
loop_
 _atom_site_type_symbol
 _atom_site_label
 _atom_site_symmetry_multiplicity
 _atom_site_fract_x
 _atom_site_fract_y
 _atom_site_fract_z
 _atom_site_occupancy
  Tb  Tb0  1  0.790463  0.083374  0.810640  1
  Tb  Tb1  1  0.980845  0.416635  0.189750  1
  Tb  Tb2  1  0.209569  0.916596  0.189297  1
  Dy  Dy3  1  0.019035  0.583537  0.810029  1
  Dy  Dy4  1  0.210945  0.185662  0.562054  1
  Dy  Dy5  1  0.648198  0.313359  0.436400  1
  Dy  Dy6  1  0.789147  0.814113  0.437960  1
  Dy  Dy7  1  0.351732  0.686600  0.564225  1
  Dy  Dy8  1  0.426992  0.250187  0.999709  1
  Dy  Dy9  1  0.572579  0.749996  0.000092  1
  Rh  Rh10  1  0.596449  0.427812  0.778374  1
  Rh  Rh11  1  0.819770  0.071972  0.224281  1
  Rh  Rh12  1  0.404340  0.572515  0.221443  1
  Rh  Rh13  1  0.179937  0.927640  0.775746  1
