# generated using pymatgen
data_La2B6(Ir2Rh)3
_symmetry_space_group_name_H-M   'P 1'
_cell_length_a   5.71433400
_cell_length_b   5.72024750
_cell_length_c   8.62320402
_cell_angle_alpha   90.00312614
_cell_angle_beta   89.99681356
_cell_angle_gamma   120.06166002
_symmetry_Int_Tables_number   1
_chemical_formula_structural   La2B6(Ir2Rh)3
_chemical_formula_sum   'La2 B6 Ir6 Rh3'
_cell_volume   243.95490731
_cell_formula_units_Z   1
loop_
 _symmetry_equiv_pos_site_id
 _symmetry_equiv_pos_as_xyz
  1  'x, y, z'
loop_
 _atom_site_type_symbol
 _atom_site_label
 _atom_site_symmetry_multiplicity
 _atom_site_fract_x
 _atom_site_fract_y
 _atom_site_fract_z
 _atom_site_occupancy
  La  La0  1  0.999989  0.000000  0.293695  1
  La  La1  1  0.999995  0.000006  0.707834  1
  B  B2  1  0.332896  0.667186  0.000149  1
  B  B3  1  0.667082  0.332817  0.000155  1
  B  B4  1  0.333149  0.666980  0.333219  1
  B  B5  1  0.666842  0.333027  0.333222  1
  B  B6  1  0.667169  0.333807  0.666413  1
  B  B7  1  0.332822  0.666207  0.666411  1
  Ir  Ir8  1  0.499999  0.000004  0.161956  1
  Ir  Ir9  1  0.999987  0.499994  0.162560  1
  Ir  Ir10  1  0.999992  0.500006  0.836991  1
  Ir  Ir11  1  0.500009  0.999997  0.500676  1
  Ir  Ir12  1  0.499998  0.499995  0.500324  1
  Ir  Ir13  1  0.000001  0.499983  0.500107  1
  Rh  Rh14  1  0.499984  0.500006  0.162148  1
  Rh  Rh15  1  0.499995  0.999997  0.836737  1
  Rh  Rh16  1  0.499990  0.499988  0.837403  1
