# generated using pymatgen
data_Ac20CoSn8Ir3
_symmetry_space_group_name_H-M   'P 1'
_cell_length_a   8.66319484
_cell_length_b   9.74108000
_cell_length_c   13.48120200
_cell_angle_alpha   90.00000000
_cell_angle_beta   90.18435062
_cell_angle_gamma   90.00000000
_symmetry_Int_Tables_number   1
_chemical_formula_structural   Ac20CoSn8Ir3
_chemical_formula_sum   'Ac20 Co1 Sn8 Ir3'
_cell_volume   1137.65756838
_cell_formula_units_Z   1
loop_
 _symmetry_equiv_pos_site_id
 _symmetry_equiv_pos_as_xyz
  1  'x, y, z'
loop_
 _atom_site_type_symbol
 _atom_site_label
 _atom_site_symmetry_multiplicity
 _atom_site_fract_x
 _atom_site_fract_y
 _atom_site_fract_z
 _atom_site_occupancy
  Ac  Ac0  1  0.839777  0.750000  0.795272  1
  Ac  Ac1  1  0.160901  0.250000  0.208699  1
  Ac  Ac2  1  0.337654  0.250000  0.709925  1
  Ac  Ac3  1  0.661958  0.750000  0.290516  1
  Ac  Ac4  1  0.368907  0.750000  0.694633  1
  Ac  Ac5  1  0.632870  0.250000  0.305478  1
  Ac  Ac6  1  0.868948  0.250000  0.806146  1
  Ac  Ac7  1  0.131184  0.750000  0.192188  1
  Ac  Ac8  1  0.939328  0.750000  0.503274  1
  Ac  Ac9  1  0.058027  0.250000  0.497639  1
  Ac  Ac10  1  0.441081  0.250000  0.997719  1
  Ac  Ac11  1  0.558091  0.750000  0.002461  1
  Ac  Ac12  1  0.678466  0.037257  0.576754  1
  Ac  Ac13  1  0.321368  0.964006  0.423169  1
  Ac  Ac14  1  0.179040  0.961310  0.925341  1
  Ac  Ac15  1  0.321368  0.535994  0.423169  1
  Ac  Ac16  1  0.822640  0.032016  0.072443  1
  Ac  Ac17  1  0.678466  0.462743  0.576754  1
  Ac  Ac18  1  0.822640  0.467984  0.072443  1
  Ac  Ac19  1  0.179040  0.538690  0.925341  1
  Co  Co20  1  0.921340  0.750000  0.009082  1
  Sn  Sn21  1  0.564022  0.495033  0.829802  1
  Sn  Sn22  1  0.437573  0.504457  0.170502  1
  Sn  Sn23  1  0.063294  0.505406  0.671122  1
  Sn  Sn24  1  0.437573  0.995543  0.170502  1
  Sn  Sn25  1  0.936941  0.495137  0.328949  1
  Sn  Sn26  1  0.564022  0.004967  0.829802  1
  Sn  Sn27  1  0.936941  0.004863  0.328949  1
  Sn  Sn28  1  0.063294  0.994594  0.671122  1
  Ir  Ir29  1  0.572299  0.750000  0.507317  1
  Ir  Ir30  1  0.425571  0.250000  0.492216  1
  Ir  Ir31  1  0.075376  0.250000  0.991268  1
