# generated using pymatgen
data_Er4LuSi10P2Ir19
_symmetry_space_group_name_H-M   'P 1'
_cell_length_a   12.82452711
_cell_length_b   12.82452765
_cell_length_c   3.94728200
_cell_angle_alpha   90.00000000
_cell_angle_beta   90.00000000
_cell_angle_gamma   120.14344106
_symmetry_Int_Tables_number   1
_chemical_formula_structural   Er4LuSi10P2Ir19
_chemical_formula_sum   'Er4 Lu1 Si10 P2 Ir19'
_cell_volume   561.41236712
_cell_formula_units_Z   1
loop_
 _symmetry_equiv_pos_site_id
 _symmetry_equiv_pos_as_xyz
  1  'x, y, z'
loop_
 _atom_site_type_symbol
 _atom_site_label
 _atom_site_symmetry_multiplicity
 _atom_site_fract_x
 _atom_site_fract_y
 _atom_site_fract_z
 _atom_site_occupancy
  Er  Er0  1  0.666604  0.333629  0.000000  1
  Er  Er1  1  0.333629  0.666604  0.000000  1
  Er  Er2  1  0.186633  0.001156  0.500000  1
  Er  Er3  1  0.001156  0.186633  0.500000  1
  Lu  Lu4  1  0.812139  0.812139  0.500000  1
  Si  Si5  1  0.686403  0.167453  0.500000  1
  Si  Si6  1  0.831959  0.518507  0.500000  1
  Si  Si7  1  0.481066  0.312639  0.500000  1
  Si  Si8  1  0.167453  0.686403  0.500000  1
  Si  Si9  1  0.518507  0.831959  0.500000  1
  Si  Si10  1  0.312639  0.481066  0.500000  1
  Si  Si11  1  0.633468  0.633468  0.000000  1
  Si  Si12  1  0.367447  0.000194  0.000000  1
  Si  Si13  1  0.000194  0.367447  0.000000  1
  Si  Si14  1  0.177927  0.177927  0.000000  1
  P  P15  1  0.821335  0.000747  0.000000  1
  P  P16  1  0.000747  0.821335  0.000000  1
  Ir  Ir17  1  0.807061  0.180137  0.000000  1
  Ir  Ir18  1  0.820220  0.628305  0.000000  1
  Ir  Ir19  1  0.375223  0.193361  0.000000  1
  Ir  Ir20  1  0.180137  0.807061  0.000000  1
  Ir  Ir21  1  0.628305  0.820220  0.000000  1
  Ir  Ir22  1  0.193361  0.375223  0.000000  1
  Ir  Ir23  1  0.447855  0.447855  0.000000  1
  Ir  Ir24  1  0.552699  0.998800  0.000000  1
  Ir  Ir25  1  0.998800  0.552699  0.000000  1
  Ir  Ir26  1  0.281098  0.281098  0.500000  1
  Ir  Ir27  1  0.721798  0.999961  0.500000  1
  Ir  Ir28  1  0.999961  0.721798  0.500000  1
  Ir  Ir29  1  0.871844  0.359665  0.500000  1
  Ir  Ir30  1  0.640459  0.512673  0.500000  1
  Ir  Ir31  1  0.487719  0.126527  0.500000  1
  Ir  Ir32  1  0.359665  0.871844  0.500000  1
  Ir  Ir33  1  0.512673  0.640459  0.500000  1
  Ir  Ir34  1  0.126527  0.487719  0.500000  1
  Ir  Ir35  1  0.995292  0.995292  0.000000  1
