# generated using pymatgen
data_La4Yb3Pr3Ru4
_symmetry_space_group_name_H-M   'P 1'
_cell_length_a   8.93987779
_cell_length_b   8.96744611
_cell_length_c   7.42893800
_cell_angle_alpha   84.27841053
_cell_angle_beta   84.04711057
_cell_angle_gamma   43.59443955
_symmetry_Int_Tables_number   1
_chemical_formula_structural   La4Yb3Pr3Ru4
_chemical_formula_sum   'La4 Yb3 Pr3 Ru4'
_cell_volume   408.19242611
_cell_formula_units_Z   1
loop_
 _symmetry_equiv_pos_site_id
 _symmetry_equiv_pos_as_xyz
  1  'x, y, z'
loop_
 _atom_site_type_symbol
 _atom_site_label
 _atom_site_symmetry_multiplicity
 _atom_site_fract_x
 _atom_site_fract_y
 _atom_site_fract_z
 _atom_site_occupancy
  La  La0  1  0.010613  0.801610  0.906876  1
  La  La1  1  0.204368  0.986729  0.597714  1
  La  La2  1  0.987944  0.201725  0.095351  1
  La  La3  1  0.802385  0.007300  0.406885  1
  Yb  Yb4  1  0.366064  0.207541  0.818148  1
  Yb  Yb5  1  0.791607  0.635690  0.682829  1
  Yb  Yb6  1  0.632772  0.794848  0.183138  1
  Pr  Pr7  1  0.208782  0.365179  0.317888  1
  Pr  Pr8  1  0.573591  0.426299  0.747636  1
  Pr  Pr9  1  0.429190  0.573404  0.248647  1
  Ru  Ru10  1  0.157922  0.624280  0.586898  1
  Ru  Ru11  1  0.367738  0.841147  0.908258  1
  Ru  Ru12  1  0.845389  0.372273  0.406724  1
  Ru  Ru13  1  0.621635  0.161975  0.093007  1
