# generated using pymatgen
data_YLu(FeB)8
_symmetry_space_group_name_H-M   'P 1'
_cell_length_a   6.92268600
_cell_length_b   6.92268600
_cell_length_c   3.82858800
_cell_angle_alpha   90.00000000
_cell_angle_beta   90.00000000
_cell_angle_gamma   90.00000000
_symmetry_Int_Tables_number   1
_chemical_formula_structural   YLu(FeB)8
_chemical_formula_sum   'Y1 Lu1 Fe8 B8'
_cell_volume   183.47964887
_cell_formula_units_Z   1
loop_
 _symmetry_equiv_pos_site_id
 _symmetry_equiv_pos_as_xyz
  1  'x, y, z'
loop_
 _atom_site_type_symbol
 _atom_site_label
 _atom_site_symmetry_multiplicity
 _atom_site_fract_x
 _atom_site_fract_y
 _atom_site_fract_z
 _atom_site_occupancy
  Y  Y0  1  0.500000  0.500000  0.500000  1
  Lu  Lu1  1  0.000000  0.000000  0.000000  1
  Fe  Fe2  1  0.868603  0.383638  0.109837  1
  Fe  Fe3  1  0.131397  0.616362  0.109837  1
  Fe  Fe4  1  0.885356  0.632823  0.610501  1
  Fe  Fe5  1  0.114644  0.367177  0.610501  1
  Fe  Fe6  1  0.632823  0.114644  0.389499  1
  Fe  Fe7  1  0.367177  0.885356  0.389499  1
  Fe  Fe8  1  0.616362  0.868603  0.890163  1
  Fe  Fe9  1  0.383638  0.131397  0.890163  1
  B  B10  1  0.331833  0.804089  0.893473  1
  B  B11  1  0.668167  0.195911  0.893473  1
  B  B12  1  0.299331  0.166326  0.392803  1
  B  B13  1  0.700669  0.833674  0.392803  1
  B  B14  1  0.166326  0.700669  0.607197  1
  B  B15  1  0.833674  0.299331  0.607197  1
  B  B16  1  0.195911  0.331833  0.106527  1
  B  B17  1  0.804089  0.668167  0.106527  1
