# generated using pymatgen
data_SmLuUNi3Sb4
_symmetry_space_group_name_H-M   'P 1'
_cell_length_a   8.12184877
_cell_length_b   8.12204763
_cell_length_c   8.12184908
_cell_angle_alpha   109.72072942
_cell_angle_beta   108.85018056
_cell_angle_gamma   109.84353499
_symmetry_Int_Tables_number   1
_chemical_formula_structural   SmLuUNi3Sb4
_chemical_formula_sum   'Sm2 Lu2 U2 Ni6 Sb8'
_cell_volume   412.40149254
_cell_formula_units_Z   2
loop_
 _symmetry_equiv_pos_site_id
 _symmetry_equiv_pos_as_xyz
  1  'x, y, z'
loop_
 _atom_site_type_symbol
 _atom_site_label
 _atom_site_symmetry_multiplicity
 _atom_site_fract_x
 _atom_site_fract_y
 _atom_site_fract_z
 _atom_site_occupancy
  Sm  Sm0  1  0.249995  0.126307  0.876324  1
  Sm  Sm1  1  0.750017  0.373693  0.623688  1
  Lu  Lu2  1  0.873537  0.250000  0.123537  1
  Lu  Lu3  1  0.626492  0.750000  0.376492  1
  U  U4  1  0.126003  0.876008  0.250008  1
  U  U5  1  0.374000  0.623992  0.749995  1
  Ni  Ni6  1  0.370293  0.250000  0.620293  1
  Ni  Ni7  1  0.129685  0.750000  0.879685  1
  Ni  Ni8  1  0.249994  0.625867  0.375871  1
  Ni  Ni9  1  0.750004  0.874133  0.124127  1
  Ni  Ni10  1  0.628539  0.378532  0.249998  1
  Ni  Ni11  1  0.871466  0.121468  0.750007  1
  Sb  Sb12  1  0.660455  0.502931  0.003086  1
  Sb  Sb13  1  0.500155  0.997069  0.657524  1
  Sb  Sb14  1  0.999842  0.657370  0.496898  1
  Sb  Sb15  1  0.839528  0.842630  0.842472  1
  Sb  Sb16  1  0.502102  0.001040  0.158837  1
  Sb  Sb17  1  0.157797  0.498960  0.001063  1
  Sb  Sb18  1  0.997886  0.156724  0.498934  1
  Sb  Sb19  1  0.342210  0.343276  0.341162  1
