# generated using pymatgen
data_Ca6Ti4Al43
_symmetry_space_group_name_H-M   'P 1'
_cell_length_a   11.04570900
_cell_length_b   11.04570923
_cell_length_c   17.69112600
_cell_angle_alpha   90.00000000
_cell_angle_beta   90.00000000
_cell_angle_gamma   120.00000829
_symmetry_Int_Tables_number   1
_chemical_formula_structural   Ca6Ti4Al43
_chemical_formula_sum   'Ca12 Ti8 Al86'
_cell_volume   1869.27533400
_cell_formula_units_Z   2
loop_
 _symmetry_equiv_pos_site_id
 _symmetry_equiv_pos_as_xyz
  1  'x, y, z'
loop_
 _atom_site_type_symbol
 _atom_site_label
 _atom_site_symmetry_multiplicity
 _atom_site_fract_x
 _atom_site_fract_y
 _atom_site_fract_z
 _atom_site_occupancy
  Ca  Ca0  1  0.531283  0.000000  0.594748  1
  Ca  Ca1  1  0.468717  0.000000  0.405252  1
  Ca  Ca2  1  0.000000  0.531283  0.594748  1
  Ca  Ca3  1  0.468717  0.000000  0.094748  1
  Ca  Ca4  1  0.000000  0.531283  0.905252  1
  Ca  Ca5  1  0.000000  0.468717  0.405252  1
  Ca  Ca6  1  0.531283  0.000000  0.905252  1
  Ca  Ca7  1  0.000000  0.468717  0.094748  1
  Ca  Ca8  1  0.468717  0.468717  0.594748  1
  Ca  Ca9  1  0.531283  0.531283  0.405252  1
  Ca  Ca10  1  0.531283  0.531283  0.094748  1
  Ca  Ca11  1  0.468717  0.468717  0.905252  1
  Ti  Ti12  1  0.000000  0.000000  0.500000  1
  Ti  Ti13  1  0.000000  0.000000  0.000000  1
  Ti  Ti14  1  0.729021  0.000000  0.750000  1
  Ti  Ti15  1  0.270979  0.000000  0.250000  1
  Ti  Ti16  1  0.000000  0.729021  0.750000  1
  Ti  Ti17  1  0.000000  0.270979  0.250000  1
  Ti  Ti18  1  0.270979  0.270979  0.750000  1
  Ti  Ti19  1  0.729021  0.729021  0.250000  1
  Al  Al20  1  0.150646  0.598573  0.750000  1
  Al  Al21  1  0.849354  0.401427  0.250000  1
  Al  Al22  1  0.401427  0.552073  0.750000  1
  Al  Al23  1  0.598573  0.150646  0.750000  1
  Al  Al24  1  0.598573  0.447927  0.250000  1
  Al  Al25  1  0.401427  0.849354  0.250000  1
  Al  Al26  1  0.447927  0.849354  0.750000  1
  Al  Al27  1  0.552073  0.401427  0.750000  1
  Al  Al28  1  0.552073  0.150646  0.250000  1
  Al  Al29  1  0.447927  0.598573  0.250000  1
  Al  Al30  1  0.849354  0.447927  0.750000  1
  Al  Al31  1  0.150646  0.552073  0.250000  1
  Al  Al32  1  0.155157  0.000000  0.116077  1
  Al  Al33  1  0.844843  0.000000  0.883923  1
  Al  Al34  1  0.000000  0.155157  0.116077  1
  Al  Al35  1  0.844843  0.000000  0.616077  1
  Al  Al36  1  0.000000  0.155157  0.383923  1
  Al  Al37  1  0.000000  0.844843  0.883923  1
  Al  Al38  1  0.155157  0.000000  0.383923  1
  Al  Al39  1  0.000000  0.844843  0.616077  1
  Al  Al40  1  0.844843  0.844843  0.116077  1
  Al  Al41  1  0.155157  0.155157  0.883923  1
  Al  Al42  1  0.155157  0.155157  0.616077  1
  Al  Al43  1  0.844843  0.844843  0.383923  1
  Al  Al44  1  0.246845  0.493691  0.500000  1
  Al  Al45  1  0.753155  0.506309  0.500000  1
  Al  Al46  1  0.506309  0.753155  0.500000  1
  Al  Al47  1  0.753155  0.506309  0.000000  1
  Al  Al48  1  0.493691  0.246845  0.000000  1
  Al  Al49  1  0.493691  0.246845  0.500000  1
  Al  Al50  1  0.246845  0.493691  0.000000  1
  Al  Al51  1  0.506309  0.753155  0.000000  1
  Al  Al52  1  0.246845  0.753155  0.500000  1
  Al  Al53  1  0.753155  0.246845  0.500000  1
  Al  Al54  1  0.753155  0.246845  0.000000  1
  Al  Al55  1  0.246845  0.753155  0.000000  1
  Al  Al56  1  0.147521  0.000000  0.750000  1
  Al  Al57  1  0.852479  0.000000  0.250000  1
  Al  Al58  1  0.000000  0.147521  0.750000  1
  Al  Al59  1  0.000000  0.852479  0.250000  1
  Al  Al60  1  0.852479  0.852479  0.750000  1
  Al  Al61  1  0.147521  0.147521  0.250000  1
  Al  Al62  1  0.333333  0.666667  0.625497  1
  Al  Al63  1  0.666667  0.333333  0.374503  1
  Al  Al64  1  0.666667  0.333333  0.125497  1
  Al  Al65  1  0.666667  0.333333  0.874503  1
  Al  Al66  1  0.333333  0.666667  0.874503  1
  Al  Al67  1  0.333333  0.666667  0.125497  1
  Al  Al68  1  0.333333  0.666667  0.374503  1
  Al  Al69  1  0.666667  0.333333  0.625497  1
  Al  Al70  1  0.250696  0.000000  0.531008  1
  Al  Al71  1  0.749304  0.000000  0.468992  1
  Al  Al72  1  0.000000  0.250696  0.531008  1
  Al  Al73  1  0.749304  0.000000  0.031008  1
  Al  Al74  1  0.000000  0.250696  0.968992  1
  Al  Al75  1  0.000000  0.749304  0.468992  1
  Al  Al76  1  0.250696  0.000000  0.968992  1
  Al  Al77  1  0.000000  0.749304  0.031008  1
  Al  Al78  1  0.749304  0.749304  0.531008  1
  Al  Al79  1  0.250696  0.250696  0.468992  1
  Al  Al80  1  0.250696  0.250696  0.031008  1
  Al  Al81  1  0.749304  0.749304  0.968992  1
  Al  Al82  1  0.157095  0.392281  0.664028  1
  Al  Al83  1  0.842905  0.607719  0.335972  1
  Al  Al84  1  0.607719  0.764813  0.664028  1
  Al  Al85  1  0.842905  0.607719  0.164028  1
  Al  Al86  1  0.392281  0.157095  0.835972  1
  Al  Al87  1  0.392281  0.235187  0.335972  1
  Al  Al88  1  0.157095  0.392281  0.835972  1
  Al  Al89  1  0.607719  0.842905  0.164028  1
  Al  Al90  1  0.235187  0.842905  0.664028  1
  Al  Al91  1  0.392281  0.235187  0.164028  1
  Al  Al92  1  0.764813  0.607719  0.835972  1
  Al  Al93  1  0.764813  0.157095  0.335972  1
  Al  Al94  1  0.607719  0.764813  0.835972  1
  Al  Al95  1  0.235187  0.392281  0.164028  1
  Al  Al96  1  0.607719  0.842905  0.335972  1
  Al  Al97  1  0.392281  0.157095  0.664028  1
  Al  Al98  1  0.764813  0.157095  0.164028  1
  Al  Al99  1  0.235187  0.392281  0.335972  1
  Al  Al100  1  0.235187  0.842905  0.835972  1
  Al  Al101  1  0.764813  0.607719  0.664028  1
  Al  Al102  1  0.842905  0.235187  0.835972  1
  Al  Al103  1  0.157095  0.764813  0.164028  1
  Al  Al104  1  0.157095  0.764813  0.335972  1
  Al  Al105  1  0.842905  0.235187  0.664028  1
