# generated using pymatgen
data_Sr4Ca6Al3GaSb12
_symmetry_space_group_name_H-M   'P 1'
_cell_length_a   4.60925000
_cell_length_b   12.35636004
_cell_length_c   14.15452704
_cell_angle_alpha   90.00875362
_cell_angle_beta   90.00000000
_cell_angle_gamma   90.00000000
_symmetry_Int_Tables_number   1
_chemical_formula_structural   Sr4Ca6Al3GaSb12
_chemical_formula_sum   'Sr4 Ca6 Al3 Ga1 Sb12'
_cell_volume   806.15058950
_cell_formula_units_Z   1
loop_
 _symmetry_equiv_pos_site_id
 _symmetry_equiv_pos_as_xyz
  1  'x, y, z'
loop_
 _atom_site_type_symbol
 _atom_site_label
 _atom_site_symmetry_multiplicity
 _atom_site_fract_x
 _atom_site_fract_y
 _atom_site_fract_z
 _atom_site_occupancy
  Sr  Sr0  1  0.500000  0.672634  0.477306  1
  Sr  Sr1  1  0.500000  0.327588  0.522667  1
  Sr  Sr2  1  0.500000  0.827412  0.977335  1
  Sr  Sr3  1  0.500000  0.172727  0.023537  1
  Ca  Ca4  1  0.500000  0.999535  0.500164  1
  Ca  Ca5  1  0.500000  0.499889  0.000048  1
  Ca  Ca6  1  0.500000  0.908702  0.249918  1
  Ca  Ca7  1  0.500000  0.091090  0.750101  1
  Ca  Ca8  1  0.500000  0.408957  0.249915  1
  Ca  Ca9  1  0.500000  0.591110  0.749954  1
  Al  Al10  1  0.000000  0.324675  0.712353  1
  Al  Al11  1  0.000000  0.675426  0.287602  1
  Al  Al12  1  0.000000  0.824551  0.787588  1
  Ga  Ga13  1  0.000000  0.175681  0.211978  1
  Sb  Sb14  1  0.000000  0.979621  0.101851  1
  Sb  Sb15  1  0.000000  0.019403  0.897777  1
  Sb  Sb16  1  0.000000  0.480652  0.397545  1
  Sb  Sb17  1  0.000000  0.519420  0.602342  1
  Sb  Sb18  1  0.500000  0.160585  0.319190  1
  Sb  Sb19  1  0.500000  0.839076  0.681748  1
  Sb  Sb20  1  0.500000  0.660885  0.181793  1
  Sb  Sb21  1  0.500000  0.339060  0.818239  1
  Sb  Sb22  1  0.000000  0.355488  0.098696  1
  Sb  Sb23  1  0.000000  0.645780  0.900561  1
  Sb  Sb24  1  0.000000  0.854140  0.400673  1
  Sb  Sb25  1  0.000000  0.145913  0.599118  1
