# generated using pymatgen
data_Yb3Dy2Y(CoSn6)2
_symmetry_space_group_name_H-M   'P 1'
_cell_length_a   8.41696433
_cell_length_b   8.41696467
_cell_length_c   13.23181500
_cell_angle_alpha   90.02931575
_cell_angle_beta   89.97068354
_cell_angle_gamma   148.03285555
_symmetry_Int_Tables_number   1
_chemical_formula_structural   Yb3Dy2Y(CoSn6)2
_chemical_formula_sum   'Yb3 Dy2 Y1 Co2 Sn12'
_cell_volume   496.29654799
_cell_formula_units_Z   1
loop_
 _symmetry_equiv_pos_site_id
 _symmetry_equiv_pos_as_xyz
  1  'x, y, z'
loop_
 _atom_site_type_symbol
 _atom_site_label
 _atom_site_symmetry_multiplicity
 _atom_site_fract_x
 _atom_site_fract_y
 _atom_site_fract_z
 _atom_site_occupancy
  Yb  Yb0  1  0.100376  0.899624  0.597178  1
  Yb  Yb1  1  0.100705  0.899295  0.903571  1
  Yb  Yb2  1  0.899978  0.100022  0.402637  1
  Dy  Dy3  1  0.901145  0.098855  0.753944  1
  Dy  Dy4  1  0.098903  0.901097  0.248025  1
  Y  Y5  1  0.898198  0.101802  0.094562  1
  Co  Co6  1  0.298877  0.701123  0.249514  1
  Co  Co7  1  0.703034  0.296966  0.750229  1
  Sn  Sn8  1  0.758412  0.241588  0.572249  1
  Sn  Sn9  1  0.425993  0.574007  0.578636  1
  Sn  Sn10  1  0.573347  0.426653  0.422590  1
  Sn  Sn11  1  0.733331  0.266669  0.248555  1
  Sn  Sn12  1  0.267145  0.732855  0.750158  1
  Sn  Sn13  1  0.241046  0.758954  0.072115  1
  Sn  Sn14  1  0.242505  0.757495  0.427449  1
  Sn  Sn15  1  0.572234  0.427766  0.075722  1
  Sn  Sn16  1  0.454867  0.545133  0.248796  1
  Sn  Sn17  1  0.545824  0.454176  0.750282  1
  Sn  Sn18  1  0.757392  0.242608  0.929018  1
  Sn  Sn19  1  0.426685  0.573315  0.924771  1
