# generated using pymatgen
data_SmY7(SiBr6)2
_symmetry_space_group_name_H-M   'P 1'
_cell_length_a   4.08196600
_cell_length_b   13.31316837
_cell_length_c   14.07662218
_cell_angle_alpha   90.28971492
_cell_angle_beta   90.00000000
_cell_angle_gamma   90.00000000
_symmetry_Int_Tables_number   1
_chemical_formula_structural   SmY7(SiBr6)2
_chemical_formula_sum   'Sm1 Y7 Si2 Br12'
_cell_volume   764.96877753
_cell_formula_units_Z   1
loop_
 _symmetry_equiv_pos_site_id
 _symmetry_equiv_pos_as_xyz
  1  'x, y, z'
loop_
 _atom_site_type_symbol
 _atom_site_label
 _atom_site_symmetry_multiplicity
 _atom_site_fract_x
 _atom_site_fract_y
 _atom_site_fract_z
 _atom_site_occupancy
  Sm  Sm0  1  0.000000  0.380758  0.079487  1
  Y  Y1  1  0.500000  0.117240  0.342225  1
  Y  Y2  1  0.500000  0.881779  0.658686  1
  Y  Y3  1  0.500000  0.619405  0.158556  1
  Y  Y4  1  0.500000  0.382408  0.840362  1
  Y  Y5  1  0.000000  0.117433  0.578682  1
  Y  Y6  1  0.000000  0.882261  0.421991  1
  Y  Y7  1  0.000000  0.618309  0.921422  1
  Si  Si8  1  0.500000  0.999701  0.500557  1
  Si  Si9  1  0.500000  0.501300  0.999211  1
  Br  Br10  1  0.500000  0.240508  0.165041  1
  Br  Br11  1  0.500000  0.754970  0.835565  1
  Br  Br12  1  0.500000  0.746779  0.336363  1
  Br  Br13  1  0.500000  0.254126  0.662997  1
  Br  Br14  1  0.000000  0.254318  0.412355  1
  Br  Br15  1  0.000000  0.745157  0.588135  1
  Br  Br16  1  0.000000  0.755794  0.088698  1
  Br  Br17  1  0.000000  0.244979  0.907418  1
  Br  Br18  1  0.000000  0.000737  0.244484  1
  Br  Br19  1  0.000000  0.997988  0.756466  1
  Br  Br20  1  0.000000  0.506240  0.258504  1
  Br  Br21  1  0.000000  0.497810  0.742796  1
