# generated using pymatgen
data_LuFe3P2
_symmetry_space_group_name_H-M   'P 1'
_cell_length_a   3.65454700
_cell_length_b   10.42839900
_cell_length_c   12.12902100
_cell_angle_alpha   90.00000000
_cell_angle_beta   90.00000000
_cell_angle_gamma   90.00000000
_symmetry_Int_Tables_number   1
_chemical_formula_structural   LuFe3P2
_chemical_formula_sum   'Lu6 Fe18 P12'
_cell_volume   462.25002028
_cell_formula_units_Z   6
loop_
 _symmetry_equiv_pos_site_id
 _symmetry_equiv_pos_as_xyz
  1  'x, y, z'
loop_
 _atom_site_type_symbol
 _atom_site_label
 _atom_site_symmetry_multiplicity
 _atom_site_fract_x
 _atom_site_fract_y
 _atom_site_fract_z
 _atom_site_occupancy
  Lu  Lu0  1  0.000000  0.500000  0.526218  1
  Lu  Lu1  1  0.500000  0.000000  0.473782  1
  Lu  Lu2  1  0.500000  0.820804  0.207137  1
  Lu  Lu3  1  0.500000  0.179196  0.207137  1
  Lu  Lu4  1  0.000000  0.679196  0.792863  1
  Lu  Lu5  1  0.000000  0.320804  0.792863  1
  Fe  Fe6  1  0.500000  0.500000  0.154161  1
  Fe  Fe7  1  0.000000  0.000000  0.845839  1
  Fe  Fe8  1  0.500000  0.500000  0.699021  1
  Fe  Fe9  1  0.000000  0.000000  0.300979  1
  Fe  Fe10  1  0.000000  0.500000  0.989969  1
  Fe  Fe11  1  0.500000  0.000000  0.010031  1
  Fe  Fe12  1  0.500000  0.327648  0.996285  1
  Fe  Fe13  1  0.500000  0.672352  0.996285  1
  Fe  Fe14  1  0.000000  0.172352  0.003715  1
  Fe  Fe15  1  0.000000  0.827648  0.003715  1
  Fe  Fe16  1  0.500000  0.299726  0.430703  1
  Fe  Fe17  1  0.500000  0.700274  0.430703  1
  Fe  Fe18  1  0.000000  0.200274  0.569297  1
  Fe  Fe19  1  0.000000  0.799726  0.569297  1
  Fe  Fe20  1  0.500000  0.881883  0.707505  1
  Fe  Fe21  1  0.500000  0.118117  0.707505  1
  Fe  Fe22  1  0.000000  0.618117  0.292495  1
  Fe  Fe23  1  0.000000  0.381883  0.292495  1
  P  P24  1  0.500000  0.500000  0.882158  1
  P  P25  1  0.000000  0.000000  0.117842  1
  P  P26  1  0.500000  0.500000  0.341661  1
  P  P27  1  0.000000  0.000000  0.658339  1
  P  P28  1  0.500000  0.307744  0.615129  1
  P  P29  1  0.500000  0.692256  0.615129  1
  P  P30  1  0.000000  0.192256  0.384871  1
  P  P31  1  0.000000  0.807744  0.384871  1
  P  P32  1  0.500000  0.850391  0.886773  1
  P  P33  1  0.500000  0.149609  0.886773  1
  P  P34  1  0.000000  0.649609  0.113227  1
  P  P35  1  0.000000  0.350391  0.113227  1
