# generated using pymatgen
data_Tb4As6Ru4Rh3
_symmetry_space_group_name_H-M   'P 1'
_cell_length_a   7.26839883
_cell_length_b   7.26683619
_cell_length_c   7.26683802
_cell_angle_alpha   109.46687213
_cell_angle_beta   109.47557616
_cell_angle_gamma   109.47557448
_symmetry_Int_Tables_number   1
_chemical_formula_structural   Tb4As6Ru4Rh3
_chemical_formula_sum   'Tb4 As6 Ru4 Rh3'
_cell_volume   295.45022926
_cell_formula_units_Z   1
loop_
 _symmetry_equiv_pos_site_id
 _symmetry_equiv_pos_as_xyz
  1  'x, y, z'
loop_
 _atom_site_type_symbol
 _atom_site_label
 _atom_site_symmetry_multiplicity
 _atom_site_fract_x
 _atom_site_fract_y
 _atom_site_fract_z
 _atom_site_occupancy
  Tb  Tb0  1  0.000592  0.001184  0.500592  1
  Tb  Tb1  1  0.500000  0.000000  0.000000  1
  Tb  Tb2  1  0.999408  0.499408  0.998816  1
  Tb  Tb3  1  0.500000  0.499408  0.500592  1
  As  As4  1  0.679484  0.679200  0.995557  1
  As  As5  1  0.316073  0.316357  0.995557  1
  As  As6  1  0.999716  0.679200  0.683643  1
  As  As7  1  0.000284  0.316357  0.320800  1
  As  As8  1  0.683927  0.004443  0.683643  1
  As  As9  1  0.320516  0.004443  0.320800  1
  Ru  Ru10  1  0.000000  0.000000  0.000000  1
  Ru  Ru11  1  0.249292  0.498585  0.749292  1
  Ru  Ru12  1  0.750708  0.250708  0.501415  1
  Ru  Ru13  1  0.500000  0.250708  0.749292  1
  Rh  Rh14  1  0.500000  0.751229  0.248771  1
  Rh  Rh15  1  0.748771  0.497542  0.248771  1
  Rh  Rh16  1  0.251229  0.751229  0.502458  1
