# generated using pymatgen
data_TbCe(InNi2)2
_symmetry_space_group_name_H-M   'P 1'
_cell_length_a   5.11392300
_cell_length_b   4.04691800
_cell_length_c   7.01611800
_cell_angle_alpha   90.00000000
_cell_angle_beta   90.00000000
_cell_angle_gamma   90.00000000
_symmetry_Int_Tables_number   1
_chemical_formula_structural   TbCe(InNi2)2
_chemical_formula_sum   'Tb1 Ce1 In2 Ni4'
_cell_volume   145.20296139
_cell_formula_units_Z   1
loop_
 _symmetry_equiv_pos_site_id
 _symmetry_equiv_pos_as_xyz
  1  'x, y, z'
loop_
 _atom_site_type_symbol
 _atom_site_label
 _atom_site_symmetry_multiplicity
 _atom_site_fract_x
 _atom_site_fract_y
 _atom_site_fract_z
 _atom_site_occupancy
  Tb  Tb0  1  0.250000  0.500000  0.732485  1
  Ce  Ce1  1  0.750000  0.500000  0.253875  1
  In  In2  1  0.250000  0.000000  0.360277  1
  In  In3  1  0.750000  0.000000  0.644913  1
  Ni  Ni4  1  0.003543  0.000000  0.999572  1
  Ni  Ni5  1  0.496457  0.000000  0.999572  1
  Ni  Ni6  1  0.250000  0.500000  0.123146  1
  Ni  Ni7  1  0.750000  0.500000  0.886162  1
