# generated using pymatgen
data_Nd4Er(TlBi)2
_symmetry_space_group_name_H-M   'P 1'
_cell_length_a   8.38009300
_cell_length_b   8.38686700
_cell_length_c   16.03893000
_cell_angle_alpha   90.00000000
_cell_angle_beta   90.00000000
_cell_angle_gamma   90.00000000
_symmetry_Int_Tables_number   1
_chemical_formula_structural   Nd4Er(TlBi)2
_chemical_formula_sum   'Nd16 Er4 Tl8 Bi8'
_cell_volume   1127.25971352
_cell_formula_units_Z   4
loop_
 _symmetry_equiv_pos_site_id
 _symmetry_equiv_pos_as_xyz
  1  'x, y, z'
loop_
 _atom_site_type_symbol
 _atom_site_label
 _atom_site_symmetry_multiplicity
 _atom_site_fract_x
 _atom_site_fract_y
 _atom_site_fract_z
 _atom_site_occupancy
  Nd  Nd0  1  0.043053  0.175698  0.394405  1
  Nd  Nd1  1  0.384239  0.837725  0.121136  1
  Nd  Nd2  1  0.115761  0.337725  0.621136  1
  Nd  Nd3  1  0.456947  0.675698  0.894405  1
  Nd  Nd4  1  0.884239  0.662275  0.121136  1
  Nd  Nd5  1  0.115761  0.337725  0.878864  1
  Nd  Nd6  1  0.456947  0.675698  0.605595  1
  Nd  Nd7  1  0.615761  0.162275  0.621136  1
  Nd  Nd8  1  0.884239  0.662275  0.378864  1
  Nd  Nd9  1  0.043053  0.175698  0.105595  1
  Nd  Nd10  1  0.956947  0.824302  0.894405  1
  Nd  Nd11  1  0.615761  0.162275  0.878864  1
  Nd  Nd12  1  0.543053  0.324302  0.105595  1
  Nd  Nd13  1  0.384239  0.837725  0.378864  1
  Nd  Nd14  1  0.956947  0.824302  0.605595  1
  Nd  Nd15  1  0.543053  0.324302  0.394405  1
  Er  Er16  1  0.215545  0.497702  0.250000  1
  Er  Er17  1  0.715545  0.002298  0.250000  1
  Er  Er18  1  0.284455  0.997702  0.750000  1
  Er  Er19  1  0.784455  0.502298  0.750000  1
  Tl  Tl20  1  0.655828  0.857542  0.750000  1
  Tl  Tl21  1  0.844172  0.357542  0.250000  1
  Tl  Tl22  1  0.581425  0.620213  0.250000  1
  Tl  Tl23  1  0.418575  0.379787  0.750000  1
  Tl  Tl24  1  0.155828  0.642458  0.750000  1
  Tl  Tl25  1  0.918575  0.120213  0.750000  1
  Tl  Tl26  1  0.344172  0.142458  0.250000  1
  Tl  Tl27  1  0.081425  0.879787  0.250000  1
  Bi  Bi28  1  0.775679  0.477707  0.546790  1
  Bi  Bi29  1  0.724321  0.977707  0.453210  1
  Bi  Bi30  1  0.224321  0.522293  0.453210  1
  Bi  Bi31  1  0.275679  0.022293  0.953210  1
  Bi  Bi32  1  0.775679  0.477707  0.953210  1
  Bi  Bi33  1  0.224321  0.522293  0.046790  1
  Bi  Bi34  1  0.275679  0.022293  0.546790  1
  Bi  Bi35  1  0.724321  0.977707  0.046790  1
