# generated using pymatgen
data_Tb16Cd4FePt3
_symmetry_space_group_name_H-M   'P 1'
_cell_length_a   9.68639988
_cell_length_b   9.68639950
_cell_length_c   9.68639969
_cell_angle_alpha   59.87465264
_cell_angle_beta   59.87465344
_cell_angle_gamma   59.87465399
_symmetry_Int_Tables_number   1
_chemical_formula_structural   Tb16Cd4FePt3
_chemical_formula_sum   'Tb16 Cd4 Fe1 Pt3'
_cell_volume   640.81873147
_cell_formula_units_Z   1
loop_
 _symmetry_equiv_pos_site_id
 _symmetry_equiv_pos_as_xyz
  1  'x, y, z'
loop_
 _atom_site_type_symbol
 _atom_site_label
 _atom_site_symmetry_multiplicity
 _atom_site_fract_x
 _atom_site_fract_y
 _atom_site_fract_z
 _atom_site_occupancy
  Tb  Tb0  1  0.352014  0.352014  0.352014  1
  Tb  Tb1  1  0.346607  0.346607  0.950608  1
  Tb  Tb2  1  0.346607  0.950608  0.346607  1
  Tb  Tb3  1  0.950608  0.346607  0.346607  1
  Tb  Tb4  1  0.819819  0.188630  0.188630  1
  Tb  Tb5  1  0.189088  0.809714  0.809714  1
  Tb  Tb6  1  0.188630  0.819819  0.188630  1
  Tb  Tb7  1  0.809714  0.189088  0.809714  1
  Tb  Tb8  1  0.188630  0.188630  0.819819  1
  Tb  Tb9  1  0.809714  0.809714  0.189088  1
  Tb  Tb10  1  0.936623  0.563984  0.563984  1
  Tb  Tb11  1  0.560385  0.936893  0.936893  1
  Tb  Tb12  1  0.563984  0.936623  0.563984  1
  Tb  Tb13  1  0.936893  0.560385  0.936893  1
  Tb  Tb14  1  0.563984  0.563984  0.936623  1
  Tb  Tb15  1  0.936893  0.936893  0.560385  1
  Cd  Cd16  1  0.579884  0.579884  0.579884  1
  Cd  Cd17  1  0.581339  0.581339  0.254743  1
  Cd  Cd18  1  0.581339  0.254743  0.581339  1
  Cd  Cd19  1  0.254743  0.581339  0.581339  1
  Fe  Fe20  1  0.142757  0.142757  0.142757  1
  Pt  Pt21  1  0.143857  0.143857  0.572033  1
  Pt  Pt22  1  0.143857  0.572033  0.143857  1
  Pt  Pt23  1  0.572033  0.143857  0.143857  1
