# generated using pymatgen
data_Rb12Na8Hf(ZrP4)3
_symmetry_space_group_name_H-M   'P 1'
_cell_length_a   10.79012794
_cell_length_b   10.79012989
_cell_length_c   15.57968265
_cell_angle_alpha   90.01050515
_cell_angle_beta   90.01050426
_cell_angle_gamma   142.80544612
_symmetry_Int_Tables_number   1
_chemical_formula_structural   Rb12Na8Hf(ZrP4)3
_chemical_formula_sum   'Rb12 Na8 Hf1 Zr3 P12'
_cell_volume   1096.54110928
_cell_formula_units_Z   1
loop_
 _symmetry_equiv_pos_site_id
 _symmetry_equiv_pos_as_xyz
  1  'x, y, z'
loop_
 _atom_site_type_symbol
 _atom_site_label
 _atom_site_symmetry_multiplicity
 _atom_site_fract_x
 _atom_site_fract_y
 _atom_site_fract_z
 _atom_site_occupancy
  Rb  Rb0  1  0.947333  0.607366  0.822733  1
  Rb  Rb1  1  0.552474  0.892635  0.322464  1
  Rb  Rb2  1  0.392634  0.052667  0.177267  1
  Rb  Rb3  1  0.052433  0.392637  0.177426  1
  Rb  Rb4  1  0.892513  0.552418  0.322323  1
  Rb  Rb5  1  0.447582  0.107487  0.677677  1
  Rb  Rb6  1  0.607363  0.947567  0.822574  1
  Rb  Rb7  1  0.279165  0.279106  0.314919  1
  Rb  Rb8  1  0.779209  0.779022  0.184981  1
  Rb  Rb9  1  0.220978  0.220791  0.815019  1
  Rb  Rb10  1  0.720894  0.720835  0.685081  1
  Rb  Rb11  1  0.107365  0.447526  0.677536  1
  Na  Na12  1  0.919815  0.080185  0.000000  1
  Na  Na13  1  0.580355  0.419645  0.500000  1
  Na  Na14  1  0.080584  0.919416  0.000000  1
  Na  Na15  1  0.419649  0.580351  0.500000  1
  Na  Na16  1  0.754789  0.245211  0.000000  1
  Na  Na17  1  0.744785  0.255215  0.500000  1
  Na  Na18  1  0.244606  0.755394  0.000000  1
  Na  Na19  1  0.255212  0.744788  0.500000  1
  Hf  Hf20  1  0.585571  0.414429  0.000000  1
  Zr  Zr21  1  0.913960  0.086040  0.500000  1
  Zr  Zr22  1  0.414339  0.585661  0.000000  1
  Zr  Zr23  1  0.086054  0.913946  0.500000  1
  P  P24  1  0.868475  0.557814  0.094772  1
  P  P25  1  0.442186  0.131525  0.905228  1
  P  P26  1  0.628596  0.940914  0.595623  1
  P  P27  1  0.940897  0.628560  0.595563  1
  P  P28  1  0.128716  0.440781  0.904480  1
  P  P29  1  0.559219  0.871284  0.095520  1
  P  P30  1  0.371440  0.059103  0.404437  1
  P  P31  1  0.199256  0.199265  0.586173  1
  P  P32  1  0.699203  0.697473  0.914207  1
  P  P33  1  0.302527  0.300797  0.085793  1
  P  P34  1  0.059086  0.371404  0.404377  1
  P  P35  1  0.800735  0.800744  0.413827  1
