# generated using pymatgen
data_LiDy(BeB14)2
_symmetry_space_group_name_H-M   'P 1'
_cell_length_a   7.17024449
_cell_length_b   7.17024434
_cell_length_c   7.17024495
_cell_angle_alpha   132.75295610
_cell_angle_beta   110.54712383
_cell_angle_gamma   88.29140897
_symmetry_Int_Tables_number   1
_chemical_formula_structural   LiDy(BeB14)2
_chemical_formula_sum   'Li1 Dy1 Be2 B28'
_cell_volume   241.53953786
_cell_formula_units_Z   1
loop_
 _symmetry_equiv_pos_site_id
 _symmetry_equiv_pos_as_xyz
  1  'x, y, z'
loop_
 _atom_site_type_symbol
 _atom_site_label
 _atom_site_symmetry_multiplicity
 _atom_site_fract_x
 _atom_site_fract_y
 _atom_site_fract_z
 _atom_site_occupancy
  Li  Li0  1  0.626536  0.250000  0.376536  1
  Dy  Dy1  1  0.393340  0.750000  0.643340  1
  Be  Be2  1  0.994133  0.005871  0.500004  1
  Be  Be3  1  0.994133  0.494129  0.988262  1
  B  B4  1  0.634711  0.665604  0.969108  1
  B  B5  1  0.365585  0.333638  0.031946  1
  B  B6  1  0.198308  0.166362  0.031946  1
  B  B7  1  0.803504  0.834396  0.969108  1
  B  B8  1  0.785296  0.156276  0.629020  1
  B  B9  1  0.209477  0.843717  0.365760  1
  B  B10  1  0.022042  0.656283  0.365760  1
  B  B11  1  0.972745  0.343724  0.629020  1
  B  B12  1  0.920970  0.090925  0.830045  1
  B  B13  1  0.079846  0.910865  0.168981  1
  B  B14  1  0.758115  0.589135  0.168981  1
  B  B15  1  0.239121  0.409075  0.830045  1
  B  B16  1  0.398254  0.397200  0.677580  1
  B  B17  1  0.602147  0.279444  0.001748  1
  B  B18  1  0.222304  0.899601  0.001748  1
  B  B19  1  0.780379  0.779326  0.677580  1
  B  B20  1  0.602147  0.600399  0.322703  1
  B  B21  1  0.398254  0.720674  0.001054  1
  B  B22  1  0.780379  0.102800  0.001054  1
  B  B23  1  0.222304  0.220556  0.322703  1
  B  B24  1  0.034123  0.828259  0.700421  1
  B  B25  1  0.964485  0.664162  0.791377  1
  B  B26  1  0.627214  0.326892  0.791377  1
  B  B27  1  0.372163  0.166299  0.700421  1
  B  B28  1  0.964485  0.173108  0.300324  1
  B  B29  1  0.034123  0.333701  0.205863  1
  B  B30  1  0.372163  0.671741  0.205863  1
  B  B31  1  0.627214  0.835838  0.300324  1
