# generated using pymatgen
data_Dy5Ho(LuIn2)4
_symmetry_space_group_name_H-M   'P 1'
_cell_length_a   9.21535117
_cell_length_b   9.21535017
_cell_length_c   6.62218600
_cell_angle_alpha   90.00000000
_cell_angle_beta   90.00000000
_cell_angle_gamma   119.86404022
_symmetry_Int_Tables_number   1
_chemical_formula_structural   Dy5Ho(LuIn2)4
_chemical_formula_sum   'Dy5 Ho1 Lu4 In8'
_cell_volume   487.69589728
_cell_formula_units_Z   1
loop_
 _symmetry_equiv_pos_site_id
 _symmetry_equiv_pos_as_xyz
  1  'x, y, z'
loop_
 _atom_site_type_symbol
 _atom_site_label
 _atom_site_symmetry_multiplicity
 _atom_site_fract_x
 _atom_site_fract_y
 _atom_site_fract_z
 _atom_site_occupancy
  Dy  Dy0  1  0.291202  0.999592  0.750000  1
  Dy  Dy1  1  0.706611  0.998545  0.250000  1
  Dy  Dy2  1  0.999592  0.291202  0.750000  1
  Dy  Dy3  1  0.998545  0.706611  0.250000  1
  Dy  Dy4  1  0.711727  0.711727  0.750000  1
  Ho  Ho5  1  0.292557  0.292557  0.250000  1
  Lu  Lu6  1  0.334040  0.664705  0.500074  1
  Lu  Lu7  1  0.664705  0.334040  0.500074  1
  Lu  Lu8  1  0.664705  0.334040  0.999926  1
  Lu  Lu9  1  0.334040  0.664705  0.999926  1
  In  In10  1  0.002027  0.002027  0.497971  1
  In  In11  1  0.002027  0.002027  0.002029  1
  In  In12  1  0.629050  0.000247  0.750000  1
  In  In13  1  0.368602  0.000397  0.250000  1
  In  In14  1  0.000247  0.629050  0.750000  1
  In  In15  1  0.000397  0.368602  0.250000  1
  In  In16  1  0.373066  0.373066  0.750000  1
  In  In17  1  0.626861  0.626861  0.250000  1
