# generated using pymatgen
data_NdTa8InSe16
_symmetry_space_group_name_H-M   'P 1'
_cell_length_a   7.04044000
_cell_length_b   7.04044009
_cell_length_c   14.86034600
_cell_angle_alpha   90.00000000
_cell_angle_beta   90.00000000
_cell_angle_gamma   119.99999957
_symmetry_Int_Tables_number   1
_chemical_formula_structural   NdTa8InSe16
_chemical_formula_sum   'Nd1 Ta8 In1 Se16'
_cell_volume   637.90963834
_cell_formula_units_Z   1
loop_
 _symmetry_equiv_pos_site_id
 _symmetry_equiv_pos_as_xyz
  1  'x, y, z'
loop_
 _atom_site_type_symbol
 _atom_site_label
 _atom_site_symmetry_multiplicity
 _atom_site_fract_x
 _atom_site_fract_y
 _atom_site_fract_z
 _atom_site_occupancy
  Nd  Nd0  1  0.000000  0.000000  0.500000  1
  Ta  Ta1  1  0.000000  0.000000  0.257773  1
  Ta  Ta2  1  0.000000  0.000000  0.742227  1
  Ta  Ta3  1  0.505746  0.011493  0.254264  1
  Ta  Ta4  1  0.988507  0.494254  0.254264  1
  Ta  Ta5  1  0.505746  0.494254  0.254264  1
  Ta  Ta6  1  0.494254  0.988507  0.745736  1
  Ta  Ta7  1  0.011493  0.505746  0.745736  1
  Ta  Ta8  1  0.494254  0.505746  0.745736  1
  In  In9  1  0.000000  0.000000  0.000000  1
  Se  Se10  1  0.333333  0.666667  0.859164  1
  Se  Se11  1  0.666667  0.333333  0.140836  1
  Se  Se12  1  0.666667  0.333333  0.369526  1
  Se  Se13  1  0.333333  0.666667  0.630474  1
  Se  Se14  1  0.171911  0.828089  0.365550  1
  Se  Se15  1  0.171911  0.343821  0.365550  1
  Se  Se16  1  0.656179  0.828089  0.365550  1
  Se  Se17  1  0.828089  0.171911  0.634450  1
  Se  Se18  1  0.828089  0.656179  0.634450  1
  Se  Se19  1  0.343821  0.171911  0.634450  1
  Se  Se20  1  0.833215  0.166785  0.853259  1
  Se  Se21  1  0.833215  0.666432  0.853259  1
  Se  Se22  1  0.333568  0.166785  0.853259  1
  Se  Se23  1  0.166785  0.833215  0.146741  1
  Se  Se24  1  0.166785  0.333568  0.146741  1
  Se  Se25  1  0.666432  0.833215  0.146741  1
