# generated using pymatgen
data_CeNbSnB2Ru5
_symmetry_space_group_name_H-M   'P 1'
_cell_length_a   9.66817172
_cell_length_b   9.66817172
_cell_length_c   3.09060300
_cell_angle_alpha   90.00000000
_cell_angle_beta   90.00000000
_cell_angle_gamma   92.17015994
_symmetry_Int_Tables_number   1
_chemical_formula_structural   CeNbSnB2Ru5
_chemical_formula_sum   'Ce2 Nb2 Sn2 B4 Ru10'
_cell_volume   288.68241764
_cell_formula_units_Z   2
loop_
 _symmetry_equiv_pos_site_id
 _symmetry_equiv_pos_as_xyz
  1  'x, y, z'
loop_
 _atom_site_type_symbol
 _atom_site_label
 _atom_site_symmetry_multiplicity
 _atom_site_fract_x
 _atom_site_fract_y
 _atom_site_fract_z
 _atom_site_occupancy
  Ce  Ce0  1  0.822219  0.677781  0.000000  1
  Ce  Ce1  1  0.177781  0.322219  0.000000  1
  Nb  Nb2  1  0.325993  0.825993  0.000000  1
  Nb  Nb3  1  0.674007  0.174007  0.000000  1
  Sn  Sn4  1  0.500000  0.500000  0.000000  1
  Sn  Sn5  1  0.000000  0.000000  0.000000  1
  B  B6  1  0.617494  0.882506  0.000000  1
  B  B7  1  0.382506  0.117494  0.000000  1
  B  B8  1  0.125426  0.625426  0.000000  1
  B  B9  1  0.874574  0.374574  0.000000  1
  Ru  Ru10  1  0.556160  0.729133  0.500000  1
  Ru  Ru11  1  0.443840  0.270867  0.500000  1
  Ru  Ru12  1  0.084611  0.781697  0.500000  1
  Ru  Ru13  1  0.915389  0.218303  0.500000  1
  Ru  Ru14  1  0.281697  0.584611  0.500000  1
  Ru  Ru15  1  0.718303  0.415389  0.500000  1
  Ru  Ru16  1  0.229133  0.056160  0.500000  1
  Ru  Ru17  1  0.770867  0.943840  0.500000  1
  Ru  Ru18  1  0.500000  0.000000  0.500000  1
  Ru  Ru19  1  0.000000  0.500000  0.500000  1
