# generated using pymatgen
data_Ta6Be4IrRu9
_symmetry_space_group_name_H-M   'P 1'
_cell_length_a   9.40932955
_cell_length_b   9.40932955
_cell_length_c   3.13929300
_cell_angle_alpha   90.00000000
_cell_angle_beta   90.00000000
_cell_angle_gamma   89.64739521
_symmetry_Int_Tables_number   1
_chemical_formula_structural   Ta6Be4IrRu9
_chemical_formula_sum   'Ta6 Be4 Ir1 Ru9'
_cell_volume   277.93355724
_cell_formula_units_Z   1
loop_
 _symmetry_equiv_pos_site_id
 _symmetry_equiv_pos_as_xyz
  1  'x, y, z'
loop_
 _atom_site_type_symbol
 _atom_site_label
 _atom_site_symmetry_multiplicity
 _atom_site_fract_x
 _atom_site_fract_y
 _atom_site_fract_z
 _atom_site_occupancy
  Ta  Ta0  1  0.825586  0.674414  0.000000  1
  Ta  Ta1  1  0.174414  0.325586  0.000000  1
  Ta  Ta2  1  0.321199  0.821199  0.000000  1
  Ta  Ta3  1  0.678801  0.178801  0.000000  1
  Ta  Ta4  1  0.500000  0.500000  0.000000  1
  Ta  Ta5  1  0.000000  0.000000  0.000000  1
  Be  Be6  1  0.622815  0.877185  0.000000  1
  Be  Be7  1  0.377185  0.122815  0.000000  1
  Be  Be8  1  0.120446  0.620446  0.000000  1
  Be  Be9  1  0.879554  0.379554  0.000000  1
  Ir  Ir10  1  0.500000  0.000000  0.500000  1
  Ru  Ru11  1  0.572421  0.712291  0.500000  1
  Ru  Ru12  1  0.427579  0.287709  0.500000  1
  Ru  Ru13  1  0.072716  0.788163  0.500000  1
  Ru  Ru14  1  0.927284  0.211837  0.500000  1
  Ru  Ru15  1  0.288163  0.572716  0.500000  1
  Ru  Ru16  1  0.711837  0.427284  0.500000  1
  Ru  Ru17  1  0.212291  0.072421  0.500000  1
  Ru  Ru18  1  0.787709  0.927579  0.500000  1
  Ru  Ru19  1  0.000000  0.500000  0.500000  1
