# generated using pymatgen
data_Ho2Tm2(Al8Pt3)3
_symmetry_space_group_name_H-M   'P 1'
_cell_length_a   7.52240648
_cell_length_b   7.53538166
_cell_length_c   13.14227441
_cell_angle_alpha   84.58353753
_cell_angle_beta   79.08009777
_cell_angle_gamma   59.99999575
_symmetry_Int_Tables_number   1
_chemical_formula_structural   Ho2Tm2(Al8Pt3)3
_chemical_formula_sum   'Ho2 Tm2 Al24 Pt9'
_cell_volume   633.47184021
_cell_formula_units_Z   1
loop_
 _symmetry_equiv_pos_site_id
 _symmetry_equiv_pos_as_xyz
  1  'x, y, z'
loop_
 _atom_site_type_symbol
 _atom_site_label
 _atom_site_symmetry_multiplicity
 _atom_site_fract_x
 _atom_site_fract_y
 _atom_site_fract_z
 _atom_site_occupancy
  Ho  Ho0  1  0.393588  0.168696  0.807743  1
  Ho  Ho1  1  0.606412  0.831304  0.192257  1
  Tm  Tm2  1  0.734241  0.498732  0.807106  1
  Tm  Tm3  1  0.265759  0.501268  0.192894  1
  Al  Al4  1  0.684317  0.833539  0.944136  1
  Al  Al5  1  0.315683  0.166461  0.055864  1
  Al  Al6  1  0.146567  0.832403  0.561442  1
  Al  Al7  1  0.853433  0.167597  0.438558  1
  Al  Al8  1  0.479432  0.166625  0.558584  1
  Al  Al9  1  0.520568  0.833375  0.441416  1
  Al  Al10  1  0.217452  0.165473  0.329161  1
  Al  Al11  1  0.782548  0.834527  0.670839  1
  Al  Al12  1  0.437664  0.506316  0.670978  1
  Al  Al13  1  0.562336  0.493684  0.329022  1
  Al  Al14  1  0.109184  0.160163  0.669879  1
  Al  Al15  1  0.890816  0.839837  0.330121  1
  Al  Al16  1  0.353575  0.499389  0.944394  1
  Al  Al17  1  0.646425  0.500611  0.055606  1
  Al  Al18  1  0.015443  0.168025  0.952294  1
  Al  Al19  1  0.984557  0.831975  0.047706  1
  Al  Al20  1  0.186849  0.499264  0.441291  1
  Al  Al21  1  0.813151  0.500736  0.558709  1
  Al  Al22  1  0.733617  0.164328  0.183362  1
  Al  Al23  1  0.266383  0.835672  0.816638  1
  Al  Al24  1  0.061404  0.631147  0.815526  1
  Al  Al25  1  0.938596  0.368853  0.184474  1
  Al  Al26  1  0.855190  0.042163  0.816076  1
  Al  Al27  1  0.144810  0.957837  0.183924  1
  Pt  Pt28  1  0.119943  0.491725  0.639118  1
  Pt  Pt29  1  0.880057  0.508275  0.360882  1
  Pt  Pt30  1  0.657058  0.171225  0.999854  1
  Pt  Pt31  1  0.342942  0.828775  0.000146  1
  Pt  Pt32  1  0.537885  0.166763  0.360858  1
  Pt  Pt33  1  0.462115  0.833237  0.639142  1
  Pt  Pt34  1  0.778552  0.175306  0.637391  1
  Pt  Pt35  1  0.221448  0.824694  0.362609  1
  Pt  Pt36  1  0.000000  0.500000  0.000000  1
