# generated using pymatgen
data_Yb6Al24Pt3Rh5
_symmetry_space_group_name_H-M   'P 1'
_cell_length_a   8.86330593
_cell_length_b   8.85798998
_cell_length_c   9.58615800
_cell_angle_alpha   90.01606716
_cell_angle_beta   89.76128268
_cell_angle_gamma   119.71833729
_symmetry_Int_Tables_number   1
_chemical_formula_structural   Yb6Al24Pt3Rh5
_chemical_formula_sum   'Yb6 Al24 Pt3 Rh5'
_cell_volume   653.62264769
_cell_formula_units_Z   1
loop_
 _symmetry_equiv_pos_site_id
 _symmetry_equiv_pos_as_xyz
  1  'x, y, z'
loop_
 _atom_site_type_symbol
 _atom_site_label
 _atom_site_symmetry_multiplicity
 _atom_site_fract_x
 _atom_site_fract_y
 _atom_site_fract_z
 _atom_site_occupancy
  Yb  Yb0  1  0.192538  0.386162  0.250132  1
  Yb  Yb1  1  0.807462  0.613838  0.749868  1
  Yb  Yb2  1  0.613192  0.807028  0.250603  1
  Yb  Yb3  1  0.386808  0.192972  0.749397  1
  Yb  Yb4  1  0.193450  0.806437  0.250210  1
  Yb  Yb5  1  0.806550  0.193563  0.749790  1
  Al  Al6  1  0.334694  0.670632  0.012414  1
  Al  Al7  1  0.665306  0.329368  0.987586  1
  Al  Al8  1  0.668251  0.330754  0.511394  1
  Al  Al9  1  0.331749  0.669246  0.488606  1
  Al  Al10  1  0.158829  0.323676  0.578264  1
  Al  Al11  1  0.841171  0.676324  0.421736  1
  Al  Al12  1  0.675877  0.841231  0.578938  1
  Al  Al13  1  0.838416  0.676659  0.079480  1
  Al  Al14  1  0.324123  0.158769  0.421062  1
  Al  Al15  1  0.161584  0.323341  0.920520  1
  Al  Al16  1  0.162414  0.838299  0.579187  1
  Al  Al17  1  0.323420  0.158124  0.079992  1
  Al  Al18  1  0.837586  0.161701  0.420813  1
  Al  Al19  1  0.676580  0.841876  0.920008  1
  Al  Al20  1  0.834423  0.158552  0.080029  1
  Al  Al21  1  0.165577  0.841448  0.919971  1
  Al  Al22  1  0.561558  0.123128  0.249779  1
  Al  Al23  1  0.438442  0.876872  0.750221  1
  Al  Al24  1  0.874487  0.436853  0.252077  1
  Al  Al25  1  0.125513  0.563147  0.747923  1
  Al  Al26  1  0.563434  0.435811  0.249903  1
  Al  Al27  1  0.436566  0.564189  0.750097  1
  Al  Al28  1  0.999675  0.000799  0.250235  1
  Al  Al29  1  0.000325  0.999201  0.749765  1
  Pt  Pt30  1  0.000000  0.500000  0.000000  1
  Pt  Pt31  1  0.500000  0.500000  0.000000  1
  Pt  Pt32  1  0.500000  0.500000  0.500000  1
  Rh  Rh33  1  0.500000  0.000000  0.000000  1
  Rh  Rh34  1  0.500000  0.000000  0.500000  1
  Rh  Rh35  1  0.000000  0.500000  0.500000  1
  Rh  Rh36  1  0.000000  0.000000  0.000000  1
  Rh  Rh37  1  0.000000  0.000000  0.500000  1
