# generated using pymatgen
data_Eu(InI4)2
_symmetry_space_group_name_H-M   'P 1'
_cell_length_a   8.52377200
_cell_length_b   8.77582632
_cell_length_c   16.09553033
_cell_angle_alpha   87.82445310
_cell_angle_beta   90.00000000
_cell_angle_gamma   90.00000000
_symmetry_Int_Tables_number   1
_chemical_formula_structural   Eu(InI4)2
_chemical_formula_sum   'Eu2 In4 I16'
_cell_volume   1203.12842162
_cell_formula_units_Z   2
loop_
 _symmetry_equiv_pos_site_id
 _symmetry_equiv_pos_as_xyz
  1  'x, y, z'
loop_
 _atom_site_type_symbol
 _atom_site_label
 _atom_site_symmetry_multiplicity
 _atom_site_fract_x
 _atom_site_fract_y
 _atom_site_fract_z
 _atom_site_occupancy
  Eu  Eu0  1  0.754191  0.076131  0.813104  1
  Eu  Eu1  1  0.245809  0.076131  0.313104  1
  In  In2  1  0.934088  0.223417  0.578207  1
  In  In3  1  0.065912  0.223417  0.078207  1
  In  In4  1  0.571676  0.638957  0.776236  1
  In  In5  1  0.428324  0.638957  0.276236  1
  I  I6  1  0.413837  0.613054  0.632789  1
  I  I7  1  0.586163  0.613054  0.132789  1
  I  I8  1  0.882866  0.735923  0.760479  1
  I  I9  1  0.117134  0.735923  0.260479  1
  I  I10  1  0.939614  0.491381  0.491313  1
  I  I11  1  0.060386  0.491381  0.991313  1
  I  I12  1  0.912977  0.989311  0.996561  1
  I  I13  1  0.087023  0.989311  0.496561  1
  I  I14  1  0.630937  0.122556  0.618908  1
  I  I15  1  0.369063  0.122556  0.118908  1
  I  I16  1  0.561654  0.373061  0.878736  1
  I  I17  1  0.438346  0.373061  0.378736  1
  I  I18  1  0.444287  0.872812  0.869878  1
  I  I19  1  0.555713  0.872812  0.369878  1
  I  I20  1  0.926457  0.230799  0.235992  1
  I  I21  1  0.073543  0.230799  0.735992  1
