# generated using pymatgen
data_Pr2Mn17Si8Mo
_symmetry_space_group_name_H-M   'P 1'
_cell_length_a   8.12917880
_cell_length_b   8.12917910
_cell_length_c   8.11628857
_cell_angle_alpha   120.88136901
_cell_angle_beta   122.19738019
_cell_angle_gamma   87.45287570
_symmetry_Int_Tables_number   1
_chemical_formula_structural   Pr2Mn17Si8Mo
_chemical_formula_sum   'Pr2 Mn17 Si8 Mo1'
_cell_volume   369.64772609
_cell_formula_units_Z   1
loop_
 _symmetry_equiv_pos_site_id
 _symmetry_equiv_pos_as_xyz
  1  'x, y, z'
loop_
 _atom_site_type_symbol
 _atom_site_label
 _atom_site_symmetry_multiplicity
 _atom_site_fract_x
 _atom_site_fract_y
 _atom_site_fract_z
 _atom_site_occupancy
  Pr  Pr0  1  0.247911  0.248127  0.999430  1
  Pr  Pr1  1  0.751303  0.751520  0.999430  1
  Mn  Mn2  1  0.443930  0.937759  0.733775  1
  Mn  Mn3  1  0.499307  0.998049  0.497356  1
  Mn  Mn4  1  0.704010  0.440166  0.497101  1
  Mn  Mn5  1  0.056935  0.793091  0.497101  1
  Mn  Mn6  1  0.182786  0.946536  0.129323  1
  Mn  Mn7  1  0.554249  0.063034  0.264204  1
  Mn  Mn8  1  0.321867  0.447221  0.769088  1
  Mn  Mn9  1  0.796016  0.289845  0.733775  1
  Mn  Mn10  1  0.940415  0.803073  0.743488  1
  Mn  Mn11  1  0.948274  0.210275  0.506597  1
  Mn  Mn12  1  0.062492  0.199426  0.261918  1
  Mn  Mn13  1  0.817320  0.053120  0.870439  1
  Mn  Mn14  1  0.559835  0.289012  0.848846  1
  Mn  Mn15  1  0.003689  0.497295  0.500985  1
  Mn  Mn16  1  0.201170  0.709955  0.264204  1
  Mn  Mn17  1  0.296322  0.558323  0.506597  1
  Mn  Mn18  1  0.427543  0.707348  0.134893  1
  Si  Si19  1  0.446072  0.299154  0.502492  1
  Si  Si20  1  0.203338  0.056419  0.502492  1
  Si  Si21  1  0.052476  0.554466  0.851400  1
  Si  Si22  1  0.703829  0.195803  0.145678  1
  Si  Si23  1  0.800879  0.952232  0.501969  1
  Si  Si24  1  0.296934  0.798924  0.851400  1
  Si  Si25  1  0.549737  0.701090  0.501969  1
  Si  Si26  1  0.949875  0.441848  0.145678  1
  Mo  Mo27  1  0.681488  0.556887  0.238375  1
