# generated using pymatgen
data_Tm6Zn16PAu7
_symmetry_space_group_name_H-M   'P 1'
_cell_length_a   9.10534293
_cell_length_b   9.10539795
_cell_length_c   9.10531000
_cell_angle_alpha   60.08448154
_cell_angle_beta   60.08420975
_cell_angle_gamma   60.08452933
_symmetry_Int_Tables_number   1
_chemical_formula_structural   Tm6Zn16PAu7
_chemical_formula_sum   'Tm6 Zn16 P1 Au7'
_cell_volume   534.81657184
_cell_formula_units_Z   1
loop_
 _symmetry_equiv_pos_site_id
 _symmetry_equiv_pos_as_xyz
  1  'x, y, z'
loop_
 _atom_site_type_symbol
 _atom_site_label
 _atom_site_symmetry_multiplicity
 _atom_site_fract_x
 _atom_site_fract_y
 _atom_site_fract_z
 _atom_site_occupancy
  Tm  Tm0  1  0.711713  0.287861  0.287910  1
  Tm  Tm1  1  0.710804  0.291638  0.710820  1
  Tm  Tm2  1  0.710790  0.710834  0.291649  1
  Tm  Tm3  1  0.291655  0.710829  0.710796  1
  Tm  Tm4  1  0.287899  0.711734  0.287876  1
  Tm  Tm5  1  0.287921  0.287852  0.711720  1
  Zn  Zn6  1  0.876495  0.876506  0.876500  1
  Zn  Zn7  1  0.504050  0.998737  0.998734  1
  Zn  Zn8  1  0.499755  0.001344  0.499757  1
  Zn  Zn9  1  0.499757  0.499757  0.001340  1
  Zn  Zn10  1  0.001338  0.499756  0.499756  1
  Zn  Zn11  1  0.998736  0.504046  0.998735  1
  Zn  Zn12  1  0.998736  0.998734  0.504051  1
  Zn  Zn13  1  0.999720  0.999723  0.999721  1
  Zn  Zn14  1  0.006703  0.331079  0.331086  1
  Zn  Zn15  1  0.331088  0.006700  0.331086  1
  Zn  Zn16  1  0.331086  0.331081  0.006700  1
  Zn  Zn17  1  0.330923  0.330915  0.330919  1
  Zn  Zn18  1  0.992265  0.669558  0.669551  1
  Zn  Zn19  1  0.669551  0.992266  0.669550  1
  Zn  Zn20  1  0.669549  0.669554  0.992270  1
  Zn  Zn21  1  0.669133  0.669148  0.669135  1
  P  P22  1  0.499503  0.499502  0.499502  1
  Au  Au23  1  0.636201  0.119374  0.119352  1
  Au  Au24  1  0.119353  0.636221  0.119360  1
  Au  Au25  1  0.119343  0.119378  0.636208  1
  Au  Au26  1  0.122915  0.122916  0.122919  1
  Au  Au27  1  0.366464  0.878255  0.878272  1
  Au  Au28  1  0.878272  0.366449  0.878264  1
  Au  Au29  1  0.878280  0.878250  0.366458  1
