# generated using pymatgen
data_Sm3Er6ThSn8
_symmetry_space_group_name_H-M   'P 1'
_cell_length_a   8.07635200
_cell_length_b   8.20054529
_cell_length_c   15.47862312
_cell_angle_alpha   89.88269852
_cell_angle_beta   90.00000000
_cell_angle_gamma   90.00000000
_symmetry_Int_Tables_number   1
_chemical_formula_structural   Sm3Er6ThSn8
_chemical_formula_sum   'Sm6 Er12 Th2 Sn16'
_cell_volume   1025.15465094
_cell_formula_units_Z   2
loop_
 _symmetry_equiv_pos_site_id
 _symmetry_equiv_pos_as_xyz
  1  'x, y, z'
loop_
 _atom_site_type_symbol
 _atom_site_label
 _atom_site_symmetry_multiplicity
 _atom_site_fract_x
 _atom_site_fract_y
 _atom_site_fract_z
 _atom_site_occupancy
  Sm  Sm0  1  0.480958  0.679074  0.402225  1
  Sm  Sm1  1  0.980958  0.820926  0.097775  1
  Sm  Sm2  1  0.480849  0.678935  0.097777  1
  Sm  Sm3  1  0.980849  0.821065  0.402223  1
  Sm  Sm4  1  0.520041  0.320975  0.597729  1
  Sm  Sm5  1  0.020041  0.179025  0.902271  1
  Er  Er6  1  0.365790  0.835759  0.877388  1
  Er  Er7  1  0.865790  0.664241  0.622612  1
  Er  Er8  1  0.634635  0.164087  0.377343  1
  Er  Er9  1  0.134635  0.335913  0.122657  1
  Er  Er10  1  0.634107  0.164160  0.122728  1
  Er  Er11  1  0.134107  0.335840  0.377272  1
  Er  Er12  1  0.365698  0.835436  0.622564  1
  Er  Er13  1  0.865698  0.664564  0.877436  1
  Er  Er14  1  0.196703  0.503145  0.749883  1
  Er  Er15  1  0.696703  0.996855  0.750117  1
  Er  Er16  1  0.802610  0.496839  0.249844  1
  Er  Er17  1  0.302610  0.003161  0.250156  1
  Th  Th18  1  0.518990  0.320937  0.903032  1
  Th  Th19  1  0.018990  0.179063  0.596968  1
  Sn  Sn20  1  0.297032  0.038536  0.041564  1
  Sn  Sn21  1  0.797032  0.461464  0.458436  1
  Sn  Sn22  1  0.702883  0.961758  0.541959  1
  Sn  Sn23  1  0.202883  0.538242  0.958041  1
  Sn  Sn24  1  0.703471  0.962456  0.957782  1
  Sn  Sn25  1  0.203471  0.537544  0.542218  1
  Sn  Sn26  1  0.296777  0.038017  0.458223  1
  Sn  Sn27  1  0.796777  0.461983  0.041777  1
  Sn  Sn28  1  0.563464  0.623327  0.750413  1
  Sn  Sn29  1  0.063464  0.876673  0.749587  1
  Sn  Sn30  1  0.435848  0.377124  0.250089  1
  Sn  Sn31  1  0.935848  0.122876  0.249911  1
  Sn  Sn32  1  0.327790  0.143813  0.749562  1
  Sn  Sn33  1  0.827790  0.356187  0.750438  1
  Sn  Sn34  1  0.672356  0.855659  0.250027  1
  Sn  Sn35  1  0.172356  0.644341  0.249973  1
