# generated using pymatgen
data_Zr5Re13Tc11
_symmetry_space_group_name_H-M   'P 1'
_cell_length_a   8.48243719
_cell_length_b   8.48552574
_cell_length_c   8.48243702
_cell_angle_alpha   109.51241788
_cell_angle_beta   109.42987648
_cell_angle_gamma   109.51243113
_symmetry_Int_Tables_number   1
_chemical_formula_structural   Zr5Re13Tc11
_chemical_formula_sum   'Zr5 Re13 Tc11'
_cell_volume   469.76174602
_cell_formula_units_Z   1
loop_
 _symmetry_equiv_pos_site_id
 _symmetry_equiv_pos_as_xyz
  1  'x, y, z'
loop_
 _atom_site_type_symbol
 _atom_site_label
 _atom_site_symmetry_multiplicity
 _atom_site_fract_x
 _atom_site_fract_y
 _atom_site_fract_z
 _atom_site_occupancy
  Zr  Zr0  1  0.999987  0.999601  0.999987  1
  Zr  Zr1  1  0.625383  0.999487  0.999731  1
  Zr  Zr2  1  0.000315  0.625718  0.000315  1
  Zr  Zr3  1  0.999731  0.999487  0.625383  1
  Zr  Zr4  1  0.373386  0.375095  0.373386  1
  Re  Re5  1  0.603782  0.278920  0.603782  1
  Re  Re6  1  0.376614  0.194480  0.999804  1
  Re  Re7  1  0.181852  0.805284  0.805217  1
  Re  Re8  1  0.376833  0.000929  0.195275  1
  Re  Re9  1  0.194994  0.376532  0.000002  1
  Re  Re10  1  0.000002  0.376532  0.194994  1
  Re  Re11  1  0.805733  0.180827  0.805733  1
  Re  Re12  1  0.805217  0.805284  0.181852  1
  Re  Re13  1  0.999804  0.194480  0.376614  1
  Re  Re14  1  0.195275  0.000929  0.376833  1
  Re  Re15  1  0.623151  0.623107  0.817882  1
  Re  Re16  1  0.817882  0.623107  0.623151  1
  Re  Re17  1  0.622963  0.816816  0.622963  1
  Tc  Tc18  1  0.396552  0.676326  0.000425  1
  Tc  Tc19  1  0.720982  0.324519  0.323526  1
  Tc  Tc20  1  0.396818  0.000388  0.675669  1
  Tc  Tc21  1  0.676473  0.396533  0.999936  1
  Tc  Tc22  1  0.999936  0.396533  0.676473  1
  Tc  Tc23  1  0.323657  0.720356  0.323657  1
  Tc  Tc24  1  0.323526  0.324519  0.720982  1
  Tc  Tc25  1  0.000425  0.676326  0.396552  1
  Tc  Tc26  1  0.675669  0.000388  0.396818  1
  Tc  Tc27  1  0.603670  0.603747  0.279389  1
  Tc  Tc28  1  0.279389  0.603747  0.603670  1
