# generated using pymatgen
data_SmY5(Co3P2)6
_symmetry_space_group_name_H-M   'P 1'
_cell_length_a   10.54433900
_cell_length_b   3.71149500
_cell_length_c   12.20573000
_cell_angle_alpha   90.00000000
_cell_angle_beta   90.00000000
_cell_angle_gamma   90.00000000
_symmetry_Int_Tables_number   1
_chemical_formula_structural   SmY5(Co3P2)6
_chemical_formula_sum   'Sm1 Y5 Co18 P12'
_cell_volume   477.67443507
_cell_formula_units_Z   1
loop_
 _symmetry_equiv_pos_site_id
 _symmetry_equiv_pos_as_xyz
  1  'x, y, z'
loop_
 _atom_site_type_symbol
 _atom_site_label
 _atom_site_symmetry_multiplicity
 _atom_site_fract_x
 _atom_site_fract_y
 _atom_site_fract_z
 _atom_site_occupancy
  Sm  Sm0  1  0.750000  0.250001  0.522029  1
  Y  Y1  1  0.067396  0.749999  0.205777  1
  Y  Y2  1  0.432604  0.749999  0.205777  1
  Y  Y3  1  0.250000  0.749999  0.478564  1
  Y  Y4  1  0.566939  0.250001  0.794540  1
  Y  Y5  1  0.933061  0.250001  0.794540  1
  Co  Co6  1  0.083528  0.250001  0.005185  1
  Co  Co7  1  0.416472  0.250001  0.005185  1
  Co  Co8  1  0.250000  0.749999  0.013844  1
  Co  Co9  1  0.750000  0.749999  0.157367  1
  Co  Co10  1  0.629282  0.250001  0.289127  1
  Co  Co11  1  0.870717  0.250001  0.289127  1
  Co  Co12  1  0.250000  0.250001  0.296473  1
  Co  Co13  1  0.545935  0.749999  0.430086  1
  Co  Co14  1  0.954065  0.749999  0.430086  1
  Co  Co15  1  0.048556  0.250001  0.569808  1
  Co  Co16  1  0.451443  0.250001  0.569808  1
  Co  Co17  1  0.750000  0.749999  0.704616  1
  Co  Co18  1  0.129969  0.749999  0.710525  1
  Co  Co19  1  0.370032  0.749999  0.710525  1
  Co  Co20  1  0.250000  0.250001  0.841715  1
  Co  Co21  1  0.750000  0.250001  0.986421  1
  Co  Co22  1  0.583243  0.749999  0.994772  1
  Co  Co23  1  0.916757  0.749999  0.994772  1
  P  P24  1  0.597144  0.250001  0.106191  1
  P  P25  1  0.902855  0.250001  0.106191  1
  P  P26  1  0.250000  0.250001  0.117277  1
  P  P27  1  0.750000  0.749999  0.341135  1
  P  P28  1  0.060387  0.250001  0.384117  1
  P  P29  1  0.439613  0.250001  0.384117  1
  P  P30  1  0.558337  0.749999  0.616404  1
  P  P31  1  0.941663  0.749999  0.616404  1
  P  P32  1  0.250000  0.250001  0.657053  1
  P  P33  1  0.750000  0.749999  0.883201  1
  P  P34  1  0.097649  0.749999  0.893621  1
  P  P35  1  0.402352  0.749999  0.893621  1
