# generated using pymatgen
data_Er3Tm2In4PtAu
_symmetry_space_group_name_H-M   'P 1'
_cell_length_a   3.62432100
_cell_length_b   8.13139900
_cell_length_c   18.19631503
_cell_angle_alpha   90.05373120
_cell_angle_beta   90.00000000
_cell_angle_gamma   90.00000000
_symmetry_Int_Tables_number   1
_chemical_formula_structural   Er3Tm2In4PtAu
_chemical_formula_sum   'Er6 Tm4 In8 Pt2 Au2'
_cell_volume   536.25972774
_cell_formula_units_Z   2
loop_
 _symmetry_equiv_pos_site_id
 _symmetry_equiv_pos_as_xyz
  1  'x, y, z'
loop_
 _atom_site_type_symbol
 _atom_site_label
 _atom_site_symmetry_multiplicity
 _atom_site_fract_x
 _atom_site_fract_y
 _atom_site_fract_z
 _atom_site_occupancy
  Er  Er0  1  0.000000  0.251674  0.217601  1
  Er  Er1  1  0.000000  0.748326  0.782399  1
  Er  Er2  1  0.000000  0.267858  0.721197  1
  Er  Er3  1  0.000000  0.732142  0.278803  1
  Er  Er4  1  0.000000  0.000000  0.000000  1
  Er  Er5  1  0.000000  0.500000  0.500000  1
  Tm  Tm6  1  0.000000  0.119945  0.418595  1
  Tm  Tm7  1  0.000000  0.880055  0.581405  1
  Tm  Tm8  1  0.000000  0.384588  0.915748  1
  Tm  Tm9  1  0.000000  0.615412  0.084252  1
  In  In10  1  0.500000  0.423346  0.352718  1
  In  In11  1  0.500000  0.576654  0.647282  1
  In  In12  1  0.500000  0.077494  0.853020  1
  In  In13  1  0.500000  0.922506  0.146980  1
  In  In14  1  0.500000  0.291958  0.065527  1
  In  In15  1  0.500000  0.708042  0.934473  1
  In  In16  1  0.500000  0.209332  0.566111  1
  In  In17  1  0.500000  0.790668  0.433889  1
  Pt  Pt18  1  0.500000  0.473305  0.803720  1
  Pt  Pt19  1  0.500000  0.526695  0.196280  1
  Au  Au20  1  0.500000  0.027479  0.302693  1
  Au  Au21  1  0.500000  0.972521  0.697307  1
