# generated using pymatgen
data_TbDyEr(Ga2Co3)3
_symmetry_space_group_name_H-M   'P 1'
_cell_length_a   4.05124600
_cell_length_b   8.71392508
_cell_length_c   8.75149001
_cell_angle_alpha   60.00318128
_cell_angle_beta   90.00000000
_cell_angle_gamma   90.00000000
_symmetry_Int_Tables_number   1
_chemical_formula_structural   TbDyEr(Ga2Co3)3
_chemical_formula_sum   'Tb1 Dy1 Er1 Ga6 Co9'
_cell_volume   267.56480791
_cell_formula_units_Z   1
loop_
 _symmetry_equiv_pos_site_id
 _symmetry_equiv_pos_as_xyz
  1  'x, y, z'
loop_
 _atom_site_type_symbol
 _atom_site_label
 _atom_site_symmetry_multiplicity
 _atom_site_fract_x
 _atom_site_fract_y
 _atom_site_fract_z
 _atom_site_occupancy
  Tb  Tb0  1  0.500000  0.666747  0.666746  1
  Dy  Dy1  1  0.500000  0.333601  0.333102  1
  Er  Er2  1  0.000000  0.999616  0.000310  1
  Ga  Ga3  1  0.000000  0.496464  0.503304  1
  Ga  Ga4  1  0.000000  0.503385  0.000373  1
  Ga  Ga5  1  0.000000  0.000319  0.496171  1
  Ga  Ga6  1  0.500000  0.728902  0.271084  1
  Ga  Ga7  1  0.500000  0.270875  0.000380  1
  Ga  Ga8  1  0.500000  0.000251  0.728455  1
  Co  Co9  1  0.000000  0.179420  0.180643  1
  Co  Co10  1  0.000000  0.180603  0.639936  1
  Co  Co11  1  0.000000  0.640061  0.179435  1
  Co  Co12  1  0.000000  0.819568  0.821038  1
  Co  Co13  1  0.000000  0.359260  0.819554  1
  Co  Co14  1  0.000000  0.820915  0.359529  1
  Co  Co15  1  0.500000  0.297003  0.702878  1
  Co  Co16  1  0.500000  0.702818  0.999968  1
  Co  Co17  1  0.500000  0.000093  0.297193  1
