# generated using pymatgen
data_Nd11Lu(SiBr3)4
_symmetry_space_group_name_H-M   'P 1'
_cell_length_a   10.41980508
_cell_length_b   10.42390026
_cell_length_c   10.38635138
_cell_angle_alpha   109.55603629
_cell_angle_beta   109.50354237
_cell_angle_gamma   109.48264659
_symmetry_Int_Tables_number   1
_chemical_formula_structural   Nd11Lu(SiBr3)4
_chemical_formula_sum   'Nd11 Lu1 Si4 Br12'
_cell_volume   867.04139318
_cell_formula_units_Z   1
loop_
 _symmetry_equiv_pos_site_id
 _symmetry_equiv_pos_as_xyz
  1  'x, y, z'
loop_
 _atom_site_type_symbol
 _atom_site_label
 _atom_site_symmetry_multiplicity
 _atom_site_fract_x
 _atom_site_fract_y
 _atom_site_fract_z
 _atom_site_occupancy
  Nd  Nd0  1  0.262327  0.012230  0.024463  1
  Nd  Nd1  1  0.023775  0.263651  0.012179  1
  Nd  Nd2  1  0.488300  0.748421  0.012148  1
  Nd  Nd3  1  0.750724  0.238086  0.263801  1
  Nd  Nd4  1  0.013106  0.025582  0.263701  1
  Nd  Nd5  1  0.013202  0.489831  0.752222  1
  Nd  Nd6  1  0.238926  0.262180  0.752041  1
  Nd  Nd7  1  0.260918  0.747403  0.236855  1
  Nd  Nd8  1  0.239167  0.477878  0.490681  1
  Nd  Nd9  1  0.475919  0.489487  0.236745  1
  Nd  Nd10  1  0.751336  0.012866  0.490499  1
  Lu  Lu11  1  0.480885  0.230945  0.461675  1
  Si  Si12  1  0.000635  0.250595  0.501184  1
  Si  Si13  1  0.250198  0.500156  0.000437  1
  Si  Si14  1  0.500116  0.002236  0.253299  1
  Si  Si15  1  0.253204  0.251165  0.253350  1
  Br  Br16  1  0.756762  0.745850  0.251724  1
  Br  Br17  1  0.505723  0.249541  0.996589  1
  Br  Br18  1  0.269272  0.012896  0.508017  1
  Br  Br19  1  0.507611  0.491182  0.743428  1
  Br  Br20  1  0.995487  0.990692  0.746722  1
  Br  Br21  1  0.745745  0.995543  0.991279  1
  Br  Br22  1  0.504895  0.754957  0.509853  1
  Br  Br23  1  0.738672  0.495069  0.508039  1
  Br  Br24  1  0.994904  0.506024  0.251941  1
  Br  Br25  1  0.991131  0.747126  0.996697  1
  Br  Br26  1  0.251220  0.756026  0.746795  1
  Br  Br27  1  0.735841  0.252383  0.743639  1
