# generated using pymatgen
data_LaNdZn21Pt
_symmetry_space_group_name_H-M   'P 1'
_cell_length_a   8.31341528
_cell_length_b   8.31988025
_cell_length_c   8.31341560
_cell_angle_alpha   100.05090349
_cell_angle_beta   99.77644339
_cell_angle_gamma   130.92173435
_symmetry_Int_Tables_number   1
_chemical_formula_structural   LaNdZn21Pt
_chemical_formula_sum   'La1 Nd1 Zn21 Pt1'
_cell_volume   395.39010769
_cell_formula_units_Z   1
loop_
 _symmetry_equiv_pos_site_id
 _symmetry_equiv_pos_as_xyz
  1  'x, y, z'
loop_
 _atom_site_type_symbol
 _atom_site_label
 _atom_site_symmetry_multiplicity
 _atom_site_fract_x
 _atom_site_fract_y
 _atom_site_fract_z
 _atom_site_occupancy
  La  La0  1  0.252456  0.748726  0.496270  1
  Nd  Nd1  1  0.997630  0.001429  0.003799  1
  Zn  Zn2  1  0.421461  0.093608  0.914249  1
  Zn  Zn3  1  0.180868  0.507613  0.083508  1
  Zn  Zn4  1  0.502832  0.499186  0.996353  1
  Zn  Zn5  1  0.747202  0.250806  0.503604  1
  Zn  Zn6  1  0.125116  0.375083  0.750058  1
  Zn  Zn7  1  0.625024  0.375083  0.249967  1
  Zn  Zn8  1  0.624912  0.874844  0.249932  1
  Zn  Zn9  1  0.179359  0.093608  0.672148  1
  Zn  Zn10  1  0.760200  0.931382  0.584842  1
  Zn  Zn11  1  0.345871  0.172743  0.415523  1
  Zn  Zn12  1  0.424106  0.507613  0.326743  1
  Zn  Zn13  1  0.903415  0.818712  0.328634  1
  Zn  Zn14  1  0.493154  0.577394  0.673341  1
  Zn  Zn15  1  0.069020  0.242036  0.416315  1
  Zn  Zn16  1  0.828332  0.656432  0.585925  1
  Zn  Zn17  1  0.070508  0.656432  0.828099  1
  Zn  Zn18  1  0.490077  0.818712  0.915297  1
  Zn  Zn19  1  0.904054  0.577394  0.084239  1
  Zn  Zn20  1  0.825720  0.242036  0.173016  1
  Zn  Zn21  1  0.346540  0.931382  0.171183  1
  Zn  Zn22  1  0.757221  0.172743  0.826872  1
  Pt  Pt23  1  0.624920  0.375003  0.750083  1
