# generated using pymatgen
data_Nd4IrPd2Au
_symmetry_space_group_name_H-M   'P 1'
_cell_length_a   4.69907400
_cell_length_b   5.74521995
_cell_length_c   7.36390695
_cell_angle_alpha   89.69269037
_cell_angle_beta   90.00000000
_cell_angle_gamma   90.00000000
_symmetry_Int_Tables_number   1
_chemical_formula_structural   Nd4IrPd2Au
_chemical_formula_sum   'Nd4 Ir1 Pd2 Au1'
_cell_volume   198.80211000
_cell_formula_units_Z   1
loop_
 _symmetry_equiv_pos_site_id
 _symmetry_equiv_pos_as_xyz
  1  'x, y, z'
loop_
 _atom_site_type_symbol
 _atom_site_label
 _atom_site_symmetry_multiplicity
 _atom_site_fract_x
 _atom_site_fract_y
 _atom_site_fract_z
 _atom_site_occupancy
  Nd  Nd0  1  0.250000  0.362598  0.674231  1
  Nd  Nd1  1  0.250000  0.131322  0.193209  1
  Nd  Nd2  1  0.750000  0.649457  0.327713  1
  Nd  Nd3  1  0.750000  0.857291  0.802300  1
  Ir  Ir4  1  0.250000  0.839864  0.543626  1
  Pd  Pd5  1  0.250000  0.647793  0.040357  1
  Pd  Pd6  1  0.750000  0.156950  0.456009  1
  Au  Au7  1  0.750000  0.354722  0.962555  1
