# generated using pymatgen
data_Zr6Mn6CrCo16
_symmetry_space_group_name_H-M   'P 1'
_cell_length_a   8.15920269
_cell_length_b   8.15920246
_cell_length_c   8.15920300
_cell_angle_alpha   60.00000185
_cell_angle_beta   60.00000279
_cell_angle_gamma   60.00000092
_symmetry_Int_Tables_number   1
_chemical_formula_structural   Zr6Mn6CrCo16
_chemical_formula_sum   'Zr6 Mn6 Cr1 Co16'
_cell_volume   384.08574596
_cell_formula_units_Z   1
loop_
 _symmetry_equiv_pos_site_id
 _symmetry_equiv_pos_as_xyz
  1  'x, y, z'
loop_
 _atom_site_type_symbol
 _atom_site_label
 _atom_site_symmetry_multiplicity
 _atom_site_fract_x
 _atom_site_fract_y
 _atom_site_fract_z
 _atom_site_occupancy
  Zr  Zr0  1  0.709069  0.290931  0.290931  1
  Zr  Zr1  1  0.290931  0.290931  0.709069  1
  Zr  Zr2  1  0.290931  0.709069  0.709069  1
  Zr  Zr3  1  0.709069  0.709069  0.290931  1
  Zr  Zr4  1  0.290931  0.709069  0.290931  1
  Zr  Zr5  1  0.709069  0.290931  0.709069  1
  Mn  Mn6  1  0.000000  0.500000  0.000000  1
  Mn  Mn7  1  0.000000  0.000000  0.500000  1
  Mn  Mn8  1  0.500000  0.500000  0.000000  1
  Mn  Mn9  1  0.500000  0.000000  0.500000  1
  Mn  Mn10  1  0.500000  0.000000  0.000000  1
  Mn  Mn11  1  0.000000  0.500000  0.500000  1
  Cr  Cr12  1  0.000000  0.000000  0.000000  1
  Co  Co13  1  0.119781  0.119781  0.640658  1
  Co  Co14  1  0.674508  0.976477  0.674508  1
  Co  Co15  1  0.359342  0.880219  0.880219  1
  Co  Co16  1  0.023523  0.325492  0.325492  1
  Co  Co17  1  0.976477  0.674508  0.674508  1
  Co  Co18  1  0.325492  0.325492  0.023523  1
  Co  Co19  1  0.674508  0.674508  0.976477  1
  Co  Co20  1  0.640658  0.119781  0.119781  1
  Co  Co21  1  0.674508  0.674508  0.674508  1
  Co  Co22  1  0.880219  0.880219  0.359342  1
  Co  Co23  1  0.119781  0.119781  0.119781  1
  Co  Co24  1  0.880219  0.359342  0.880219  1
  Co  Co25  1  0.880219  0.880219  0.880219  1
  Co  Co26  1  0.325492  0.325492  0.325492  1
  Co  Co27  1  0.119781  0.640658  0.119781  1
  Co  Co28  1  0.325492  0.023523  0.325492  1
