# generated using pymatgen
data_Dy3Ho13In4(NiIr)2
_symmetry_space_group_name_H-M   'P 1'
_cell_length_a   9.56282810
_cell_length_b   9.58376967
_cell_length_c   9.58376619
_cell_angle_alpha   60.31064272
_cell_angle_beta   60.07419807
_cell_angle_gamma   60.06212971
_symmetry_Int_Tables_number   1
_chemical_formula_structural   Dy3Ho13In4(NiIr)2
_chemical_formula_sum   'Dy3 Ho13 In4 Ni2 Ir2'
_cell_volume   623.16339482
_cell_formula_units_Z   1
loop_
 _symmetry_equiv_pos_site_id
 _symmetry_equiv_pos_as_xyz
  1  'x, y, z'
loop_
 _atom_site_type_symbol
 _atom_site_label
 _atom_site_symmetry_multiplicity
 _atom_site_fract_x
 _atom_site_fract_y
 _atom_site_fract_z
 _atom_site_occupancy
  Dy  Dy0  1  0.441540  0.435493  0.061270  1
  Dy  Dy1  1  0.650160  0.653178  0.047093  1
  Dy  Dy2  1  0.190619  0.809380  0.188318  1
  Ho  Ho3  1  0.061202  0.435746  0.061181  1
  Ho  Ho4  1  0.189636  0.810369  0.809947  1
  Ho  Ho5  1  0.060085  0.439399  0.440063  1
  Ho  Ho6  1  0.809553  0.190485  0.190515  1
  Ho  Ho7  1  0.650272  0.652323  0.652221  1
  Ho  Ho8  1  0.811849  0.188275  0.808980  1
  Ho  Ho9  1  0.190881  0.188608  0.808843  1
  Ho  Ho10  1  0.044945  0.652409  0.652542  1
  Ho  Ho11  1  0.437748  0.062377  0.062268  1
  Ho  Ho12  1  0.061194  0.061279  0.436040  1
  Ho  Ho13  1  0.649982  0.047067  0.653061  1
  Ho  Ho14  1  0.811605  0.809186  0.188397  1
  Ho  Ho15  1  0.441751  0.060905  0.436164  1
  In  In16  1  0.417514  0.417086  0.417658  1
  In  In17  1  0.417401  0.417038  0.747990  1
  In  In18  1  0.417357  0.748199  0.417248  1
  In  In19  1  0.748080  0.417164  0.417369  1
  Ni  Ni20  1  0.424867  0.859649  0.858594  1
  Ni  Ni21  1  0.856958  0.859374  0.859022  1
  Ir  Ir22  1  0.857993  0.425371  0.859064  1
  Ir  Ir23  1  0.856813  0.859639  0.426151  1
