# generated using pymatgen
data_Dy4Ho3LuPt4
_symmetry_space_group_name_H-M   'P 1'
_cell_length_a   4.75372200
_cell_length_b   7.13259425
_cell_length_c   8.74525959
_cell_angle_alpha   90.07824537
_cell_angle_beta   90.00000000
_cell_angle_gamma   90.00000000
_symmetry_Int_Tables_number   1
_chemical_formula_structural   Dy4Ho3LuPt4
_chemical_formula_sum   'Dy4 Ho3 Lu1 Pt4'
_cell_volume   296.51973260
_cell_formula_units_Z   1
loop_
 _symmetry_equiv_pos_site_id
 _symmetry_equiv_pos_as_xyz
  1  'x, y, z'
loop_
 _atom_site_type_symbol
 _atom_site_label
 _atom_site_symmetry_multiplicity
 _atom_site_fract_x
 _atom_site_fract_y
 _atom_site_fract_z
 _atom_site_occupancy
  Dy  Dy0  1  0.250000  0.989813  0.329474  1
  Dy  Dy1  1  0.250000  0.486590  0.169045  1
  Dy  Dy2  1  0.750000  0.012806  0.670378  1
  Dy  Dy3  1  0.750000  0.509438  0.831409  1
  Ho  Ho4  1  0.250000  0.356453  0.578480  1
  Ho  Ho5  1  0.250000  0.855005  0.922298  1
  Ho  Ho6  1  0.750000  0.645666  0.420649  1
  Lu  Lu7  1  0.750000  0.143389  0.078428  1
  Pt  Pt8  1  0.250000  0.255265  0.908310  1
  Pt  Pt9  1  0.250000  0.759185  0.593354  1
  Pt  Pt10  1  0.750000  0.744060  0.093870  1
  Pt  Pt11  1  0.750000  0.242328  0.404308  1
