# generated using pymatgen
data_Yb2YGa9Pd2
_symmetry_space_group_name_H-M   'P 1'
_cell_length_a   8.13985124
_cell_length_b   8.13985116
_cell_length_c   8.13985110
_cell_angle_alpha   149.01849915
_cell_angle_beta   108.42569960
_cell_angle_gamma   80.01396162
_symmetry_Int_Tables_number   1
_chemical_formula_structural   Yb2YGa9Pd2
_chemical_formula_sum   'Yb2 Y1 Ga9 Pd2'
_cell_volume   258.07993631
_cell_formula_units_Z   1
loop_
 _symmetry_equiv_pos_site_id
 _symmetry_equiv_pos_as_xyz
  1  'x, y, z'
loop_
 _atom_site_type_symbol
 _atom_site_label
 _atom_site_symmetry_multiplicity
 _atom_site_fract_x
 _atom_site_fract_y
 _atom_site_fract_z
 _atom_site_occupancy
  Yb  Yb0  1  0.200726  0.200726  0.000000  1
  Yb  Yb1  1  0.799274  0.799274  0.000000  1
  Y  Y2  1  0.500000  0.500000  0.000000  1
  Ga  Ga3  1  0.081728  0.362208  0.719520  1
  Ga  Ga4  1  0.918272  0.637792  0.280480  1
  Ga  Ga5  1  0.642690  0.362208  0.280480  1
  Ga  Ga6  1  0.357310  0.637792  0.719520  1
  Ga  Ga7  1  0.790796  0.156440  0.634356  1
  Ga  Ga8  1  0.209204  0.843560  0.365644  1
  Ga  Ga9  1  0.522083  0.156440  0.365644  1
  Ga  Ga10  1  0.477917  0.843560  0.634356  1
  Ga  Ga11  1  0.000000  0.500000  0.500000  1
  Pd  Pd12  1  0.820316  0.000000  0.820316  1
  Pd  Pd13  1  0.179684  0.000000  0.179684  1
