# generated using pymatgen
data_YbEu3Al13Si5Ir6
_symmetry_space_group_name_H-M   'P 1'
_cell_length_a   7.51113069
_cell_length_b   7.47193276
_cell_length_c   9.52846558
_cell_angle_alpha   89.97879686
_cell_angle_beta   90.01409978
_cell_angle_gamma   119.79164894
_symmetry_Int_Tables_number   1
_chemical_formula_structural   YbEu3Al13Si5Ir6
_chemical_formula_sum   'Yb1 Eu3 Al13 Si5 Ir6'
_cell_volume   464.08743910
_cell_formula_units_Z   1
loop_
 _symmetry_equiv_pos_site_id
 _symmetry_equiv_pos_as_xyz
  1  'x, y, z'
loop_
 _atom_site_type_symbol
 _atom_site_label
 _atom_site_symmetry_multiplicity
 _atom_site_fract_x
 _atom_site_fract_y
 _atom_site_fract_z
 _atom_site_occupancy
  Yb  Yb0  1  0.318050  0.988109  0.745315  1
  Eu  Eu1  1  0.000141  0.663646  0.253266  1
  Eu  Eu2  1  0.005891  0.341794  0.748949  1
  Eu  Eu3  1  0.674336  0.007242  0.252512  1
  Al  Al4  1  0.131044  0.129459  0.250476  1
  Al  Al5  1  0.872165  0.870743  0.750491  1
  Al  Al6  1  0.664642  0.997002  0.579415  1
  Al  Al7  1  0.661438  0.997590  0.922421  1
  Al  Al8  1  0.338889  0.004951  0.067984  1
  Al  Al9  1  0.336738  0.333441  0.561026  1
  Al  Al10  1  0.662620  0.667888  0.444645  1
  Al  Al11  1  0.662704  0.668261  0.054259  1
  Al  Al12  1  0.336579  0.331102  0.938149  1
  Al  Al13  1  0.337364  0.546677  0.250318  1
  Al  Al14  1  0.660574  0.448645  0.750436  1
  Al  Al15  1  0.544683  0.344399  0.249962  1
  Al  Al16  1  0.455449  0.658169  0.749431  1
  Si  Si17  1  0.002475  0.327912  0.065137  1
  Si  Si18  1  0.997966  0.671393  0.933710  1
  Si  Si19  1  0.990856  0.665561  0.571094  1
  Si  Si20  1  0.340062  0.007338  0.427191  1
  Si  Si21  1  0.004048  0.327910  0.432774  1
  Ir  Ir22  1  0.686135  0.338194  0.002100  1
  Ir  Ir23  1  0.313610  0.662178  0.997957  1
  Ir  Ir24  1  0.313730  0.671131  0.501113  1
  Ir  Ir25  1  0.678591  0.330927  0.498895  1
  Ir  Ir26  1  0.001379  0.999824  0.999794  1
  Ir  Ir27  1  0.007846  0.998515  0.501186  1
