# generated using pymatgen
data_Zn3In8HgIr4
_symmetry_space_group_name_H-M   'P 1'
_cell_length_a   6.89538690
_cell_length_b   6.99850210
_cell_length_c   7.33284500
_cell_angle_alpha   90.00000000
_cell_angle_beta   90.00000000
_cell_angle_gamma   88.70393276
_symmetry_Int_Tables_number   1
_chemical_formula_structural   Zn3In8HgIr4
_chemical_formula_sum   'Zn3 In8 Hg1 Ir4'
_cell_volume   353.77335409
_cell_formula_units_Z   1
loop_
 _symmetry_equiv_pos_site_id
 _symmetry_equiv_pos_as_xyz
  1  'x, y, z'
loop_
 _atom_site_type_symbol
 _atom_site_label
 _atom_site_symmetry_multiplicity
 _atom_site_fract_x
 _atom_site_fract_y
 _atom_site_fract_z
 _atom_site_occupancy
  Zn  Zn0  1  0.000000  0.500000  0.000000  1
  Zn  Zn1  1  0.500000  0.000000  0.000000  1
  Zn  Zn2  1  0.000000  0.500000  0.500000  1
  In  In3  1  0.336183  0.342284  0.264744  1
  In  In4  1  0.160022  0.832681  0.771556  1
  In  In5  1  0.160022  0.832681  0.228444  1
  In  In6  1  0.839978  0.167319  0.228444  1
  In  In7  1  0.839978  0.167319  0.771556  1
  In  In8  1  0.663817  0.657716  0.264744  1
  In  In9  1  0.663817  0.657716  0.735256  1
  In  In10  1  0.336183  0.342284  0.735256  1
  Hg  Hg11  1  0.500000  0.000000  0.500000  1
  Ir  Ir12  1  0.159241  0.156004  0.000000  1
  Ir  Ir13  1  0.665978  0.353934  0.500000  1
  Ir  Ir14  1  0.334022  0.646066  0.500000  1
  Ir  Ir15  1  0.840759  0.843996  0.000000  1
