# generated using pymatgen
data_Ca2GaNiF10
_symmetry_space_group_name_H-M   'P 1'
_cell_length_a   5.54846363
_cell_length_b   5.53976318
_cell_length_c   7.68612226
_cell_angle_alpha   70.06252600
_cell_angle_beta   69.93693740
_cell_angle_gamma   71.46255817
_symmetry_Int_Tables_number   1
_chemical_formula_structural   Ca2GaNiF10
_chemical_formula_sum   'Ca2 Ga1 Ni1 F10'
_cell_volume   203.13928940
_cell_formula_units_Z   1
loop_
 _symmetry_equiv_pos_site_id
 _symmetry_equiv_pos_as_xyz
  1  'x, y, z'
loop_
 _atom_site_type_symbol
 _atom_site_label
 _atom_site_symmetry_multiplicity
 _atom_site_fract_x
 _atom_site_fract_y
 _atom_site_fract_z
 _atom_site_occupancy
  Ca  Ca0  1  0.546694  0.455370  0.248142  1
  Ca  Ca1  1  0.453306  0.544630  0.751858  1
  Ga  Ga2  1  0.000000  0.000000  0.000000  1
  Ni  Ni3  1  0.000000  0.000000  0.500000  1
  F  F4  1  0.079403  0.920819  0.751472  1
  F  F5  1  0.920597  0.079181  0.248528  1
  F  F6  1  0.213088  0.243306  0.885667  1
  F  F7  1  0.758703  0.788333  0.612524  1
  F  F8  1  0.717100  0.300377  0.530461  1
  F  F9  1  0.697765  0.285556  0.968135  1
  F  F10  1  0.282900  0.699623  0.469539  1
  F  F11  1  0.302235  0.714444  0.031865  1
  F  F12  1  0.241297  0.211667  0.387476  1
  F  F13  1  0.786912  0.756694  0.114333  1
