# generated using pymatgen
data_Pr12Ir2RhAuBr12
_symmetry_space_group_name_H-M   'P 1'
_cell_length_a   10.66736192
_cell_length_b   10.65444710
_cell_length_c   10.65516502
_cell_angle_alpha   109.72620411
_cell_angle_beta   109.86154373
_cell_angle_gamma   109.83397953
_symmetry_Int_Tables_number   1
_chemical_formula_structural   Pr12Ir2RhAuBr12
_chemical_formula_sum   'Pr12 Ir2 Rh1 Au1 Br12'
_cell_volume   920.45527327
_cell_formula_units_Z   1
loop_
 _symmetry_equiv_pos_site_id
 _symmetry_equiv_pos_as_xyz
  1  'x, y, z'
loop_
 _atom_site_type_symbol
 _atom_site_label
 _atom_site_symmetry_multiplicity
 _atom_site_fract_x
 _atom_site_fract_y
 _atom_site_fract_z
 _atom_site_occupancy
  Pr  Pr0  1  0.472463  0.492724  0.231278  1
  Pr  Pr1  1  0.750001  0.233441  0.266597  1
  Pr  Pr2  1  0.749951  0.014318  0.485599  1
  Pr  Pr3  1  0.230747  0.472179  0.493060  1
  Pr  Pr4  1  0.266812  0.751137  0.234062  1
  Pr  Pr5  1  0.027489  0.268679  0.007219  1
  Pr  Pr6  1  0.007074  0.027831  0.269045  1
  Pr  Pr7  1  0.486206  0.750728  0.014672  1
  Pr  Pr8  1  0.492990  0.231052  0.472229  1
  Pr  Pr9  1  0.013888  0.485346  0.749358  1
  Pr  Pr10  1  0.269192  0.006956  0.027800  1
  Pr  Pr11  1  0.233189  0.265884  0.748868  1
  Ir  Ir12  1  0.500581  0.997851  0.249500  1
  Ir  Ir13  1  0.999391  0.250467  0.502161  1
  Rh  Rh14  1  0.250028  0.500912  0.999103  1
  Au  Au15  1  0.249982  0.250476  0.249552  1
  Br  Br16  1  0.250009  0.755891  0.744098  1
  Br  Br17  1  0.507509  0.502495  0.752639  1
  Br  Br18  1  0.992493  0.747425  0.997417  1
  Br  Br19  1  0.744335  0.250171  0.756117  1
  Br  Br20  1  0.997338  0.992540  0.747613  1
  Br  Br21  1  0.250073  0.997337  0.502761  1
  Br  Br22  1  0.752755  0.507938  0.502844  1
  Br  Br23  1  0.502630  0.250277  0.997424  1
  Br  Br24  1  0.755649  0.743902  0.249809  1
  Br  Br25  1  0.747233  0.997243  0.992067  1
  Br  Br26  1  0.997364  0.502497  0.249671  1
  Br  Br27  1  0.502628  0.752301  0.507436  1
