# generated using pymatgen
data_Eu4DySb3O14
_symmetry_space_group_name_H-M   'P 1'
_cell_length_a   7.59240349
_cell_length_b   7.59240251
_cell_length_c   7.59240334
_cell_angle_alpha   60.34510576
_cell_angle_beta   60.34511760
_cell_angle_gamma   60.34511823
_symmetry_Int_Tables_number   1
_chemical_formula_structural   Eu4DySb3O14
_chemical_formula_sum   'Eu4 Dy1 Sb3 O14'
_cell_volume   311.88918471
_cell_formula_units_Z   1
loop_
 _symmetry_equiv_pos_site_id
 _symmetry_equiv_pos_as_xyz
  1  'x, y, z'
loop_
 _atom_site_type_symbol
 _atom_site_label
 _atom_site_symmetry_multiplicity
 _atom_site_fract_x
 _atom_site_fract_y
 _atom_site_fract_z
 _atom_site_occupancy
  Eu  Eu0  1  0.500000  0.000000  0.500000  1
  Eu  Eu1  1  0.000000  0.500000  0.500000  1
  Eu  Eu2  1  0.500000  0.500000  0.000000  1
  Eu  Eu3  1  0.500000  0.500000  0.500000  1
  Dy  Dy4  1  0.000000  0.000000  0.000000  1
  Sb  Sb5  1  0.000000  0.000000  0.500000  1
  Sb  Sb6  1  0.500000  0.000000  0.000000  1
  Sb  Sb7  1  0.000000  0.500000  0.000000  1
  O  O8  1  0.086672  0.086672  0.643741  1
  O  O9  1  0.913328  0.913328  0.356259  1
  O  O10  1  0.356259  0.913328  0.913328  1
  O  O11  1  0.643741  0.086672  0.086672  1
  O  O12  1  0.915742  0.318159  0.318159  1
  O  O13  1  0.084258  0.681841  0.681841  1
  O  O14  1  0.681841  0.681841  0.084258  1
  O  O15  1  0.318159  0.318159  0.915742  1
  O  O16  1  0.376330  0.376330  0.376330  1
  O  O17  1  0.623670  0.623670  0.623670  1
  O  O18  1  0.913328  0.356259  0.913328  1
  O  O19  1  0.086672  0.643741  0.086672  1
  O  O20  1  0.681841  0.084258  0.681841  1
  O  O21  1  0.318159  0.915742  0.318159  1
