# generated using pymatgen
data_Mg2ScTi(B4Ru5)2
_symmetry_space_group_name_H-M   'P 1'
_cell_length_a   2.97774800
_cell_length_b   8.42429461
_cell_length_c   10.06414903
_cell_angle_alpha   90.64562142
_cell_angle_beta   90.00000000
_cell_angle_gamma   90.00000000
_symmetry_Int_Tables_number   1
_chemical_formula_structural   Mg2ScTi(B4Ru5)2
_chemical_formula_sum   'Mg2 Sc1 Ti1 B8 Ru10'
_cell_volume   252.44744214
_cell_formula_units_Z   1
loop_
 _symmetry_equiv_pos_site_id
 _symmetry_equiv_pos_as_xyz
  1  'x, y, z'
loop_
 _atom_site_type_symbol
 _atom_site_label
 _atom_site_symmetry_multiplicity
 _atom_site_fract_x
 _atom_site_fract_y
 _atom_site_fract_z
 _atom_site_occupancy
  Mg  Mg0  1  0.500000  0.151031  0.679490  1
  Mg  Mg1  1  0.500000  0.848087  0.318439  1
  Sc  Sc2  1  0.500000  0.653627  0.816073  1
  Ti  Ti3  1  0.500000  0.348961  0.185203  1
  B  B4  1  0.500000  0.855358  0.600704  1
  B  B5  1  0.500000  0.145921  0.400017  1
  B  B6  1  0.500000  0.348668  0.895264  1
  B  B7  1  0.500000  0.649799  0.102530  1
  B  B8  1  0.500000  0.962651  0.910671  1
  B  B9  1  0.500000  0.039201  0.089784  1
  B  B10  1  0.500000  0.461743  0.588999  1
  B  B11  1  0.500000  0.539004  0.411695  1
  Ru  Ru12  1  0.000000  0.396778  0.738132  1
  Ru  Ru13  1  0.000000  0.596095  0.261145  1
  Ru  Ru14  1  0.000000  0.902723  0.761778  1
  Ru  Ru15  1  0.000000  0.108885  0.236610  1
  Ru  Ru16  1  0.000000  0.999668  0.497533  1
  Ru  Ru17  1  0.000000  0.492579  0.004904  1
  Ru  Ru18  1  0.000000  0.656790  0.548573  1
  Ru  Ru19  1  0.000000  0.343427  0.448896  1
  Ru  Ru20  1  0.000000  0.158368  0.956337  1
  Ru  Ru21  1  0.000000  0.840633  0.047222  1
