# generated using pymatgen
data_Er15Th(HgPt)4
_symmetry_space_group_name_H-M   'P 1'
_cell_length_a   9.56545000
_cell_length_b   9.56544996
_cell_length_c   9.56544964
_cell_angle_alpha   60.32135429
_cell_angle_beta   60.32135424
_cell_angle_gamma   60.32135557
_symmetry_Int_Tables_number   1
_chemical_formula_structural   Er15Th(HgPt)4
_chemical_formula_sum   'Er15 Th1 Hg4 Pt4'
_cell_volume   623.37234972
_cell_formula_units_Z   1
loop_
 _symmetry_equiv_pos_site_id
 _symmetry_equiv_pos_as_xyz
  1  'x, y, z'
loop_
 _atom_site_type_symbol
 _atom_site_label
 _atom_site_symmetry_multiplicity
 _atom_site_fract_x
 _atom_site_fract_y
 _atom_site_fract_z
 _atom_site_occupancy
  Er  Er0  1  0.357258  0.357258  0.929552  1
  Er  Er1  1  0.357258  0.929552  0.357258  1
  Er  Er2  1  0.929552  0.357258  0.357258  1
  Er  Er3  1  0.813372  0.188105  0.188105  1
  Er  Er4  1  0.191915  0.810524  0.810524  1
  Er  Er5  1  0.188105  0.813372  0.188105  1
  Er  Er6  1  0.810524  0.191915  0.810524  1
  Er  Er7  1  0.188105  0.188105  0.813372  1
  Er  Er8  1  0.810524  0.810524  0.191915  1
  Er  Er9  1  0.935250  0.567123  0.567123  1
  Er  Er10  1  0.564570  0.937829  0.937829  1
  Er  Er11  1  0.567123  0.935250  0.567123  1
  Er  Er12  1  0.937829  0.564570  0.937829  1
  Er  Er13  1  0.567123  0.567123  0.935250  1
  Er  Er14  1  0.937829  0.937829  0.564570  1
  Th  Th15  1  0.350927  0.350927  0.350927  1
  Hg  Hg16  1  0.586723  0.586723  0.586723  1
  Hg  Hg17  1  0.586805  0.586805  0.239568  1
  Hg  Hg18  1  0.586805  0.239568  0.586805  1
  Hg  Hg19  1  0.239568  0.586805  0.586805  1
  Pt  Pt20  1  0.145149  0.145149  0.145149  1
  Pt  Pt21  1  0.139276  0.139276  0.569139  1
  Pt  Pt22  1  0.139276  0.569139  0.139276  1
  Pt  Pt23  1  0.569139  0.139276  0.139276  1
