# generated using pymatgen
data_Cs2NaDyAs2
_symmetry_space_group_name_H-M   'P 1'
_cell_length_a   9.81158224
_cell_length_b   9.81158254
_cell_length_c   9.81158210
_cell_angle_alpha   136.41928488
_cell_angle_beta   136.37277626
_cell_angle_gamma   63.36866622
_symmetry_Int_Tables_number   1
_chemical_formula_structural   Cs2NaDyAs2
_chemical_formula_sum   'Cs4 Na2 Dy2 As4'
_cell_volume   443.47309902
_cell_formula_units_Z   2
loop_
 _symmetry_equiv_pos_site_id
 _symmetry_equiv_pos_as_xyz
  1  'x, y, z'
loop_
 _atom_site_type_symbol
 _atom_site_label
 _atom_site_symmetry_multiplicity
 _atom_site_fract_x
 _atom_site_fract_y
 _atom_site_fract_z
 _atom_site_occupancy
  Cs  Cs0  1  0.680977  0.399722  0.718745  1
  Cs  Cs1  1  0.819023  0.037768  0.218745  1
  Cs  Cs2  1  0.180977  0.962232  0.781255  1
  Cs  Cs3  1  0.319023  0.600278  0.281255  1
  Na  Na4  1  0.750000  0.000000  0.750000  1
  Na  Na5  1  0.250000  0.000000  0.250000  1
  Dy  Dy6  1  0.250000  0.500000  0.750000  1
  Dy  Dy7  1  0.750000  0.500000  0.250000  1
  As  As8  1  0.410350  0.189629  0.779279  1
  As  As9  1  0.589650  0.810371  0.220721  1
  As  As10  1  0.089650  0.368928  0.279279  1
  As  As11  1  0.910350  0.631072  0.720721  1
