# generated using pymatgen
data_Tb3Al8(FeSi)4
_symmetry_space_group_name_H-M   'P 1'
_cell_length_a   8.45039800
_cell_length_b   8.45039733
_cell_length_c   9.18834900
_cell_angle_alpha   90.00000000
_cell_angle_beta   90.00000000
_cell_angle_gamma   120.00486464
_symmetry_Int_Tables_number   1
_chemical_formula_structural   Tb3Al8(FeSi)4
_chemical_formula_sum   'Tb6 Al16 Fe8 Si8'
_cell_volume   568.19985308
_cell_formula_units_Z   2
loop_
 _symmetry_equiv_pos_site_id
 _symmetry_equiv_pos_as_xyz
  1  'x, y, z'
loop_
 _atom_site_type_symbol
 _atom_site_label
 _atom_site_symmetry_multiplicity
 _atom_site_fract_x
 _atom_site_fract_y
 _atom_site_fract_z
 _atom_site_occupancy
  Tb  Tb0  1  0.191402  0.386669  0.250000  1
  Tb  Tb1  1  0.808598  0.613331  0.750000  1
  Tb  Tb2  1  0.613331  0.808598  0.250000  1
  Tb  Tb3  1  0.386669  0.191402  0.750000  1
  Tb  Tb4  1  0.194743  0.805257  0.250000  1
  Tb  Tb5  1  0.805257  0.194743  0.750000  1
  Al  Al6  1  0.164176  0.327441  0.575142  1
  Al  Al7  1  0.835824  0.672559  0.424858  1
  Al  Al8  1  0.672559  0.835824  0.575142  1
  Al  Al9  1  0.835824  0.672559  0.075142  1
  Al  Al10  1  0.327441  0.164176  0.424858  1
  Al  Al11  1  0.164176  0.327441  0.924858  1
  Al  Al12  1  0.164268  0.835732  0.574698  1
  Al  Al13  1  0.327441  0.164176  0.075142  1
  Al  Al14  1  0.835732  0.164268  0.425302  1
  Al  Al15  1  0.672559  0.835824  0.924858  1
  Al  Al16  1  0.835732  0.164268  0.074698  1
  Al  Al17  1  0.164268  0.835732  0.925302  1
  Al  Al18  1  0.563282  0.436718  0.250000  1
  Al  Al19  1  0.436718  0.563282  0.750000  1
  Al  Al20  1  0.000510  0.999490  0.250000  1
  Al  Al21  1  0.999490  0.000510  0.750000  1
  Fe  Fe22  1  0.500000  0.000000  0.000000  1
  Fe  Fe23  1  0.000000  0.500000  0.000000  1
  Fe  Fe24  1  0.500000  0.000000  0.500000  1
  Fe  Fe25  1  0.500000  0.500000  0.000000  1
  Fe  Fe26  1  0.000000  0.500000  0.500000  1
  Fe  Fe27  1  0.500000  0.500000  0.500000  1
  Fe  Fe28  1  0.000000  0.000000  0.000000  1
  Fe  Fe29  1  0.000000  0.000000  0.500000  1
  Si  Si30  1  0.335476  0.664524  0.031658  1
  Si  Si31  1  0.664524  0.335476  0.968342  1
  Si  Si32  1  0.664524  0.335476  0.531658  1
  Si  Si33  1  0.335476  0.664524  0.468342  1
  Si  Si34  1  0.561947  0.120181  0.250000  1
  Si  Si35  1  0.438053  0.879819  0.750000  1
  Si  Si36  1  0.879819  0.438053  0.250000  1
  Si  Si37  1  0.120181  0.561947  0.750000  1
