# generated using pymatgen
data_AcH5Pt
_symmetry_space_group_name_H-M   'P 1'
_cell_length_a   4.99900800
_cell_length_b   4.77213100
_cell_length_c   13.56226000
_cell_angle_alpha   90.00000000
_cell_angle_beta   90.00000000
_cell_angle_gamma   90.00000000
_symmetry_Int_Tables_number   1
_chemical_formula_structural   AcH5Pt
_chemical_formula_sum   'Ac4 H20 Pt4'
_cell_volume   323.54020377
_cell_formula_units_Z   4
loop_
 _symmetry_equiv_pos_site_id
 _symmetry_equiv_pos_as_xyz
  1  'x, y, z'
loop_
 _atom_site_type_symbol
 _atom_site_label
 _atom_site_symmetry_multiplicity
 _atom_site_fract_x
 _atom_site_fract_y
 _atom_site_fract_z
 _atom_site_occupancy
  Ac  Ac0  1  0.279489  0.013460  0.632187  1
  Ac  Ac1  1  0.779489  0.486540  0.367813  1
  Ac  Ac2  1  0.220511  0.986540  0.132187  1
  Ac  Ac3  1  0.720511  0.513460  0.867813  1
  H  H4  1  0.752373  0.231510  0.553715  1
  H  H5  1  0.252373  0.268490  0.446285  1
  H  H6  1  0.747627  0.768490  0.053715  1
  H  H7  1  0.247627  0.731510  0.946285  1
  H  H8  1  0.029531  0.909439  0.802072  1
  H  H9  1  0.529531  0.590561  0.197928  1
  H  H10  1  0.470469  0.090561  0.302072  1
  H  H11  1  0.970469  0.409439  0.697928  1
  H  H12  1  0.214426  0.341259  0.830067  1
  H  H13  1  0.714426  0.158741  0.169933  1
  H  H14  1  0.285574  0.658741  0.330067  1
  H  H15  1  0.785574  0.841259  0.669933  1
  H  H16  1  0.549113  0.997983  0.806182  1
  H  H17  1  0.049113  0.502017  0.193818  1
  H  H18  1  0.950887  0.002017  0.306182  1
  H  H19  1  0.450887  0.497983  0.693818  1
  H  H20  1  0.925073  0.316508  0.027240  1
  H  H21  1  0.425073  0.183492  0.972760  1
  H  H22  1  0.574927  0.683492  0.527240  1
  H  H23  1  0.074927  0.816508  0.472760  1
  Pt  Pt24  1  0.248664  0.030515  0.883589  1
  Pt  Pt25  1  0.748664  0.469485  0.116411  1
  Pt  Pt26  1  0.251336  0.969485  0.383589  1
  Pt  Pt27  1  0.751336  0.530515  0.616411  1
