# generated using pymatgen
data_Pm4Fe3NiO12
_symmetry_space_group_name_H-M   'P 1'
_cell_length_a   5.43207015
_cell_length_b   5.67303380
_cell_length_c   7.79410533
_cell_angle_alpha   89.71412801
_cell_angle_beta   90.12061341
_cell_angle_gamma   89.90174565
_symmetry_Int_Tables_number   1
_chemical_formula_structural   Pm4Fe3NiO12
_chemical_formula_sum   'Pm4 Fe3 Ni1 O12'
_cell_volume   240.18174591
_cell_formula_units_Z   1
loop_
 _symmetry_equiv_pos_site_id
 _symmetry_equiv_pos_as_xyz
  1  'x, y, z'
loop_
 _atom_site_type_symbol
 _atom_site_label
 _atom_site_symmetry_multiplicity
 _atom_site_fract_x
 _atom_site_fract_y
 _atom_site_fract_z
 _atom_site_occupancy
  Pm  Pm0  1  0.985144  0.059248  0.246697  1
  Pm  Pm1  1  0.515237  0.564098  0.246525  1
  Pm  Pm2  1  0.484764  0.435902  0.753475  1
  Pm  Pm3  1  0.014855  0.940752  0.753303  1
  Fe  Fe4  1  0.000000  0.499999  0.000000  1
  Fe  Fe5  1  0.500000  0.000000  0.500000  1
  Fe  Fe6  1  0.000000  0.499999  0.500000  1
  Ni  Ni7  1  0.500000  0.000000  0.000000  1
  O  O8  1  0.706695  0.303474  0.048018  1
  O  O9  1  0.803169  0.793594  0.048934  1
  O  O10  1  0.096154  0.471282  0.251484  1
  O  O11  1  0.404660  0.971908  0.254199  1
  O  O12  1  0.701036  0.300245  0.447884  1
  O  O13  1  0.800324  0.798644  0.448419  1
  O  O14  1  0.199677  0.201356  0.551582  1
  O  O15  1  0.298965  0.699755  0.552117  1
  O  O16  1  0.595341  0.028092  0.745801  1
  O  O17  1  0.903847  0.528718  0.748516  1
  O  O18  1  0.196832  0.206406  0.951067  1
  O  O19  1  0.293306  0.696526  0.951983  1
