# generated using pymatgen
data_Yb4Al18IrPd5
_symmetry_space_group_name_H-M   'P 1'
_cell_length_a   7.64385867
_cell_length_b   7.64385832
_cell_length_c   9.51328361
_cell_angle_alpha   90.01932767
_cell_angle_beta   90.01933071
_cell_angle_gamma   119.50846601
_symmetry_Int_Tables_number   1
_chemical_formula_structural   Yb4Al18IrPd5
_chemical_formula_sum   'Yb4 Al18 Ir1 Pd5'
_cell_volume   483.74455252
_cell_formula_units_Z   1
loop_
 _symmetry_equiv_pos_site_id
 _symmetry_equiv_pos_as_xyz
  1  'x, y, z'
loop_
 _atom_site_type_symbol
 _atom_site_label
 _atom_site_symmetry_multiplicity
 _atom_site_fract_x
 _atom_site_fract_y
 _atom_site_fract_z
 _atom_site_occupancy
  Yb  Yb0  1  0.996272  0.670870  0.251217  1
  Yb  Yb1  1  0.003728  0.329130  0.748783  1
  Yb  Yb2  1  0.670870  0.996272  0.251217  1
  Yb  Yb3  1  0.329130  0.003728  0.748783  1
  Al  Al4  1  0.129588  0.129588  0.252234  1
  Al  Al5  1  0.870412  0.870412  0.747766  1
  Al  Al6  1  0.000795  0.334977  0.078019  1
  Al  Al7  1  0.999205  0.665023  0.921981  1
  Al  Al8  1  0.000435  0.668916  0.575174  1
  Al  Al9  1  0.331084  0.999565  0.424826  1
  Al  Al10  1  0.999565  0.331084  0.424826  1
  Al  Al11  1  0.668916  0.000435  0.575174  1
  Al  Al12  1  0.665023  0.999205  0.921981  1
  Al  Al13  1  0.334977  0.000795  0.078019  1
  Al  Al14  1  0.329166  0.329166  0.552496  1
  Al  Al15  1  0.670834  0.670834  0.447504  1
  Al  Al16  1  0.666835  0.666835  0.054432  1
  Al  Al17  1  0.333165  0.333165  0.945568  1
  Al  Al18  1  0.340041  0.544671  0.250861  1
  Al  Al19  1  0.659959  0.455329  0.749139  1
  Al  Al20  1  0.544671  0.340041  0.250861  1
  Al  Al21  1  0.455329  0.659959  0.749139  1
  Ir  Ir22  1  0.000000  0.000000  0.500000  1
  Pd  Pd23  1  0.671546  0.328454  0.000000  1
  Pd  Pd24  1  0.328454  0.671546  0.000000  1
  Pd  Pd25  1  0.328695  0.671305  0.500000  1
  Pd  Pd26  1  0.671305  0.328695  0.500000  1
  Pd  Pd27  1  0.000000  0.000000  0.000000  1
