# generated using pymatgen
data_Y3TmCo4(P3Ir4)4
_symmetry_space_group_name_H-M   'P 1'
_cell_length_a   3.93245600
_cell_length_b   10.72504311
_cell_length_c   12.38867113
_cell_angle_alpha   90.01671309
_cell_angle_beta   90.00000000
_cell_angle_gamma   90.00000000
_symmetry_Int_Tables_number   1
_chemical_formula_structural   Y3TmCo4(P3Ir4)4
_chemical_formula_sum   'Y3 Tm1 Co4 P12 Ir16'
_cell_volume   522.50159993
_cell_formula_units_Z   1
loop_
 _symmetry_equiv_pos_site_id
 _symmetry_equiv_pos_as_xyz
  1  'x, y, z'
loop_
 _atom_site_type_symbol
 _atom_site_label
 _atom_site_symmetry_multiplicity
 _atom_site_fract_x
 _atom_site_fract_y
 _atom_site_fract_z
 _atom_site_occupancy
  Y  Y0  1  0.250000  0.585493  0.709903  1
  Y  Y1  1  0.250000  0.914525  0.209850  1
  Y  Y2  1  0.750000  0.414454  0.290114  1
  Tm  Tm3  1  0.750000  0.085668  0.790149  1
  Co  Co4  1  0.250000  0.461316  0.934007  1
  Co  Co5  1  0.250000  0.038324  0.434400  1
  Co  Co6  1  0.750000  0.538312  0.065849  1
  Co  Co7  1  0.750000  0.961872  0.566335  1
  P  P8  1  0.250000  0.426063  0.105409  1
  P  P9  1  0.250000  0.073828  0.605925  1
  P  P10  1  0.750000  0.573806  0.894491  1
  P  P11  1  0.750000  0.926202  0.394736  1
  P  P12  1  0.250000  0.270603  0.871168  1
  P  P13  1  0.250000  0.228712  0.371645  1
  P  P14  1  0.750000  0.728812  0.128300  1
  P  P15  1  0.750000  0.771262  0.628298  1
  P  P16  1  0.250000  0.594735  0.384954  1
  P  P17  1  0.250000  0.905825  0.884633  1
  P  P18  1  0.750000  0.405370  0.614986  1
  P  P19  1  0.750000  0.094800  0.115186  1
  Ir  Ir20  1  0.250000  0.721393  0.980980  1
  Ir  Ir21  1  0.250000  0.778824  0.481368  1
  Ir  Ir22  1  0.750000  0.278759  0.018694  1
  Ir  Ir23  1  0.750000  0.221159  0.519091  1
  Ir  Ir24  1  0.250000  0.407682  0.478780  1
  Ir  Ir25  1  0.250000  0.092388  0.977122  1
  Ir  Ir26  1  0.750000  0.592328  0.521285  1
  Ir  Ir27  1  0.750000  0.907879  0.021262  1
  Ir  Ir28  1  0.250000  0.231645  0.179436  1
  Ir  Ir29  1  0.250000  0.266918  0.680345  1
  Ir  Ir30  1  0.750000  0.768233  0.820210  1
  Ir  Ir31  1  0.750000  0.731855  0.320427  1
  Ir  Ir32  1  0.250000  0.887410  0.699473  1
  Ir  Ir33  1  0.250000  0.613905  0.198841  1
  Ir  Ir34  1  0.750000  0.113894  0.301276  1
  Ir  Ir35  1  0.750000  0.385748  0.801074  1
