# generated using pymatgen
data_Tb6HoCoSn23Ru5
_symmetry_space_group_name_H-M   'P 1'
_cell_length_a   9.84983945
_cell_length_b   9.84983815
_cell_length_c   10.07884617
_cell_angle_alpha   90.00796916
_cell_angle_beta   89.99202857
_cell_angle_gamma   119.97412953
_symmetry_Int_Tables_number   1
_chemical_formula_structural   Tb6HoCoSn23Ru5
_chemical_formula_sum   'Tb6 Ho1 Co1 Sn23 Ru5'
_cell_volume   847.05740870
_cell_formula_units_Z   1
loop_
 _symmetry_equiv_pos_site_id
 _symmetry_equiv_pos_as_xyz
  1  'x, y, z'
loop_
 _atom_site_type_symbol
 _atom_site_label
 _atom_site_symmetry_multiplicity
 _atom_site_fract_x
 _atom_site_fract_y
 _atom_site_fract_z
 _atom_site_occupancy
  Tb  Tb0  1  0.004158  0.995842  0.995121  1
  Tb  Tb1  1  0.515795  0.484205  0.696763  1
  Tb  Tb2  1  0.516521  0.032512  0.696139  1
  Tb  Tb3  1  0.967488  0.483479  0.696139  1
  Tb  Tb4  1  0.033056  0.517223  0.304349  1
  Tb  Tb5  1  0.482777  0.966944  0.304349  1
  Ho  Ho6  1  0.483071  0.516929  0.303491  1
  Co  Co7  1  0.829132  0.170868  0.200436  1
  Sn  Sn8  1  0.667576  0.332424  0.181137  1
  Sn  Sn9  1  0.666546  0.333454  0.874863  1
  Sn  Sn10  1  0.333257  0.666743  0.126028  1
  Sn  Sn11  1  0.348987  0.348940  0.000208  1
  Sn  Sn12  1  0.998847  0.648531  0.000297  1
  Sn  Sn13  1  0.654996  0.002459  0.004515  1
  Sn  Sn14  1  0.651060  0.651013  0.000208  1
  Sn  Sn15  1  0.333233  0.666767  0.820828  1
  Sn  Sn16  1  0.438999  0.220224  0.461352  1
  Sn  Sn17  1  0.219924  0.780076  0.539426  1
  Sn  Sn18  1  0.219574  0.438968  0.538592  1
  Sn  Sn19  1  0.561032  0.780426  0.538592  1
  Sn  Sn20  1  0.118607  0.881393  0.272683  1
  Sn  Sn21  1  0.779776  0.561001  0.461352  1
  Sn  Sn22  1  0.782424  0.217576  0.455812  1
  Sn  Sn23  1  0.351469  0.001153  0.000297  1
  Sn  Sn24  1  0.111182  0.233356  0.271684  1
  Sn  Sn25  1  0.766644  0.888818  0.271684  1
  Sn  Sn26  1  0.235800  0.118331  0.725100  1
  Sn  Sn27  1  0.881669  0.764200  0.725100  1
  Sn  Sn28  1  0.881725  0.118275  0.727327  1
  Sn  Sn29  1  0.000202  0.999798  0.498760  1
  Sn  Sn30  1  0.997541  0.345004  0.004515  1
  Ru  Ru31  1  0.169187  0.830813  0.800105  1
  Ru  Ru32  1  0.168270  0.338923  0.799376  1
  Ru  Ru33  1  0.661077  0.831730  0.799376  1
  Ru  Ru34  1  0.338680  0.170278  0.202000  1
  Ru  Ru35  1  0.829722  0.661320  0.202000  1
