# generated using pymatgen
data_U2NbCo4P3
_symmetry_space_group_name_H-M   'P 1'
_cell_length_a   3.75461700
_cell_length_b   3.75280500
_cell_length_c   10.17242800
_cell_angle_alpha   90.00000000
_cell_angle_beta   90.00000000
_cell_angle_gamma   90.00000000
_symmetry_Int_Tables_number   1
_chemical_formula_structural   U2NbCo4P3
_chemical_formula_sum   'U2 Nb1 Co4 P3'
_cell_volume   143.33302459
_cell_formula_units_Z   1
loop_
 _symmetry_equiv_pos_site_id
 _symmetry_equiv_pos_as_xyz
  1  'x, y, z'
loop_
 _atom_site_type_symbol
 _atom_site_label
 _atom_site_symmetry_multiplicity
 _atom_site_fract_x
 _atom_site_fract_y
 _atom_site_fract_z
 _atom_site_occupancy
  U  U0  1  0.500000  0.000000  0.260919  1
  U  U1  1  0.000000  0.500000  0.738939  1
  Nb  Nb2  1  0.500000  0.500000  0.000145  1
  Co  Co3  1  0.000000  0.500000  0.160991  1
  Co  Co4  1  0.500000  0.000000  0.839003  1
  Co  Co5  1  0.000000  0.000000  0.500072  1
  Co  Co6  1  0.500000  0.500000  0.499881  1
  P  P7  1  0.000000  0.500000  0.378568  1
  P  P8  1  0.500000  0.000000  0.621406  1
  P  P9  1  0.000000  0.000000  0.000078  1
