# generated using pymatgen
data_Hf3Zn2Pb
_symmetry_space_group_name_H-M   'P 1'
_cell_length_a   5.76797400
_cell_length_b   8.59406400
_cell_length_c   9.55034500
_cell_angle_alpha   90.00000000
_cell_angle_beta   90.00000000
_cell_angle_gamma   90.00000000
_symmetry_Int_Tables_number   1
_chemical_formula_structural   Hf3Zn2Pb
_chemical_formula_sum   'Hf12 Zn8 Pb4'
_cell_volume   473.41382686
_cell_formula_units_Z   4
loop_
 _symmetry_equiv_pos_site_id
 _symmetry_equiv_pos_as_xyz
  1  'x, y, z'
loop_
 _atom_site_type_symbol
 _atom_site_label
 _atom_site_symmetry_multiplicity
 _atom_site_fract_x
 _atom_site_fract_y
 _atom_site_fract_z
 _atom_site_occupancy
  Hf  Hf0  1  0.000000  0.750000  0.139227  1
  Hf  Hf1  1  0.500000  0.250000  0.860773  1
  Hf  Hf2  1  0.000000  0.250000  0.860773  1
  Hf  Hf3  1  0.500000  0.750000  0.139227  1
  Hf  Hf4  1  0.750000  0.465836  0.617527  1
  Hf  Hf5  1  0.250000  0.534164  0.382473  1
  Hf  Hf6  1  0.750000  0.965836  0.382473  1
  Hf  Hf7  1  0.250000  0.034164  0.617527  1
  Hf  Hf8  1  0.750000  0.375563  0.204688  1
  Hf  Hf9  1  0.250000  0.624437  0.795312  1
  Hf  Hf10  1  0.750000  0.875563  0.795312  1
  Hf  Hf11  1  0.250000  0.124437  0.204688  1
  Zn  Zn12  1  0.000000  0.750000  0.567124  1
  Zn  Zn13  1  0.500000  0.250000  0.432876  1
  Zn  Zn14  1  0.000000  0.250000  0.432876  1
  Zn  Zn15  1  0.500000  0.750000  0.567124  1
  Zn  Zn16  1  0.750000  0.130425  0.633064  1
  Zn  Zn17  1  0.250000  0.869575  0.366936  1
  Zn  Zn18  1  0.750000  0.630425  0.366936  1
  Zn  Zn19  1  0.250000  0.369575  0.633064  1
  Pb  Pb20  1  0.750000  0.059189  0.084908  1
  Pb  Pb21  1  0.250000  0.940811  0.915092  1
  Pb  Pb22  1  0.750000  0.559189  0.915092  1
  Pb  Pb23  1  0.250000  0.440811  0.084908  1
