# generated using pymatgen
data_ZnHg(Se2O7)2
_symmetry_space_group_name_H-M   'P 1'
_cell_length_a   5.28290176
_cell_length_b   7.38059859
_cell_length_c   9.27443283
_cell_angle_alpha   92.29327393
_cell_angle_beta   94.61954641
_cell_angle_gamma   105.69078024
_symmetry_Int_Tables_number   1
_chemical_formula_structural   ZnHg(Se2O7)2
_chemical_formula_sum   'Zn1 Hg1 Se4 O14'
_cell_volume   346.29232844
_cell_formula_units_Z   1
loop_
 _symmetry_equiv_pos_site_id
 _symmetry_equiv_pos_as_xyz
  1  'x, y, z'
loop_
 _atom_site_type_symbol
 _atom_site_label
 _atom_site_symmetry_multiplicity
 _atom_site_fract_x
 _atom_site_fract_y
 _atom_site_fract_z
 _atom_site_occupancy
  Zn  Zn0  1  0.500000  0.000000  0.500000  1
  Hg  Hg1  1  0.000000  0.500000  0.000000  1
  Se  Se2  1  0.509823  0.652282  0.758538  1
  Se  Se3  1  0.490177  0.347718  0.241462  1
  Se  Se4  1  0.125006  0.236662  0.678005  1
  Se  Se5  1  0.874994  0.763338  0.321995  1
  O  O6  1  0.737424  0.540920  0.797999  1
  O  O7  1  0.262576  0.459080  0.202001  1
  O  O8  1  0.360822  0.707986  0.897283  1
  O  O9  1  0.639178  0.292014  0.102717  1
  O  O10  1  0.618851  0.826294  0.653937  1
  O  O11  1  0.381149  0.173706  0.346063  1
  O  O12  1  0.263184  0.484349  0.634462  1
  O  O13  1  0.736816  0.515651  0.365538  1
  O  O14  1  0.887539  0.181420  0.544073  1
  O  O15  1  0.112461  0.818580  0.455927  1
  O  O16  1  0.362877  0.131284  0.667933  1
  O  O17  1  0.637123  0.868716  0.332067  1
  O  O18  1  0.043119  0.239455  0.846139  1
  O  O19  1  0.956881  0.760545  0.153861  1
