# generated using pymatgen
data_Dy15YCd4(IrPt)2
_symmetry_space_group_name_H-M   'P 1'
_cell_length_a   9.65862918
_cell_length_b   9.65862873
_cell_length_c   9.63769200
_cell_angle_alpha   60.07168010
_cell_angle_beta   60.07168166
_cell_angle_gamma   60.18515388
_symmetry_Int_Tables_number   1
_chemical_formula_structural   Dy15YCd4(IrPt)2
_chemical_formula_sum   'Dy15 Y1 Cd4 Ir2 Pt2'
_cell_volume   637.32953377
_cell_formula_units_Z   1
loop_
 _symmetry_equiv_pos_site_id
 _symmetry_equiv_pos_as_xyz
  1  'x, y, z'
loop_
 _atom_site_type_symbol
 _atom_site_label
 _atom_site_symmetry_multiplicity
 _atom_site_fract_x
 _atom_site_fract_y
 _atom_site_fract_z
 _atom_site_occupancy
  Dy  Dy0  1  0.350570  0.350570  0.346074  1
  Dy  Dy1  1  0.350570  0.350570  0.952786  1
  Dy  Dy2  1  0.356051  0.944512  0.349718  1
  Dy  Dy3  1  0.944512  0.356051  0.349718  1
  Dy  Dy4  1  0.806692  0.190293  0.190432  1
  Dy  Dy5  1  0.190293  0.806692  0.812583  1
  Dy  Dy6  1  0.190293  0.806692  0.190432  1
  Dy  Dy7  1  0.806692  0.190293  0.812583  1
  Dy  Dy8  1  0.191400  0.191400  0.808600  1
  Dy  Dy9  1  0.811187  0.811187  0.188813  1
  Dy  Dy10  1  0.937486  0.564584  0.561852  1
  Dy  Dy11  1  0.564584  0.937486  0.936079  1
  Dy  Dy12  1  0.564584  0.937486  0.561852  1
  Dy  Dy13  1  0.937486  0.564584  0.936079  1
  Dy  Dy14  1  0.563877  0.563877  0.936123  1
  Y  Y15  1  0.936894  0.936894  0.563106  1
  Cd  Cd16  1  0.581122  0.581122  0.581969  1
  Cd  Cd17  1  0.581122  0.581122  0.255788  1
  Cd  Cd18  1  0.580612  0.255680  0.581855  1
  Cd  Cd19  1  0.255680  0.580612  0.581855  1
  Ir  Ir20  1  0.140951  0.573237  0.142906  1
  Ir  Ir21  1  0.573237  0.140951  0.142906  1
  Pt  Pt22  1  0.142054  0.142054  0.144834  1
  Pt  Pt23  1  0.142054  0.142054  0.571059  1
