# generated using pymatgen
data_La13Nd3Cd4Co3Pd
_symmetry_space_group_name_H-M   'P 1'
_cell_length_a   10.00414693
_cell_length_b   10.01958048
_cell_length_c   10.00083100
_cell_angle_alpha   60.06188559
_cell_angle_beta   60.01096717
_cell_angle_gamma   60.13415467
_symmetry_Int_Tables_number   1
_chemical_formula_structural   La13Nd3Cd4Co3Pd
_chemical_formula_sum   'La13 Nd3 Cd4 Co3 Pd1'
_cell_volume   709.95085624
_cell_formula_units_Z   1
loop_
 _symmetry_equiv_pos_site_id
 _symmetry_equiv_pos_as_xyz
  1  'x, y, z'
loop_
 _atom_site_type_symbol
 _atom_site_label
 _atom_site_symmetry_multiplicity
 _atom_site_fract_x
 _atom_site_fract_y
 _atom_site_fract_z
 _atom_site_occupancy
  La  La0  1  0.677840  0.705865  0.308147  1
  La  La1  1  0.163811  0.147494  0.539863  1
  La  La2  1  0.310115  0.690610  0.688694  1
  La  La3  1  0.163811  0.147494  0.148831  1
  La  La4  1  0.535152  0.153951  0.155448  1
  La  La5  1  0.310115  0.690610  0.310581  1
  La  La6  1  0.311473  0.310629  0.688949  1
  La  La7  1  0.677750  0.308130  0.704504  1
  La  La8  1  0.939615  0.561203  0.561415  1
  La  La9  1  0.563117  0.562673  0.937105  1
  La  La10  1  0.163248  0.540586  0.148083  1
  La  La11  1  0.677750  0.308130  0.309616  1
  La  La12  1  0.939615  0.561203  0.937768  1
  Nd  Nd13  1  0.937086  0.938380  0.562268  1
  Nd  Nd14  1  0.563929  0.937778  0.563347  1
  Nd  Nd15  1  0.563929  0.937778  0.934945  1
  Cd  Cd16  1  0.239924  0.920413  0.919831  1
  Cd  Cd17  1  0.920409  0.921182  0.920249  1
  Cd  Cd18  1  0.920409  0.921182  0.238159  1
  Cd  Cd19  1  0.920995  0.237156  0.920924  1
  Co  Co20  1  0.359690  0.358182  0.922527  1
  Co  Co21  1  0.359285  0.922361  0.359177  1
  Co  Co22  1  0.359690  0.358182  0.359601  1
  Pd  Pd23  1  0.921236  0.358831  0.359967  1
