# generated using pymatgen
data_LaTb3Pr2OsI10
_symmetry_space_group_name_H-M   'P 1'
_cell_length_a   7.95064182
_cell_length_b   9.96801907
_cell_length_c   9.93586233
_cell_angle_alpha   106.86512543
_cell_angle_beta   96.38897043
_cell_angle_gamma   105.68433004
_symmetry_Int_Tables_number   1
_chemical_formula_structural   LaTb3Pr2OsI10
_chemical_formula_sum   'La1 Tb3 Pr2 Os1 I10'
_cell_volume   709.96674852
_cell_formula_units_Z   1
loop_
 _symmetry_equiv_pos_site_id
 _symmetry_equiv_pos_as_xyz
  1  'x, y, z'
loop_
 _atom_site_type_symbol
 _atom_site_label
 _atom_site_symmetry_multiplicity
 _atom_site_fract_x
 _atom_site_fract_y
 _atom_site_fract_z
 _atom_site_occupancy
  La  La0  1  0.617257  0.044929  0.272605  1
  Tb  Tb1  1  0.473246  0.290188  0.588896  1
  Tb  Tb2  1  0.530913  0.711297  0.414438  1
  Tb  Tb3  1  0.851633  0.129642  0.669732  1
  Pr  Pr4  1  0.137702  0.865324  0.323695  1
  Pr  Pr5  1  0.387650  0.957710  0.731025  1
  Os  Os6  1  0.504095  0.001926  0.494586  1
  I  I7  1  0.417868  0.626205  0.675545  1
  I  I8  1  0.582701  0.378573  0.328835  1
  I  I9  1  0.283794  0.261068  0.841706  1
  I  I10  1  0.700076  0.729750  0.151288  1
  I  I11  1  0.851974  0.450430  0.770519  1
  I  I12  1  0.155034  0.540758  0.230853  1
  I  I13  1  0.052314  0.187379  0.419532  1
  I  I14  1  0.238170  0.913796  0.038590  1
  I  I15  1  0.765690  0.088853  0.954392  1
  I  I16  1  0.949885  0.822171  0.593762  1
