# generated using pymatgen
data_HoLu3B3C4
_symmetry_space_group_name_H-M   'P 1'
_cell_length_a   3.43728664
_cell_length_b   3.52976274
_cell_length_c   11.75042440
_cell_angle_alpha   92.75965059
_cell_angle_beta   96.16213818
_cell_angle_gamma   90.17094658
_symmetry_Int_Tables_number   1
_chemical_formula_structural   HoLu3B3C4
_chemical_formula_sum   'Ho1 Lu3 B3 C4'
_cell_volume   141.57274619
_cell_formula_units_Z   1
loop_
 _symmetry_equiv_pos_site_id
 _symmetry_equiv_pos_as_xyz
  1  'x, y, z'
loop_
 _atom_site_type_symbol
 _atom_site_label
 _atom_site_symmetry_multiplicity
 _atom_site_fract_x
 _atom_site_fract_y
 _atom_site_fract_z
 _atom_site_occupancy
  Ho  Ho0  1  0.805047  0.024638  0.650145  1
  Lu  Lu1  1  0.385170  0.553131  0.859813  1
  Lu  Lu2  1  0.614358  0.447312  0.140541  1
  Lu  Lu3  1  0.194160  0.975112  0.347756  1
  B  B4  1  0.264175  0.506788  0.540215  1
  B  B5  1  0.735422  0.493325  0.458978  1
  B  B6  1  0.000656  0.999825  0.000905  1
  C  C7  1  0.887610  0.062501  0.879263  1
  C  C8  1  0.687467  0.471242  0.330482  1
  C  C9  1  0.312387  0.528526  0.669216  1
  C  C10  1  0.113549  0.937600  0.122686  1
