# generated using pymatgen
data_Cd5Sb(Pd2Au)6
_symmetry_space_group_name_H-M   'P 1'
_cell_length_a   4.33025200
_cell_length_b   7.47751000
_cell_length_c   12.76561900
_cell_angle_alpha   90.00000000
_cell_angle_beta   89.99999946
_cell_angle_gamma   90.00000000
_symmetry_Int_Tables_number   1
_chemical_formula_structural   Cd5Sb(Pd2Au)6
_chemical_formula_sum   'Cd5 Sb1 Pd12 Au6'
_cell_volume   413.34439410
_cell_formula_units_Z   1
loop_
 _symmetry_equiv_pos_site_id
 _symmetry_equiv_pos_as_xyz
  1  'x, y, z'
loop_
 _atom_site_type_symbol
 _atom_site_label
 _atom_site_symmetry_multiplicity
 _atom_site_fract_x
 _atom_site_fract_y
 _atom_site_fract_z
 _atom_site_occupancy
  Cd  Cd0  1  0.499995  0.500000  0.164030  1
  Cd  Cd1  1  0.999999  0.000000  0.336092  1
  Cd  Cd2  1  0.500001  0.500000  0.500000  1
  Cd  Cd3  1  0.000001  0.000000  0.663908  1
  Cd  Cd4  1  0.500005  0.500000  0.835971  1
  Sb  Sb5  1  0.000000  0.000000  0.000000  1
  Pd  Pd6  1  0.500000  0.235157  0.000000  1
  Pd  Pd7  1  0.500000  0.764843  0.000000  1
  Pd  Pd8  1  0.999996  0.243635  0.162465  1
  Pd  Pd9  1  0.999996  0.756365  0.162465  1
  Pd  Pd10  1  0.499997  0.255126  0.334226  1
  Pd  Pd11  1  0.499997  0.744873  0.334226  1
  Pd  Pd12  1  0.000000  0.253164  0.500000  1
  Pd  Pd13  1  0.000000  0.746836  0.500000  1
  Pd  Pd14  1  0.500002  0.255126  0.665774  1
  Pd  Pd15  1  0.500002  0.744873  0.665774  1
  Pd  Pd16  1  0.000004  0.243635  0.837535  1
  Pd  Pd17  1  0.000004  0.756365  0.837535  1
  Au  Au18  1  0.000000  0.500000  0.000000  1
  Au  Au19  1  0.500000  0.000000  0.177323  1
  Au  Au20  1  0.999998  0.500000  0.329709  1
  Au  Au21  1  0.500001  0.000000  0.500000  1
  Au  Au22  1  0.000002  0.500000  0.670290  1
  Au  Au23  1  0.500000  0.000000  0.822677  1
