# generated using pymatgen
data_YbLu3(Zn4Ru)2
_symmetry_space_group_name_H-M   'P 1'
_cell_length_a   6.93481700
_cell_length_b   6.93481700
_cell_length_c   5.23991900
_cell_angle_alpha   90.00000000
_cell_angle_beta   90.00000000
_cell_angle_gamma   90.00000000
_symmetry_Int_Tables_number   1
_chemical_formula_structural   YbLu3(Zn4Ru)2
_chemical_formula_sum   'Yb1 Lu3 Zn8 Ru2'
_cell_volume   251.99654353
_cell_formula_units_Z   1
loop_
 _symmetry_equiv_pos_site_id
 _symmetry_equiv_pos_as_xyz
  1  'x, y, z'
loop_
 _atom_site_type_symbol
 _atom_site_label
 _atom_site_symmetry_multiplicity
 _atom_site_fract_x
 _atom_site_fract_y
 _atom_site_fract_z
 _atom_site_occupancy
  Yb  Yb0  1  0.000000  0.500000  0.766251  1
  Lu  Lu1  1  0.000000  0.000000  0.998755  1
  Lu  Lu2  1  0.500000  0.000000  0.229683  1
  Lu  Lu3  1  0.500000  0.500000  0.998755  1
  Zn  Zn4  1  0.190266  0.690266  0.287426  1
  Zn  Zn5  1  0.809734  0.690266  0.287426  1
  Zn  Zn6  1  0.809734  0.309734  0.287426  1
  Zn  Zn7  1  0.311678  0.188322  0.714604  1
  Zn  Zn8  1  0.190266  0.309734  0.287426  1
  Zn  Zn9  1  0.688322  0.188322  0.714604  1
  Zn  Zn10  1  0.688322  0.811678  0.714604  1
  Zn  Zn11  1  0.311678  0.811678  0.714604  1
  Ru  Ru12  1  0.500000  0.500000  0.499217  1
  Ru  Ru13  1  0.000000  0.000000  0.499217  1
