# generated using pymatgen
data_Er2Tm3Ga2Bi
_symmetry_space_group_name_H-M   'P 1'
_cell_length_a   8.63282925
_cell_length_b   8.66592498
_cell_length_c   6.49162900
_cell_angle_alpha   90.00000000
_cell_angle_beta   90.00000000
_cell_angle_gamma   120.12689833
_symmetry_Int_Tables_number   1
_chemical_formula_structural   Er2Tm3Ga2Bi
_chemical_formula_sum   'Er4 Tm6 Ga4 Bi2'
_cell_volume   420.04482725
_cell_formula_units_Z   2
loop_
 _symmetry_equiv_pos_site_id
 _symmetry_equiv_pos_as_xyz
  1  'x, y, z'
loop_
 _atom_site_type_symbol
 _atom_site_label
 _atom_site_symmetry_multiplicity
 _atom_site_fract_x
 _atom_site_fract_y
 _atom_site_fract_z
 _atom_site_occupancy
  Er  Er0  1  0.768392  0.769089  0.250000  1
  Er  Er1  1  0.768392  0.999303  0.750000  1
  Er  Er2  1  0.233595  0.250736  0.750000  1
  Er  Er3  1  0.233595  0.982859  0.250000  1
  Tm  Tm4  1  0.982299  0.748481  0.750000  1
  Tm  Tm5  1  0.982299  0.233819  0.250000  1
  Tm  Tm6  1  0.329646  0.664824  0.500000  1
  Tm  Tm7  1  0.692482  0.346241  0.000000  1
  Tm  Tm8  1  0.692482  0.346241  0.500000  1
  Tm  Tm9  1  0.329646  0.664824  0.000000  1
  Ga  Ga10  1  0.001754  0.601047  0.250000  1
  Ga  Ga11  1  0.001754  0.400707  0.750000  1
  Ga  Ga12  1  0.596562  0.601228  0.750000  1
  Ga  Ga13  1  0.596562  0.995333  0.250000  1
  Bi  Bi14  1  0.395271  0.006074  0.750000  1
  Bi  Bi15  1  0.395271  0.389197  0.250000  1
