# generated using pymatgen
data_Y2Ho3Bi2Sb
_symmetry_space_group_name_H-M   'P 1'
_cell_length_a   8.17802900
_cell_length_b   9.44314900
_cell_length_c   12.01667600
_cell_angle_alpha   90.00000000
_cell_angle_beta   90.00000000
_cell_angle_gamma   90.00000000
_symmetry_Int_Tables_number   1
_chemical_formula_structural   Y2Ho3Bi2Sb
_chemical_formula_sum   'Y8 Ho12 Bi8 Sb4'
_cell_volume   928.00398303
_cell_formula_units_Z   4
loop_
 _symmetry_equiv_pos_site_id
 _symmetry_equiv_pos_as_xyz
  1  'x, y, z'
loop_
 _atom_site_type_symbol
 _atom_site_label
 _atom_site_symmetry_multiplicity
 _atom_site_fract_x
 _atom_site_fract_y
 _atom_site_fract_z
 _atom_site_occupancy
  Y  Y0  1  0.183570  0.750000  0.718293  1
  Y  Y1  1  0.683570  0.750000  0.781707  1
  Y  Y2  1  0.816430  0.250000  0.281707  1
  Y  Y3  1  0.316430  0.250000  0.218293  1
  Y  Y4  1  0.353914  0.750000  0.212925  1
  Y  Y5  1  0.853914  0.750000  0.287075  1
  Y  Y6  1  0.646086  0.250000  0.787075  1
  Y  Y7  1  0.146086  0.250000  0.712925  1
  Ho  Ho8  1  0.029107  0.750000  0.988534  1
  Ho  Ho9  1  0.529107  0.750000  0.511466  1
  Ho  Ho10  1  0.970893  0.250000  0.011466  1
  Ho  Ho11  1  0.470893  0.250000  0.488534  1
  Ho  Ho12  1  0.309692  0.438360  0.941300  1
  Ho  Ho13  1  0.809692  0.061640  0.558700  1
  Ho  Ho14  1  0.690308  0.938360  0.058700  1
  Ho  Ho15  1  0.190308  0.561640  0.441300  1
  Ho  Ho16  1  0.690308  0.561640  0.058700  1
  Ho  Ho17  1  0.190308  0.938360  0.441300  1
  Ho  Ho18  1  0.309692  0.061640  0.941300  1
  Ho  Ho19  1  0.809692  0.438360  0.558700  1
  Bi  Bi20  1  0.433595  0.003767  0.673590  1
  Bi  Bi21  1  0.933595  0.496233  0.826410  1
  Bi  Bi22  1  0.566405  0.503767  0.326410  1
  Bi  Bi23  1  0.066405  0.996233  0.173590  1
  Bi  Bi24  1  0.566405  0.996233  0.326410  1
  Bi  Bi25  1  0.066405  0.503767  0.173590  1
  Bi  Bi26  1  0.433595  0.496233  0.673590  1
  Bi  Bi27  1  0.933595  0.003767  0.826410  1
  Sb  Sb28  1  0.410024  0.750000  0.959212  1
  Sb  Sb29  1  0.910024  0.750000  0.540788  1
  Sb  Sb30  1  0.589976  0.250000  0.040788  1
  Sb  Sb31  1  0.089976  0.250000  0.459212  1
