# generated using pymatgen
data_YbTh3(Si3Pd)2
_symmetry_space_group_name_H-M   'P 1'
_cell_length_a   8.32031651
_cell_length_b   8.27000368
_cell_length_c   5.89019971
_cell_angle_alpha   69.66243874
_cell_angle_beta   68.74735900
_cell_angle_gamma   41.59020976
_symmetry_Int_Tables_number   1
_chemical_formula_structural   YbTh3(Si3Pd)2
_chemical_formula_sum   'Yb1 Th3 Si6 Pd2'
_cell_volume   248.81829027
_cell_formula_units_Z   1
loop_
 _symmetry_equiv_pos_site_id
 _symmetry_equiv_pos_as_xyz
  1  'x, y, z'
loop_
 _atom_site_type_symbol
 _atom_site_label
 _atom_site_symmetry_multiplicity
 _atom_site_fract_x
 _atom_site_fract_y
 _atom_site_fract_z
 _atom_site_occupancy
  Yb  Yb0  1  0.750000  0.750000  0.750001  1
  Th  Th1  1  0.250000  0.250000  0.250000  1
  Th  Th2  1  0.245210  0.754790  0.245211  1
  Th  Th3  1  0.754788  0.245212  0.754789  1
  Si  Si4  1  0.834148  0.834149  0.165851  1
  Si  Si5  1  0.833179  0.332281  0.164188  1
  Si  Si6  1  0.670351  0.164189  0.332280  1
  Si  Si7  1  0.332280  0.833181  0.670352  1
  Si  Si8  1  0.164187  0.670352  0.833180  1
  Si  Si9  1  0.165851  0.165852  0.834148  1
  Pd  Pd10  1  0.667245  0.667247  0.332754  1
  Pd  Pd11  1  0.332753  0.332755  0.667246  1
