# generated using pymatgen
data_Tb9Er(In2Au)4
_symmetry_space_group_name_H-M   'P 1'
_cell_length_a   3.68827300
_cell_length_b   8.25948508
_cell_length_c   18.48091017
_cell_angle_alpha   89.98395977
_cell_angle_beta   90.00000000
_cell_angle_gamma   90.00000000
_symmetry_Int_Tables_number   1
_chemical_formula_structural   Tb9Er(In2Au)4
_chemical_formula_sum   'Tb9 Er1 In8 Au4'
_cell_volume   562.98830292
_cell_formula_units_Z   1
loop_
 _symmetry_equiv_pos_site_id
 _symmetry_equiv_pos_as_xyz
  1  'x, y, z'
loop_
 _atom_site_type_symbol
 _atom_site_label
 _atom_site_symmetry_multiplicity
 _atom_site_fract_x
 _atom_site_fract_y
 _atom_site_fract_z
 _atom_site_occupancy
  Tb  Tb0  1  0.000000  0.499664  0.499759  1
  Tb  Tb1  1  0.000000  0.000219  0.000175  1
  Tb  Tb2  1  0.000000  0.735585  0.283332  1
  Tb  Tb3  1  0.000000  0.264428  0.716747  1
  Tb  Tb4  1  0.000000  0.764698  0.782780  1
  Tb  Tb5  1  0.000000  0.234985  0.217355  1
  Tb  Tb6  1  0.000000  0.620068  0.079670  1
  Tb  Tb7  1  0.000000  0.380172  0.920496  1
  Tb  Tb8  1  0.000000  0.879511  0.578985  1
  Er  Er9  1  0.000000  0.120012  0.419756  1
  In  In10  1  0.500000  0.711348  0.932651  1
  In  In11  1  0.500000  0.289000  0.067555  1
  In  In12  1  0.500000  0.791085  0.432798  1
  In  In13  1  0.500000  0.210122  0.566273  1
  In  In14  1  0.500000  0.580632  0.646881  1
  In  In15  1  0.500000  0.417027  0.353453  1
  In  In16  1  0.500000  0.919544  0.147496  1
  In  In17  1  0.500000  0.081375  0.852849  1
  Au  Au18  1  0.500000  0.526603  0.196822  1
  Au  Au19  1  0.500000  0.473068  0.803316  1
  Au  Au20  1  0.500000  0.973298  0.696060  1
  Au  Au21  1  0.500000  0.027556  0.304789  1
