# generated using pymatgen
data_Er2Lu6In3Co
_symmetry_space_group_name_H-M   'P 1'
_cell_length_a   10.16499600
_cell_length_b   10.16631260
_cell_length_c   6.89531301
_cell_angle_alpha   90.00386833
_cell_angle_beta   90.00000000
_cell_angle_gamma   119.99571608
_symmetry_Int_Tables_number   1
_chemical_formula_structural   Er2Lu6In3Co
_chemical_formula_sum   'Er4 Lu12 In6 Co2'
_cell_volume   617.12626854
_cell_formula_units_Z   2
loop_
 _symmetry_equiv_pos_site_id
 _symmetry_equiv_pos_as_xyz
  1  'x, y, z'
loop_
 _atom_site_type_symbol
 _atom_site_label
 _atom_site_symmetry_multiplicity
 _atom_site_fract_x
 _atom_site_fract_y
 _atom_site_fract_z
 _atom_site_occupancy
  Er  Er0  1  0.533583  0.067165  0.521392  1
  Er  Er1  1  0.933202  0.466653  0.521594  1
  Er  Er2  1  0.533451  0.466653  0.521594  1
  Er  Er3  1  0.466161  0.932323  0.021442  1
  Lu  Lu4  1  0.068247  0.534094  0.021883  1
  Lu  Lu5  1  0.465846  0.534094  0.021883  1
  Lu  Lu6  1  0.178969  0.357938  0.729973  1
  Lu  Lu7  1  0.642460  0.820767  0.729324  1
  Lu  Lu8  1  0.178307  0.820767  0.729324  1
  Lu  Lu9  1  0.821195  0.642389  0.227685  1
  Lu  Lu10  1  0.357221  0.179112  0.228122  1
  Lu  Lu11  1  0.821892  0.179112  0.228122  1
  Lu  Lu12  1  0.666936  0.333870  0.913504  1
  Lu  Lu13  1  0.333054  0.666110  0.412416  1
  Lu  Lu14  1  0.999995  0.999990  0.508025  1
  Lu  Lu15  1  0.999953  0.999905  0.008329  1
  In  In16  1  0.837402  0.674804  0.770070  1
  In  In17  1  0.325669  0.162777  0.769762  1
  In  In18  1  0.837108  0.162777  0.769762  1
  In  In19  1  0.163115  0.326231  0.269234  1
  In  In20  1  0.674112  0.836751  0.269563  1
  In  In21  1  0.162639  0.836751  0.269563  1
  Co  Co22  1  0.666631  0.333260  0.296233  1
  Co  Co23  1  0.332852  0.665705  0.796880  1
