# generated using pymatgen
data_Ta6BeGa3
_symmetry_space_group_name_H-M   'P 1'
_cell_length_a   6.83158487
_cell_length_b   6.83158487
_cell_length_c   3.46851000
_cell_angle_alpha   90.00000000
_cell_angle_beta   90.00000000
_cell_angle_gamma   89.77754588
_symmetry_Int_Tables_number   1
_chemical_formula_structural   Ta6BeGa3
_chemical_formula_sum   'Ta6 Be1 Ga3'
_cell_volume   161.87605579
_cell_formula_units_Z   1
loop_
 _symmetry_equiv_pos_site_id
 _symmetry_equiv_pos_as_xyz
  1  'x, y, z'
loop_
 _atom_site_type_symbol
 _atom_site_label
 _atom_site_symmetry_multiplicity
 _atom_site_fract_x
 _atom_site_fract_y
 _atom_site_fract_z
 _atom_site_occupancy
  Ta  Ta0  1  0.842118  0.679866  0.500000  1
  Ta  Ta1  1  0.308220  0.808220  0.500000  1
  Ta  Ta2  1  0.179866  0.342118  0.500000  1
  Ta  Ta3  1  0.678098  0.178098  0.500000  1
  Ta  Ta4  1  0.492449  0.501120  0.000000  1
  Ta  Ta5  1  0.001120  0.992449  0.000000  1
  Be  Be6  1  0.121794  0.621794  0.000000  1
  Ga  Ga7  1  0.622666  0.871334  0.000000  1
  Ga  Ga8  1  0.371334  0.122666  0.000000  1
  Ga  Ga9  1  0.882334  0.382334  0.000000  1
