# generated using pymatgen
data_Nb14Si5As3
_symmetry_space_group_name_H-M   'P 1'
_cell_length_a   3.50436100
_cell_length_b   7.92900991
_cell_length_c   14.15815717
_cell_angle_alpha   103.86787817
_cell_angle_beta   90.00000000
_cell_angle_gamma   102.76680997
_symmetry_Int_Tables_number   1
_chemical_formula_structural   Nb14Si5As3
_chemical_formula_sum   'Nb14 Si5 As3'
_cell_volume   371.90735363
_cell_formula_units_Z   1
loop_
 _symmetry_equiv_pos_site_id
 _symmetry_equiv_pos_as_xyz
  1  'x, y, z'
loop_
 _atom_site_type_symbol
 _atom_site_label
 _atom_site_symmetry_multiplicity
 _atom_site_fract_x
 _atom_site_fract_y
 _atom_site_fract_z
 _atom_site_occupancy
  Nb  Nb0  1  0.000260  0.000520  0.000662  1
  Nb  Nb1  1  0.498936  0.997871  0.498868  1
  Nb  Nb2  1  0.427120  0.854241  0.825568  1
  Nb  Nb3  1  0.572848  0.145695  0.173673  1
  Nb  Nb4  1  0.197982  0.395964  0.309188  1
  Nb  Nb5  1  0.803628  0.607256  0.691069  1
  Nb  Nb6  1  0.212240  0.424481  0.798925  1
  Nb  Nb7  1  0.788945  0.577891  0.203521  1
  Nb  Nb8  1  0.332226  0.664452  0.029358  1
  Nb  Nb9  1  0.668554  0.337110  0.970518  1
  Nb  Nb10  1  0.998320  0.996639  0.660739  1
  Nb  Nb11  1  0.998584  0.997167  0.340136  1
  Nb  Nb12  1  0.180891  0.361781  0.543445  1
  Nb  Nb13  1  0.820398  0.640796  0.454038  1
  Si  Si14  1  0.175514  0.351027  0.109577  1
  Si  Si15  1  0.826228  0.652457  0.891390  1
  Si  Si16  1  0.370451  0.740902  0.597838  1
  Si  Si17  1  0.627724  0.255448  0.399416  1
  Si  Si18  1  0.371382  0.742763  0.335564  1
  As  As19  1  0.627689  0.255380  0.665067  1
  As  As20  1  0.063282  0.126566  0.847958  1
  As  As21  1  0.936797  0.873593  0.153484  1
