# generated using pymatgen
data_PmNbGeF
_symmetry_space_group_name_H-M   'P 1'
_cell_length_a   3.96954600
_cell_length_b   3.96954600
_cell_length_c   9.40480500
_cell_angle_alpha   90.00000000
_cell_angle_beta   90.00000000
_cell_angle_gamma   90.00000000
_symmetry_Int_Tables_number   1
_chemical_formula_structural   PmNbGeF
_chemical_formula_sum   'Pm2 Nb2 Ge2 F2'
_cell_volume   148.19429100
_cell_formula_units_Z   2
loop_
 _symmetry_equiv_pos_site_id
 _symmetry_equiv_pos_as_xyz
  1  'x, y, z'
loop_
 _atom_site_type_symbol
 _atom_site_label
 _atom_site_symmetry_multiplicity
 _atom_site_fract_x
 _atom_site_fract_y
 _atom_site_fract_z
 _atom_site_occupancy
  Pm  Pm0  1  0.250002  0.250002  0.165268  1
  Pm  Pm1  1  0.750000  0.750000  0.834733  1
  Nb  Nb2  1  0.750000  0.250002  0.499999  1
  Nb  Nb3  1  0.250002  0.750000  0.499999  1
  Ge  Ge4  1  0.750000  0.750000  0.299795  1
  Ge  Ge5  1  0.250002  0.250002  0.700203  1
  F  F6  1  0.750000  0.250002  0.000000  1
  F  F7  1  0.250002  0.750000  0.000000  1
