# generated using pymatgen
data_Eu2Er4Co17ReP12
_symmetry_space_group_name_H-M   'P 1'
_cell_length_a   3.71372700
_cell_length_b   10.54403900
_cell_length_c   12.22640900
_cell_angle_alpha   90.00000000
_cell_angle_beta   90.00000000
_cell_angle_gamma   90.00000000
_symmetry_Int_Tables_number   1
_chemical_formula_structural   Eu2Er4Co17ReP12
_chemical_formula_sum   'Eu2 Er4 Co17 Re1 P12'
_cell_volume   478.75783958
_cell_formula_units_Z   1
loop_
 _symmetry_equiv_pos_site_id
 _symmetry_equiv_pos_as_xyz
  1  'x, y, z'
loop_
 _atom_site_type_symbol
 _atom_site_label
 _atom_site_symmetry_multiplicity
 _atom_site_fract_x
 _atom_site_fract_y
 _atom_site_fract_z
 _atom_site_occupancy
  Eu  Eu0  1  0.750000  0.250000  0.474061  1
  Eu  Eu1  1  0.250000  0.750000  0.523540  1
  Er  Er2  1  0.250000  0.932155  0.794899  1
  Er  Er3  1  0.250000  0.567845  0.794899  1
  Er  Er4  1  0.750000  0.067180  0.203449  1
  Er  Er5  1  0.750000  0.432820  0.203449  1
  Co  Co6  1  0.750000  0.750000  0.157724  1
  Co  Co7  1  0.250000  0.250000  0.296596  1
  Co  Co8  1  0.750000  0.750000  0.704977  1
  Co  Co9  1  0.750000  0.250000  0.013293  1
  Co  Co10  1  0.250000  0.750000  0.984758  1
  Co  Co11  1  0.250000  0.417435  0.009990  1
  Co  Co12  1  0.250000  0.082565  0.009990  1
  Co  Co13  1  0.750000  0.583211  0.992904  1
  Co  Co14  1  0.750000  0.916789  0.992904  1
  Co  Co15  1  0.250000  0.454050  0.570987  1
  Co  Co16  1  0.250000  0.045950  0.570987  1
  Co  Co17  1  0.750000  0.545806  0.429501  1
  Co  Co18  1  0.750000  0.954194  0.429501  1
  Co  Co19  1  0.250000  0.870934  0.288005  1
  Co  Co20  1  0.250000  0.629066  0.288005  1
  Co  Co21  1  0.750000  0.129109  0.711555  1
  Co  Co22  1  0.750000  0.370891  0.711555  1
  Re  Re23  1  0.250000  0.250000  0.844938  1
  P  P24  1  0.250000  0.250000  0.119998  1
  P  P25  1  0.750000  0.750000  0.882356  1
  P  P26  1  0.250000  0.250000  0.653680  1
  P  P27  1  0.750000  0.750000  0.340465  1
  P  P28  1  0.250000  0.442524  0.381899  1
  P  P29  1  0.250000  0.057476  0.381899  1
  P  P30  1  0.750000  0.558542  0.617232  1
  P  P31  1  0.750000  0.941458  0.617232  1
  P  P32  1  0.250000  0.900963  0.106844  1
  P  P33  1  0.250000  0.599037  0.106844  1
  P  P34  1  0.750000  0.094299  0.894540  1
  P  P35  1  0.750000  0.405701  0.894540  1
