# generated using pymatgen
data_Ho5Ir2Ru
_symmetry_space_group_name_H-M   'P 1'
_cell_length_a   10.78585400
_cell_length_b   10.78585400
_cell_length_c   6.41191000
_cell_angle_alpha   90.00000000
_cell_angle_beta   90.00000000
_cell_angle_gamma   90.00000000
_symmetry_Int_Tables_number   1
_chemical_formula_structural   Ho5Ir2Ru
_chemical_formula_sum   'Ho20 Ir8 Ru4'
_cell_volume   745.92728330
_cell_formula_units_Z   4
loop_
 _symmetry_equiv_pos_site_id
 _symmetry_equiv_pos_as_xyz
  1  'x, y, z'
loop_
 _atom_site_type_symbol
 _atom_site_label
 _atom_site_symmetry_multiplicity
 _atom_site_fract_x
 _atom_site_fract_y
 _atom_site_fract_z
 _atom_site_occupancy
  Ho  Ho0  1  0.293520  0.086559  0.377610  1
  Ho  Ho1  1  0.293520  0.913441  0.877610  1
  Ho  Ho2  1  0.706480  0.086559  0.877610  1
  Ho  Ho3  1  0.706480  0.913441  0.377610  1
  Ho  Ho4  1  0.586559  0.793520  0.877610  1
  Ho  Ho5  1  0.586559  0.206480  0.377610  1
  Ho  Ho6  1  0.413441  0.793520  0.377610  1
  Ho  Ho7  1  0.413441  0.206480  0.877610  1
  Ho  Ho8  1  0.206480  0.413441  0.622390  1
  Ho  Ho9  1  0.206480  0.586559  0.122390  1
  Ho  Ho10  1  0.793520  0.413441  0.122390  1
  Ho  Ho11  1  0.793520  0.586559  0.622390  1
  Ho  Ho12  1  0.913441  0.706480  0.122390  1
  Ho  Ho13  1  0.913441  0.293520  0.622390  1
  Ho  Ho14  1  0.086559  0.706480  0.622390  1
  Ho  Ho15  1  0.086559  0.293520  0.122390  1
  Ho  Ho16  1  0.000000  0.000000  0.500000  1
  Ho  Ho17  1  0.000000  0.000000  0.000000  1
  Ho  Ho18  1  0.500000  0.500000  0.000000  1
  Ho  Ho19  1  0.500000  0.500000  0.500000  1
  Ir  Ir20  1  0.847547  0.152453  0.250000  1
  Ir  Ir21  1  0.847547  0.847547  0.750000  1
  Ir  Ir22  1  0.152453  0.152453  0.750000  1
  Ir  Ir23  1  0.152453  0.847547  0.250000  1
  Ir  Ir24  1  0.652453  0.347547  0.750000  1
  Ir  Ir25  1  0.652453  0.652453  0.250000  1
  Ir  Ir26  1  0.347547  0.347547  0.250000  1
  Ir  Ir27  1  0.347547  0.652453  0.750000  1
  Ru  Ru28  1  0.500000  0.000000  0.121420  1
  Ru  Ru29  1  0.500000  0.000000  0.621420  1
  Ru  Ru30  1  0.000000  0.500000  0.878580  1
  Ru  Ru31  1  0.000000  0.500000  0.378580  1
