# generated using pymatgen
data_NaCoSi3Ir4
_symmetry_space_group_name_H-M   'P 1'
_cell_length_a   3.83688900
_cell_length_b   10.81300100
_cell_length_c   12.67463800
_cell_angle_alpha   90.00000000
_cell_angle_beta   90.00000000
_cell_angle_gamma   90.00000000
_symmetry_Int_Tables_number   1
_chemical_formula_structural   NaCoSi3Ir4
_chemical_formula_sum   'Na4 Co4 Si12 Ir16'
_cell_volume   525.84898847
_cell_formula_units_Z   4
loop_
 _symmetry_equiv_pos_site_id
 _symmetry_equiv_pos_as_xyz
  1  'x, y, z'
loop_
 _atom_site_type_symbol
 _atom_site_label
 _atom_site_symmetry_multiplicity
 _atom_site_fract_x
 _atom_site_fract_y
 _atom_site_fract_z
 _atom_site_occupancy
  Na  Na0  1  0.250000  0.583746  0.710068  1
  Na  Na1  1  0.250000  0.916254  0.210068  1
  Na  Na2  1  0.750000  0.416254  0.289932  1
  Na  Na3  1  0.750000  0.083746  0.789932  1
  Co  Co4  1  0.250000  0.465278  0.936422  1
  Co  Co5  1  0.250000  0.034722  0.436422  1
  Co  Co6  1  0.750000  0.534722  0.063578  1
  Co  Co7  1  0.750000  0.965278  0.563578  1
  Si  Si8  1  0.250000  0.422108  0.108158  1
  Si  Si9  1  0.250000  0.077892  0.608158  1
  Si  Si10  1  0.750000  0.577892  0.891842  1
  Si  Si11  1  0.750000  0.922108  0.391842  1
  Si  Si12  1  0.250000  0.269601  0.871718  1
  Si  Si13  1  0.250000  0.230399  0.371718  1
  Si  Si14  1  0.750000  0.730399  0.128282  1
  Si  Si15  1  0.750000  0.769601  0.628282  1
  Si  Si16  1  0.250000  0.602461  0.389674  1
  Si  Si17  1  0.250000  0.897539  0.889674  1
  Si  Si18  1  0.750000  0.397539  0.610326  1
  Si  Si19  1  0.750000  0.102461  0.110326  1
  Ir  Ir20  1  0.250000  0.700520  0.982626  1
  Ir  Ir21  1  0.250000  0.799480  0.482626  1
  Ir  Ir22  1  0.750000  0.299480  0.017374  1
  Ir  Ir23  1  0.750000  0.200520  0.517374  1
  Ir  Ir24  1  0.250000  0.406822  0.485993  1
  Ir  Ir25  1  0.250000  0.093178  0.985993  1
  Ir  Ir26  1  0.750000  0.593178  0.514007  1
  Ir  Ir27  1  0.750000  0.906822  0.014007  1
  Ir  Ir28  1  0.250000  0.222968  0.178213  1
  Ir  Ir29  1  0.250000  0.277032  0.678213  1
  Ir  Ir30  1  0.750000  0.777032  0.821787  1
  Ir  Ir31  1  0.750000  0.722968  0.321787  1
  Ir  Ir32  1  0.250000  0.883900  0.696722  1
  Ir  Ir33  1  0.250000  0.616100  0.196722  1
  Ir  Ir34  1  0.750000  0.116100  0.303278  1
  Ir  Ir35  1  0.750000  0.383900  0.803278  1
