# generated using pymatgen
data_Nd12Ga3AsBr12
_symmetry_space_group_name_H-M   'P 1'
_cell_length_a   10.48774737
_cell_length_b   10.45143914
_cell_length_c   10.45126670
_cell_angle_alpha   109.39935545
_cell_angle_beta   109.54083066
_cell_angle_gamma   109.54231413
_symmetry_Int_Tables_number   1
_chemical_formula_structural   Nd12Ga3AsBr12
_chemical_formula_sum   'Nd12 Ga3 As1 Br12'
_cell_volume   881.12023878
_cell_formula_units_Z   1
loop_
 _symmetry_equiv_pos_site_id
 _symmetry_equiv_pos_as_xyz
  1  'x, y, z'
loop_
 _atom_site_type_symbol
 _atom_site_label
 _atom_site_symmetry_multiplicity
 _atom_site_fract_x
 _atom_site_fract_y
 _atom_site_fract_z
 _atom_site_occupancy
  Nd  Nd0  1  0.480277  0.490507  0.239535  1
  Nd  Nd1  1  0.750001  0.241154  0.258847  1
  Nd  Nd2  1  0.750001  0.008363  0.491645  1
  Nd  Nd3  1  0.241651  0.483306  0.491641  1
  Nd  Nd4  1  0.259248  0.749018  0.239560  1
  Nd  Nd5  1  0.019717  0.260460  0.009486  1
  Nd  Nd6  1  0.008845  0.017685  0.258838  1
  Nd  Nd7  1  0.489780  0.749029  0.009477  1
  Nd  Nd8  1  0.491162  0.241166  0.482321  1
  Nd  Nd9  1  0.010219  0.490522  0.750968  1
  Nd  Nd10  1  0.258350  0.008361  0.016699  1
  Nd  Nd11  1  0.240756  0.260443  0.750985  1
  Ga  Ga12  1  0.250001  0.249995  0.250004  1
  Ga  Ga13  1  0.499984  0.999979  0.249983  1
  Ga  Ga14  1  0.000014  0.250015  0.500023  1
  As  As15  1  0.249999  0.500004  0.999995  1
  Br  Br16  1  0.249998  0.754266  0.745734  1
  Br  Br17  1  0.509911  0.505022  0.755586  1
  Br  Br18  1  0.990089  0.744414  0.994979  1
  Br  Br19  1  0.745667  0.250566  0.755587  1
  Br  Br20  1  0.995727  0.991454  0.745724  1
  Br  Br21  1  0.250000  0.994792  0.505198  1
  Br  Br22  1  0.755208  0.510410  0.505210  1
  Br  Br23  1  0.504897  0.250566  0.994974  1
  Br  Br24  1  0.754333  0.744412  0.249434  1
  Br  Br25  1  0.744795  0.994787  0.989590  1
  Br  Br26  1  0.995097  0.505029  0.249431  1
  Br  Br27  1  0.504275  0.754274  0.508543  1
