# generated using pymatgen
data_Cd11InAu8
_symmetry_space_group_name_H-M   'P 1'
_cell_length_a   7.53462300
_cell_length_b   7.53462300
_cell_length_c   7.43857700
_cell_angle_alpha   90.00000000
_cell_angle_beta   90.00000000
_cell_angle_gamma   90.00000000
_symmetry_Int_Tables_number   1
_chemical_formula_structural   Cd11InAu8
_chemical_formula_sum   'Cd11 In1 Au8'
_cell_volume   422.29206103
_cell_formula_units_Z   1
loop_
 _symmetry_equiv_pos_site_id
 _symmetry_equiv_pos_as_xyz
  1  'x, y, z'
loop_
 _atom_site_type_symbol
 _atom_site_label
 _atom_site_symmetry_multiplicity
 _atom_site_fract_x
 _atom_site_fract_y
 _atom_site_fract_z
 _atom_site_occupancy
  Cd  Cd0  1  0.138083  0.135478  0.001914  1
  Cd  Cd1  1  0.861917  0.864522  0.001914  1
  Cd  Cd2  1  0.635478  0.361917  0.498086  1
  Cd  Cd3  1  0.364522  0.638083  0.498086  1
  Cd  Cd4  1  0.691622  0.306019  0.001857  1
  Cd  Cd5  1  0.308378  0.693981  0.001857  1
  Cd  Cd6  1  0.806019  0.808378  0.498143  1
  Cd  Cd7  1  0.193981  0.191622  0.498143  1
  Cd  Cd8  1  0.500000  0.000000  0.250000  1
  Cd  Cd9  1  0.500000  0.000000  0.750000  1
  Cd  Cd10  1  0.000000  0.500000  0.250000  1
  In  In11  1  0.000000  0.500000  0.750000  1
  Au  Au12  1  0.361138  0.361624  0.203814  1
  Au  Au13  1  0.637565  0.639776  0.795298  1
  Au  Au14  1  0.638862  0.638376  0.203814  1
  Au  Au15  1  0.860224  0.137565  0.704702  1
  Au  Au16  1  0.861624  0.138862  0.296186  1
  Au  Au17  1  0.362435  0.360224  0.795298  1
  Au  Au18  1  0.138376  0.861138  0.296186  1
  Au  Au19  1  0.139776  0.862435  0.704702  1
