# generated using pymatgen
data_Zr6Zn23S
_symmetry_space_group_name_H-M   'P 1'
_cell_length_a   8.76495467
_cell_length_b   8.76561648
_cell_length_c   8.76548202
_cell_angle_alpha   59.99541559
_cell_angle_beta   60.00265511
_cell_angle_gamma   60.00117024
_symmetry_Int_Tables_number   1
_chemical_formula_structural   Zr6Zn23S
_chemical_formula_sum   'Zr6 Zn23 S1'
_cell_volume   476.20116058
_cell_formula_units_Z   1
loop_
 _symmetry_equiv_pos_site_id
 _symmetry_equiv_pos_as_xyz
  1  'x, y, z'
loop_
 _atom_site_type_symbol
 _atom_site_label
 _atom_site_symmetry_multiplicity
 _atom_site_fract_x
 _atom_site_fract_y
 _atom_site_fract_z
 _atom_site_occupancy
  Zr  Zr0  1  0.704860  0.295115  0.295165  1
  Zr  Zr1  1  0.295151  0.704834  0.704867  1
  Zr  Zr2  1  0.295071  0.704907  0.295109  1
  Zr  Zr3  1  0.704883  0.295097  0.704921  1
  Zr  Zr4  1  0.295102  0.295095  0.704921  1
  Zr  Zr5  1  0.704905  0.704902  0.295114  1
  Zn  Zn6  1  0.121633  0.121652  0.121612  1
  Zn  Zn7  1  0.878389  0.878382  0.878335  1
  Zn  Zn8  1  0.121631  0.121624  0.635113  1
  Zn  Zn9  1  0.121653  0.635101  0.121598  1
  Zn  Zn10  1  0.878362  0.878380  0.364901  1
  Zn  Zn11  1  0.878376  0.364891  0.878354  1
  Zn  Zn12  1  0.635103  0.121656  0.121608  1
  Zn  Zn13  1  0.364892  0.878379  0.878340  1
  Zn  Zn14  1  0.499999  0.000019  0.999981  1
  Zn  Zn15  1  0.000000  0.499986  0.500015  1
  Zn  Zn16  1  0.000017  0.499997  0.999985  1
  Zn  Zn17  1  0.499988  0.000001  0.500014  1
  Zn  Zn18  1  0.999996  0.000001  0.500013  1
  Zn  Zn19  1  0.500000  0.499996  0.999985  1
  Zn  Zn20  1  0.333063  0.333061  0.333085  1
  Zn  Zn21  1  0.666922  0.666919  0.666934  1
  Zn  Zn22  1  0.333081  0.333078  0.000755  1
  Zn  Zn23  1  0.333066  0.000798  0.333075  1
  Zn  Zn24  1  0.666939  0.666938  0.999186  1
  Zn  Zn25  1  0.666914  0.999231  0.666937  1
  Zn  Zn26  1  0.000792  0.333066  0.333080  1
  Zn  Zn27  1  0.999224  0.666914  0.666939  1
  Zn  Zn28  1  0.000002  0.000004  0.999991  1
  S  S29  1  0.499986  0.499976  0.500068  1
