# generated using pymatgen
data_Tm4Lu6Si5Bi
_symmetry_space_group_name_H-M   'P 1'
_cell_length_a   8.37162300
_cell_length_b   8.40176405
_cell_length_c   6.20682100
_cell_angle_alpha   90.00000000
_cell_angle_beta   90.00000000
_cell_angle_gamma   119.88140228
_symmetry_Int_Tables_number   1
_chemical_formula_structural   Tm4Lu6Si5Bi
_chemical_formula_sum   'Tm4 Lu6 Si5 Bi1'
_cell_volume   378.52778919
_cell_formula_units_Z   1
loop_
 _symmetry_equiv_pos_site_id
 _symmetry_equiv_pos_as_xyz
  1  'x, y, z'
loop_
 _atom_site_type_symbol
 _atom_site_label
 _atom_site_symmetry_multiplicity
 _atom_site_fract_x
 _atom_site_fract_y
 _atom_site_fract_z
 _atom_site_occupancy
  Tm  Tm0  1  0.768854  0.000000  0.750000  1
  Tm  Tm1  1  0.755798  0.756933  0.250000  1
  Tm  Tm2  1  0.998864  0.243067  0.250000  1
  Tm  Tm3  1  0.239012  0.000000  0.250000  1
  Lu  Lu4  1  0.677130  0.346469  0.004797  1
  Lu  Lu5  1  0.330659  0.653531  0.495203  1
  Lu  Lu6  1  0.330659  0.653531  0.004797  1
  Lu  Lu7  1  0.677130  0.346469  0.495203  1
  Lu  Lu8  1  0.984108  0.745399  0.750000  1
  Lu  Lu9  1  0.238710  0.254601  0.750000  1
  Si  Si10  1  0.394160  0.391360  0.250000  1
  Si  Si11  1  0.002800  0.608640  0.250000  1
  Si  Si12  1  0.998946  0.395557  0.750000  1
  Si  Si13  1  0.603389  0.604443  0.750000  1
  Si  Si14  1  0.606512  0.000000  0.250000  1
  Bi  Bi15  1  0.393270  0.000000  0.750000  1
