# generated using pymatgen
data_Y3PdPtRhPb3
_symmetry_space_group_name_H-M   'P 1'
_cell_length_a   7.85562200
_cell_length_b   7.85562268
_cell_length_c   3.83624100
_cell_angle_alpha   90.00000000
_cell_angle_beta   90.00000000
_cell_angle_gamma   119.99999714
_symmetry_Int_Tables_number   1
_chemical_formula_structural   Y3PdPtRhPb3
_chemical_formula_sum   'Y3 Pd1 Pt1 Rh1 Pb3'
_cell_volume   205.02070371
_cell_formula_units_Z   1
loop_
 _symmetry_equiv_pos_site_id
 _symmetry_equiv_pos_as_xyz
  1  'x, y, z'
loop_
 _atom_site_type_symbol
 _atom_site_label
 _atom_site_symmetry_multiplicity
 _atom_site_fract_x
 _atom_site_fract_y
 _atom_site_fract_z
 _atom_site_occupancy
  Y  Y0  1  0.395410  0.992738  0.500000  1
  Y  Y1  1  0.007262  0.402673  0.500000  1
  Y  Y2  1  0.597327  0.604590  0.500000  1
  Pd  Pd3  1  0.666667  0.333333  0.000000  1
  Pt  Pt4  1  0.333333  0.666667  0.000000  1
  Rh  Rh5  1  0.000000  0.000000  0.500000  1
  Pb  Pb6  1  0.738867  0.005362  0.000000  1
  Pb  Pb7  1  0.994638  0.733505  0.000000  1
  Pb  Pb8  1  0.266495  0.261133  0.000000  1
