# generated using pymatgen
data_CsTc6Se3S4
_symmetry_space_group_name_H-M   'P 1'
_cell_length_a   9.61284556
_cell_length_b   9.61284559
_cell_length_c   9.61284406
_cell_angle_alpha   60.42758566
_cell_angle_beta   60.42758922
_cell_angle_gamma   60.42757692
_symmetry_Int_Tables_number   1
_chemical_formula_structural   CsTc6Se3S4
_chemical_formula_sum   'Cs2 Tc12 Se6 S8'
_cell_volume   634.18999194
_cell_formula_units_Z   2
loop_
 _symmetry_equiv_pos_site_id
 _symmetry_equiv_pos_as_xyz
  1  'x, y, z'
loop_
 _atom_site_type_symbol
 _atom_site_label
 _atom_site_symmetry_multiplicity
 _atom_site_fract_x
 _atom_site_fract_y
 _atom_site_fract_z
 _atom_site_occupancy
  Cs  Cs0  1  0.382751  0.382751  0.382751  1
  Cs  Cs1  1  0.617249  0.617249  0.617249  1
  Tc  Tc2  1  0.310729  0.128136  0.994099  1
  Tc  Tc3  1  0.198630  0.882875  0.063863  1
  Tc  Tc4  1  0.882875  0.063863  0.198630  1
  Tc  Tc5  1  0.936137  0.801370  0.117125  1
  Tc  Tc6  1  0.801370  0.117125  0.936137  1
  Tc  Tc7  1  0.117125  0.936137  0.801370  1
  Tc  Tc8  1  0.994099  0.310729  0.128136  1
  Tc  Tc9  1  0.871864  0.005901  0.689271  1
  Tc  Tc10  1  0.128136  0.994099  0.310729  1
  Tc  Tc11  1  0.005901  0.689271  0.871864  1
  Tc  Tc12  1  0.689271  0.871864  0.005901  1
  Tc  Tc13  1  0.063863  0.198630  0.882875  1
  Se  Se14  1  0.988470  0.242071  0.637344  1
  Se  Se15  1  0.242071  0.637344  0.988470  1
  Se  Se16  1  0.637344  0.988470  0.242071  1
  Se  Se17  1  0.011530  0.757929  0.362656  1
  Se  Se18  1  0.757929  0.362656  0.011530  1
  Se  Se19  1  0.362656  0.011530  0.757929  1
  S  S20  1  0.165179  0.408964  0.830190  1
  S  S21  1  0.408964  0.830190  0.165179  1
  S  S22  1  0.830190  0.165179  0.408964  1
  S  S23  1  0.834821  0.591036  0.169810  1
  S  S24  1  0.591036  0.169810  0.834821  1
  S  S25  1  0.169810  0.834821  0.591036  1
  S  S26  1  0.781162  0.781162  0.781162  1
  S  S27  1  0.218838  0.218838  0.218838  1
