# generated using pymatgen
data_Yb4Pr16Sn15Ir
_symmetry_space_group_name_H-M   'P 1'
_cell_length_a   8.06468501
_cell_length_b   8.55875700
_cell_length_c   16.08572200
_cell_angle_alpha   90.00000000
_cell_angle_beta   90.00000000
_cell_angle_gamma   90.00204258
_symmetry_Int_Tables_number   1
_chemical_formula_structural   Yb4Pr16Sn15Ir
_chemical_formula_sum   'Yb4 Pr16 Sn15 Ir1'
_cell_volume   1110.29571583
_cell_formula_units_Z   1
loop_
 _symmetry_equiv_pos_site_id
 _symmetry_equiv_pos_as_xyz
  1  'x, y, z'
loop_
 _atom_site_type_symbol
 _atom_site_label
 _atom_site_symmetry_multiplicity
 _atom_site_fract_x
 _atom_site_fract_y
 _atom_site_fract_z
 _atom_site_occupancy
  Yb  Yb0  1  0.809173  0.501388  0.750000  1
  Yb  Yb1  1  0.330357  0.996090  0.750000  1
  Yb  Yb2  1  0.172102  0.495173  0.250000  1
  Yb  Yb3  1  0.671071  0.005028  0.250000  1
  Pr  Pr4  1  0.642389  0.185713  0.633336  1
  Pr  Pr5  1  0.181581  0.334850  0.867288  1
  Pr  Pr6  1  0.341368  0.825495  0.122632  1
  Pr  Pr7  1  0.840881  0.673106  0.377771  1
  Pr  Pr8  1  0.341368  0.825495  0.377368  1
  Pr  Pr9  1  0.840881  0.673106  0.122229  1
  Pr  Pr10  1  0.642389  0.185713  0.866664  1
  Pr  Pr11  1  0.181581  0.334850  0.632712  1
  Pr  Pr12  1  0.499861  0.672295  0.601860  1
  Pr  Pr13  1  0.001490  0.814004  0.901545  1
  Pr  Pr14  1  0.498012  0.314803  0.093891  1
  Pr  Pr15  1  0.996334  0.183708  0.406577  1
  Pr  Pr16  1  0.498012  0.314803  0.406109  1
  Pr  Pr17  1  0.996334  0.183708  0.093423  1
  Pr  Pr18  1  0.499861  0.672295  0.898140  1
  Pr  Pr19  1  0.001490  0.814004  0.598455  1
  Sn  Sn20  1  0.677487  0.966014  0.466241  1
  Sn  Sn21  1  0.179157  0.532536  0.036862  1
  Sn  Sn22  1  0.320549  0.034367  0.961237  1
  Sn  Sn23  1  0.822093  0.460248  0.539215  1
  Sn  Sn24  1  0.320549  0.034367  0.538763  1
  Sn  Sn25  1  0.822093  0.460248  0.960785  1
  Sn  Sn26  1  0.677487  0.966014  0.033759  1
  Sn  Sn27  1  0.179157  0.532536  0.463138  1
  Sn  Sn28  1  0.961552  0.103876  0.750000  1
  Sn  Sn29  1  0.541733  0.603934  0.250000  1
  Sn  Sn30  1  0.039497  0.896127  0.250000  1
  Sn  Sn31  1  0.704900  0.861017  0.750000  1
  Sn  Sn32  1  0.207111  0.644201  0.750000  1
  Sn  Sn33  1  0.298945  0.140088  0.250000  1
  Sn  Sn34  1  0.800220  0.360807  0.250000  1
  Ir  Ir35  1  0.460932  0.397993  0.750000  1
