# generated using pymatgen
data_PrNd5(BO3)6
_symmetry_space_group_name_H-M   'P 1'
_cell_length_a   6.82328996
_cell_length_b   6.81875050
_cell_length_c   9.90666595
_cell_angle_alpha   70.18957077
_cell_angle_beta   70.19246700
_cell_angle_gamma   60.10452878
_symmetry_Int_Tables_number   1
_chemical_formula_structural   PrNd5(BO3)6
_chemical_formula_sum   'Pr1 Nd5 B6 O18'
_cell_volume   367.68984667
_cell_formula_units_Z   1
loop_
 _symmetry_equiv_pos_site_id
 _symmetry_equiv_pos_as_xyz
  1  'x, y, z'
loop_
 _atom_site_type_symbol
 _atom_site_label
 _atom_site_symmetry_multiplicity
 _atom_site_fract_x
 _atom_site_fract_y
 _atom_site_fract_z
 _atom_site_occupancy
  Pr  Pr0  1  0.343157  0.828721  0.500841  1
  Nd  Nd1  1  0.000227  0.499893  0.499994  1
  Nd  Nd2  1  0.500072  0.000041  0.999900  1
  Nd  Nd3  1  0.828730  0.343000  0.000850  1
  Nd  Nd4  1  0.657362  0.171062  0.499169  1
  Nd  Nd5  1  0.171229  0.656869  0.999260  1
  B  B6  1  0.082323  0.151604  0.252351  1
  B  B7  1  0.849679  0.917346  0.246893  1
  B  B8  1  0.916521  0.848951  0.747630  1
  B  B9  1  0.150718  0.083273  0.753234  1
  B  B10  1  0.317276  0.682366  0.249594  1
  B  B11  1  0.683244  0.316585  0.750302  1
  O  O12  1  0.035187  0.215699  0.390168  1
  O  O13  1  0.785602  0.963838  0.109143  1
  O  O14  1  0.962551  0.785408  0.609823  1
  O  O15  1  0.214575  0.036209  0.891094  1
  O  O16  1  0.129699  0.306364  0.114235  1
  O  O17  1  0.695599  0.870273  0.385385  1
  O  O18  1  0.869985  0.693818  0.885759  1
  O  O19  1  0.305490  0.130878  0.615205  1
  O  O20  1  0.474276  0.619417  0.111977  1
  O  O21  1  0.380372  0.525015  0.387099  1
  O  O22  1  0.525963  0.380277  0.887766  1
  O  O23  1  0.621231  0.472528  0.612304  1
  O  O24  1  0.084210  0.707665  0.247247  1
  O  O25  1  0.291847  0.916402  0.251526  1
  O  O26  1  0.916080  0.292194  0.752795  1
  O  O27  1  0.707681  0.083578  0.747913  1
  O  O28  1  0.873550  0.126942  0.249646  1
  O  O29  1  0.125568  0.873781  0.750898  1
