# generated using pymatgen
data_Tb3DyHo4(CdIr)2
_symmetry_space_group_name_H-M   'P 1'
_cell_length_a   9.63705966
_cell_length_b   9.63706083
_cell_length_c   9.64077200
_cell_angle_alpha   59.98726039
_cell_angle_beta   59.98725638
_cell_angle_gamma   60.02548551
_symmetry_Int_Tables_number   1
_chemical_formula_structural   Tb3DyHo4(CdIr)2
_chemical_formula_sum   'Tb6 Dy2 Ho8 Cd4 Ir4'
_cell_volume   633.11971986
_cell_formula_units_Z   2
loop_
 _symmetry_equiv_pos_site_id
 _symmetry_equiv_pos_as_xyz
  1  'x, y, z'
loop_
 _atom_site_type_symbol
 _atom_site_label
 _atom_site_symmetry_multiplicity
 _atom_site_fract_x
 _atom_site_fract_y
 _atom_site_fract_z
 _atom_site_occupancy
  Tb  Tb0  1  0.188685  0.811315  0.811315  1
  Tb  Tb1  1  0.811315  0.188685  0.188685  1
  Tb  Tb2  1  0.811315  0.188685  0.811315  1
  Tb  Tb3  1  0.188685  0.811315  0.188685  1
  Tb  Tb4  1  0.811282  0.811282  0.188718  1
  Tb  Tb5  1  0.188718  0.188718  0.811282  1
  Dy  Dy6  1  0.439157  0.439157  0.060843  1
  Dy  Dy7  1  0.060843  0.060843  0.439157  1
  Ho  Ho8  1  0.598756  0.598756  0.598438  1
  Ho  Ho9  1  0.598756  0.598756  0.204050  1
  Ho  Ho10  1  0.598438  0.204050  0.598756  1
  Ho  Ho11  1  0.204050  0.598438  0.598756  1
  Ho  Ho12  1  0.060715  0.439285  0.439285  1
  Ho  Ho13  1  0.439285  0.060715  0.060715  1
  Ho  Ho14  1  0.439285  0.060715  0.439285  1
  Ho  Ho15  1  0.060715  0.439285  0.060715  1
  Cd  Cd16  1  0.830813  0.830813  0.830988  1
  Cd  Cd17  1  0.830813  0.830813  0.507386  1
  Cd  Cd18  1  0.830988  0.507386  0.830813  1
  Cd  Cd19  1  0.507386  0.830988  0.830813  1
  Ir  Ir20  1  0.391662  0.391662  0.392021  1
  Ir  Ir21  1  0.391662  0.391662  0.824657  1
  Ir  Ir22  1  0.392021  0.824657  0.391662  1
  Ir  Ir23  1  0.824657  0.392021  0.391662  1
