# generated using pymatgen
data_Ho6Nb5Ga11Os7
_symmetry_space_group_name_H-M   'P 1'
_cell_length_a   9.08544930
_cell_length_b   9.08544973
_cell_length_c   9.01772339
_cell_angle_alpha   59.75124786
_cell_angle_beta   59.75124331
_cell_angle_gamma   60.00000476
_symmetry_Int_Tables_number   1
_chemical_formula_structural   Ho6Nb5Ga11Os7
_chemical_formula_sum   'Ho6 Nb5 Ga11 Os7'
_cell_volume   524.36244427
_cell_formula_units_Z   1
loop_
 _symmetry_equiv_pos_site_id
 _symmetry_equiv_pos_as_xyz
  1  'x, y, z'
loop_
 _atom_site_type_symbol
 _atom_site_label
 _atom_site_symmetry_multiplicity
 _atom_site_fract_x
 _atom_site_fract_y
 _atom_site_fract_z
 _atom_site_occupancy
  Ho  Ho0  1  0.708331  0.708331  0.294309  1
  Ho  Ho1  1  0.289028  0.708331  0.294309  1
  Ho  Ho2  1  0.708331  0.289028  0.294309  1
  Ho  Ho3  1  0.296571  0.296571  0.711023  1
  Ho  Ho4  1  0.695834  0.296571  0.711023  1
  Ho  Ho5  1  0.296571  0.695834  0.711023  1
  Nb  Nb6  1  0.878213  0.878213  0.365363  1
  Nb  Nb7  1  0.875393  0.368983  0.880232  1
  Nb  Nb8  1  0.368983  0.875393  0.880232  1
  Nb  Nb9  1  0.875393  0.875393  0.880232  1
  Nb  Nb10  1  0.127879  0.127879  0.616364  1
  Ga  Ga11  1  0.116807  0.647371  0.119015  1
  Ga  Ga12  1  0.647371  0.116807  0.119015  1
  Ga  Ga13  1  0.116807  0.116807  0.119015  1
  Ga  Ga14  1  0.660870  0.660870  0.017390  1
  Ga  Ga15  1  0.663387  0.011298  0.661927  1
  Ga  Ga16  1  0.011298  0.663387  0.661927  1
  Ga  Ga17  1  0.663387  0.663387  0.661927  1
  Ga  Ga18  1  0.333673  0.333673  0.998980  1
  Ga  Ga19  1  0.338223  0.991187  0.332365  1
  Ga  Ga20  1  0.991187  0.338223  0.332365  1
  Ga  Ga21  1  0.338223  0.338223  0.332365  1
  Os  Os22  1  0.007104  0.007104  0.978687  1
  Os  Os23  1  0.998424  0.998424  0.508395  1
  Os  Os24  1  0.494757  0.998424  0.508395  1
  Os  Os25  1  0.998424  0.494757  0.508395  1
  Os  Os26  1  0.502276  0.502276  0.000471  1
  Os  Os27  1  0.994976  0.502276  0.000471  1
  Os  Os28  1  0.502276  0.994976  0.000471  1
