# generated using pymatgen
data_La7Nd13Si15Pb
_symmetry_space_group_name_H-M   'P 1'
_cell_length_a   7.95762962
_cell_length_b   7.95522646
_cell_length_c   15.27860000
_cell_angle_alpha   90.04309125
_cell_angle_beta   89.49949264
_cell_angle_gamma   90.18479132
_symmetry_Int_Tables_number   1
_chemical_formula_structural   La7Nd13Si15Pb
_chemical_formula_sum   'La7 Nd13 Si15 Pb1'
_cell_volume   967.16570070
_cell_formula_units_Z   1
loop_
 _symmetry_equiv_pos_site_id
 _symmetry_equiv_pos_as_xyz
  1  'x, y, z'
loop_
 _atom_site_type_symbol
 _atom_site_label
 _atom_site_symmetry_multiplicity
 _atom_site_fract_x
 _atom_site_fract_y
 _atom_site_fract_z
 _atom_site_occupancy
  La  La0  1  0.013089  0.365962  0.554786  1
  La  La1  1  0.627407  0.987059  0.950843  1
  La  La2  1  0.125329  0.514000  0.801573  1
  La  La3  1  0.862817  0.478170  0.290654  1
  La  La4  1  0.509876  0.122568  0.197181  1
  La  La5  1  0.491357  0.877147  0.701860  1
  La  La6  1  0.380771  0.016827  0.449643  1
  Nd  Nd7  1  0.379906  0.477817  0.371763  1
  Nd  Nd8  1  0.857459  0.029726  0.369428  1
  Nd  Nd9  1  0.981128  0.128991  0.123393  1
  Nd  Nd10  1  0.017995  0.874441  0.628076  1
  Nd  Nd11  1  0.631035  0.518101  0.874475  1
  Nd  Nd12  1  0.487421  0.368834  0.629732  1
  Nd  Nd13  1  0.517181  0.627714  0.124246  1
  Nd  Nd14  1  0.127342  0.982606  0.877896  1
  Nd  Nd15  1  0.989229  0.619327  0.051246  1
  Nd  Nd16  1  0.677025  0.692223  0.501759  1
  Nd  Nd17  1  0.812966  0.190613  0.751845  1
  Nd  Nd18  1  0.191443  0.811896  0.241262  1
  Nd  Nd19  1  0.309015  0.309677  0.999424  1
  Si  Si20  1  0.923541  0.289521  0.940228  1
  Si  Si21  1  0.715662  0.077588  0.560898  1
  Si  Si22  1  0.212948  0.423239  0.189697  1
  Si  Si23  1  0.790533  0.579039  0.689830  1
  Si  Si24  1  0.423811  0.212996  0.812528  1
  Si  Si25  1  0.576305  0.786515  0.308875  1
  Si  Si26  1  0.285671  0.921601  0.057559  1
  Si  Si27  1  0.833471  0.804055  0.799044  1
  Si  Si28  1  0.166166  0.197586  0.297624  1
  Si  Si29  1  0.802297  0.831032  0.198270  1
  Si  Si30  1  0.311954  0.664199  0.558871  1
  Si  Si31  1  0.699754  0.335932  0.049237  1
  Si  Si32  1  0.669655  0.307459  0.455660  1
  Si  Si33  1  0.331730  0.695047  0.951282  1
  Si  Si34  1  0.198980  0.167221  0.704571  1
  Pb  Pb35  1  0.067740  0.713270  0.434745  1
