# generated using pymatgen
data_Zr4TiBeSb3
_symmetry_space_group_name_H-M   'P 1'
_cell_length_a   8.49997300
_cell_length_b   8.49997501
_cell_length_c   5.72962400
_cell_angle_alpha   90.00000000
_cell_angle_beta   90.00000000
_cell_angle_gamma   120.00000387
_symmetry_Int_Tables_number   1
_chemical_formula_structural   Zr4TiBeSb3
_chemical_formula_sum   'Zr8 Ti2 Be2 Sb6'
_cell_volume   358.50228862
_cell_formula_units_Z   2
loop_
 _symmetry_equiv_pos_site_id
 _symmetry_equiv_pos_as_xyz
  1  'x, y, z'
loop_
 _atom_site_type_symbol
 _atom_site_label
 _atom_site_symmetry_multiplicity
 _atom_site_fract_x
 _atom_site_fract_y
 _atom_site_fract_z
 _atom_site_occupancy
  Zr  Zr0  1  0.666667  0.333333  0.500000  1
  Zr  Zr1  1  0.333333  0.666667  0.500000  1
  Zr  Zr2  1  0.748497  0.748497  0.252662  1
  Zr  Zr3  1  0.251503  0.000000  0.252662  1
  Zr  Zr4  1  0.000000  0.251503  0.252662  1
  Zr  Zr5  1  0.251503  0.251503  0.747338  1
  Zr  Zr6  1  0.748497  0.000000  0.747338  1
  Zr  Zr7  1  0.000000  0.748497  0.747338  1
  Ti  Ti8  1  0.333333  0.666667  0.000000  1
  Ti  Ti9  1  0.666667  0.333333  0.000000  1
  Be  Be10  1  0.000000  0.000000  0.000000  1
  Be  Be11  1  0.000000  0.000000  0.500000  1
  Sb  Sb12  1  0.393137  0.393137  0.241235  1
  Sb  Sb13  1  0.606863  0.000000  0.241235  1
  Sb  Sb14  1  0.000000  0.606863  0.241235  1
  Sb  Sb15  1  0.606863  0.606863  0.758765  1
  Sb  Sb16  1  0.393137  0.000000  0.758765  1
  Sb  Sb17  1  0.000000  0.393137  0.758765  1
