# generated using pymatgen
data_TmMo3(PO4)4
_symmetry_space_group_name_H-M   'P 1'
_cell_length_a   4.88727994
_cell_length_b   6.99606212
_cell_length_c   9.05239832
_cell_angle_alpha   89.99749275
_cell_angle_beta   89.93906328
_cell_angle_gamma   89.96454976
_symmetry_Int_Tables_number   1
_chemical_formula_structural   TmMo3(PO4)4
_chemical_formula_sum   'Tm1 Mo3 P4 O16'
_cell_volume   309.51678040
_cell_formula_units_Z   1
loop_
 _symmetry_equiv_pos_site_id
 _symmetry_equiv_pos_as_xyz
  1  'x, y, z'
loop_
 _atom_site_type_symbol
 _atom_site_label
 _atom_site_symmetry_multiplicity
 _atom_site_fract_x
 _atom_site_fract_y
 _atom_site_fract_z
 _atom_site_occupancy
  Tm  Tm0  1  0.000000  0.000000  0.000000  1
  Mo  Mo1  1  0.500000  0.500000  0.500000  1
  Mo  Mo2  1  0.000000  0.500000  0.000000  1
  Mo  Mo3  1  0.500000  0.000000  0.500000  1
  P  P4  1  0.987834  0.746912  0.674936  1
  P  P5  1  0.491228  0.255511  0.820517  1
  P  P6  1  0.012166  0.253088  0.325064  1
  P  P7  1  0.508772  0.744489  0.179483  1
  O  O8  1  0.147703  0.436548  0.377317  1
  O  O9  1  0.651555  0.562182  0.128737  1
  O  O10  1  0.850002  0.933375  0.627802  1
  O  O11  1  0.360974  0.069321  0.872894  1
  O  O12  1  0.852297  0.563452  0.622683  1
  O  O13  1  0.348445  0.437818  0.871263  1
  O  O14  1  0.149998  0.066625  0.372198  1
  O  O15  1  0.639026  0.930679  0.127106  1
  O  O16  1  0.204240  0.740385  0.121904  1
  O  O17  1  0.705955  0.250067  0.383674  1
  O  O18  1  0.795760  0.259615  0.878096  1
  O  O19  1  0.294045  0.749933  0.616326  1
  O  O20  1  0.526284  0.748573  0.354396  1
  O  O21  1  0.023116  0.255221  0.150566  1
  O  O22  1  0.473716  0.251427  0.645604  1
  O  O23  1  0.976884  0.744779  0.849434  1
