# generated using pymatgen
data_La13NdPd5Rh
_symmetry_space_group_name_H-M   'P 1'
_cell_length_a   10.34654897
_cell_length_b   10.34654875
_cell_length_c   6.59828307
_cell_angle_alpha   89.98325981
_cell_angle_beta   90.01674631
_cell_angle_gamma   120.06321258
_symmetry_Int_Tables_number   1
_chemical_formula_structural   La13NdPd5Rh
_chemical_formula_sum   'La13 Nd1 Pd5 Rh1'
_cell_volume   611.32983309
_cell_formula_units_Z   1
loop_
 _symmetry_equiv_pos_site_id
 _symmetry_equiv_pos_as_xyz
  1  'x, y, z'
loop_
 _atom_site_type_symbol
 _atom_site_label
 _atom_site_symmetry_multiplicity
 _atom_site_fract_x
 _atom_site_fract_y
 _atom_site_fract_z
 _atom_site_occupancy
  La  La0  1  0.668674  0.331326  0.960103  1
  La  La1  1  0.126775  0.873225  0.245400  1
  La  La2  1  0.748938  0.880141  0.243860  1
  La  La3  1  0.119859  0.251062  0.243860  1
  La  La4  1  0.873007  0.126993  0.751941  1
  La  La5  1  0.252872  0.125965  0.746097  1
  La  La6  1  0.874035  0.747128  0.746097  1
  La  La7  1  0.537753  0.462247  0.442997  1
  La  La8  1  0.920978  0.455981  0.438982  1
  La  La9  1  0.544019  0.079022  0.438982  1
  La  La10  1  0.461638  0.538362  0.942283  1
  La  La11  1  0.076703  0.537581  0.941518  1
  La  La12  1  0.462419  0.923297  0.941518  1
  Nd  Nd13  1  0.333141  0.666859  0.454216  1
  Pd  Pd14  1  0.375401  0.188058  0.190720  1
  Pd  Pd15  1  0.811942  0.624599  0.190720  1
  Pd  Pd16  1  0.188010  0.811990  0.691553  1
  Pd  Pd17  1  0.624084  0.812038  0.691159  1
  Pd  Pd18  1  0.187962  0.375916  0.691159  1
  Rh  Rh19  1  0.811792  0.188208  0.192626  1
