# generated using pymatgen
data_Ho2TmTh(Al8Pt3)3
_symmetry_space_group_name_H-M   'P 1'
_cell_length_a   7.55259136
_cell_length_b   7.56776773
_cell_length_c   13.15975810
_cell_angle_alpha   84.51944786
_cell_angle_beta   78.97536528
_cell_angle_gamma   59.92599787
_symmetry_Int_Tables_number   1
_chemical_formula_structural   Ho2TmTh(Al8Pt3)3
_chemical_formula_sum   'Ho2 Tm1 Th1 Al24 Pt9'
_cell_volume   638.89309244
_cell_formula_units_Z   1
loop_
 _symmetry_equiv_pos_site_id
 _symmetry_equiv_pos_as_xyz
  1  'x, y, z'
loop_
 _atom_site_type_symbol
 _atom_site_label
 _atom_site_symmetry_multiplicity
 _atom_site_fract_x
 _atom_site_fract_y
 _atom_site_fract_z
 _atom_site_occupancy
  Ho  Ho0  1  0.605660  0.831374  0.193623  1
  Ho  Ho1  1  0.733429  0.499176  0.807484  1
  Tm  Tm2  1  0.265863  0.501260  0.194119  1
  Th  Th3  1  0.394065  0.167920  0.807491  1
  Al  Al4  1  0.687009  0.830632  0.947218  1
  Al  Al5  1  0.315247  0.166657  0.059066  1
  Al  Al6  1  0.146873  0.832664  0.560202  1
  Al  Al7  1  0.854181  0.167593  0.437455  1
  Al  Al8  1  0.481002  0.166520  0.556452  1
  Al  Al9  1  0.520317  0.832512  0.440630  1
  Al  Al10  1  0.217541  0.165835  0.328593  1
  Al  Al11  1  0.787469  0.831090  0.667204  1
  Al  Al12  1  0.437913  0.510351  0.667767  1
  Al  Al13  1  0.562915  0.493308  0.328370  1
  Al  Al14  1  0.107069  0.159718  0.666035  1
  Al  Al15  1  0.890973  0.839817  0.329850  1
  Al  Al16  1  0.351531  0.502880  0.947398  1
  Al  Al17  1  0.645526  0.501363  0.056949  1
  Al  Al18  1  0.011651  0.167269  0.956504  1
  Al  Al19  1  0.984159  0.831095  0.049646  1
  Al  Al20  1  0.186039  0.500180  0.440561  1
  Al  Al21  1  0.813633  0.500406  0.558030  1
  Al  Al22  1  0.733446  0.164641  0.183385  1
  Al  Al23  1  0.264939  0.832123  0.816670  1
  Al  Al24  1  0.057948  0.635347  0.815496  1
  Al  Al25  1  0.938355  0.369517  0.184804  1
  Al  Al26  1  0.859853  0.040982  0.816360  1
  Al  Al27  1  0.144484  0.957391  0.184185  1
  Pt  Pt28  1  0.121124  0.490759  0.638885  1
  Pt  Pt29  1  0.880345  0.508567  0.360637  1
  Pt  Pt30  1  0.656419  0.171599  0.999899  1
  Pt  Pt31  1  0.342974  0.829362  0.000169  1
  Pt  Pt32  1  0.537195  0.167115  0.360601  1
  Pt  Pt33  1  0.462251  0.834080  0.638693  1
  Pt  Pt34  1  0.777880  0.175225  0.637424  1
  Pt  Pt35  1  0.221713  0.824468  0.362087  1
  Pt  Pt36  1  0.001007  0.499207  0.000054  1
