# generated using pymatgen
data_La5CoRuO12
_symmetry_space_group_name_H-M   'P 1'
_cell_length_a   7.11944983
_cell_length_b   7.11944913
_cell_length_c   7.74891708
_cell_angle_alpha   74.32603537
_cell_angle_beta   74.32603666
_cell_angle_gamma   50.31926496
_symmetry_Int_Tables_number   1
_chemical_formula_structural   La5CoRuO12
_chemical_formula_sum   'La5 Co1 Ru1 O12'
_cell_volume   288.49913195
_cell_formula_units_Z   1
loop_
 _symmetry_equiv_pos_site_id
 _symmetry_equiv_pos_as_xyz
  1  'x, y, z'
loop_
 _atom_site_type_symbol
 _atom_site_label
 _atom_site_symmetry_multiplicity
 _atom_site_fract_x
 _atom_site_fract_y
 _atom_site_fract_z
 _atom_site_occupancy
  La  La0  1  0.327022  0.293728  0.353257  1
  La  La1  1  0.706272  0.672978  0.646743  1
  La  La2  1  0.694609  0.685517  0.164954  1
  La  La3  1  0.314483  0.305391  0.835046  1
  La  La4  1  0.003863  0.996137  0.500000  1
  Co  Co5  1  0.742841  0.257159  0.000000  1
  Ru  Ru6  1  0.228173  0.771827  0.000000  1
  O  O7  1  0.102351  0.595198  0.575512  1
  O  O8  1  0.984789  0.014213  0.161737  1
  O  O9  1  0.404802  0.897649  0.424488  1
  O  O10  1  0.496521  0.505253  0.166362  1
  O  O11  1  0.106037  0.588046  0.077512  1
  O  O12  1  0.915157  0.397456  0.418712  1
  O  O13  1  0.985787  0.015211  0.838263  1
  O  O14  1  0.602544  0.084842  0.581288  1
  O  O15  1  0.494747  0.503479  0.833638  1
  O  O16  1  0.578010  0.099960  0.077981  1
  O  O17  1  0.411954  0.893963  0.922488  1
  O  O18  1  0.900040  0.421990  0.922019  1
