# generated using pymatgen
data_Eu4AlMo3O14
_symmetry_space_group_name_H-M   'P 1'
_cell_length_a   7.49149390
_cell_length_b   7.31691775
_cell_length_c   7.49149400
_cell_angle_alpha   59.20755285
_cell_angle_beta   59.99999956
_cell_angle_gamma   59.20755301
_symmetry_Int_Tables_number   1
_chemical_formula_structural   Eu4AlMo3O14
_chemical_formula_sum   'Eu4 Al1 Mo3 O14'
_cell_volume   286.84212602
_cell_formula_units_Z   1
loop_
 _symmetry_equiv_pos_site_id
 _symmetry_equiv_pos_as_xyz
  1  'x, y, z'
loop_
 _atom_site_type_symbol
 _atom_site_label
 _atom_site_symmetry_multiplicity
 _atom_site_fract_x
 _atom_site_fract_y
 _atom_site_fract_z
 _atom_site_occupancy
  Eu  Eu0  1  0.625000  0.125000  0.125000  1
  Eu  Eu1  1  0.125000  0.625000  0.125000  1
  Eu  Eu2  1  0.125000  0.125000  0.625000  1
  Eu  Eu3  1  0.125000  0.125000  0.125000  1
  Al  Al4  1  0.625000  0.125000  0.625000  1
  Mo  Mo5  1  0.125000  0.625000  0.625000  1
  Mo  Mo6  1  0.625000  0.625000  0.125000  1
  Mo  Mo7  1  0.625000  0.625000  0.625000  1
  O  O8  1  0.253196  0.240411  0.253196  1
  O  O9  1  0.996804  0.009589  0.996804  1
  O  O10  1  0.702616  0.704551  0.296417  1
  O  O11  1  0.313239  0.308698  0.689032  1
  O  O12  1  0.689032  0.308698  0.689032  1
  O  O13  1  0.296417  0.704551  0.296417  1
  O  O14  1  0.296417  0.704551  0.702616  1
  O  O15  1  0.689032  0.308698  0.313239  1
  O  O16  1  0.547384  0.545449  0.953583  1
  O  O17  1  0.936761  0.941302  0.560968  1
  O  O18  1  0.560968  0.941302  0.560968  1
  O  O19  1  0.953583  0.545449  0.953583  1
  O  O20  1  0.953583  0.545449  0.547384  1
  O  O21  1  0.560968  0.941302  0.936761  1
