# generated using pymatgen
data_Cs5Ag5Hg
_symmetry_space_group_name_H-M   'P 1'
_cell_length_a   17.53578309
_cell_length_b   17.53578163
_cell_length_c   5.70977900
_cell_angle_alpha   90.00000000
_cell_angle_beta   90.00000000
_cell_angle_gamma   163.45790144
_symmetry_Int_Tables_number   1
_chemical_formula_structural   Cs5Ag5Hg
_chemical_formula_sum   'Cs5 Ag5 Hg1'
_cell_volume   499.90469403
_cell_formula_units_Z   1
loop_
 _symmetry_equiv_pos_site_id
 _symmetry_equiv_pos_as_xyz
  1  'x, y, z'
loop_
 _atom_site_type_symbol
 _atom_site_label
 _atom_site_symmetry_multiplicity
 _atom_site_fract_x
 _atom_site_fract_y
 _atom_site_fract_z
 _atom_site_occupancy
  Cs  Cs0  1  0.004315  0.995685  0.000000  1
  Cs  Cs1  1  0.614553  0.385445  0.000000  1
  Cs  Cs2  1  0.383022  0.616976  0.000000  1
  Cs  Cs3  1  0.802817  0.197181  0.500001  1
  Cs  Cs4  1  0.193445  0.806553  0.500001  1
  Ag  Ag5  1  0.735536  0.264462  0.000000  1
  Ag  Ag6  1  0.263864  0.736134  0.000000  1
  Ag  Ag7  1  0.543861  0.456137  0.500001  1
  Ag  Ag8  1  0.461984  0.538014  0.500001  1
  Ag  Ag9  1  0.074090  0.925909  0.500001  1
  Hg  Hg10  1  0.922503  0.077496  0.500001  1
