# generated using pymatgen
data_CsRb2Cu2F11
_symmetry_space_group_name_H-M   'P 1'
_cell_length_a   6.07239618
_cell_length_b   6.07239691
_cell_length_c   9.07164568
_cell_angle_alpha   109.55373989
_cell_angle_beta   109.55374222
_cell_angle_gamma   90.00000880
_symmetry_Int_Tables_number   1
_chemical_formula_structural   CsRb2Cu2F11
_chemical_formula_sum   'Cs1 Rb2 Cu2 F11'
_cell_volume   294.66402507
_cell_formula_units_Z   1
loop_
 _symmetry_equiv_pos_site_id
 _symmetry_equiv_pos_as_xyz
  1  'x, y, z'
loop_
 _atom_site_type_symbol
 _atom_site_label
 _atom_site_symmetry_multiplicity
 _atom_site_fract_x
 _atom_site_fract_y
 _atom_site_fract_z
 _atom_site_occupancy
  Cs  Cs0  1  0.000000  0.000000  0.000000  1
  Rb  Rb1  1  0.750000  0.250000  0.500000  1
  Rb  Rb2  1  0.250000  0.750000  0.500000  1
  Cu  Cu3  1  0.620417  0.620417  0.240833  1
  Cu  Cu4  1  0.379584  0.379584  0.759168  1
  F  F5  1  0.500000  0.500000  0.000000  1
  F  F6  1  0.409664  0.409664  0.241459  1
  F  F7  1  0.831796  0.409664  0.241459  1
  F  F8  1  0.409664  0.831796  0.241459  1
  F  F9  1  0.831796  0.831796  0.241459  1
  F  F10  1  0.257845  0.257845  0.515689  1
  F  F11  1  0.742156  0.742156  0.484310  1
  F  F12  1  0.168204  0.168204  0.758542  1
  F  F13  1  0.590337  0.168204  0.758542  1
  F  F14  1  0.168204  0.590337  0.758542  1
  F  F15  1  0.590337  0.590337  0.758542  1
