# generated using pymatgen
data_LaYAlNi5Pt4
_symmetry_space_group_name_H-M   'P 1'
_cell_length_a   4.09690900
_cell_length_b   5.48799200
_cell_length_c   8.57208300
_cell_angle_alpha   90.00000000
_cell_angle_beta   90.00000000
_cell_angle_gamma   90.00000000
_symmetry_Int_Tables_number   1
_chemical_formula_structural   LaYAlNi5Pt4
_chemical_formula_sum   'La1 Y1 Al1 Ni5 Pt4'
_cell_volume   192.73303247
_cell_formula_units_Z   1
loop_
 _symmetry_equiv_pos_site_id
 _symmetry_equiv_pos_as_xyz
  1  'x, y, z'
loop_
 _atom_site_type_symbol
 _atom_site_label
 _atom_site_symmetry_multiplicity
 _atom_site_fract_x
 _atom_site_fract_y
 _atom_site_fract_z
 _atom_site_occupancy
  La  La0  1  0.000000  0.500000  0.000000  1
  Y  Y1  1  0.000000  0.000000  0.500000  1
  Al  Al2  1  0.500000  0.500000  0.500000  1
  Ni  Ni3  1  0.000000  0.500000  0.341578  1
  Ni  Ni4  1  0.000000  0.000000  0.844551  1
  Ni  Ni5  1  0.000000  0.000000  0.155449  1
  Ni  Ni6  1  0.000000  0.500000  0.658422  1
  Ni  Ni7  1  0.500000  0.000000  0.000000  1
  Pt  Pt8  1  0.500000  0.757975  0.258495  1
  Pt  Pt9  1  0.500000  0.242025  0.741505  1
  Pt  Pt10  1  0.500000  0.242025  0.258495  1
  Pt  Pt11  1  0.500000  0.757975  0.741505  1
