# generated using pymatgen
data_Ce8MgSi16Mo11
_symmetry_space_group_name_H-M   'P 1'
_cell_length_a   6.92239813
_cell_length_b   7.02444240
_cell_length_c   13.07735400
_cell_angle_alpha   90.00000000
_cell_angle_beta   90.00000000
_cell_angle_gamma   89.93715747
_symmetry_Int_Tables_number   1
_chemical_formula_structural   Ce8MgSi16Mo11
_chemical_formula_sum   'Ce8 Mg1 Si16 Mo11'
_cell_volume   635.89886254
_cell_formula_units_Z   1
loop_
 _symmetry_equiv_pos_site_id
 _symmetry_equiv_pos_as_xyz
  1  'x, y, z'
loop_
 _atom_site_type_symbol
 _atom_site_label
 _atom_site_symmetry_multiplicity
 _atom_site_fract_x
 _atom_site_fract_y
 _atom_site_fract_z
 _atom_site_occupancy
  Ce  Ce0  1  0.005250  0.160451  0.093179  1
  Ce  Ce1  1  0.504456  0.339127  0.406549  1
  Ce  Ce2  1  0.497016  0.665462  0.905413  1
  Ce  Ce3  1  0.999705  0.835527  0.592117  1
  Ce  Ce4  1  0.999705  0.835527  0.907883  1
  Ce  Ce5  1  0.497016  0.665462  0.594587  1
  Ce  Ce6  1  0.504456  0.339127  0.093451  1
  Ce  Ce7  1  0.005250  0.160451  0.406821  1
  Mg  Mg8  1  0.334245  0.003402  0.750000  1
  Si  Si9  1  0.809003  0.375860  0.250000  1
  Si  Si10  1  0.310079  0.125085  0.250000  1
  Si  Si11  1  0.707255  0.879324  0.750000  1
  Si  Si12  1  0.189652  0.603660  0.750000  1
  Si  Si13  1  0.037456  0.859978  0.250000  1
  Si  Si14  1  0.540617  0.641611  0.250000  1
  Si  Si15  1  0.463218  0.368359  0.750000  1
  Si  Si16  1  0.949881  0.140769  0.750000  1
  Si  Si17  1  0.842337  0.455401  0.954396  1
  Si  Si18  1  0.344389  0.044717  0.540785  1
  Si  Si19  1  0.654334  0.955093  0.048702  1
  Si  Si20  1  0.155557  0.543837  0.452114  1
  Si  Si21  1  0.155557  0.543837  0.047886  1
  Si  Si22  1  0.654334  0.955093  0.451298  1
  Si  Si23  1  0.344389  0.044717  0.959215  1
  Si  Si24  1  0.842337  0.455401  0.545604  1
  Mo  Mo25  1  0.669482  0.002167  0.250000  1
  Mo  Mo26  1  0.167882  0.497903  0.250000  1
  Mo  Mo27  1  0.829633  0.500238  0.750000  1
  Mo  Mo28  1  0.832940  0.663722  0.125776  1
  Mo  Mo29  1  0.330676  0.835881  0.371868  1
  Mo  Mo30  1  0.668327  0.172153  0.877982  1
  Mo  Mo31  1  0.160810  0.329452  0.622147  1
  Mo  Mo32  1  0.160810  0.329452  0.877853  1
  Mo  Mo33  1  0.668327  0.172153  0.622018  1
  Mo  Mo34  1  0.330676  0.835881  0.128132  1
  Mo  Mo35  1  0.832940  0.663722  0.374224  1
