# generated using pymatgen
data_Ca2Al16Pt8Rh
_symmetry_space_group_name_H-M   'P 1'
_cell_length_a   11.13726314
_cell_length_b   11.13726319
_cell_length_c   11.13726400
_cell_angle_alpha   158.64139618
_cell_angle_beta   115.86319035
_cell_angle_gamma   68.43583711
_symmetry_Int_Tables_number   1
_chemical_formula_structural   Ca2Al16Pt8Rh
_chemical_formula_sum   'Ca2 Al16 Pt8 Rh1'
_cell_volume   449.56451299
_cell_formula_units_Z   1
loop_
 _symmetry_equiv_pos_site_id
 _symmetry_equiv_pos_as_xyz
  1  'x, y, z'
loop_
 _atom_site_type_symbol
 _atom_site_label
 _atom_site_symmetry_multiplicity
 _atom_site_fract_x
 _atom_site_fract_y
 _atom_site_fract_z
 _atom_site_occupancy
  Ca  Ca0  1  0.230546  0.229684  0.000863  1
  Ca  Ca1  1  0.771179  0.770316  0.000863  1
  Al  Al2  1  0.276610  0.392688  0.883920  1
  Al  Al3  1  0.088369  0.923960  0.164410  1
  Al  Al4  1  0.505865  0.201220  0.304647  1
  Al  Al5  1  0.240451  0.076040  0.164410  1
  Al  Al6  1  0.909802  0.414955  0.494848  1
  Al  Al7  1  0.727081  0.602638  0.124442  1
  Al  Al8  1  0.902111  0.208746  0.693366  1
  Al  Al9  1  0.484620  0.791254  0.693366  1
  Al  Al10  1  0.387177  0.000000  0.387177  1
  Al  Al11  1  0.624266  0.000000  0.624266  1
  Al  Al12  1  0.491233  0.607312  0.883920  1
  Al  Al13  1  0.103429  0.798780  0.304647  1
  Al  Al14  1  0.906465  0.084163  0.822302  1
  Al  Al15  1  0.738140  0.915837  0.822302  1
  Al  Al16  1  0.521803  0.397362  0.124442  1
  Al  Al17  1  0.079893  0.585045  0.494848  1
  Pt  Pt18  1  0.028122  0.343916  0.684207  1
  Pt  Pt19  1  0.627093  0.123445  0.503648  1
  Pt  Pt20  1  0.254020  0.500000  0.754020  1
  Pt  Pt21  1  0.380201  0.876555  0.503648  1
  Pt  Pt22  1  0.985453  0.000000  0.985453  1
  Pt  Pt23  1  0.648965  0.336457  0.312507  1
  Pt  Pt24  1  0.340290  0.656084  0.684207  1
  Pt  Pt25  1  0.976050  0.663543  0.312507  1
  Rh  Rh26  1  0.770765  0.500000  0.270765  1
