# generated using pymatgen
data_Ho4Be7BRu10
_symmetry_space_group_name_H-M   'P 1'
_cell_length_a   3.20839600
_cell_length_b   8.92951018
_cell_length_c   10.34381218
_cell_angle_alpha   90.17351654
_cell_angle_beta   90.00000000
_cell_angle_gamma   90.00000000
_symmetry_Int_Tables_number   1
_chemical_formula_structural   Ho4Be7BRu10
_chemical_formula_sum   'Ho4 Be7 B1 Ru10'
_cell_volume   296.34270284
_cell_formula_units_Z   1
loop_
 _symmetry_equiv_pos_site_id
 _symmetry_equiv_pos_as_xyz
  1  'x, y, z'
loop_
 _atom_site_type_symbol
 _atom_site_label
 _atom_site_symmetry_multiplicity
 _atom_site_fract_x
 _atom_site_fract_y
 _atom_site_fract_z
 _atom_site_occupancy
  Ho  Ho0  1  0.500000  0.833569  0.181875  1
  Ho  Ho1  1  0.500000  0.162764  0.817265  1
  Ho  Ho2  1  0.500000  0.665240  0.683421  1
  Ho  Ho3  1  0.500000  0.338881  0.317461  1
  Be  Be4  1  0.500000  0.962890  0.592538  1
  Be  Be5  1  0.500000  0.033128  0.406616  1
  Be  Be6  1  0.500000  0.844484  0.905870  1
  Be  Be7  1  0.500000  0.163862  0.094716  1
  Be  Be8  1  0.500000  0.655838  0.403947  1
  Be  Be9  1  0.500000  0.335211  0.592306  1
  Be  Be10  1  0.500000  0.468732  0.909399  1
  B  B11  1  0.500000  0.534329  0.091464  1
  Ru  Ru12  1  0.000000  0.655619  0.962691  1
  Ru  Ru13  1  0.000000  0.352368  0.048023  1
  Ru  Ru14  1  0.000000  0.840803  0.452724  1
  Ru  Ru15  1  0.000000  0.153391  0.545113  1
  Ru  Ru16  1  0.000000  0.004798  0.003044  1
  Ru  Ru17  1  0.000000  0.409500  0.752956  1
  Ru  Ru18  1  0.000000  0.585872  0.235705  1
  Ru  Ru19  1  0.000000  0.501032  0.503026  1
  Ru  Ru20  1  0.000000  0.908435  0.746440  1
  Ru  Ru21  1  0.000000  0.089252  0.253402  1
