# generated using pymatgen
data_Nd6Ho10Cd4NiOs3
_symmetry_space_group_name_H-M   'P 1'
_cell_length_a   9.60080918
_cell_length_b   9.76620326
_cell_length_c   9.76620300
_cell_angle_alpha   59.99999072
_cell_angle_beta   59.42846750
_cell_angle_gamma   59.42847031
_symmetry_Int_Tables_number   1
_chemical_formula_structural   Nd6Ho10Cd4NiOs3
_chemical_formula_sum   'Nd6 Ho10 Cd4 Ni1 Os3'
_cell_volume   641.85667056
_cell_formula_units_Z   1
loop_
 _symmetry_equiv_pos_site_id
 _symmetry_equiv_pos_as_xyz
  1  'x, y, z'
loop_
 _atom_site_type_symbol
 _atom_site_label
 _atom_site_symmetry_multiplicity
 _atom_site_fract_x
 _atom_site_fract_y
 _atom_site_fract_z
 _atom_site_occupancy
  Nd  Nd0  1  0.189538  0.808851  0.808851  1
  Nd  Nd1  1  0.804720  0.190842  0.190842  1
  Nd  Nd2  1  0.804720  0.190842  0.813596  1
  Nd  Nd3  1  0.189538  0.808851  0.192759  1
  Nd  Nd4  1  0.804720  0.813596  0.190842  1
  Nd  Nd5  1  0.189538  0.192759  0.808851  1
  Ho  Ho6  1  0.597843  0.594383  0.594383  1
  Ho  Ho7  1  0.597843  0.594383  0.213393  1
  Ho  Ho8  1  0.597843  0.213393  0.594383  1
  Ho  Ho9  1  0.218665  0.593779  0.593779  1
  Ho  Ho10  1  0.062504  0.436937  0.436937  1
  Ho  Ho11  1  0.435057  0.063736  0.063736  1
  Ho  Ho12  1  0.435057  0.063736  0.437471  1
  Ho  Ho13  1  0.062504  0.436937  0.063621  1
  Ho  Ho14  1  0.435057  0.437471  0.063736  1
  Ho  Ho15  1  0.062504  0.063621  0.436937  1
  Cd  Cd16  1  0.828480  0.828982  0.828982  1
  Cd  Cd17  1  0.828480  0.828982  0.513556  1
  Cd  Cd18  1  0.828480  0.513556  0.828982  1
  Cd  Cd19  1  0.510714  0.829762  0.829762  1
  Ni  Ni20  1  0.830505  0.389832  0.389832  1
  Os  Os21  1  0.395230  0.387442  0.387442  1
  Os  Os22  1  0.395230  0.387442  0.829885  1
  Os  Os23  1  0.395230  0.829885  0.387442  1
