# generated using pymatgen
data_Y15Pa(HgIr)4
_symmetry_space_group_name_H-M   'P 1'
_cell_length_a   9.66437403
_cell_length_b   9.66475967
_cell_length_c   9.66478890
_cell_angle_alpha   59.70470189
_cell_angle_beta   59.69776773
_cell_angle_gamma   59.69736676
_symmetry_Int_Tables_number   1
_chemical_formula_structural   Y15Pa(HgIr)4
_chemical_formula_sum   'Y15 Pa1 Hg4 Ir4'
_cell_volume   633.97480733
_cell_formula_units_Z   1
loop_
 _symmetry_equiv_pos_site_id
 _symmetry_equiv_pos_as_xyz
  1  'x, y, z'
loop_
 _atom_site_type_symbol
 _atom_site_label
 _atom_site_symmetry_multiplicity
 _atom_site_fract_x
 _atom_site_fract_y
 _atom_site_fract_z
 _atom_site_occupancy
  Y  Y0  1  0.352762  0.352750  0.942601  1
  Y  Y1  1  0.352760  0.942614  0.352745  1
  Y  Y2  1  0.942590  0.352756  0.352750  1
  Y  Y3  1  0.810662  0.190721  0.190721  1
  Y  Y4  1  0.190012  0.810439  0.810431  1
  Y  Y5  1  0.190723  0.810617  0.190702  1
  Y  Y6  1  0.810455  0.189976  0.810466  1
  Y  Y7  1  0.190719  0.190692  0.810638  1
  Y  Y8  1  0.810451  0.810473  0.189986  1
  Y  Y9  1  0.941014  0.562364  0.562366  1
  Y  Y10  1  0.561953  0.938409  0.938408  1
  Y  Y11  1  0.562362  0.940999  0.562351  1
  Y  Y12  1  0.938425  0.561948  0.938442  1
  Y  Y13  1  0.562378  0.562362  0.940990  1
  Y  Y14  1  0.938410  0.938425  0.561961  1
  Pa  Pa15  1  0.342965  0.342995  0.343006  1
  Hg  Hg16  1  0.583301  0.583261  0.583251  1
  Hg  Hg17  1  0.582856  0.582853  0.244484  1
  Hg  Hg18  1  0.582849  0.244484  0.582856  1
  Hg  Hg19  1  0.244443  0.582858  0.582874  1
  Ir  Ir20  1  0.143113  0.143133  0.143121  1
  Ir  Ir21  1  0.147826  0.147840  0.569164  1
  Ir  Ir22  1  0.147814  0.569164  0.147828  1
  Ir  Ir23  1  0.569159  0.147868  0.147857  1
