# generated using pymatgen
data_Dy3Ho(Si2Os)2
_symmetry_space_group_name_H-M   'P 1'
_cell_length_a   5.73283614
_cell_length_b   5.73283617
_cell_length_c   10.02674809
_cell_angle_alpha   116.77035078
_cell_angle_beta   116.77035286
_cell_angle_gamma   43.22302521
_symmetry_Int_Tables_number   1
_chemical_formula_structural   Dy3Ho(Si2Os)2
_chemical_formula_sum   'Dy3 Ho1 Si4 Os2'
_cell_volume   197.42410837
_cell_formula_units_Z   1
loop_
 _symmetry_equiv_pos_site_id
 _symmetry_equiv_pos_as_xyz
  1  'x, y, z'
loop_
 _atom_site_type_symbol
 _atom_site_label
 _atom_site_symmetry_multiplicity
 _atom_site_fract_x
 _atom_site_fract_y
 _atom_site_fract_z
 _atom_site_occupancy
  Dy  Dy0  1  0.007828  0.007828  0.178787  1
  Dy  Dy1  1  0.814570  0.814570  0.388716  1
  Dy  Dy2  1  0.185564  0.185564  0.611483  1
  Ho  Ho3  1  0.992534  0.992534  0.821508  1
  Si  Si4  1  0.644065  0.644065  0.060249  1
  Si  Si5  1  0.503056  0.503056  0.375567  1
  Si  Si6  1  0.496736  0.496736  0.624850  1
  Si  Si7  1  0.355908  0.355908  0.939494  1
  Os  Os8  1  0.270607  0.270607  0.126541  1
  Os  Os9  1  0.729137  0.729137  0.872809  1
