# generated using pymatgen
data_Er4CdCo
_symmetry_space_group_name_H-M   'P 1'
_cell_length_a   9.41339680
_cell_length_b   9.41339618
_cell_length_c   9.41339700
_cell_angle_alpha   60.00000064
_cell_angle_beta   60.00000282
_cell_angle_gamma   60.00000376
_symmetry_Int_Tables_number   1
_chemical_formula_structural   Er4CdCo
_chemical_formula_sum   'Er16 Cd4 Co4'
_cell_volume   589.82626000
_cell_formula_units_Z   4
loop_
 _symmetry_equiv_pos_site_id
 _symmetry_equiv_pos_as_xyz
  1  'x, y, z'
loop_
 _atom_site_type_symbol
 _atom_site_label
 _atom_site_symmetry_multiplicity
 _atom_site_fract_x
 _atom_site_fract_y
 _atom_site_fract_z
 _atom_site_occupancy
  Er  Er0  1  0.346098  0.346098  0.346098  1
  Er  Er1  1  0.346098  0.346098  0.961707  1
  Er  Er2  1  0.346098  0.961707  0.346098  1
  Er  Er3  1  0.961707  0.346098  0.346098  1
  Er  Er4  1  0.812420  0.187580  0.187580  1
  Er  Er5  1  0.187580  0.812420  0.812420  1
  Er  Er6  1  0.187580  0.812420  0.187580  1
  Er  Er7  1  0.812420  0.187580  0.812420  1
  Er  Er8  1  0.187580  0.187580  0.812420  1
  Er  Er9  1  0.812420  0.812420  0.187580  1
  Er  Er10  1  0.937882  0.562118  0.562118  1
  Er  Er11  1  0.562118  0.937882  0.937882  1
  Er  Er12  1  0.562118  0.937882  0.562118  1
  Er  Er13  1  0.937882  0.562118  0.937882  1
  Er  Er14  1  0.562118  0.562118  0.937882  1
  Er  Er15  1  0.937882  0.937882  0.562118  1
  Cd  Cd16  1  0.580353  0.580353  0.580353  1
  Cd  Cd17  1  0.580353  0.580353  0.258941  1
  Cd  Cd18  1  0.580353  0.258941  0.580353  1
  Cd  Cd19  1  0.258941  0.580353  0.580353  1
  Co  Co20  1  0.141037  0.141037  0.141037  1
  Co  Co21  1  0.141037  0.141037  0.576889  1
  Co  Co22  1  0.141037  0.576889  0.141037  1
  Co  Co23  1  0.576889  0.141037  0.141037  1
