# generated using pymatgen
data_Ca3Eu8Dy9Si16
_symmetry_space_group_name_H-M   'P 1'
_cell_length_a   7.48994100
_cell_length_b   7.83134219
_cell_length_c   14.88625500
_cell_angle_alpha   90.00000000
_cell_angle_beta   90.00000000
_cell_angle_gamma   90.03163531
_symmetry_Int_Tables_number   1
_chemical_formula_structural   Ca3Eu8Dy9Si16
_chemical_formula_sum   'Ca3 Eu8 Dy9 Si16'
_cell_volume   873.17237181
_cell_formula_units_Z   1
loop_
 _symmetry_equiv_pos_site_id
 _symmetry_equiv_pos_as_xyz
  1  'x, y, z'
loop_
 _atom_site_type_symbol
 _atom_site_label
 _atom_site_symmetry_multiplicity
 _atom_site_fract_x
 _atom_site_fract_y
 _atom_site_fract_z
 _atom_site_occupancy
  Ca  Ca0  1  0.648623  0.983278  0.250000  1
  Ca  Ca1  1  0.149450  0.515899  0.250000  1
  Ca  Ca2  1  0.849502  0.481374  0.750000  1
  Eu  Eu3  1  0.975706  0.820534  0.096192  1
  Eu  Eu4  1  0.476159  0.680046  0.404285  1
  Eu  Eu5  1  0.523048  0.323958  0.905032  1
  Eu  Eu6  1  0.022216  0.178578  0.595947  1
  Eu  Eu7  1  0.022216  0.178578  0.904053  1
  Eu  Eu8  1  0.523048  0.323958  0.594968  1
  Eu  Eu9  1  0.476159  0.680046  0.095715  1
  Eu  Eu10  1  0.975706  0.820534  0.403808  1
  Dy  Dy11  1  0.350977  0.019272  0.750000  1
  Dy  Dy12  1  0.683190  0.818871  0.878404  1
  Dy  Dy13  1  0.181147  0.677930  0.621496  1
  Dy  Dy14  1  0.818529  0.320188  0.121523  1
  Dy  Dy15  1  0.318573  0.177960  0.379004  1
  Dy  Dy16  1  0.318573  0.177960  0.120996  1
  Dy  Dy17  1  0.818529  0.320188  0.378477  1
  Dy  Dy18  1  0.181147  0.677930  0.878504  1
  Dy  Dy19  1  0.683190  0.818871  0.621596  1
  Si  Si20  1  0.757869  0.606045  0.250000  1
  Si  Si21  1  0.258155  0.893144  0.250000  1
  Si  Si22  1  0.734952  0.103446  0.750000  1
  Si  Si23  1  0.245230  0.387803  0.750000  1
  Si  Si24  1  0.027426  0.110638  0.250000  1
  Si  Si25  1  0.527114  0.387886  0.250000  1
  Si  Si26  1  0.470447  0.616219  0.750000  1
  Si  Si27  1  0.976846  0.893120  0.750000  1
  Si  Si28  1  0.858193  0.532988  0.962364  1
  Si  Si29  1  0.358521  0.970336  0.542021  1
  Si  Si30  1  0.643154  0.033142  0.036469  1
  Si  Si31  1  0.143269  0.466404  0.462386  1
  Si  Si32  1  0.143269  0.466404  0.037614  1
  Si  Si33  1  0.643154  0.033142  0.463531  1
  Si  Si34  1  0.358521  0.970336  0.957979  1
  Si  Si35  1  0.858193  0.532988  0.537636  1
