# generated using pymatgen
data_YCl19
_symmetry_space_group_name_H-M   'P 1'
_cell_length_a   8.75352240
_cell_length_b   11.04364406
_cell_length_c   8.33317700
_cell_angle_alpha   72.01688111
_cell_angle_beta   81.02450991
_cell_angle_gamma   90.05718931
_symmetry_Int_Tables_number   1
_chemical_formula_structural   YCl19
_chemical_formula_sum   'Y1 Cl19'
_cell_volume   755.80119070
_cell_formula_units_Z   1
loop_
 _symmetry_equiv_pos_site_id
 _symmetry_equiv_pos_as_xyz
  1  'x, y, z'
loop_
 _atom_site_type_symbol
 _atom_site_label
 _atom_site_symmetry_multiplicity
 _atom_site_fract_x
 _atom_site_fract_y
 _atom_site_fract_z
 _atom_site_occupancy
  Y  Y0  1  0.882522  0.586364  0.348836  1
  Cl  Cl1  1  0.411548  0.465019  0.581745  1
  Cl  Cl2  1  0.859622  0.521509  0.079547  1
  Cl  Cl3  1  0.675540  0.389910  0.575148  1
  Cl  Cl4  1  0.116985  0.637496  0.050728  1
  Cl  Cl5  1  0.086201  0.650041  0.493583  1
  Cl  Cl6  1  0.564045  0.306396  0.087750  1
  Cl  Cl7  1  0.918655  0.339404  0.554675  1
  Cl  Cl8  1  0.331687  0.731538  0.043717  1
  Cl  Cl9  1  0.154716  0.883963  0.539937  1
  Cl  Cl10  1  0.700604  0.092837  0.944379  1
  Cl  Cl11  1  0.835787  0.126349  0.392309  1
  Cl  Cl12  1  0.223899  0.962108  0.028961  1
  Cl  Cl13  1  0.210972  0.050292  0.577500  1
  Cl  Cl14  1  0.795141  0.950151  0.868076  1
  Cl  Cl15  1  0.760194  0.954967  0.387415  1
  Cl  Cl16  1  0.125682  0.132117  0.018153  1
  Cl  Cl17  1  0.648533  0.714036  0.364398  1
  Cl  Cl18  1  0.284739  0.310029  0.771454  1
  Cl  Cl19  1  0.412928  0.195473  0.291692  1
