# generated using pymatgen
data_La2TmTh(AsPt)4
_symmetry_space_group_name_H-M   'P 1'
_cell_length_a   4.33940800
_cell_length_b   4.33940714
_cell_length_c   16.11581900
_cell_angle_alpha   90.00000000
_cell_angle_beta   90.00000000
_cell_angle_gamma   120.00002177
_symmetry_Int_Tables_number   1
_chemical_formula_structural   La2TmTh(AsPt)4
_chemical_formula_sum   'La2 Tm1 Th1 As4 Pt4'
_cell_volume   262.81115961
_cell_formula_units_Z   1
loop_
 _symmetry_equiv_pos_site_id
 _symmetry_equiv_pos_as_xyz
  1  'x, y, z'
loop_
 _atom_site_type_symbol
 _atom_site_label
 _atom_site_symmetry_multiplicity
 _atom_site_fract_x
 _atom_site_fract_y
 _atom_site_fract_z
 _atom_site_occupancy
  La  La0  1  0.000000  0.000000  0.508621  1
  La  La1  1  0.000000  0.000000  0.991379  1
  Tm  Tm2  1  0.000000  0.000000  0.750000  1
  Th  Th3  1  0.000000  0.000000  0.250000  1
  As  As4  1  0.333333  0.666667  0.876138  1
  As  As5  1  0.666667  0.333333  0.114083  1
  As  As6  1  0.666667  0.333333  0.385917  1
  As  As7  1  0.333333  0.666667  0.623862  1
  Pt  Pt8  1  0.333333  0.666667  0.360097  1
  Pt  Pt9  1  0.666667  0.333333  0.649703  1
  Pt  Pt10  1  0.666667  0.333333  0.850297  1
  Pt  Pt11  1  0.333333  0.666667  0.139903  1
