# generated using pymatgen
data_CsHo7Sc3(C2I9)2
_symmetry_space_group_name_H-M   'P 1'
_cell_length_a   11.48895046
_cell_length_b   11.46076018
_cell_length_c   11.42211114
_cell_angle_alpha   113.04812634
_cell_angle_beta   86.05255431
_cell_angle_gamma   120.74001684
_symmetry_Int_Tables_number   1
_chemical_formula_structural   CsHo7Sc3(C2I9)2
_chemical_formula_sum   'Cs1 Ho7 Sc3 C4 I18'
_cell_volume   1172.97412561
_cell_formula_units_Z   1
loop_
 _symmetry_equiv_pos_site_id
 _symmetry_equiv_pos_as_xyz
  1  'x, y, z'
loop_
 _atom_site_type_symbol
 _atom_site_label
 _atom_site_symmetry_multiplicity
 _atom_site_fract_x
 _atom_site_fract_y
 _atom_site_fract_z
 _atom_site_occupancy
  Cs  Cs0  1  0.497189  0.994703  0.498330  1
  Ho  Ho1  1  0.960407  0.036110  0.324848  1
  Ho  Ho2  1  0.907886  0.614183  0.708245  1
  Ho  Ho3  1  0.103075  0.944058  0.999688  1
  Ho  Ho4  1  0.038161  0.968116  0.677930  1
  Ho  Ho5  1  0.317471  0.275180  0.286027  1
  Ho  Ho6  1  0.720505  0.644470  0.984741  1
  Ho  Ho7  1  0.896577  0.054245  0.999230  1
  Sc  Sc8  1  0.698334  0.735267  0.728647  1
  Sc  Sc9  1  0.267994  0.342768  0.020044  1
  Sc  Sc10  1  0.093450  0.370787  0.276216  1
  C  C11  1  0.150735  0.216195  0.116873  1
  C  C12  1  0.850924  0.781738  0.882691  1
  C  C13  1  0.927922  0.860343  0.806099  1
  C  C14  1  0.073309  0.139513  0.194043  1
  I  I15  1  0.457110  0.535177  0.830269  1
  I  I16  1  0.381257  0.042568  0.157948  1
  I  I17  1  0.779175  0.858959  0.508185  1
  I  I18  1  0.849495  0.310054  0.157954  1
  I  I19  1  0.538397  0.468809  0.162885  1
  I  I20  1  0.219585  0.147233  0.497713  1
  I  I21  1  0.317135  0.107936  0.834536  1
  I  I22  1  0.681304  0.899824  0.171651  1
  I  I23  1  0.969781  0.754775  0.171062  1
  I  I24  1  0.934458  0.299991  0.491967  1
  I  I25  1  0.038234  0.251858  0.837005  1
  I  I26  1  0.069090  0.712746  0.501436  1
  I  I27  1  0.254818  0.601411  0.175026  1
  I  I28  1  0.740194  0.378528  0.816661  1
  I  I29  1  0.644732  0.455863  0.512717  1
  I  I30  1  0.161236  0.693505  0.845425  1
  I  I31  1  0.624108  0.949807  0.839232  1
  I  I32  1  0.335952  0.553281  0.484675  1
