# generated using pymatgen
data_Lu10InRh4Pb7
_symmetry_space_group_name_H-M   'P 1'
_cell_length_a   3.58792200
_cell_length_b   8.13372373
_cell_length_c   18.18787598
_cell_angle_alpha   89.92478887
_cell_angle_beta   90.00000000
_cell_angle_gamma   90.00000000
_symmetry_Int_Tables_number   1
_chemical_formula_structural   Lu10InRh4Pb7
_chemical_formula_sum   'Lu10 In1 Rh4 Pb7'
_cell_volume   530.77935192
_cell_formula_units_Z   1
loop_
 _symmetry_equiv_pos_site_id
 _symmetry_equiv_pos_as_xyz
  1  'x, y, z'
loop_
 _atom_site_type_symbol
 _atom_site_label
 _atom_site_symmetry_multiplicity
 _atom_site_fract_x
 _atom_site_fract_y
 _atom_site_fract_z
 _atom_site_occupancy
  Lu  Lu0  1  0.000000  0.883627  0.088622  1
  Lu  Lu1  1  0.000000  0.754895  0.279549  1
  Lu  Lu2  1  0.000000  0.745486  0.778852  1
  Lu  Lu3  1  0.000000  0.382368  0.412985  1
  Lu  Lu4  1  0.000000  0.116481  0.911186  1
  Lu  Lu5  1  0.000000  0.246451  0.719843  1
  Lu  Lu6  1  0.000000  0.499855  0.000089  1
  Lu  Lu7  1  0.000000  0.255058  0.220861  1
  Lu  Lu8  1  0.000000  0.611881  0.588225  1
  Lu  Lu9  1  0.000000  0.002110  0.499896  1
  In  In10  1  0.500000  0.296449  0.566384  1
  Rh  Rh11  1  0.500000  0.972416  0.194937  1
  Rh  Rh12  1  0.500000  0.026812  0.805270  1
  Rh  Rh13  1  0.500000  0.525186  0.694107  1
  Rh  Rh14  1  0.500000  0.472164  0.304906  1
  Pb  Pb15  1  0.500000  0.204286  0.065030  1
  Pb  Pb16  1  0.500000  0.421185  0.850157  1
  Pb  Pb17  1  0.500000  0.579282  0.149788  1
  Pb  Pb18  1  0.500000  0.079314  0.350157  1
  Pb  Pb19  1  0.500000  0.924934  0.648844  1
  Pb  Pb20  1  0.500000  0.795655  0.934913  1
  Pb  Pb21  1  0.500000  0.704104  0.435400  1
