# generated using pymatgen
data_Zr5Co16Si7Pt
_symmetry_space_group_name_H-M   'P 1'
_cell_length_a   8.02515686
_cell_length_b   8.04584176
_cell_length_c   8.04557633
_cell_angle_alpha   59.77196151
_cell_angle_beta   59.94992681
_cell_angle_gamma   59.94753912
_symmetry_Int_Tables_number   1
_chemical_formula_structural   Zr5Co16Si7Pt
_chemical_formula_sum   'Zr5 Co16 Si7 Pt1'
_cell_volume   366.41842862
_cell_formula_units_Z   1
loop_
 _symmetry_equiv_pos_site_id
 _symmetry_equiv_pos_as_xyz
  1  'x, y, z'
loop_
 _atom_site_type_symbol
 _atom_site_label
 _atom_site_symmetry_multiplicity
 _atom_site_fract_x
 _atom_site_fract_y
 _atom_site_fract_z
 _atom_site_occupancy
  Zr  Zr0  1  0.296609  0.288414  0.703490  1
  Zr  Zr1  1  0.287789  0.712116  0.712184  1
  Zr  Zr2  1  0.711531  0.703553  0.288344  1
  Zr  Zr3  1  0.296587  0.703566  0.288411  1
  Zr  Zr4  1  0.711501  0.288437  0.703352  1
  Co  Co5  1  0.120759  0.118535  0.639880  1
  Co  Co6  1  0.671500  0.982340  0.674665  1
  Co  Co7  1  0.360571  0.878332  0.878340  1
  Co  Co8  1  0.019169  0.327190  0.327294  1
  Co  Co9  1  0.996116  0.667611  0.667682  1
  Co  Co10  1  0.329801  0.329684  0.010679  1
  Co  Co11  1  0.671486  0.674942  0.982105  1
  Co  Co12  1  0.645592  0.120877  0.120808  1
  Co  Co13  1  0.668569  0.667623  0.667627  1
  Co  Co14  1  0.878594  0.887876  0.354952  1
  Co  Co15  1  0.112759  0.120828  0.120850  1
  Co  Co16  1  0.878531  0.354856  0.888012  1
  Co  Co17  1  0.882837  0.878379  0.878328  1
  Co  Co18  1  0.326296  0.327262  0.327351  1
  Co  Co19  1  0.120841  0.639681  0.118600  1
  Co  Co20  1  0.329745  0.010879  0.329635  1
  Si  Si21  1  0.996943  0.491548  0.002420  1
  Si  Si22  1  0.997077  0.002251  0.491770  1
  Si  Si23  1  0.003960  0.996012  0.996153  1
  Si  Si24  1  0.509033  0.491562  0.002428  1
  Si  Si25  1  0.508911  0.002335  0.491704  1
  Si  Si26  1  0.498408  0.001700  0.001593  1
  Si  Si27  1  0.998479  0.501460  0.501673  1
  Pt  Pt28  1  0.670004  0.330151  0.329672  1
