# generated using pymatgen
data_Na3La7(Dy5Sn8)2
_symmetry_space_group_name_H-M   'P 1'
_cell_length_a   8.10238853
_cell_length_b   8.37164924
_cell_length_c   15.87409200
_cell_angle_alpha   89.98813930
_cell_angle_beta   90.24902252
_cell_angle_gamma   89.64026217
_symmetry_Int_Tables_number   1
_chemical_formula_structural   Na3La7(Dy5Sn8)2
_chemical_formula_sum   'Na3 La7 Dy10 Sn16'
_cell_volume   1076.71386926
_cell_formula_units_Z   1
loop_
 _symmetry_equiv_pos_site_id
 _symmetry_equiv_pos_as_xyz
  1  'x, y, z'
loop_
 _atom_site_type_symbol
 _atom_site_label
 _atom_site_symmetry_multiplicity
 _atom_site_fract_x
 _atom_site_fract_y
 _atom_site_fract_z
 _atom_site_occupancy
  Na  Na0  1  0.328414  0.994750  0.748678  1
  Na  Na1  1  0.172906  0.497163  0.250845  1
  Na  Na2  1  0.670769  0.002210  0.250979  1
  La  La3  1  0.004557  0.824153  0.901224  1
  La  La4  1  0.494496  0.318853  0.097616  1
  La  La5  1  0.995092  0.183940  0.405496  1
  La  La6  1  0.497177  0.320071  0.404570  1
  La  La7  1  0.995882  0.181717  0.096775  1
  La  La8  1  0.499793  0.682180  0.902427  1
  La  La9  1  0.004657  0.822666  0.596570  1
  Dy  Dy10  1  0.656586  0.166985  0.626064  1
  Dy  Dy11  1  0.165106  0.326006  0.872591  1
  Dy  Dy12  1  0.339768  0.826730  0.126050  1
  Dy  Dy13  1  0.845524  0.669080  0.376816  1
  Dy  Dy14  1  0.343615  0.825404  0.374544  1
  Dy  Dy15  1  0.842231  0.671375  0.124413  1
  Dy  Dy16  1  0.657850  0.166970  0.872740  1
  Dy  Dy17  1  0.162261  0.327670  0.624807  1
  Dy  Dy18  1  0.498055  0.684247  0.598666  1
  Dy  Dy19  1  0.826670  0.500672  0.747077  1
  Sn  Sn20  1  0.672878  0.955051  0.464852  1
  Sn  Sn21  1  0.173798  0.540321  0.035288  1
  Sn  Sn22  1  0.326378  0.041513  0.964963  1
  Sn  Sn23  1  0.815193  0.467013  0.543468  1
  Sn  Sn24  1  0.327318  0.037099  0.536448  1
  Sn  Sn25  1  0.828224  0.463848  0.957044  1
  Sn  Sn26  1  0.672838  0.959569  0.036291  1
  Sn  Sn27  1  0.185276  0.543551  0.466108  1
  Sn  Sn28  1  0.464293  0.390829  0.749575  1
  Sn  Sn29  1  0.960843  0.119071  0.748888  1
  Sn  Sn30  1  0.542441  0.613328  0.249936  1
  Sn  Sn31  1  0.038863  0.885634  0.251015  1
  Sn  Sn32  1  0.700559  0.858997  0.747833  1
  Sn  Sn33  1  0.195288  0.631933  0.747907  1
  Sn  Sn34  1  0.295165  0.129640  0.251121  1
  Sn  Sn35  1  0.799240  0.369759  0.250316  1
