# generated using pymatgen
data_PrNd2Cu5(Ni4B)2
_symmetry_space_group_name_H-M   'P 1'
_cell_length_a   5.11409420
_cell_length_b   5.11409385
_cell_length_c   10.91485700
_cell_angle_alpha   90.00000000
_cell_angle_beta   90.00000000
_cell_angle_gamma   119.88425766
_symmetry_Int_Tables_number   1
_chemical_formula_structural   PrNd2Cu5(Ni4B)2
_chemical_formula_sum   'Pr1 Nd2 Cu5 Ni8 B2'
_cell_volume   247.50925018
_cell_formula_units_Z   1
loop_
 _symmetry_equiv_pos_site_id
 _symmetry_equiv_pos_as_xyz
  1  'x, y, z'
loop_
 _atom_site_type_symbol
 _atom_site_label
 _atom_site_symmetry_multiplicity
 _atom_site_fract_x
 _atom_site_fract_y
 _atom_site_fract_z
 _atom_site_occupancy
  Pr  Pr0  1  0.000000  0.000000  0.000000  1
  Nd  Nd1  1  0.000000  0.000000  0.671921  1
  Nd  Nd2  1  0.000000  0.000000  0.328079  1
  Cu  Cu3  1  0.500000  0.500000  0.500000  1
  Cu  Cu4  1  0.331456  0.668544  0.316306  1
  Cu  Cu5  1  0.668544  0.331456  0.316306  1
  Cu  Cu6  1  0.668544  0.331456  0.683694  1
  Cu  Cu7  1  0.331456  0.668544  0.683694  1
  Ni  Ni8  1  0.000000  0.500000  0.870570  1
  Ni  Ni9  1  0.500000  0.000000  0.500000  1
  Ni  Ni10  1  0.000000  0.500000  0.500000  1
  Ni  Ni11  1  0.500000  0.000000  0.129430  1
  Ni  Ni12  1  0.500000  0.500000  0.129846  1
  Ni  Ni13  1  0.000000  0.500000  0.129430  1
  Ni  Ni14  1  0.500000  0.000000  0.870570  1
  Ni  Ni15  1  0.500000  0.500000  0.870154  1
  B  B16  1  0.666250  0.333750  0.000000  1
  B  B17  1  0.333750  0.666250  0.000000  1
