# generated using pymatgen
data_Tm4MgCdCoCu3
_symmetry_space_group_name_H-M   'P 1'
_cell_length_a   3.64230900
_cell_length_b   7.44904458
_cell_length_c   7.44102102
_cell_angle_alpha   90.49256945
_cell_angle_beta   90.00000000
_cell_angle_gamma   90.00000000
_symmetry_Int_Tables_number   1
_chemical_formula_structural   Tm4MgCdCoCu3
_chemical_formula_sum   'Tm4 Mg1 Cd1 Co1 Cu3'
_cell_volume   201.88025398
_cell_formula_units_Z   1
loop_
 _symmetry_equiv_pos_site_id
 _symmetry_equiv_pos_as_xyz
  1  'x, y, z'
loop_
 _atom_site_type_symbol
 _atom_site_label
 _atom_site_symmetry_multiplicity
 _atom_site_fract_x
 _atom_site_fract_y
 _atom_site_fract_z
 _atom_site_occupancy
  Tm  Tm0  1  0.500000  0.174657  0.660415  1
  Tm  Tm1  1  0.500000  0.806223  0.320051  1
  Tm  Tm2  1  0.500000  0.354062  0.183123  1
  Tm  Tm3  1  0.500000  0.671318  0.841885  1
  Mg  Mg4  1  0.000000  0.003861  0.002148  1
  Cd  Cd5  1  0.000000  0.501589  0.507935  1
  Co  Co6  1  0.000000  0.624986  0.112503  1
  Cu  Cu7  1  0.000000  0.371470  0.882311  1
  Cu  Cu8  1  0.000000  0.879160  0.621428  1
  Cu  Cu9  1  0.000000  0.112675  0.368200  1
