# generated using pymatgen
data_Rb2Cu7F18
_symmetry_space_group_name_H-M   'P 1'
_cell_length_a   7.14479084
_cell_length_b   7.40894116
_cell_length_c   7.62375032
_cell_angle_alpha   93.72447826
_cell_angle_beta   92.14421392
_cell_angle_gamma   115.71995273
_symmetry_Int_Tables_number   1
_chemical_formula_structural   Rb2Cu7F18
_chemical_formula_sum   'Rb2 Cu7 F18'
_cell_volume   361.84766137
_cell_formula_units_Z   1
loop_
 _symmetry_equiv_pos_site_id
 _symmetry_equiv_pos_as_xyz
  1  'x, y, z'
loop_
 _atom_site_type_symbol
 _atom_site_label
 _atom_site_symmetry_multiplicity
 _atom_site_fract_x
 _atom_site_fract_y
 _atom_site_fract_z
 _atom_site_occupancy
  Rb  Rb0  1  0.686720  0.313792  0.370903  1
  Rb  Rb1  1  0.313280  0.686208  0.629098  1
  Cu  Cu2  1  0.604009  0.727260  0.119032  1
  Cu  Cu3  1  0.185671  0.874375  0.177693  1
  Cu  Cu4  1  0.175730  0.383307  0.189205  1
  Cu  Cu5  1  0.000000  0.000000  0.499999  1
  Cu  Cu6  1  0.824270  0.616693  0.810795  1
  Cu  Cu7  1  0.814328  0.125625  0.822308  1
  Cu  Cu8  1  0.395990  0.272740  0.880968  1
  F  F9  1  0.691698  0.517831  0.034073  1
  F  F10  1  0.904955  0.225780  0.066796  1
  F  F11  1  0.279946  0.156046  0.103448  1
  F  F12  1  0.485363  0.907676  0.171001  1
  F  F13  1  0.895144  0.870102  0.254095  1
  F  F14  1  0.099616  0.608478  0.255663  1
  F  F15  1  0.458580  0.554210  0.301219  1
  F  F16  1  0.083361  0.271420  0.409297  1
  F  F17  1  0.256150  0.995680  0.425955  1
  F  F18  1  0.743850  0.004320  0.574045  1
  F  F19  1  0.916639  0.728579  0.590703  1
  F  F20  1  0.541420  0.445790  0.698781  1
  F  F21  1  0.900384  0.391522  0.744337  1
  F  F22  1  0.104855  0.129898  0.745905  1
  F  F23  1  0.514638  0.092324  0.828999  1
  F  F24  1  0.720055  0.843955  0.896553  1
  F  F25  1  0.095045  0.774220  0.933204  1
  F  F26  1  0.308301  0.482169  0.965927  1
