# generated using pymatgen
data_Er3Pa(Cu5Sn)4
_symmetry_space_group_name_H-M   'P 1'
_cell_length_a   5.00906400
_cell_length_b   8.20585904
_cell_length_c   10.55235530
_cell_angle_alpha   89.93862843
_cell_angle_beta   90.00000000
_cell_angle_gamma   90.00000000
_symmetry_Int_Tables_number   1
_chemical_formula_structural   Er3Pa(Cu5Sn)4
_chemical_formula_sum   'Er3 Pa1 Cu20 Sn4'
_cell_volume   433.74031406
_cell_formula_units_Z   1
loop_
 _symmetry_equiv_pos_site_id
 _symmetry_equiv_pos_as_xyz
  1  'x, y, z'
loop_
 _atom_site_type_symbol
 _atom_site_label
 _atom_site_symmetry_multiplicity
 _atom_site_fract_x
 _atom_site_fract_y
 _atom_site_fract_z
 _atom_site_occupancy
  Er  Er0  1  0.750000  0.250351  0.936616  1
  Er  Er1  1  0.750000  0.752155  0.561165  1
  Er  Er2  1  0.250000  0.247250  0.441511  1
  Pa  Pa3  1  0.250000  0.747537  0.059154  1
  Cu  Cu4  1  0.250000  0.818291  0.744402  1
  Cu  Cu5  1  0.750000  0.182989  0.259165  1
  Cu  Cu6  1  0.750000  0.684050  0.239538  1
  Cu  Cu7  1  0.250000  0.317510  0.756301  1
  Cu  Cu8  1  0.501369  0.570700  0.813333  1
  Cu  Cu9  1  0.498012  0.428854  0.187672  1
  Cu  Cu10  1  0.498317  0.929786  0.312646  1
  Cu  Cu11  1  0.001988  0.428854  0.187672  1
  Cu  Cu12  1  0.502038  0.071059  0.687541  1
  Cu  Cu13  1  0.998631  0.570700  0.813333  1
  Cu  Cu14  1  0.997962  0.071059  0.687541  1
  Cu  Cu15  1  0.001683  0.929786  0.312646  1
  Cu  Cu16  1  0.250000  0.915435  0.518027  1
  Cu  Cu17  1  0.750000  0.082307  0.483094  1
  Cu  Cu18  1  0.750000  0.577092  0.016912  1
  Cu  Cu19  1  0.250000  0.414169  0.982030  1
  Cu  Cu20  1  0.250000  0.562260  0.601957  1
  Cu  Cu21  1  0.750000  0.439333  0.397892  1
  Cu  Cu22  1  0.750000  0.941254  0.102058  1
  Cu  Cu23  1  0.250000  0.062485  0.898114  1
  Sn  Sn24  1  0.250000  0.636474  0.360538  1
  Sn  Sn25  1  0.750000  0.365235  0.638995  1
  Sn  Sn26  1  0.750000  0.866028  0.860110  1
  Sn  Sn27  1  0.250000  0.136991  0.140036  1
