# generated using pymatgen
data_Sb8Ru3Pt
_symmetry_space_group_name_H-M   'P 1'
_cell_length_a   6.71080205
_cell_length_b   6.81031456
_cell_length_c   6.81114948
_cell_angle_alpha   60.31490760
_cell_angle_beta   89.89786554
_cell_angle_gamma   89.89030778
_symmetry_Int_Tables_number   1
_chemical_formula_structural   Sb8Ru3Pt
_chemical_formula_sum   'Sb8 Ru3 Pt1'
_cell_volume   270.43383747
_cell_formula_units_Z   1
loop_
 _symmetry_equiv_pos_site_id
 _symmetry_equiv_pos_as_xyz
  1  'x, y, z'
loop_
 _atom_site_type_symbol
 _atom_site_label
 _atom_site_symmetry_multiplicity
 _atom_site_fract_x
 _atom_site_fract_y
 _atom_site_fract_z
 _atom_site_occupancy
  Sb  Sb0  1  0.135745  0.164337  0.143712  1
  Sb  Sb1  1  0.640320  0.850909  0.364818  1
  Sb  Sb2  1  0.854400  0.833635  0.852642  1
  Sb  Sb3  1  0.359743  0.136276  0.647513  1
  Sb  Sb4  1  0.638973  0.339981  0.822605  1
  Sb  Sb5  1  0.144465  0.649099  0.667218  1
  Sb  Sb6  1  0.360779  0.676286  0.160987  1
  Sb  Sb7  1  0.865284  0.354906  0.335127  1
  Ru  Ru8  1  0.001248  0.757361  0.260395  1
  Ru  Ru9  1  0.500065  0.718356  0.782350  1
  Ru  Ru10  1  0.998850  0.240135  0.741636  1
  Pt  Pt11  1  0.500125  0.278717  0.220998  1
