# generated using pymatgen
data_Ti8Al14SiPt6Rh
_symmetry_space_group_name_H-M   'P 1'
_cell_length_a   8.69283001
_cell_length_b   8.69283035
_cell_length_c   8.69283040
_cell_angle_alpha   120.17683260
_cell_angle_beta   119.79510007
_cell_angle_gamma   90.02463180
_symmetry_Int_Tables_number   1
_chemical_formula_structural   Ti8Al14SiPt6Rh
_chemical_formula_sum   'Ti8 Al14 Si1 Pt6 Rh1'
_cell_volume   464.57370757
_cell_formula_units_Z   1
loop_
 _symmetry_equiv_pos_site_id
 _symmetry_equiv_pos_as_xyz
  1  'x, y, z'
loop_
 _atom_site_type_symbol
 _atom_site_label
 _atom_site_symmetry_multiplicity
 _atom_site_fract_x
 _atom_site_fract_y
 _atom_site_fract_z
 _atom_site_occupancy
  Ti  Ti0  1  0.792477  0.296279  0.090055  1
  Ti  Ti1  1  0.206225  0.296279  0.503802  1
  Ti  Ti2  1  0.205294  0.705294  0.500000  1
  Ti  Ti3  1  0.206225  0.702423  0.909945  1
  Ti  Ti4  1  0.792477  0.702423  0.496198  1
  Ti  Ti5  1  0.795477  0.295477  0.500000  1
  Ti  Ti6  1  0.381214  0.120676  0.739462  1
  Ti  Ti7  1  0.381214  0.641753  0.260538  1
  Al  Al8  1  0.159706  0.343765  0.184058  1
  Al  Al9  1  0.159706  0.975649  0.815942  1
  Al  Al10  1  0.160960  0.340419  0.820540  1
  Al  Al11  1  0.519879  0.340419  0.179460  1
  Al  Al12  1  0.841676  0.659543  0.817868  1
  Al  Al13  1  0.841676  0.023809  0.182132  1
  Al  Al14  1  0.841315  0.659200  0.182114  1
  Al  Al15  1  0.477085  0.659200  0.817886  1
  Al  Al16  1  0.380940  0.118602  0.262338  1
  Al  Al17  1  0.856265  0.118602  0.737662  1
  Al  Al18  1  0.619803  0.879695  0.259893  1
  Al  Al19  1  0.619803  0.359910  0.740107  1
  Al  Al20  1  0.619870  0.879708  0.740162  1
  Al  Al21  1  0.139545  0.879708  0.259838  1
  Si  Si22  1  0.000483  0.500483  0.500000  1
  Pt  Pt23  1  0.996872  0.000104  0.498826  1
  Pt  Pt24  1  0.501278  0.000104  0.003232  1
  Pt  Pt25  1  0.502256  0.502256  0.000000  1
  Pt  Pt26  1  0.501278  0.498046  0.501174  1
  Pt  Pt27  1  0.996872  0.498046  0.996768  1
  Pt  Pt28  1  0.002171  0.002171  0.000000  1
  Rh  Rh29  1  0.499956  0.999956  0.500000  1
