# generated using pymatgen
data_YHf3(Nb3Si4)2
_symmetry_space_group_name_H-M   'P 1'
_cell_length_a   6.90158054
_cell_length_b   6.90873492
_cell_length_c   12.81138600
_cell_angle_alpha   90.00000000
_cell_angle_beta   90.00000000
_cell_angle_gamma   90.03759266
_symmetry_Int_Tables_number   1
_chemical_formula_structural   YHf3(Nb3Si4)2
_chemical_formula_sum   'Y2 Hf6 Nb12 Si16'
_cell_volume   610.86200426
_cell_formula_units_Z   2
loop_
 _symmetry_equiv_pos_site_id
 _symmetry_equiv_pos_as_xyz
  1  'x, y, z'
loop_
 _atom_site_type_symbol
 _atom_site_label
 _atom_site_symmetry_multiplicity
 _atom_site_fract_x
 _atom_site_fract_y
 _atom_site_fract_z
 _atom_site_occupancy
  Y  Y0  1  0.996545  0.337824  0.218809  1
  Y  Y1  1  0.003455  0.662176  0.718809  1
  Hf  Hf2  1  0.161147  0.502165  0.467508  1
  Hf  Hf3  1  0.497858  0.839175  0.030763  1
  Hf  Hf4  1  0.838853  0.497835  0.967508  1
  Hf  Hf5  1  0.502142  0.160825  0.530763  1
  Hf  Hf6  1  0.343858  0.005821  0.782771  1
  Hf  Hf7  1  0.656142  0.994179  0.282771  1
  Nb  Nb8  1  0.170935  0.168540  0.999473  1
  Nb  Nb9  1  0.829065  0.831460  0.499473  1
  Nb  Nb10  1  0.332000  0.671462  0.250042  1
  Nb  Nb11  1  0.668000  0.328538  0.750042  1
  Nb  Nb12  1  0.155826  0.997503  0.376781  1
  Nb  Nb13  1  0.844174  0.002497  0.876781  1
  Nb  Nb14  1  0.503010  0.652594  0.625413  1
  Nb  Nb15  1  0.348236  0.493275  0.875213  1
  Nb  Nb16  1  0.496990  0.347406  0.125413  1
  Nb  Nb17  1  0.651764  0.506725  0.375213  1
  Nb  Nb18  1  0.995366  0.153247  0.624174  1
  Nb  Nb19  1  0.004634  0.846753  0.124174  1
  Si  Si20  1  0.302515  0.041973  0.185926  1
  Si  Si21  1  0.697485  0.958027  0.685926  1
  Si  Si22  1  0.456107  0.799718  0.436870  1
  Si  Si23  1  0.201884  0.544997  0.062043  1
  Si  Si24  1  0.543893  0.200282  0.936870  1
  Si  Si25  1  0.798116  0.455003  0.562043  1
  Si  Si26  1  0.043949  0.294413  0.814513  1
  Si  Si27  1  0.956051  0.705587  0.314513  1
  Si  Si28  1  0.369289  0.291948  0.323394  1
  Si  Si29  1  0.630711  0.708052  0.823394  1
  Si  Si30  1  0.210648  0.869001  0.569253  1
  Si  Si31  1  0.137646  0.795406  0.929615  1
  Si  Si32  1  0.789352  0.130999  0.069253  1
  Si  Si33  1  0.862354  0.204594  0.429615  1
  Si  Si34  1  0.295784  0.360716  0.677440  1
  Si  Si35  1  0.704216  0.639284  0.177440  1
