# generated using pymatgen
data_Mn2Al12FeSi8Os
_symmetry_space_group_name_H-M   'P 1'
_cell_length_a   6.17126958
_cell_length_b   6.17563900
_cell_length_c   9.47125016
_cell_angle_alpha   90.00000000
_cell_angle_beta   89.88515129
_cell_angle_gamma   90.00000000
_symmetry_Int_Tables_number   1
_chemical_formula_structural   Mn2Al12FeSi8Os
_chemical_formula_sum   'Mn2 Al12 Fe1 Si8 Os1'
_cell_volume   360.96313876
_cell_formula_units_Z   1
loop_
 _symmetry_equiv_pos_site_id
 _symmetry_equiv_pos_as_xyz
  1  'x, y, z'
loop_
 _atom_site_type_symbol
 _atom_site_label
 _atom_site_symmetry_multiplicity
 _atom_site_fract_x
 _atom_site_fract_y
 _atom_site_fract_z
 _atom_site_occupancy
  Mn  Mn0  1  0.500000  0.484866  0.750000  1
  Mn  Mn1  1  0.500000  0.514283  0.250000  1
  Al  Al2  1  0.995729  0.001961  0.993215  1
  Al  Al3  1  0.500077  0.500034  0.999181  1
  Al  Al4  1  0.004271  0.001961  0.506785  1
  Al  Al5  1  0.499923  0.500034  0.500819  1
  Al  Al6  1  0.141425  0.631031  0.864599  1
  Al  Al7  1  0.635357  0.864693  0.134366  1
  Al  Al8  1  0.858575  0.631031  0.635401  1
  Al  Al9  1  0.364643  0.864693  0.365634  1
  Al  Al10  1  0.858843  0.376068  0.134948  1
  Al  Al11  1  0.363201  0.132144  0.864737  1
  Al  Al12  1  0.141157  0.376068  0.365052  1
  Al  Al13  1  0.636799  0.132144  0.635263  1
  Fe  Fe14  1  0.000000  0.984226  0.750000  1
  Si  Si15  1  0.168059  0.667165  0.154755  1
  Si  Si16  1  0.662665  0.824249  0.841338  1
  Si  Si17  1  0.831941  0.667165  0.345245  1
  Si  Si18  1  0.337335  0.824249  0.658662  1
  Si  Si19  1  0.835399  0.327357  0.840338  1
  Si  Si20  1  0.347501  0.175959  0.156432  1
  Si  Si21  1  0.164601  0.327357  0.659662  1
  Si  Si22  1  0.652499  0.175959  0.343568  1
  Os  Os23  1  0.000000  0.015303  0.250000  1
