# generated using pymatgen
data_SrCdPd4
_symmetry_space_group_name_H-M   'P 1'
_cell_length_a   5.56794542
_cell_length_b   5.56794415
_cell_length_c   4.53178000
_cell_angle_alpha   90.00000000
_cell_angle_beta   90.00000000
_cell_angle_gamma   120.24648563
_symmetry_Int_Tables_number   1
_chemical_formula_structural   SrCdPd4
_chemical_formula_sum   'Sr1 Cd1 Pd4'
_cell_volume   121.36829254
_cell_formula_units_Z   1
loop_
 _symmetry_equiv_pos_site_id
 _symmetry_equiv_pos_as_xyz
  1  'x, y, z'
loop_
 _atom_site_type_symbol
 _atom_site_label
 _atom_site_symmetry_multiplicity
 _atom_site_fract_x
 _atom_site_fract_y
 _atom_site_fract_z
 _atom_site_occupancy
  Sr  Sr0  1  0.000000  0.000000  0.000000  1
  Cd  Cd1  1  0.500000  0.500000  0.500000  1
  Pd  Pd2  1  0.000000  0.500000  0.500000  1
  Pd  Pd3  1  0.323508  0.676492  0.000000  1
  Pd  Pd4  1  0.676492  0.323508  0.000000  1
  Pd  Pd5  1  0.500000  0.000000  0.500000  1
