# generated using pymatgen
data_GdEr3(ZnSn)4
_symmetry_space_group_name_H-M   'P 1'
_cell_length_a   4.50596900
_cell_length_b   4.50596994
_cell_length_c   15.65859400
_cell_angle_alpha   90.00000000
_cell_angle_beta   90.00000000
_cell_angle_gamma   119.99998574
_symmetry_Int_Tables_number   1
_chemical_formula_structural   GdEr3(ZnSn)4
_chemical_formula_sum   'Gd1 Er3 Zn4 Sn4'
_cell_volume   275.33406574
_cell_formula_units_Z   1
loop_
 _symmetry_equiv_pos_site_id
 _symmetry_equiv_pos_as_xyz
  1  'x, y, z'
loop_
 _atom_site_type_symbol
 _atom_site_label
 _atom_site_symmetry_multiplicity
 _atom_site_fract_x
 _atom_site_fract_y
 _atom_site_fract_z
 _atom_site_occupancy
  Gd  Gd0  1  0.000000  0.000000  0.000000  1
  Er  Er1  1  0.000000  0.000000  0.251248  1
  Er  Er2  1  0.000000  0.000000  0.748752  1
  Er  Er3  1  0.000000  0.000000  0.500000  1
  Zn  Zn4  1  0.333333  0.666667  0.161025  1
  Zn  Zn5  1  0.666667  0.333333  0.838975  1
  Zn  Zn6  1  0.666667  0.333333  0.660473  1
  Zn  Zn7  1  0.333333  0.666667  0.339527  1
  Sn  Sn8  1  0.333333  0.666667  0.612434  1
  Sn  Sn9  1  0.666667  0.333333  0.387566  1
  Sn  Sn10  1  0.666667  0.333333  0.115066  1
  Sn  Sn11  1  0.333333  0.666667  0.884934  1
