# generated using pymatgen
data_Th8Sc12Sn9Bi7
_symmetry_space_group_name_H-M   'P 1'
_cell_length_a   8.10047014
_cell_length_b   8.08276458
_cell_length_c   15.31718800
_cell_angle_alpha   90.06254305
_cell_angle_beta   89.84896701
_cell_angle_gamma   90.02514513
_symmetry_Int_Tables_number   1
_chemical_formula_structural   Th8Sc12Sn9Bi7
_chemical_formula_sum   'Th8 Sc12 Sn9 Bi7'
_cell_volume   1002.87634908
_cell_formula_units_Z   1
loop_
 _symmetry_equiv_pos_site_id
 _symmetry_equiv_pos_as_xyz
  1  'x, y, z'
loop_
 _atom_site_type_symbol
 _atom_site_label
 _atom_site_symmetry_multiplicity
 _atom_site_fract_x
 _atom_site_fract_y
 _atom_site_fract_z
 _atom_site_occupancy
  Th  Th0  1  0.983884  0.172609  0.096130  1
  Th  Th1  1  0.026163  0.825838  0.903812  1
  Th  Th2  1  0.519605  0.678611  0.903677  1
  Th  Th3  1  0.023161  0.823012  0.598454  1
  Th  Th4  1  0.476469  0.319916  0.097784  1
  Th  Th5  1  0.976664  0.176714  0.401235  1
  Th  Th6  1  0.476972  0.322765  0.401240  1
  Th  Th7  1  0.523721  0.676698  0.598650  1
  Sc  Sc8  1  0.187151  0.503946  0.750462  1
  Sc  Sc9  1  0.812336  0.496922  0.249326  1
  Sc  Sc10  1  0.312779  0.002659  0.246382  1
  Sc  Sc11  1  0.687350  0.997142  0.750147  1
  Sc  Sc12  1  0.358165  0.154568  0.628956  1
  Sc  Sc13  1  0.641919  0.845359  0.370853  1
  Sc  Sc14  1  0.141508  0.654102  0.370868  1
  Sc  Sc15  1  0.636957  0.845375  0.128660  1
  Sc  Sc16  1  0.857107  0.346446  0.629993  1
  Sc  Sc17  1  0.355621  0.152226  0.872902  1
  Sc  Sc18  1  0.856267  0.345522  0.871521  1
  Sc  Sc19  1  0.147321  0.659622  0.127429  1
  Sn  Sn20  1  0.051160  0.131613  0.750154  1
  Sn  Sn21  1  0.947954  0.868034  0.249649  1
  Sn  Sn22  1  0.448726  0.629489  0.250638  1
  Sn  Sn23  1  0.550500  0.369193  0.750980  1
  Sn  Sn24  1  0.326251  0.856162  0.750175  1
  Sn  Sn25  1  0.675767  0.143754  0.249247  1
  Sn  Sn26  1  0.173314  0.356457  0.249176  1
  Sn  Sn27  1  0.826179  0.645694  0.751677  1
  Sn  Sn28  1  0.304350  0.951720  0.044344  1
  Bi  Bi29  1  0.197729  0.451442  0.545233  1
  Bi  Bi30  1  0.802122  0.548123  0.454893  1
  Bi  Bi31  1  0.302399  0.951388  0.454245  1
  Bi  Bi32  1  0.802568  0.548216  0.045403  1
  Bi  Bi33  1  0.698093  0.048952  0.545225  1
  Bi  Bi34  1  0.196698  0.450956  0.954696  1
  Bi  Bi35  1  0.695067  0.048752  0.955786  1
