# generated using pymatgen
data_La6CuSi2AuSe14
_symmetry_space_group_name_H-M   'P 1'
_cell_length_a   10.84394000
_cell_length_b   10.84382776
_cell_length_c   6.15943100
_cell_angle_alpha   89.99901910
_cell_angle_beta   90.00150904
_cell_angle_gamma   119.99987652
_symmetry_Int_Tables_number   1
_chemical_formula_structural   La6CuSi2AuSe14
_chemical_formula_sum   'La6 Cu1 Si2 Au1 Se14'
_cell_volume   627.25117456
_cell_formula_units_Z   1
loop_
 _symmetry_equiv_pos_site_id
 _symmetry_equiv_pos_as_xyz
  1  'x, y, z'
loop_
 _atom_site_type_symbol
 _atom_site_label
 _atom_site_symmetry_multiplicity
 _atom_site_fract_x
 _atom_site_fract_y
 _atom_site_fract_z
 _atom_site_occupancy
  La  La0  1  0.126069  0.354673  0.252086  1
  La  La1  1  0.228603  0.873930  0.252035  1
  La  La2  1  0.645342  0.771396  0.252060  1
  La  La3  1  0.873223  0.643615  0.751611  1
  La  La4  1  0.770343  0.126751  0.751561  1
  La  La5  1  0.356397  0.229647  0.751606  1
  Cu  Cu6  1  0.999997  0.999997  0.775417  1
  Si  Si7  1  0.666664  0.333328  0.163372  1
  Si  Si8  1  0.333339  0.666666  0.664333  1
  Au  Au9  1  0.000006  0.999997  0.275635  1
  Se  Se10  1  0.523993  0.109297  0.016753  1
  Se  Se11  1  0.585300  0.476004  0.016757  1
  Se  Se12  1  0.890687  0.414695  0.016755  1
  Se  Se13  1  0.333357  0.666673  0.033358  1
  Se  Se14  1  0.905487  0.731574  0.264107  1
  Se  Se15  1  0.826088  0.094500  0.264099  1
  Se  Se16  1  0.268422  0.173910  0.264110  1
  Se  Se17  1  0.414375  0.524153  0.517975  1
  Se  Se18  1  0.475853  0.890216  0.517970  1
  Se  Se19  1  0.109789  0.585644  0.517992  1
  Se  Se20  1  0.666662  0.333332  0.532680  1
  Se  Se21  1  0.088895  0.251404  0.765906  1
  Se  Se22  1  0.748600  0.837492  0.765906  1
  Se  Se23  1  0.162506  0.911106  0.765910  1
