# generated using pymatgen
data_Dy4Ga3Tc5
_symmetry_space_group_name_H-M   'P 1'
_cell_length_a   5.40780907
_cell_length_b   5.40780820
_cell_length_c   8.99364300
_cell_angle_alpha   90.00000000
_cell_angle_beta   90.00000000
_cell_angle_gamma   121.29826005
_symmetry_Int_Tables_number   1
_chemical_formula_structural   Dy4Ga3Tc5
_chemical_formula_sum   'Dy4 Ga3 Tc5'
_cell_volume   224.73847754
_cell_formula_units_Z   1
loop_
 _symmetry_equiv_pos_site_id
 _symmetry_equiv_pos_as_xyz
  1  'x, y, z'
loop_
 _atom_site_type_symbol
 _atom_site_label
 _atom_site_symmetry_multiplicity
 _atom_site_fract_x
 _atom_site_fract_y
 _atom_site_fract_z
 _atom_site_occupancy
  Dy  Dy0  1  0.333517  0.666483  0.432505  1
  Dy  Dy1  1  0.665234  0.334766  0.569678  1
  Dy  Dy2  1  0.665234  0.334766  0.930322  1
  Dy  Dy3  1  0.333517  0.666483  0.067495  1
  Ga  Ga4  1  0.007002  0.992998  0.503276  1
  Ga  Ga5  1  0.007002  0.992998  0.996724  1
  Ga  Ga6  1  0.828334  0.171666  0.250000  1
  Tc  Tc7  1  0.808583  0.655690  0.250000  1
  Tc  Tc8  1  0.344310  0.191417  0.250000  1
  Tc  Tc9  1  0.175678  0.824322  0.750000  1
  Tc  Tc10  1  0.176740  0.345152  0.750000  1
  Tc  Tc11  1  0.654848  0.823260  0.750000  1
