# generated using pymatgen
data_Dy3Y3Si4(GeRh6)2
_symmetry_space_group_name_H-M   'P 1'
_cell_length_a   5.58834200
_cell_length_b   5.58834052
_cell_length_c   15.24570600
_cell_angle_alpha   90.00000000
_cell_angle_beta   90.00000000
_cell_angle_gamma   119.99999695
_symmetry_Int_Tables_number   1
_chemical_formula_structural   Dy3Y3Si4(GeRh6)2
_chemical_formula_sum   'Dy3 Y3 Si4 Ge2 Rh12'
_cell_volume   412.32913536
_cell_formula_units_Z   1
loop_
 _symmetry_equiv_pos_site_id
 _symmetry_equiv_pos_as_xyz
  1  'x, y, z'
loop_
 _atom_site_type_symbol
 _atom_site_label
 _atom_site_symmetry_multiplicity
 _atom_site_fract_x
 _atom_site_fract_y
 _atom_site_fract_z
 _atom_site_occupancy
  Dy  Dy0  1  0.666667  0.333333  0.962822  1
  Dy  Dy1  1  0.666667  0.333333  0.537171  1
  Dy  Dy2  1  0.333333  0.666667  0.037163  1
  Y  Y3  1  0.666667  0.333333  0.750003  1
  Y  Y4  1  0.333333  0.666667  0.462830  1
  Y  Y5  1  0.333333  0.666667  0.249957  1
  Si  Si6  1  0.666667  0.333333  0.250024  1
  Si  Si7  1  0.000000  0.000000  0.250019  1
  Si  Si8  1  0.000000  0.000000  0.750004  1
  Si  Si9  1  0.333333  0.666667  0.750009  1
  Ge  Ge10  1  0.000000  0.000000  0.500006  1
  Ge  Ge11  1  0.000000  0.000000  0.999990  1
  Rh  Rh12  1  0.167428  0.334856  0.867055  1
  Rh  Rh13  1  0.167410  0.334819  0.632982  1
  Rh  Rh14  1  0.665144  0.832572  0.867055  1
  Rh  Rh15  1  0.334866  0.167433  0.367021  1
  Rh  Rh16  1  0.832567  0.665134  0.367021  1
  Rh  Rh17  1  0.832567  0.167433  0.367021  1
  Rh  Rh18  1  0.832578  0.167422  0.132942  1
  Rh  Rh19  1  0.334843  0.167422  0.132942  1
  Rh  Rh20  1  0.665181  0.832590  0.632982  1
  Rh  Rh21  1  0.167410  0.832590  0.632982  1
  Rh  Rh22  1  0.832578  0.665157  0.132942  1
  Rh  Rh23  1  0.167428  0.832572  0.867055  1
