# generated using pymatgen
data_Li2TbHoSi4
_symmetry_space_group_name_H-M   'P 1'
_cell_length_a   3.80015500
_cell_length_b   7.58362323
_cell_length_c   10.19613524
_cell_angle_alpha   89.97338225
_cell_angle_beta   90.00000000
_cell_angle_gamma   90.00000000
_symmetry_Int_Tables_number   1
_chemical_formula_structural   Li2TbHoSi4
_chemical_formula_sum   'Li4 Tb2 Ho2 Si8'
_cell_volume   293.84181617
_cell_formula_units_Z   2
loop_
 _symmetry_equiv_pos_site_id
 _symmetry_equiv_pos_as_xyz
  1  'x, y, z'
loop_
 _atom_site_type_symbol
 _atom_site_label
 _atom_site_symmetry_multiplicity
 _atom_site_fract_x
 _atom_site_fract_y
 _atom_site_fract_z
 _atom_site_occupancy
  Li  Li0  1  0.250000  0.990956  0.391046  1
  Li  Li1  1  0.750000  0.009044  0.608954  1
  Li  Li2  1  0.250000  0.489729  0.107890  1
  Li  Li3  1  0.750000  0.510271  0.892110  1
  Tb  Tb4  1  0.250000  0.639540  0.636228  1
  Tb  Tb5  1  0.750000  0.360460  0.363772  1
  Ho  Ho6  1  0.250000  0.138171  0.863855  1
  Ho  Ho7  1  0.750000  0.861829  0.136145  1
  Si  Si8  1  0.750000  0.266663  0.066526  1
  Si  Si9  1  0.250000  0.733337  0.933474  1
  Si  Si10  1  0.750000  0.769378  0.430804  1
  Si  Si11  1  0.250000  0.230622  0.569196  1
  Si  Si12  1  0.750000  0.843958  0.821683  1
  Si  Si13  1  0.250000  0.156042  0.178317  1
  Si  Si14  1  0.750000  0.341816  0.680477  1
  Si  Si15  1  0.250000  0.658184  0.319523  1
