# generated using pymatgen
data_Y4Al18RuRh4Au
_symmetry_space_group_name_H-M   'P 1'
_cell_length_a   7.59390508
_cell_length_b   7.59390642
_cell_length_c   9.50386978
_cell_angle_alpha   90.04840574
_cell_angle_beta   90.04840498
_cell_angle_gamma   119.63675783
_symmetry_Int_Tables_number   1
_chemical_formula_structural   Y4Al18RuRh4Au
_chemical_formula_sum   'Y4 Al18 Ru1 Rh4 Au1'
_cell_volume   476.36399311
_cell_formula_units_Z   1
loop_
 _symmetry_equiv_pos_site_id
 _symmetry_equiv_pos_as_xyz
  1  'x, y, z'
loop_
 _atom_site_type_symbol
 _atom_site_label
 _atom_site_symmetry_multiplicity
 _atom_site_fract_x
 _atom_site_fract_y
 _atom_site_fract_z
 _atom_site_occupancy
  Y  Y0  1  0.993052  0.667867  0.250244  1
  Y  Y1  1  0.002846  0.328984  0.750423  1
  Y  Y2  1  0.671016  0.997154  0.249577  1
  Y  Y3  1  0.332133  0.006948  0.749756  1
  Al  Al4  1  0.126827  0.124471  0.251265  1
  Al  Al5  1  0.875529  0.873173  0.748735  1
  Al  Al6  1  0.013080  0.337069  0.077955  1
  Al  Al7  1  0.009150  0.674454  0.922501  1
  Al  Al8  1  0.001808  0.665529  0.573637  1
  Al  Al9  1  0.334471  0.998192  0.426363  1
  Al  Al10  1  0.000963  0.334445  0.425145  1
  Al  Al11  1  0.665555  0.999037  0.574855  1
  Al  Al12  1  0.662931  0.986920  0.922045  1
  Al  Al13  1  0.325546  0.990850  0.077499  1
  Al  Al14  1  0.331558  0.331950  0.549270  1
  Al  Al15  1  0.668050  0.668442  0.450730  1
  Al  Al16  1  0.664020  0.673259  0.055855  1
  Al  Al17  1  0.326741  0.335980  0.944145  1
  Al  Al18  1  0.340819  0.552375  0.250431  1
  Al  Al19  1  0.660493  0.457907  0.741276  1
  Al  Al20  1  0.542093  0.339507  0.258724  1
  Al  Al21  1  0.447625  0.659181  0.749569  1
  Ru  Ru22  1  0.328673  0.671327  0.000000  1
  Rh  Rh23  1  0.328499  0.671501  0.500000  1
  Rh  Rh24  1  0.672798  0.327202  0.500000  1
  Rh  Rh25  1  0.999840  0.000160  0.000000  1
  Rh  Rh26  1  0.000391  0.999609  0.500000  1
  Au  Au27  1  0.673491  0.326509  0.000000  1
