# generated using pymatgen
data_Nb16Co3Cu4NiN4
_symmetry_space_group_name_H-M   'P 1'
_cell_length_a   8.27787843
_cell_length_b   8.27721181
_cell_length_c   8.27721100
_cell_angle_alpha   59.99999922
_cell_angle_beta   60.00266313
_cell_angle_gamma   60.00266485
_symmetry_Int_Tables_number   1
_chemical_formula_structural   Nb16Co3Cu4NiN4
_chemical_formula_sum   'Nb16 Co3 Cu4 Ni1 N4'
_cell_volume   401.04178507
_cell_formula_units_Z   1
loop_
 _symmetry_equiv_pos_site_id
 _symmetry_equiv_pos_as_xyz
  1  'x, y, z'
loop_
 _atom_site_type_symbol
 _atom_site_label
 _atom_site_symmetry_multiplicity
 _atom_site_fract_x
 _atom_site_fract_y
 _atom_site_fract_z
 _atom_site_occupancy
  Nb  Nb0  1  0.112057  0.629314  0.629314  1
  Nb  Nb1  1  0.636708  0.121157  0.621067  1
  Nb  Nb2  1  0.636708  0.621067  0.121157  1
  Nb  Nb3  1  0.636708  0.621067  0.621067  1
  Nb  Nb4  1  0.819320  0.818299  0.181191  1
  Nb  Nb5  1  0.180245  0.184784  0.817486  1
  Nb  Nb6  1  0.819320  0.181191  0.818299  1
  Nb  Nb7  1  0.180245  0.817486  0.184784  1
  Nb  Nb8  1  0.180245  0.817486  0.817486  1
  Nb  Nb9  1  0.819320  0.181191  0.181191  1
  Nb  Nb10  1  0.435377  0.434427  0.065098  1
  Nb  Nb11  1  0.066379  0.067465  0.433078  1
  Nb  Nb12  1  0.435377  0.065098  0.434427  1
  Nb  Nb13  1  0.066379  0.433078  0.067465  1
  Nb  Nb14  1  0.066379  0.433078  0.433078  1
  Nb  Nb15  1  0.435377  0.065098  0.065098  1
  Co  Co16  1  0.824735  0.516729  0.829268  1
  Co  Co17  1  0.824735  0.829268  0.516729  1
  Co  Co18  1  0.824735  0.829268  0.829268  1
  Cu  Cu19  1  0.417049  0.746539  0.418206  1
  Cu  Cu20  1  0.417049  0.418206  0.746539  1
  Cu  Cu21  1  0.417049  0.418206  0.418206  1
  Cu  Cu22  1  0.499263  0.833579  0.833579  1
  Ni  Ni23  1  0.745293  0.418236  0.418236  1
  N  N24  1  0.623971  0.125343  0.125343  1
  N  N25  1  0.126660  0.622379  0.125480  1
  N  N26  1  0.126660  0.125480  0.622379  1
  N  N27  1  0.126660  0.125480  0.125480  1
