# generated using pymatgen
data_Yb7Pr(OsC2)4
_symmetry_space_group_name_H-M   'P 1'
_cell_length_a   5.17573700
_cell_length_b   6.47278156
_cell_length_c   10.29525897
_cell_angle_alpha   90.23990847
_cell_angle_beta   90.00000000
_cell_angle_gamma   90.00000000
_symmetry_Int_Tables_number   1
_chemical_formula_structural   Yb7Pr(OsC2)4
_chemical_formula_sum   'Yb7 Pr1 Os4 C8'
_cell_volume   344.90272005
_cell_formula_units_Z   1
loop_
 _symmetry_equiv_pos_site_id
 _symmetry_equiv_pos_as_xyz
  1  'x, y, z'
loop_
 _atom_site_type_symbol
 _atom_site_label
 _atom_site_symmetry_multiplicity
 _atom_site_fract_x
 _atom_site_fract_y
 _atom_site_fract_z
 _atom_site_occupancy
  Yb  Yb0  1  0.750000  0.300480  0.447663  1
  Yb  Yb1  1  0.750000  0.805193  0.048492  1
  Yb  Yb2  1  0.250000  0.194142  0.951945  1
  Yb  Yb3  1  0.250000  0.533979  0.218349  1
  Yb  Yb4  1  0.750000  0.464982  0.780979  1
  Yb  Yb5  1  0.750000  0.971129  0.731941  1
  Yb  Yb6  1  0.250000  0.032384  0.269650  1
  Pr  Pr7  1  0.250000  0.696794  0.548840  1
  Os  Os8  1  0.250000  0.731161  0.857334  1
  Os  Os9  1  0.750000  0.267474  0.144199  1
  Os  Os10  1  0.750000  0.769234  0.347613  1
  Os  Os11  1  0.250000  0.229121  0.651843  1
  C  C12  1  0.250000  0.469417  0.760732  1
  C  C13  1  0.750000  0.530620  0.238026  1
  C  C14  1  0.750000  0.030158  0.255173  1
  C  C15  1  0.250000  0.967189  0.744587  1
  C  C16  1  0.250000  0.797063  0.031971  1
  C  C17  1  0.750000  0.203752  0.968451  1
  C  C18  1  0.750000  0.711835  0.526710  1
  C  C19  1  0.250000  0.293893  0.475501  1
