# generated using pymatgen
data_MnNi7RhS8
_symmetry_space_group_name_H-M   'P 1'
_cell_length_a   7.09270473
_cell_length_b   7.09270375
_cell_length_c   7.09270475
_cell_angle_alpha   60.17806395
_cell_angle_beta   60.17807073
_cell_angle_gamma   60.17806074
_symmetry_Int_Tables_number   1
_chemical_formula_structural   MnNi7RhS8
_chemical_formula_sum   'Mn1 Ni7 Rh1 S8'
_cell_volume   253.31937610
_cell_formula_units_Z   1
loop_
 _symmetry_equiv_pos_site_id
 _symmetry_equiv_pos_as_xyz
  1  'x, y, z'
loop_
 _atom_site_type_symbol
 _atom_site_label
 _atom_site_symmetry_multiplicity
 _atom_site_fract_x
 _atom_site_fract_y
 _atom_site_fract_z
 _atom_site_occupancy
  Mn  Mn0  1  0.875130  0.875130  0.875130  1
  Ni  Ni1  1  0.619858  0.127362  0.127362  1
  Ni  Ni2  1  0.127362  0.619858  0.127362  1
  Ni  Ni3  1  0.127362  0.127362  0.619858  1
  Ni  Ni4  1  0.127591  0.127591  0.127591  1
  Ni  Ni5  1  0.381343  0.873019  0.873019  1
  Ni  Ni6  1  0.873019  0.381343  0.873019  1
  Ni  Ni7  1  0.873019  0.873019  0.381343  1
  Rh  Rh8  1  0.497434  0.497434  0.497434  1
  S  S9  1  0.251132  0.251132  0.251132  1
  S  S10  1  0.754428  0.754428  0.754428  1
  S  S11  1  0.743290  0.257018  0.257018  1
  S  S12  1  0.743432  0.248134  0.743432  1
  S  S13  1  0.743432  0.743432  0.248134  1
  S  S14  1  0.248134  0.743432  0.743432  1
  S  S15  1  0.257018  0.743290  0.257018  1
  S  S16  1  0.257018  0.257018  0.743290  1
