# generated using pymatgen
data_Li3Th3IrPt2
_symmetry_space_group_name_H-M   'P 1'
_cell_length_a   7.33041800
_cell_length_b   7.33041782
_cell_length_c   4.06430600
_cell_angle_alpha   90.00000000
_cell_angle_beta   90.00000000
_cell_angle_gamma   120.00000081
_symmetry_Int_Tables_number   1
_chemical_formula_structural   Li3Th3IrPt2
_chemical_formula_sum   'Li3 Th3 Ir1 Pt2'
_cell_volume   189.13612881
_cell_formula_units_Z   1
loop_
 _symmetry_equiv_pos_site_id
 _symmetry_equiv_pos_as_xyz
  1  'x, y, z'
loop_
 _atom_site_type_symbol
 _atom_site_label
 _atom_site_symmetry_multiplicity
 _atom_site_fract_x
 _atom_site_fract_y
 _atom_site_fract_z
 _atom_site_occupancy
  Li  Li0  1  0.770281  0.000592  0.000000  1
  Li  Li1  1  0.999408  0.769688  0.000000  1
  Li  Li2  1  0.230312  0.229719  0.000000  1
  Th  Th3  1  0.411316  0.006465  0.500000  1
  Th  Th4  1  0.993535  0.404852  0.500000  1
  Th  Th5  1  0.595148  0.588684  0.500000  1
  Ir  Ir6  1  0.666667  0.333333  0.000000  1
  Pt  Pt7  1  0.333333  0.666667  0.000000  1
  Pt  Pt8  1  0.000000  0.000000  0.500000  1
