# generated using pymatgen
data_TmF18
_symmetry_space_group_name_H-M   'P 1'
_cell_length_a   6.24644406
_cell_length_b   9.12710806
_cell_length_c   12.74680889
_cell_angle_alpha   102.96020599
_cell_angle_beta   87.34396601
_cell_angle_gamma   110.37471238
_symmetry_Int_Tables_number   1
_chemical_formula_structural   TmF18
_chemical_formula_sum   'Tm2 F36'
_cell_volume   663.49883166
_cell_formula_units_Z   2
loop_
 _symmetry_equiv_pos_site_id
 _symmetry_equiv_pos_as_xyz
  1  'x, y, z'
loop_
 _atom_site_type_symbol
 _atom_site_label
 _atom_site_symmetry_multiplicity
 _atom_site_fract_x
 _atom_site_fract_y
 _atom_site_fract_z
 _atom_site_occupancy
  Tm  Tm0  1  0.125859  0.947086  0.232617  1
  Tm  Tm1  1  0.874141  0.052914  0.767383  1
  F  F2  1  0.693065  0.636526  0.365487  1
  F  F3  1  0.306935  0.363474  0.634513  1
  F  F4  1  0.045517  0.327475  0.366018  1
  F  F5  1  0.954483  0.672525  0.633982  1
  F  F6  1  0.157698  0.912154  0.961151  1
  F  F7  1  0.842302  0.087846  0.038849  1
  F  F8  1  0.836498  0.905299  0.336053  1
  F  F9  1  0.163502  0.094701  0.663947  1
  F  F10  1  0.076308  0.701756  0.240236  1
  F  F11  1  0.923692  0.298244  0.759764  1
  F  F12  1  0.546450  0.484463  0.382497  1
  F  F13  1  0.453550  0.515537  0.617503  1
  F  F14  1  0.993587  0.078978  0.159814  1
  F  F15  1  0.006413  0.921022  0.840186  1
  F  F16  1  0.126952  0.079450  0.394924  1
  F  F17  1  0.873048  0.920550  0.605076  1
  F  F18  1  0.040564  0.453819  0.318238  1
  F  F19  1  0.959436  0.546181  0.681762  1
  F  F20  1  0.771946  0.734820  0.078687  1
  F  F21  1  0.228054  0.265180  0.921313  1
  F  F22  1  0.836518  0.605485  0.018641  1
  F  F23  1  0.163482  0.394515  0.981359  1
  F  F24  1  0.518166  0.597154  0.857459  1
  F  F25  1  0.481834  0.402846  0.142541  1
  F  F26  1  0.489669  0.051398  0.273075  1
  F  F27  1  0.510331  0.948602  0.726925  1
  F  F28  1  0.267357  0.875942  0.468648  1
  F  F29  1  0.732643  0.124058  0.531352  1
  F  F30  1  0.281779  0.895837  0.060567  1
  F  F31  1  0.718221  0.104163  0.939433  1
  F  F32  1  0.413529  0.815709  0.217374  1
  F  F33  1  0.586471  0.184291  0.782626  1
  F  F34  1  0.614214  0.305361  0.148908  1
  F  F35  1  0.385786  0.694639  0.851092  1
  F  F36  1  0.347980  0.749432  0.474099  1
  F  F37  1  0.652020  0.250568  0.525901  1
