# generated using pymatgen
data_Er4Ga20CoTc5
_symmetry_space_group_name_H-M   'P 1'
_cell_length_a   9.07913200
_cell_length_b   9.07913200
_cell_length_c   6.20048800
_cell_angle_alpha   90.00000000
_cell_angle_beta   90.00000000
_cell_angle_gamma   90.00000000
_symmetry_Int_Tables_number   1
_chemical_formula_structural   Er4Ga20CoTc5
_chemical_formula_sum   'Er4 Ga20 Co1 Tc5'
_cell_volume   511.11018097
_cell_formula_units_Z   1
loop_
 _symmetry_equiv_pos_site_id
 _symmetry_equiv_pos_as_xyz
  1  'x, y, z'
loop_
 _atom_site_type_symbol
 _atom_site_label
 _atom_site_symmetry_multiplicity
 _atom_site_fract_x
 _atom_site_fract_y
 _atom_site_fract_z
 _atom_site_occupancy
  Er  Er0  1  0.680965  0.184359  0.000000  1
  Er  Er1  1  0.319035  0.815641  0.000000  1
  Er  Er2  1  0.815641  0.680965  0.000000  1
  Er  Er3  1  0.184359  0.319035  0.000000  1
  Ga  Ga4  1  0.940686  0.203573  0.285759  1
  Ga  Ga5  1  0.705863  0.440605  0.291227  1
  Ga  Ga6  1  0.500000  0.000000  0.285708  1
  Ga  Ga7  1  0.559395  0.705863  0.708773  1
  Ga  Ga8  1  0.294137  0.559395  0.708773  1
  Ga  Ga9  1  0.796427  0.940686  0.285759  1
  Ga  Ga10  1  0.940686  0.203573  0.714241  1
  Ga  Ga11  1  0.294137  0.559395  0.291227  1
  Ga  Ga12  1  0.059314  0.796427  0.285759  1
  Ga  Ga13  1  0.705863  0.440605  0.708773  1
  Ga  Ga14  1  0.440605  0.294137  0.708773  1
  Ga  Ga15  1  0.059314  0.796427  0.714241  1
  Ga  Ga16  1  0.203573  0.059314  0.714241  1
  Ga  Ga17  1  0.796427  0.940686  0.714241  1
  Ga  Ga18  1  0.203573  0.059314  0.285759  1
  Ga  Ga19  1  0.000000  0.500000  0.714292  1
  Ga  Ga20  1  0.000000  0.500000  0.285708  1
  Ga  Ga21  1  0.559395  0.705863  0.291227  1
  Ga  Ga22  1  0.440605  0.294137  0.291227  1
  Ga  Ga23  1  0.500000  0.000000  0.714292  1
  Co  Co24  1  0.000000  0.000000  0.000000  1
  Tc  Tc25  1  0.682087  0.177525  0.500000  1
  Tc  Tc26  1  0.822475  0.682087  0.500000  1
  Tc  Tc27  1  0.177525  0.317913  0.500000  1
  Tc  Tc28  1  0.317913  0.822475  0.500000  1
  Tc  Tc29  1  0.500000  0.500000  0.000000  1
