# generated using pymatgen
data_Dy3ErTa4(Fe4P3)4
_symmetry_space_group_name_H-M   'P 1'
_cell_length_a   3.67197800
_cell_length_b   10.45570669
_cell_length_c   12.36761903
_cell_angle_alpha   89.93460063
_cell_angle_beta   90.00000000
_cell_angle_gamma   90.00000000
_symmetry_Int_Tables_number   1
_chemical_formula_structural   Dy3ErTa4(Fe4P3)4
_chemical_formula_sum   'Dy3 Er1 Ta4 Fe16 P12'
_cell_volume   474.83123328
_cell_formula_units_Z   1
loop_
 _symmetry_equiv_pos_site_id
 _symmetry_equiv_pos_as_xyz
  1  'x, y, z'
loop_
 _atom_site_type_symbol
 _atom_site_label
 _atom_site_symmetry_multiplicity
 _atom_site_fract_x
 _atom_site_fract_y
 _atom_site_fract_z
 _atom_site_occupancy
  Dy  Dy0  1  0.250000  0.584161  0.713258  1
  Dy  Dy1  1  0.250000  0.915891  0.213158  1
  Dy  Dy2  1  0.750000  0.415808  0.286718  1
  Er  Er3  1  0.750000  0.083922  0.786545  1
  Ta  Ta4  1  0.250000  0.704098  0.992200  1
  Ta  Ta5  1  0.250000  0.796096  0.492839  1
  Ta  Ta6  1  0.750000  0.295921  0.007175  1
  Ta  Ta7  1  0.750000  0.203907  0.507479  1
  Fe  Fe8  1  0.250000  0.417219  0.491657  1
  Fe  Fe9  1  0.250000  0.083428  0.990817  1
  Fe  Fe10  1  0.750000  0.582623  0.508458  1
  Fe  Fe11  1  0.750000  0.917747  0.007971  1
  Fe  Fe12  1  0.250000  0.215463  0.170321  1
  Fe  Fe13  1  0.250000  0.283900  0.670506  1
  Fe  Fe14  1  0.750000  0.784867  0.829709  1
  Fe  Fe15  1  0.750000  0.715639  0.329813  1
  Fe  Fe16  1  0.250000  0.881176  0.697854  1
  Fe  Fe17  1  0.250000  0.619603  0.197259  1
  Fe  Fe18  1  0.750000  0.119538  0.302664  1
  Fe  Fe19  1  0.750000  0.379477  0.802613  1
  Fe  Fe20  1  0.250000  0.464000  0.934042  1
  Fe  Fe21  1  0.250000  0.035665  0.434777  1
  Fe  Fe22  1  0.750000  0.535424  0.065429  1
  Fe  Fe23  1  0.750000  0.964758  0.566074  1
  P  P24  1  0.250000  0.423783  0.112865  1
  P  P25  1  0.250000  0.076380  0.613708  1
  P  P26  1  0.750000  0.575832  0.886835  1
  P  P27  1  0.750000  0.923938  0.387208  1
  P  P28  1  0.250000  0.273632  0.854034  1
  P  P29  1  0.250000  0.224919  0.354063  1
  P  P30  1  0.750000  0.724974  0.145855  1
  P  P31  1  0.750000  0.775314  0.646264  1
  P  P32  1  0.250000  0.596980  0.375634  1
  P  P33  1  0.250000  0.904036  0.875561  1
  P  P34  1  0.750000  0.402910  0.624359  1
  P  P35  1  0.750000  0.096973  0.124278  1
