# generated using pymatgen
data_La4Al3GaPd8
_symmetry_space_group_name_H-M   'P 1'
_cell_length_a   5.98811432
_cell_length_b   7.04427300
_cell_length_c   7.69909315
_cell_angle_alpha   90.00000000
_cell_angle_beta   89.76640830
_cell_angle_gamma   90.00000000
_symmetry_Int_Tables_number   1
_chemical_formula_structural   La4Al3GaPd8
_chemical_formula_sum   'La4 Al3 Ga1 Pd8'
_cell_volume   324.75977105
_cell_formula_units_Z   1
loop_
 _symmetry_equiv_pos_site_id
 _symmetry_equiv_pos_as_xyz
  1  'x, y, z'
loop_
 _atom_site_type_symbol
 _atom_site_label
 _atom_site_symmetry_multiplicity
 _atom_site_fract_x
 _atom_site_fract_y
 _atom_site_fract_z
 _atom_site_occupancy
  La  La0  1  0.341492  0.750000  0.035597  1
  La  La1  1  0.157301  0.750000  0.536024  1
  La  La2  1  0.656793  0.250000  0.967408  1
  La  La3  1  0.845879  0.250000  0.464414  1
  Al  Al4  1  0.657632  0.750000  0.381074  1
  Al  Al5  1  0.840942  0.750000  0.880170  1
  Al  Al6  1  0.344638  0.250000  0.620459  1
  Ga  Ga7  1  0.157431  0.250000  0.120167  1
  Pd  Pd8  1  0.907792  0.553774  0.173645  1
  Pd  Pd9  1  0.589590  0.947953  0.674755  1
  Pd  Pd10  1  0.086428  0.051280  0.821873  1
  Pd  Pd11  1  0.415135  0.448138  0.327071  1
  Pd  Pd12  1  0.086428  0.448720  0.821873  1
  Pd  Pd13  1  0.415135  0.051862  0.327071  1
  Pd  Pd14  1  0.907792  0.946226  0.173645  1
  Pd  Pd15  1  0.589590  0.552047  0.674755  1
