# generated using pymatgen
data_Sm4Co3Cu(SnH)4
_symmetry_space_group_name_H-M   'P 1'
_cell_length_a   4.34942800
_cell_length_b   7.24669759
_cell_length_c   8.34563051
_cell_angle_alpha   90.83719406
_cell_angle_beta   90.00000000
_cell_angle_gamma   90.00000000
_symmetry_Int_Tables_number   1
_chemical_formula_structural   Sm4Co3Cu(SnH)4
_chemical_formula_sum   'Sm4 Co3 Cu1 Sn4 H4'
_cell_volume   263.01775934
_cell_formula_units_Z   1
loop_
 _symmetry_equiv_pos_site_id
 _symmetry_equiv_pos_as_xyz
  1  'x, y, z'
loop_
 _atom_site_type_symbol
 _atom_site_label
 _atom_site_symmetry_multiplicity
 _atom_site_fract_x
 _atom_site_fract_y
 _atom_site_fract_z
 _atom_site_occupancy
  Sm  Sm0  1  0.750000  0.016316  0.686283  1
  Sm  Sm1  1  0.250000  0.991762  0.314621  1
  Sm  Sm2  1  0.250000  0.483895  0.192248  1
  Sm  Sm3  1  0.750000  0.509333  0.807687  1
  Co  Co4  1  0.250000  0.226021  0.901332  1
  Co  Co5  1  0.250000  0.724214  0.603335  1
  Co  Co6  1  0.750000  0.270765  0.393987  1
  Cu  Cu7  1  0.750000  0.778535  0.105345  1
  Sn  Sn8  1  0.750000  0.650732  0.435684  1
  Sn  Sn9  1  0.250000  0.341707  0.572182  1
  Sn  Sn10  1  0.250000  0.847141  0.922635  1
  Sn  Sn11  1  0.750000  0.172120  0.070243  1
  H  H12  1  0.250000  0.442620  0.919142  1
  H  H13  1  0.750000  0.549380  0.077359  1
  H  H14  1  0.750000  0.053234  0.416313  1
  H  H15  1  0.250000  0.942226  0.581605  1
