# generated using pymatgen
data_Ho13Tm7(Cd3Ru)2
_symmetry_space_group_name_H-M   'P 1'
_cell_length_a   9.51485618
_cell_length_b   9.51485642
_cell_length_c   9.76565707
_cell_angle_alpha   90.01171001
_cell_angle_beta   89.98829115
_cell_angle_gamma   120.01910981
_symmetry_Int_Tables_number   1
_chemical_formula_structural   Ho13Tm7(Cd3Ru)2
_chemical_formula_sum   'Ho13 Tm7 Cd6 Ru2'
_cell_volume   765.51357228
_cell_formula_units_Z   1
loop_
 _symmetry_equiv_pos_site_id
 _symmetry_equiv_pos_as_xyz
  1  'x, y, z'
loop_
 _atom_site_type_symbol
 _atom_site_label
 _atom_site_symmetry_multiplicity
 _atom_site_fract_x
 _atom_site_fract_y
 _atom_site_fract_z
 _atom_site_occupancy
  Ho  Ho0  1  0.209660  0.790340  0.440285  1
  Ho  Ho1  1  0.209678  0.419333  0.440366  1
  Ho  Ho2  1  0.580667  0.790322  0.440366  1
  Ho  Ho3  1  0.790424  0.209576  0.559427  1
  Ho  Ho4  1  0.790276  0.580726  0.559621  1
  Ho  Ho5  1  0.419274  0.209724  0.559621  1
  Ho  Ho6  1  0.790159  0.209841  0.940674  1
  Ho  Ho7  1  0.540831  0.459169  0.249439  1
  Ho  Ho8  1  0.540671  0.081573  0.249574  1
  Ho  Ho9  1  0.918427  0.459329  0.249574  1
  Ho  Ho10  1  0.459197  0.540803  0.750642  1
  Ho  Ho11  1  0.458938  0.918086  0.750462  1
  Ho  Ho12  1  0.081914  0.541062  0.750462  1
  Tm  Tm13  1  0.000014  0.999986  0.500048  1
  Tm  Tm14  1  0.000134  0.999866  0.000056  1
  Tm  Tm15  1  0.790044  0.580373  0.940707  1
  Tm  Tm16  1  0.419627  0.209956  0.940707  1
  Tm  Tm17  1  0.209988  0.790012  0.059362  1
  Tm  Tm18  1  0.210169  0.420043  0.059396  1
  Tm  Tm19  1  0.579957  0.789831  0.059396  1
  Cd  Cd20  1  0.885786  0.114214  0.249815  1
  Cd  Cd21  1  0.885807  0.771468  0.249751  1
  Cd  Cd22  1  0.228532  0.114193  0.249751  1
  Cd  Cd23  1  0.114256  0.885744  0.750298  1
  Cd  Cd24  1  0.114274  0.228521  0.750237  1
  Cd  Cd25  1  0.771479  0.885726  0.750237  1
  Ru  Ru26  1  0.333321  0.666679  0.249235  1
  Ru  Ru27  1  0.666496  0.333504  0.750493  1
