# generated using pymatgen
data_K8BaSr3(ZrP4)2
_symmetry_space_group_name_H-M   'P 1'
_cell_length_a   10.30670312
_cell_length_b   10.31838354
_cell_length_c   7.76731462
_cell_angle_alpha   88.85267574
_cell_angle_beta   88.22101931
_cell_angle_gamma   119.71631157
_symmetry_Int_Tables_number   1
_chemical_formula_structural   K8BaSr3(ZrP4)2
_chemical_formula_sum   'K8 Ba1 Sr3 Zr2 P8'
_cell_volume   716.46722672
_cell_formula_units_Z   1
loop_
 _symmetry_equiv_pos_site_id
 _symmetry_equiv_pos_as_xyz
  1  'x, y, z'
loop_
 _atom_site_type_symbol
 _atom_site_label
 _atom_site_symmetry_multiplicity
 _atom_site_fract_x
 _atom_site_fract_y
 _atom_site_fract_z
 _atom_site_occupancy
  K  K0  1  0.060624  0.525492  0.615307  1
  K  K1  1  0.528405  0.063761  0.112632  1
  K  K2  1  0.276901  0.133456  0.824619  1
  K  K3  1  0.871221  0.729549  0.765209  1
  K  K4  1  0.862779  0.144073  0.797854  1
  K  K5  1  0.731659  0.871093  0.263074  1
  K  K6  1  0.134132  0.278822  0.320974  1
  K  K7  1  0.140692  0.861388  0.297510  1
  Ba  Ba8  1  0.466291  0.931213  0.603062  1
  Sr  Sr9  1  0.466094  0.523362  0.622495  1
  Sr  Sr10  1  0.927842  0.467755  0.105703  1
  Sr  Sr11  1  0.526370  0.468179  0.122128  1
  Zr  Zr12  1  0.667630  0.338976  0.508912  1
  Zr  Zr13  1  0.334254  0.662689  0.012911  1
  P  P14  1  0.671021  0.358079  0.839505  1
  P  P15  1  0.356868  0.661784  0.339999  1
  P  P16  1  0.598070  0.786142  0.873937  1
  P  P17  1  0.204197  0.394118  0.918961  1
  P  P18  1  0.191323  0.789035  0.909124  1
  P  P19  1  0.396370  0.210075  0.419626  1
  P  P20  1  0.790465  0.599632  0.368840  1
  P  P21  1  0.796789  0.201322  0.395109  1
