# generated using pymatgen
data_Tm3SiGe2Ru3
_symmetry_space_group_name_H-M   'P 1'
_cell_length_a   7.15805500
_cell_length_b   7.15805607
_cell_length_c   3.58989500
_cell_angle_alpha   90.00000000
_cell_angle_beta   90.00000000
_cell_angle_gamma   119.99999042
_symmetry_Int_Tables_number   1
_chemical_formula_structural   Tm3SiGe2Ru3
_chemical_formula_sum   'Tm3 Si1 Ge2 Ru3'
_cell_volume   159.29514773
_cell_formula_units_Z   1
loop_
 _symmetry_equiv_pos_site_id
 _symmetry_equiv_pos_as_xyz
  1  'x, y, z'
loop_
 _atom_site_type_symbol
 _atom_site_label
 _atom_site_symmetry_multiplicity
 _atom_site_fract_x
 _atom_site_fract_y
 _atom_site_fract_z
 _atom_site_occupancy
  Tm  Tm0  1  0.397609  0.397609  0.500000  1
  Tm  Tm1  1  0.602391  0.000000  0.500000  1
  Tm  Tm2  1  0.000000  0.602391  0.500000  1
  Si  Si3  1  0.000000  0.000000  0.500000  1
  Ge  Ge4  1  0.666667  0.333333  0.000000  1
  Ge  Ge5  1  0.333333  0.666667  0.000000  1
  Ru  Ru6  1  0.760278  0.760278  0.000000  1
  Ru  Ru7  1  0.239722  0.000000  0.000000  1
  Ru  Ru8  1  0.000000  0.239722  0.000000  1
