# generated using pymatgen
data_Tb5Er11Cd4NiRu3
_symmetry_space_group_name_H-M   'P 1'
_cell_length_a   9.56363800
_cell_length_b   9.61629491
_cell_length_c   9.61629579
_cell_angle_alpha   59.64167157
_cell_angle_beta   59.45261383
_cell_angle_gamma   59.45261111
_symmetry_Int_Tables_number   1
_chemical_formula_structural   Tb5Er11Cd4NiRu3
_chemical_formula_sum   'Tb5 Er11 Cd4 Ni1 Ru3'
_cell_volume   618.45815010
_cell_formula_units_Z   1
loop_
 _symmetry_equiv_pos_site_id
 _symmetry_equiv_pos_as_xyz
  1  'x, y, z'
loop_
 _atom_site_type_symbol
 _atom_site_label
 _atom_site_symmetry_multiplicity
 _atom_site_fract_x
 _atom_site_fract_y
 _atom_site_fract_z
 _atom_site_occupancy
  Tb  Tb0  1  0.558092  0.938014  0.938014  1
  Tb  Tb1  1  0.558113  0.937323  0.566131  1
  Tb  Tb2  1  0.940722  0.558400  0.939951  1
  Tb  Tb3  1  0.558113  0.566131  0.937323  1
  Tb  Tb4  1  0.940722  0.939951  0.558400  1
  Er  Er5  1  0.350376  0.346139  0.346139  1
  Er  Er6  1  0.350560  0.345931  0.960916  1
  Er  Er7  1  0.350560  0.960916  0.345931  1
  Er  Er8  1  0.959647  0.347186  0.347186  1
  Er  Er9  1  0.811376  0.187166  0.187166  1
  Er  Er10  1  0.184278  0.812227  0.812227  1
  Er  Er11  1  0.186928  0.811229  0.188457  1
  Er  Er12  1  0.810763  0.188765  0.811033  1
  Er  Er13  1  0.186928  0.188457  0.811229  1
  Er  Er14  1  0.810763  0.811033  0.188765  1
  Er  Er15  1  0.940006  0.559098  0.559098  1
  Cd  Cd16  1  0.579807  0.580208  0.580208  1
  Cd  Cd17  1  0.579336  0.580466  0.258498  1
  Cd  Cd18  1  0.579336  0.258498  0.580466  1
  Cd  Cd19  1  0.257285  0.580260  0.580260  1
  Ni  Ni20  1  0.578551  0.142463  0.142463  1
  Ru  Ru21  1  0.142002  0.139753  0.139753  1
  Ru  Ru22  1  0.142869  0.142238  0.578148  1
  Ru  Ru23  1  0.142869  0.578148  0.142238  1
