# generated using pymatgen
data_MgZn21(SnRu3)2
_symmetry_space_group_name_H-M   'P 1'
_cell_length_a   5.27468529
_cell_length_b   5.29934084
_cell_length_c   17.07933500
_cell_angle_alpha   90.00000000
_cell_angle_beta   90.00000000
_cell_angle_gamma   97.75394973
_symmetry_Int_Tables_number   1
_chemical_formula_structural   MgZn21(SnRu3)2
_chemical_formula_sum   'Mg1 Zn21 Sn2 Ru6'
_cell_volume   473.04250847
_cell_formula_units_Z   1
loop_
 _symmetry_equiv_pos_site_id
 _symmetry_equiv_pos_as_xyz
  1  'x, y, z'
loop_
 _atom_site_type_symbol
 _atom_site_label
 _atom_site_symmetry_multiplicity
 _atom_site_fract_x
 _atom_site_fract_y
 _atom_site_fract_z
 _atom_site_occupancy
  Mg  Mg0  1  0.559555  0.943325  0.250000  1
  Zn  Zn1  1  0.883437  0.888868  0.832578  1
  Zn  Zn2  1  0.109140  0.114457  0.166118  1
  Zn  Zn3  1  0.883437  0.888868  0.667422  1
  Zn  Zn4  1  0.109140  0.114457  0.333882  1
  Zn  Zn5  1  0.503423  0.497617  0.998218  1
  Zn  Zn6  1  0.503423  0.497617  0.501782  1
  Zn  Zn7  1  0.322805  0.729825  0.874116  1
  Zn  Zn8  1  0.267732  0.672103  0.124084  1
  Zn  Zn9  1  0.322805  0.729825  0.625884  1
  Zn  Zn10  1  0.267732  0.672103  0.375916  1
  Zn  Zn11  1  0.650700  0.252227  0.126052  1
  Zn  Zn12  1  0.757110  0.349762  0.869552  1
  Zn  Zn13  1  0.650700  0.252227  0.373948  1
  Zn  Zn14  1  0.757110  0.349762  0.630448  1
  Zn  Zn15  1  0.013049  0.988092  0.999132  1
  Zn  Zn16  1  0.013049  0.988092  0.500868  1
  Zn  Zn17  1  0.516767  0.001530  0.995283  1
  Zn  Zn18  1  0.997806  0.483228  0.002641  1
  Zn  Zn19  1  0.516767  0.001530  0.504717  1
  Zn  Zn20  1  0.997806  0.483228  0.497359  1
  Zn  Zn21  1  0.061551  0.448770  0.750000  1
  Sn  Sn22  1  0.413464  0.072713  0.750000  1
  Sn  Sn23  1  0.927074  0.577981  0.250000  1
  Ru  Ru24  1  0.241098  0.235091  0.891571  1
  Ru  Ru25  1  0.764161  0.759768  0.106193  1
  Ru  Ru26  1  0.241098  0.235091  0.608429  1
  Ru  Ru27  1  0.764161  0.759768  0.393807  1
  Ru  Ru28  1  0.570766  0.585630  0.750000  1
  Ru  Ru29  1  0.413141  0.426449  0.250000  1
