# generated using pymatgen
data_Ba4SiPt4Pb3
_symmetry_space_group_name_H-M   'P 1'
_cell_length_a   7.20848881
_cell_length_b   7.20848953
_cell_length_c   7.20848862
_cell_angle_alpha   90.94466835
_cell_angle_beta   90.94467186
_cell_angle_gamma   90.94466720
_symmetry_Int_Tables_number   1
_chemical_formula_structural   Ba4SiPt4Pb3
_chemical_formula_sum   'Ba4 Si1 Pt4 Pb3'
_cell_volume   374.41533283
_cell_formula_units_Z   1
loop_
 _symmetry_equiv_pos_site_id
 _symmetry_equiv_pos_as_xyz
  1  'x, y, z'
loop_
 _atom_site_type_symbol
 _atom_site_label
 _atom_site_symmetry_multiplicity
 _atom_site_fract_x
 _atom_site_fract_y
 _atom_site_fract_z
 _atom_site_occupancy
  Ba  Ba0  1  0.594837  0.399843  0.894663  1
  Ba  Ba1  1  0.399843  0.894663  0.594837  1
  Ba  Ba2  1  0.105124  0.105124  0.105124  1
  Ba  Ba3  1  0.894663  0.594837  0.399843  1
  Si  Si4  1  0.407313  0.407313  0.407313  1
  Pt  Pt5  1  0.201685  0.340839  0.637948  1
  Pt  Pt6  1  0.637948  0.201685  0.340839  1
  Pt  Pt7  1  0.829858  0.829858  0.829858  1
  Pt  Pt8  1  0.340839  0.637948  0.201685  1
  Pb  Pb9  1  0.581890  0.912630  0.093371  1
  Pb  Pb10  1  0.093371  0.581890  0.912630  1
  Pb  Pb11  1  0.912630  0.093371  0.581890  1
