# generated using pymatgen
data_Sm4OsCl4
_symmetry_space_group_name_H-M   'P 1'
_cell_length_a   8.84973615
_cell_length_b   8.84973718
_cell_length_c   6.60119945
_cell_angle_alpha   90.23411653
_cell_angle_beta   90.23411240
_cell_angle_gamma   89.61046902
_symmetry_Int_Tables_number   1
_chemical_formula_structural   Sm4OsCl4
_chemical_formula_sum   'Sm8 Os2 Cl8'
_cell_volume   516.97115499
_cell_formula_units_Z   2
loop_
 _symmetry_equiv_pos_site_id
 _symmetry_equiv_pos_as_xyz
  1  'x, y, z'
loop_
 _atom_site_type_symbol
 _atom_site_label
 _atom_site_symmetry_multiplicity
 _atom_site_fract_x
 _atom_site_fract_y
 _atom_site_fract_z
 _atom_site_occupancy
  Sm  Sm0  1  0.104753  0.741912  0.987186  1
  Sm  Sm1  1  0.258088  0.895247  0.512814  1
  Sm  Sm2  1  0.895247  0.258088  0.012814  1
  Sm  Sm3  1  0.741912  0.104753  0.487186  1
  Sm  Sm4  1  0.742821  0.895595  0.001712  1
  Sm  Sm5  1  0.104405  0.257179  0.498288  1
  Sm  Sm6  1  0.257179  0.104405  0.998288  1
  Sm  Sm7  1  0.895595  0.742821  0.501712  1
  Os  Os8  1  0.004568  0.995432  0.250000  1
  Os  Os9  1  0.995432  0.004568  0.750000  1
  Cl  Cl10  1  0.414061  0.822940  0.913897  1
  Cl  Cl11  1  0.177060  0.585939  0.586103  1
  Cl  Cl12  1  0.585939  0.177060  0.086103  1
  Cl  Cl13  1  0.822940  0.414061  0.413897  1
  Cl  Cl14  1  0.819739  0.587133  0.913096  1
  Cl  Cl15  1  0.412867  0.180261  0.586904  1
  Cl  Cl16  1  0.180261  0.412867  0.086904  1
  Cl  Cl17  1  0.587133  0.819739  0.413096  1
