# generated using pymatgen
data_Zr6Ta3Al13Ru7
_symmetry_space_group_name_H-M   'P 1'
_cell_length_a   8.83560405
_cell_length_b   8.83560062
_cell_length_c   8.83559545
_cell_angle_alpha   59.79152208
_cell_angle_beta   59.79135576
_cell_angle_gamma   59.79142955
_symmetry_Int_Tables_number   1
_chemical_formula_structural   Zr6Ta3Al13Ru7
_chemical_formula_sum   'Zr6 Ta3 Al13 Ru7'
_cell_volume   485.43596666
_cell_formula_units_Z   1
loop_
 _symmetry_equiv_pos_site_id
 _symmetry_equiv_pos_as_xyz
  1  'x, y, z'
loop_
 _atom_site_type_symbol
 _atom_site_label
 _atom_site_symmetry_multiplicity
 _atom_site_fract_x
 _atom_site_fract_y
 _atom_site_fract_z
 _atom_site_occupancy
  Zr  Zr0  1  0.702876  0.702876  0.291397  1
  Zr  Zr1  1  0.301583  0.695976  0.301583  1
  Zr  Zr2  1  0.695975  0.301583  0.301583  1
  Zr  Zr3  1  0.301583  0.301583  0.695976  1
  Zr  Zr4  1  0.702877  0.291397  0.702875  1
  Zr  Zr5  1  0.291397  0.702876  0.702875  1
  Ta  Ta6  1  0.878719  0.878719  0.361744  1
  Ta  Ta7  1  0.878719  0.361744  0.878719  1
  Ta  Ta8  1  0.361744  0.878719  0.878719  1
  Al  Al9  1  0.880862  0.880863  0.880863  1
  Al  Al10  1  0.120361  0.120361  0.638613  1
  Al  Al11  1  0.120361  0.638613  0.120361  1
  Al  Al12  1  0.638613  0.120361  0.120360  1
  Al  Al13  1  0.120886  0.120885  0.120885  1
  Al  Al14  1  0.665198  0.665200  0.009751  1
  Al  Al15  1  0.665199  0.009751  0.665200  1
  Al  Al16  1  0.009751  0.665199  0.665199  1
  Al  Al17  1  0.660155  0.660154  0.660155  1
  Al  Al18  1  0.335867  0.335866  0.994949  1
  Al  Al19  1  0.335867  0.994949  0.335866  1
  Al  Al20  1  0.994949  0.335866  0.335867  1
  Al  Al21  1  0.334564  0.334564  0.334564  1
  Ru  Ru22  1  0.001033  0.001031  0.001032  1
  Ru  Ru23  1  0.999038  0.999038  0.499116  1
  Ru  Ru24  1  0.503024  0.997623  0.503025  1
  Ru  Ru25  1  0.997623  0.503024  0.503024  1
  Ru  Ru26  1  0.503024  0.503024  0.997624  1
  Ru  Ru27  1  0.999038  0.499116  0.999038  1
  Ru  Ru28  1  0.499116  0.999039  0.999038  1
