# generated using pymatgen
data_Dy7Y17Ru14
_symmetry_space_group_name_H-M   'P 1'
_cell_length_a   11.39402222
_cell_length_b   8.41493648
_cell_length_c   11.27233684
_cell_angle_alpha   56.36542380
_cell_angle_beta   89.86866584
_cell_angle_gamma   89.94019853
_symmetry_Int_Tables_number   1
_chemical_formula_structural   Dy7Y17Ru14
_chemical_formula_sum   'Dy7 Y17 Ru14'
_cell_volume   899.85058052
_cell_formula_units_Z   1
loop_
 _symmetry_equiv_pos_site_id
 _symmetry_equiv_pos_as_xyz
  1  'x, y, z'
loop_
 _atom_site_type_symbol
 _atom_site_label
 _atom_site_symmetry_multiplicity
 _atom_site_fract_x
 _atom_site_fract_y
 _atom_site_fract_z
 _atom_site_occupancy
  Dy  Dy0  1  0.801030  0.758961  0.823625  1
  Dy  Dy1  1  0.698807  0.758984  0.323255  1
  Dy  Dy2  1  0.199042  0.240766  0.176500  1
  Dy  Dy3  1  0.926239  0.282488  0.292783  1
  Dy  Dy4  1  0.426032  0.717641  0.207472  1
  Dy  Dy5  1  0.073836  0.718100  0.707091  1
  Dy  Dy6  1  0.574187  0.281604  0.793186  1
  Y  Y7  1  0.705298  0.242591  0.531744  1
  Y  Y8  1  0.205679  0.757123  0.968676  1
  Y  Y9  1  0.844778  0.507997  0.655371  1
  Y  Y10  1  0.345433  0.491926  0.844636  1
  Y  Y11  1  0.154213  0.492252  0.344362  1
  Y  Y12  1  0.654710  0.507385  0.156020  1
  Y  Y13  1  0.006399  0.854840  0.359183  1
  Y  Y14  1  0.506775  0.145530  0.140180  1
  Y  Y15  1  0.992801  0.146173  0.640447  1
  Y  Y16  1  0.493827  0.853761  0.860656  1
  Y  Y17  1  0.794417  0.242641  0.031720  1
  Y  Y18  1  0.294445  0.756441  0.468514  1
  Y  Y19  1  0.930873  0.778477  0.088230  1
  Y  Y20  1  0.431194  0.222309  0.410328  1
  Y  Y21  1  0.068700  0.222456  0.911008  1
  Y  Y22  1  0.568646  0.777800  0.589112  1
  Y  Y23  1  0.301087  0.240710  0.676134  1
  Ru  Ru24  1  0.500907  0.500414  0.499610  1
  Ru  Ru25  1  0.000152  0.500106  0.000043  1
  Ru  Ru26  1  0.645617  0.926070  0.034260  1
  Ru  Ru27  1  0.145763  0.072657  0.467133  1
  Ru  Ru28  1  0.354277  0.073368  0.967666  1
  Ru  Ru29  1  0.855014  0.927346  0.533665  1
  Ru  Ru30  1  0.396947  0.484176  0.103252  1
  Ru  Ru31  1  0.897193  0.516806  0.396134  1
  Ru  Ru32  1  0.603099  0.516041  0.896646  1
  Ru  Ru33  1  0.101116  0.485097  0.602448  1
  Ru  Ru34  1  0.814730  0.095626  0.850733  1
  Ru  Ru35  1  0.315688  0.904272  0.647785  1
  Ru  Ru36  1  0.184917  0.904690  0.148878  1
  Ru  Ru37  1  0.686134  0.094375  0.351511  1
