# generated using pymatgen
data_Ca20Zn7Cd3Ir2
_symmetry_space_group_name_H-M   'P 1'
_cell_length_a   8.04632690
_cell_length_b   8.04632726
_cell_length_c   14.78989600
_cell_angle_alpha   89.97296968
_cell_angle_beta   90.02703032
_cell_angle_gamma   90.09196286
_symmetry_Int_Tables_number   1
_chemical_formula_structural   Ca20Zn7Cd3Ir2
_chemical_formula_sum   'Ca20 Zn7 Cd3 Ir2'
_cell_volume   957.54640208
_cell_formula_units_Z   1
loop_
 _symmetry_equiv_pos_site_id
 _symmetry_equiv_pos_as_xyz
  1  'x, y, z'
loop_
 _atom_site_type_symbol
 _atom_site_label
 _atom_site_symmetry_multiplicity
 _atom_site_fract_x
 _atom_site_fract_y
 _atom_site_fract_z
 _atom_site_occupancy
  Ca  Ca0  1  0.672554  0.164878  0.106366  1
  Ca  Ca1  1  0.169073  0.667916  0.608477  1
  Ca  Ca2  1  0.316152  0.823887  0.110683  1
  Ca  Ca3  1  0.818818  0.320141  0.613278  1
  Ca  Ca4  1  0.847383  0.672954  0.108839  1
  Ca  Ca5  1  0.344546  0.170072  0.611377  1
  Ca  Ca6  1  0.166008  0.340213  0.108581  1
  Ca  Ca7  1  0.668889  0.843378  0.611173  1
  Ca  Ca8  1  0.823887  0.316152  0.889317  1
  Ca  Ca9  1  0.320141  0.818818  0.386722  1
  Ca  Ca10  1  0.164878  0.672554  0.893634  1
  Ca  Ca11  1  0.667916  0.169073  0.391523  1
  Ca  Ca12  1  0.672954  0.847383  0.891161  1
  Ca  Ca13  1  0.170072  0.344546  0.388623  1
  Ca  Ca14  1  0.340213  0.166008  0.891419  1
  Ca  Ca15  1  0.843378  0.668889  0.388827  1
  Ca  Ca16  1  0.505492  0.485766  0.753684  1
  Ca  Ca17  1  0.005335  0.986383  0.250232  1
  Ca  Ca18  1  0.986383  0.005335  0.749768  1
  Ca  Ca19  1  0.485766  0.505492  0.246316  1
  Zn  Zn20  1  0.885644  0.386646  0.248694  1
  Zn  Zn21  1  0.386646  0.885644  0.751306  1
  Zn  Zn22  1  0.880307  0.618197  0.751316  1
  Zn  Zn23  1  0.380876  0.119157  0.248541  1
  Zn  Zn24  1  0.119157  0.380876  0.751459  1
  Zn  Zn25  1  0.618197  0.880307  0.248684  1
  Zn  Zn26  1  0.001568  0.001568  0.000000  1
  Cd  Cd27  1  0.502934  0.502934  0.500000  1
  Cd  Cd28  1  0.502834  0.502834  0.000000  1
  Cd  Cd29  1  0.002830  0.002830  0.500000  1
  Ir  Ir30  1  0.614809  0.114360  0.751405  1
  Ir  Ir31  1  0.114360  0.614809  0.248595  1
