# generated using pymatgen
data_TiTe4Ir
_symmetry_space_group_name_H-M   'P 1'
_cell_length_a   3.86871800
_cell_length_b   12.61439700
_cell_length_c   13.21801100
_cell_angle_alpha   90.00000000
_cell_angle_beta   90.00000000
_cell_angle_gamma   90.00000000
_symmetry_Int_Tables_number   1
_chemical_formula_structural   TiTe4Ir
_chemical_formula_sum   'Ti4 Te16 Ir4'
_cell_volume   645.05935510
_cell_formula_units_Z   4
loop_
 _symmetry_equiv_pos_site_id
 _symmetry_equiv_pos_as_xyz
  1  'x, y, z'
loop_
 _atom_site_type_symbol
 _atom_site_label
 _atom_site_symmetry_multiplicity
 _atom_site_fract_x
 _atom_site_fract_y
 _atom_site_fract_z
 _atom_site_occupancy
  Ti  Ti0  1  0.000000  0.049859  0.002907  1
  Ti  Ti1  1  0.500000  0.950141  0.502907  1
  Ti  Ti2  1  0.000000  0.267288  0.492171  1
  Ti  Ti3  1  0.500000  0.732712  0.992171  1
  Te  Te4  1  0.500000  0.100049  0.141738  1
  Te  Te5  1  0.000000  0.899951  0.641738  1
  Te  Te6  1  0.500000  0.154903  0.608555  1
  Te  Te7  1  0.000000  0.845097  0.108555  1
  Te  Te8  1  0.500000  0.316327  0.352932  1
  Te  Te9  1  0.000000  0.683673  0.852932  1
  Te  Te10  1  0.500000  0.436719  0.895467  1
  Te  Te11  1  0.000000  0.563281  0.395467  1
  Te  Te12  1  0.000000  0.062834  0.390947  1
  Te  Te13  1  0.500000  0.937166  0.890947  1
  Te  Te14  1  0.000000  0.193946  0.857521  1
  Te  Te15  1  0.500000  0.806054  0.357521  1
  Te  Te16  1  0.000000  0.344503  0.095242  1
  Te  Te17  1  0.500000  0.655497  0.595242  1
  Te  Te18  1  0.000000  0.414590  0.634130  1
  Te  Te19  1  0.500000  0.585410  0.134130  1
  Ir  Ir20  1  0.000000  0.533975  0.999350  1
  Ir  Ir21  1  0.500000  0.466025  0.499350  1
  Ir  Ir22  1  0.000000  0.753326  0.492100  1
  Ir  Ir23  1  0.500000  0.246674  0.992100  1
