# generated using pymatgen
data_Er5Tm2Sn23Rh6
_symmetry_space_group_name_H-M   'P 1'
_cell_length_a   9.83726203
_cell_length_b   9.83722498
_cell_length_c   10.09118800
_cell_angle_alpha   89.99808150
_cell_angle_beta   90.00165039
_cell_angle_gamma   120.00891370
_symmetry_Int_Tables_number   1
_chemical_formula_structural   Er5Tm2Sn23Rh6
_chemical_formula_sum   'Er5 Tm2 Sn23 Rh6'
_cell_volume   845.63072986
_cell_formula_units_Z   1
loop_
 _symmetry_equiv_pos_site_id
 _symmetry_equiv_pos_as_xyz
  1  'x, y, z'
loop_
 _atom_site_type_symbol
 _atom_site_label
 _atom_site_symmetry_multiplicity
 _atom_site_fract_x
 _atom_site_fract_y
 _atom_site_fract_z
 _atom_site_occupancy
  Er  Er0  1  0.480022  0.960052  0.307535  1
  Er  Er1  1  0.519978  0.039948  0.692465  1
  Er  Er2  1  0.039949  0.519980  0.307534  1
  Er  Er3  1  0.960051  0.480020  0.692466  1
  Er  Er4  1  0.000000  0.000000  0.000000  1
  Tm  Tm5  1  0.480100  0.519899  0.307566  1
  Tm  Tm6  1  0.519900  0.480101  0.692434  1
  Sn  Sn7  1  0.120179  0.879819  0.281830  1
  Sn  Sn8  1  0.879821  0.120181  0.718170  1
  Sn  Sn9  1  0.120282  0.240443  0.281836  1
  Sn  Sn10  1  0.879718  0.759557  0.718164  1
  Sn  Sn11  1  0.759554  0.879717  0.281839  1
  Sn  Sn12  1  0.240446  0.120283  0.718161  1
  Sn  Sn13  1  0.777417  0.222580  0.456128  1
  Sn  Sn14  1  0.222583  0.777420  0.543872  1
  Sn  Sn15  1  0.777277  0.554828  0.456132  1
  Sn  Sn16  1  0.222723  0.445172  0.543868  1
  Sn  Sn17  1  0.445172  0.222719  0.456132  1
  Sn  Sn18  1  0.554828  0.777281  0.543868  1
  Sn  Sn19  1  0.351121  0.000016  0.000002  1
  Sn  Sn20  1  0.648879  0.999984  0.999998  1
  Sn  Sn21  1  0.000018  0.351126  0.999998  1
  Sn  Sn22  1  0.999982  0.648874  0.000002  1
  Sn  Sn23  1  0.648851  0.648850  0.999999  1
  Sn  Sn24  1  0.351149  0.351150  0.000001  1
  Sn  Sn25  1  0.333405  0.666596  0.124436  1
  Sn  Sn26  1  0.666595  0.333404  0.875564  1
  Sn  Sn27  1  0.333349  0.666648  0.821022  1
  Sn  Sn28  1  0.666651  0.333352  0.178978  1
  Sn  Sn29  1  0.000000  0.000000  0.500000  1
  Rh  Rh30  1  0.831232  0.168768  0.198574  1
  Rh  Rh31  1  0.168768  0.831232  0.801426  1
  Rh  Rh32  1  0.831128  0.662431  0.198610  1
  Rh  Rh33  1  0.168872  0.337569  0.801390  1
  Rh  Rh34  1  0.337571  0.168875  0.198611  1
  Rh  Rh35  1  0.662429  0.831125  0.801389  1
