# generated using pymatgen
data_Th(TeBr)2
_symmetry_space_group_name_H-M   'P 1'
_cell_length_a   7.96720611
_cell_length_b   7.96720560
_cell_length_c   7.80054170
_cell_angle_alpha   81.80152549
_cell_angle_beta   81.80153029
_cell_angle_gamma   124.19600696
_symmetry_Int_Tables_number   1
_chemical_formula_structural   Th(TeBr)2
_chemical_formula_sum   'Th2 Te4 Br4'
_cell_volume   390.06952036
_cell_formula_units_Z   2
loop_
 _symmetry_equiv_pos_site_id
 _symmetry_equiv_pos_as_xyz
  1  'x, y, z'
loop_
 _atom_site_type_symbol
 _atom_site_label
 _atom_site_symmetry_multiplicity
 _atom_site_fract_x
 _atom_site_fract_y
 _atom_site_fract_z
 _atom_site_occupancy
  Th  Th0  1  0.851531  0.148469  0.500000  1
  Th  Th1  1  0.148469  0.851531  0.500000  1
  Te  Te2  1  0.113586  0.113586  0.166046  1
  Te  Te3  1  0.886414  0.886414  0.833954  1
  Te  Te4  1  0.657797  0.657797  0.610656  1
  Te  Te5  1  0.342203  0.342203  0.389344  1
  Br  Br6  1  0.017661  0.447439  0.732097  1
  Br  Br7  1  0.552561  0.982339  0.267903  1
  Br  Br8  1  0.982339  0.552561  0.267903  1
  Br  Br9  1  0.447439  0.017661  0.732097  1
