# generated using pymatgen
data_Dy8Ho11ScSi15Os
_symmetry_space_group_name_H-M   'P 1'
_cell_length_a   7.30440546
_cell_length_b   7.72376334
_cell_length_c   14.49947900
_cell_angle_alpha   90.00000000
_cell_angle_beta   90.00000000
_cell_angle_gamma   90.15059284
_symmetry_Int_Tables_number   1
_chemical_formula_structural   Dy8Ho11ScSi15Os
_chemical_formula_sum   'Dy8 Ho11 Sc1 Si15 Os1'
_cell_volume   818.02151812
_cell_formula_units_Z   1
loop_
 _symmetry_equiv_pos_site_id
 _symmetry_equiv_pos_as_xyz
  1  'x, y, z'
loop_
 _atom_site_type_symbol
 _atom_site_label
 _atom_site_symmetry_multiplicity
 _atom_site_fract_x
 _atom_site_fract_y
 _atom_site_fract_z
 _atom_site_occupancy
  Dy  Dy0  1  0.019039  0.182647  0.097835  1
  Dy  Dy1  1  0.985515  0.826825  0.904799  1
  Dy  Dy2  1  0.483077  0.681170  0.905237  1
  Dy  Dy3  1  0.985515  0.826825  0.595201  1
  Dy  Dy4  1  0.515835  0.317041  0.097646  1
  Dy  Dy5  1  0.019039  0.182647  0.402165  1
  Dy  Dy6  1  0.515835  0.317041  0.402354  1
  Dy  Dy7  1  0.483077  0.681170  0.594763  1
  Ho  Ho8  1  0.155069  0.512053  0.750000  1
  Ho  Ho9  1  0.840682  0.486621  0.250000  1
  Ho  Ho10  1  0.666560  0.987988  0.750000  1
  Ho  Ho11  1  0.314773  0.174772  0.626130  1
  Ho  Ho12  1  0.675120  0.824226  0.374175  1
  Ho  Ho13  1  0.175678  0.681840  0.374667  1
  Ho  Ho14  1  0.675120  0.824226  0.125825  1
  Ho  Ho15  1  0.835530  0.314759  0.625593  1
  Ho  Ho16  1  0.314773  0.174772  0.873870  1
  Ho  Ho17  1  0.835530  0.314759  0.874407  1
  Ho  Ho18  1  0.175678  0.681840  0.125333  1
  Sc  Sc19  1  0.339810  0.016264  0.250000  1
  Si  Si20  1  0.975518  0.902618  0.250000  1
  Si  Si21  1  0.471329  0.602449  0.250000  1
  Si  Si22  1  0.529296  0.398162  0.750000  1
  Si  Si23  1  0.278105  0.865009  0.750000  1
  Si  Si24  1  0.713847  0.130518  0.250000  1
  Si  Si25  1  0.223165  0.363185  0.250000  1
  Si  Si26  1  0.768519  0.624490  0.750000  1
  Si  Si27  1  0.157490  0.472707  0.536408  1
  Si  Si28  1  0.846057  0.531708  0.461735  1
  Si  Si29  1  0.346475  0.971131  0.459105  1
  Si  Si30  1  0.846057  0.531708  0.038265  1
  Si  Si31  1  0.650546  0.030587  0.536778  1
  Si  Si32  1  0.157490  0.472707  0.963592  1
  Si  Si33  1  0.650546  0.030587  0.963222  1
  Si  Si34  1  0.346475  0.971131  0.040895  1
  Os  Os35  1  0.027829  0.091823  0.750000  1
