# generated using pymatgen
data_Dy3Ho(ReB6)2
_symmetry_space_group_name_H-M   'P 1'
_cell_length_a   3.68231400
_cell_length_b   9.17359202
_cell_length_c   11.55755203
_cell_angle_alpha   90.00823556
_cell_angle_beta   90.00000000
_cell_angle_gamma   90.00000000
_symmetry_Int_Tables_number   1
_chemical_formula_structural   Dy3Ho(ReB6)2
_chemical_formula_sum   'Dy6 Ho2 Re4 B24'
_cell_volume   390.41463910
_cell_formula_units_Z   2
loop_
 _symmetry_equiv_pos_site_id
 _symmetry_equiv_pos_as_xyz
  1  'x, y, z'
loop_
 _atom_site_type_symbol
 _atom_site_label
 _atom_site_symmetry_multiplicity
 _atom_site_fract_x
 _atom_site_fract_y
 _atom_site_fract_z
 _atom_site_occupancy
  Dy  Dy0  1  0.000000  0.323768  0.413799  1
  Dy  Dy1  1  0.000000  0.676232  0.586201  1
  Dy  Dy2  1  0.000000  0.823574  0.086109  1
  Dy  Dy3  1  0.000000  0.176426  0.913891  1
  Dy  Dy4  1  0.000000  0.943196  0.369958  1
  Dy  Dy5  1  0.000000  0.056804  0.630042  1
  Ho  Ho6  1  0.000000  0.443223  0.129876  1
  Ho  Ho7  1  0.000000  0.556777  0.870124  1
  Re  Re8  1  0.000000  0.638561  0.320702  1
  Re  Re9  1  0.000000  0.361439  0.679298  1
  Re  Re10  1  0.000000  0.138988  0.179010  1
  Re  Re11  1  0.000000  0.861012  0.820990  1
  B  B12  1  0.500000  0.553225  0.432808  1
  B  B13  1  0.500000  0.446775  0.567192  1
  B  B14  1  0.500000  0.053439  0.067071  1
  B  B15  1  0.500000  0.946561  0.932929  1
  B  B16  1  0.500000  0.748802  0.418510  1
  B  B17  1  0.500000  0.251198  0.581490  1
  B  B18  1  0.500000  0.249387  0.081387  1
  B  B19  1  0.500000  0.750613  0.918613  1
  B  B20  1  0.500000  0.791892  0.265476  1
  B  B21  1  0.500000  0.208108  0.734524  1
  B  B22  1  0.500000  0.292437  0.234295  1
  B  B23  1  0.500000  0.707563  0.765705  1
  B  B24  1  0.500000  0.630712  0.185517  1
  B  B25  1  0.500000  0.369288  0.814483  1
  B  B26  1  0.500000  0.131222  0.314143  1
  B  B27  1  0.500000  0.868778  0.685857  1
  B  B28  1  0.500000  0.982696  0.211796  1
  B  B29  1  0.500000  0.017304  0.788204  1
  B  B30  1  0.500000  0.482386  0.287869  1
  B  B31  1  0.500000  0.517614  0.712131  1
  B  B32  1  0.500000  0.599704  0.027911  1
  B  B33  1  0.500000  0.400296  0.972089  1
  B  B34  1  0.500000  0.100472  0.471914  1
  B  B35  1  0.500000  0.899528  0.528086  1
