# generated using pymatgen
data_Nd4ZnGa23Pd2
_symmetry_space_group_name_H-M   'P 1'
_cell_length_a   6.15505835
_cell_length_b   6.15505835
_cell_length_c   15.53274111
_cell_angle_alpha   89.99030526
_cell_angle_beta   89.99030526
_cell_angle_gamma   89.78012725
_symmetry_Int_Tables_number   1
_chemical_formula_structural   Nd4ZnGa23Pd2
_chemical_formula_sum   'Nd4 Zn1 Ga23 Pd2'
_cell_volume   588.44956034
_cell_formula_units_Z   1
loop_
 _symmetry_equiv_pos_site_id
 _symmetry_equiv_pos_as_xyz
  1  'x, y, z'
loop_
 _atom_site_type_symbol
 _atom_site_label
 _atom_site_symmetry_multiplicity
 _atom_site_fract_x
 _atom_site_fract_y
 _atom_site_fract_z
 _atom_site_occupancy
  Nd  Nd0  1  0.750363  0.250363  0.246339  1
  Nd  Nd1  1  0.250032  0.750032  0.245855  1
  Nd  Nd2  1  0.248701  0.748701  0.754026  1
  Nd  Nd3  1  0.751340  0.251340  0.754288  1
  Zn  Zn4  1  0.499881  0.999881  0.909940  1
  Ga  Ga5  1  0.251902  0.248131  0.187387  1
  Ga  Ga6  1  0.748131  0.751902  0.187387  1
  Ga  Ga7  1  0.745592  0.754767  0.813736  1
  Ga  Ga8  1  0.254767  0.245592  0.813736  1
  Ga  Ga9  1  0.250236  0.249469  0.346108  1
  Ga  Ga10  1  0.749469  0.750236  0.346108  1
  Ga  Ga11  1  0.750249  0.749613  0.654545  1
  Ga  Ga12  1  0.249613  0.250249  0.654545  1
  Ga  Ga13  1  0.999960  0.000256  0.911199  1
  Ga  Ga14  1  0.500256  0.499960  0.911199  1
  Ga  Ga15  1  0.999840  0.499840  0.909572  1
  Ga  Ga16  1  0.499849  0.999849  0.085823  1
  Ga  Ga17  1  0.000086  0.999893  0.088722  1
  Ga  Ga18  1  0.499893  0.500086  0.088722  1
  Ga  Ga19  1  0.999669  0.499669  0.090536  1
  Ga  Ga20  1  0.583230  0.083230  0.431407  1
  Ga  Ga21  1  0.083606  0.916410  0.431320  1
  Ga  Ga22  1  0.416410  0.583606  0.431320  1
  Ga  Ga23  1  0.917146  0.417146  0.431170  1
  Ga  Ga24  1  0.419387  0.919387  0.568353  1
  Ga  Ga25  1  0.919711  0.079851  0.568179  1
  Ga  Ga26  1  0.579851  0.419711  0.568179  1
  Ga  Ga27  1  0.081171  0.581171  0.568032  1
  Pd  Pd28  1  0.753925  0.253925  0.001230  1
  Pd  Pd29  1  0.245733  0.745733  0.001034  1
