# generated using pymatgen
data_Sc8Ti8NbSi16Mo3
_symmetry_space_group_name_H-M   'P 1'
_cell_length_a   6.64238667
_cell_length_b   6.79920487
_cell_length_c   13.00795500
_cell_angle_alpha   90.00000000
_cell_angle_beta   90.00000000
_cell_angle_gamma   90.00183579
_symmetry_Int_Tables_number   1
_chemical_formula_structural   Sc8Ti8NbSi16Mo3
_chemical_formula_sum   'Sc8 Ti8 Nb1 Si16 Mo3'
_cell_volume   587.47759178
_cell_formula_units_Z   1
loop_
 _symmetry_equiv_pos_site_id
 _symmetry_equiv_pos_as_xyz
  1  'x, y, z'
loop_
 _atom_site_type_symbol
 _atom_site_label
 _atom_site_symmetry_multiplicity
 _atom_site_fract_x
 _atom_site_fract_y
 _atom_site_fract_z
 _atom_site_occupancy
  Sc  Sc0  1  0.501915  0.325016  0.096206  1
  Sc  Sc1  1  0.001793  0.175483  0.403849  1
  Sc  Sc2  1  0.497549  0.674531  0.595281  1
  Sc  Sc3  1  0.997580  0.824731  0.904725  1
  Sc  Sc4  1  0.497549  0.674531  0.904719  1
  Sc  Sc5  1  0.997580  0.824731  0.595275  1
  Sc  Sc6  1  0.501915  0.325016  0.403794  1
  Sc  Sc7  1  0.001793  0.175483  0.096151  1
  Ti  Ti8  1  0.834268  0.327751  0.626194  1
  Ti  Ti9  1  0.333776  0.173323  0.873957  1
  Ti  Ti10  1  0.167208  0.672345  0.126666  1
  Ti  Ti11  1  0.666616  0.827758  0.373003  1
  Ti  Ti12  1  0.167208  0.672345  0.373334  1
  Ti  Ti13  1  0.666616  0.827758  0.126997  1
  Ti  Ti14  1  0.834268  0.327751  0.873806  1
  Ti  Ti15  1  0.333776  0.173323  0.626043  1
  Nb  Nb16  1  0.660369  0.007478  0.750000  1
  Si  Si17  1  0.664648  0.036007  0.538915  1
  Si  Si18  1  0.164451  0.464057  0.959506  1
  Si  Si19  1  0.335138  0.964428  0.041149  1
  Si  Si20  1  0.834887  0.536261  0.459113  1
  Si  Si21  1  0.335138  0.964428  0.458851  1
  Si  Si22  1  0.834887  0.536261  0.040887  1
  Si  Si23  1  0.664648  0.036007  0.961085  1
  Si  Si24  1  0.164451  0.464057  0.540494  1
  Si  Si25  1  0.533704  0.385874  0.750000  1
  Si  Si26  1  0.037815  0.117422  0.750000  1
  Si  Si27  1  0.466018  0.614872  0.250000  1
  Si  Si28  1  0.966053  0.884443  0.250000  1
  Si  Si29  1  0.794819  0.634894  0.750000  1
  Si  Si30  1  0.290850  0.860701  0.750000  1
  Si  Si31  1  0.205390  0.362022  0.250000  1
  Si  Si32  1  0.705513  0.137806  0.250000  1
  Mo  Mo33  1  0.159358  0.491659  0.750000  1
  Mo  Mo34  1  0.340062  0.990872  0.250000  1
  Mo  Mo35  1  0.840391  0.508576  0.250000  1
