# generated using pymatgen
data_VF31
_symmetry_space_group_name_H-M   'P 1'
_cell_length_a   9.28721241
_cell_length_b   9.28721316
_cell_length_c   7.18249677
_cell_angle_alpha   93.40192021
_cell_angle_beta   86.59808413
_cell_angle_gamma   95.86959555
_symmetry_Int_Tables_number   1
_chemical_formula_structural   VF31
_chemical_formula_sum   'V1 F31'
_cell_volume   614.28727386
_cell_formula_units_Z   1
loop_
 _symmetry_equiv_pos_site_id
 _symmetry_equiv_pos_as_xyz
  1  'x, y, z'
loop_
 _atom_site_type_symbol
 _atom_site_label
 _atom_site_symmetry_multiplicity
 _atom_site_fract_x
 _atom_site_fract_y
 _atom_site_fract_z
 _atom_site_occupancy
  V  V0  1  0.863138  0.136862  0.009374  1
  F  F1  1  0.075246  0.924754  0.673380  1
  F  F2  1  0.295396  0.273716  0.217629  1
  F  F3  1  0.293981  0.275337  0.697346  1
  F  F4  1  0.353337  0.646663  0.033487  1
  F  F5  1  0.653898  0.346102  0.581797  1
  F  F6  1  0.726284  0.704604  0.217629  1
  F  F7  1  0.724663  0.706019  0.697346  1
  F  F8  1  0.048749  0.146652  0.059172  1
  F  F9  1  0.139031  0.070989  0.497313  1
  F  F10  1  0.080809  0.402587  0.403264  1
  F  F11  1  0.380974  0.064515  0.879098  1
  F  F12  1  0.317958  0.403475  0.815586  1
  F  F13  1  0.433250  0.332114  0.280003  1
  F  F14  1  0.062673  0.587969  0.965121  1
  F  F15  1  0.553758  0.053362  0.483428  1
  F  F16  1  0.641097  0.358903  0.780576  1
  F  F17  1  0.344442  0.655558  0.232366  1
  F  F18  1  0.946638  0.446242  0.483428  1
  F  F19  1  0.412031  0.937327  0.965121  1
  F  F20  1  0.667886  0.566750  0.280003  1
  F  F21  1  0.596525  0.682042  0.815586  1
  F  F22  1  0.935485  0.619026  0.879098  1
  F  F23  1  0.597413  0.919191  0.403264  1
  F  F24  1  0.853348  0.951251  0.059172  1
  F  F25  1  0.929011  0.860969  0.497313  1
  F  F26  1  0.234226  0.651247  0.601351  1
  F  F27  1  0.677970  0.128357  0.086271  1
  F  F28  1  0.862766  0.137234  0.769169  1
  F  F29  1  0.077621  0.922379  0.311411  1
  F  F30  1  0.871643  0.322030  0.086271  1
  F  F31  1  0.348753  0.765774  0.601351  1
