# generated using pymatgen
data_Tb6CeAu10
_symmetry_space_group_name_H-M   'P 1'
_cell_length_a   8.78511457
_cell_length_b   8.78511450
_cell_length_c   10.48388785
_cell_angle_alpha   90.05862110
_cell_angle_beta   90.05862541
_cell_angle_gamma   107.47368874
_symmetry_Int_Tables_number   1
_chemical_formula_structural   Tb6CeAu10
_chemical_formula_sum   'Tb12 Ce2 Au20'
_cell_volume   771.78957108
_cell_formula_units_Z   2
loop_
 _symmetry_equiv_pos_site_id
 _symmetry_equiv_pos_as_xyz
  1  'x, y, z'
loop_
 _atom_site_type_symbol
 _atom_site_label
 _atom_site_symmetry_multiplicity
 _atom_site_fract_x
 _atom_site_fract_y
 _atom_site_fract_z
 _atom_site_occupancy
  Tb  Tb0  1  0.807839  0.192161  0.500000  1
  Tb  Tb1  1  0.192161  0.807839  0.500000  1
  Tb  Tb2  1  0.000000  0.000000  0.000000  1
  Tb  Tb3  1  0.500000  0.500000  0.500000  1
  Tb  Tb4  1  0.003425  0.502275  0.251660  1
  Tb  Tb5  1  0.996575  0.497725  0.748340  1
  Tb  Tb6  1  0.497725  0.996575  0.748340  1
  Tb  Tb7  1  0.502275  0.003425  0.251660  1
  Tb  Tb8  1  0.310231  0.310231  0.189980  1
  Tb  Tb9  1  0.689769  0.689769  0.810020  1
  Tb  Tb10  1  0.188207  0.188207  0.687126  1
  Tb  Tb11  1  0.811793  0.811793  0.312874  1
  Ce  Ce12  1  0.694111  0.305889  0.000000  1
  Ce  Ce13  1  0.305889  0.694111  0.000000  1
  Au  Au14  1  0.861184  0.147449  0.210444  1
  Au  Au15  1  0.138816  0.852551  0.789556  1
  Au  Au16  1  0.639558  0.350641  0.707622  1
  Au  Au17  1  0.649359  0.360442  0.292378  1
  Au  Au18  1  0.360442  0.649359  0.292378  1
  Au  Au19  1  0.350641  0.639558  0.707622  1
  Au  Au20  1  0.852551  0.138816  0.789556  1
  Au  Au21  1  0.147449  0.861184  0.210444  1
  Au  Au22  1  0.937888  0.646172  0.001654  1
  Au  Au23  1  0.062112  0.353828  0.998346  1
  Au  Au24  1  0.562023  0.854468  0.502305  1
  Au  Au25  1  0.145532  0.437977  0.497695  1
  Au  Au26  1  0.437977  0.145532  0.497695  1
  Au  Au27  1  0.854468  0.562023  0.502305  1
  Au  Au28  1  0.353828  0.062112  0.998346  1
  Au  Au29  1  0.646172  0.937888  0.001654  1
  Au  Au30  1  0.105275  0.105275  0.399682  1
  Au  Au31  1  0.894725  0.894725  0.600318  1
  Au  Au32  1  0.394699  0.394699  0.897408  1
  Au  Au33  1  0.605301  0.605301  0.102592  1
