# generated using pymatgen
data_LiAc2(ErSi2)2
_symmetry_space_group_name_H-M   'P 1'
_cell_length_a   7.41390000
_cell_length_b   7.95295000
_cell_length_c   15.20410300
_cell_angle_alpha   90.00000000
_cell_angle_beta   90.00000000
_cell_angle_gamma   90.00000000
_symmetry_Int_Tables_number   1
_chemical_formula_structural   LiAc2(ErSi2)2
_chemical_formula_sum   'Li4 Ac8 Er8 Si16'
_cell_volume   896.47003790
_cell_formula_units_Z   4
loop_
 _symmetry_equiv_pos_site_id
 _symmetry_equiv_pos_as_xyz
  1  'x, y, z'
loop_
 _atom_site_type_symbol
 _atom_site_label
 _atom_site_symmetry_multiplicity
 _atom_site_fract_x
 _atom_site_fract_y
 _atom_site_fract_z
 _atom_site_occupancy
  Li  Li0  1  0.650403  0.007957  0.750000  1
  Li  Li1  1  0.849597  0.507957  0.250000  1
  Li  Li2  1  0.349597  0.992043  0.250000  1
  Li  Li3  1  0.150403  0.492043  0.750000  1
  Ac  Ac4  1  0.019502  0.180585  0.394856  1
  Ac  Ac5  1  0.519502  0.319415  0.394856  1
  Ac  Ac6  1  0.480498  0.680585  0.894856  1
  Ac  Ac7  1  0.480498  0.680585  0.605144  1
  Ac  Ac8  1  0.980498  0.819415  0.605144  1
  Ac  Ac9  1  0.980498  0.819415  0.894856  1
  Ac  Ac10  1  0.519502  0.319415  0.105144  1
  Ac  Ac11  1  0.019502  0.180585  0.105144  1
  Er  Er12  1  0.329536  0.184406  0.624400  1
  Er  Er13  1  0.670464  0.815594  0.375600  1
  Er  Er14  1  0.170464  0.684406  0.375600  1
  Er  Er15  1  0.829536  0.315594  0.875600  1
  Er  Er16  1  0.829536  0.315594  0.624400  1
  Er  Er17  1  0.329536  0.184406  0.875600  1
  Er  Er18  1  0.170464  0.684406  0.124400  1
  Er  Er19  1  0.670464  0.815594  0.124400  1
  Si  Si20  1  0.280084  0.908363  0.750000  1
  Si  Si21  1  0.462454  0.617336  0.250000  1
  Si  Si22  1  0.037546  0.117336  0.750000  1
  Si  Si23  1  0.537546  0.382664  0.750000  1
  Si  Si24  1  0.146411  0.463186  0.533572  1
  Si  Si25  1  0.962454  0.882664  0.250000  1
  Si  Si26  1  0.719916  0.091637  0.250000  1
  Si  Si27  1  0.853589  0.536814  0.033572  1
  Si  Si28  1  0.353589  0.963186  0.033572  1
  Si  Si29  1  0.146411  0.463186  0.966428  1
  Si  Si30  1  0.646411  0.036814  0.533572  1
  Si  Si31  1  0.353589  0.963186  0.466428  1
  Si  Si32  1  0.853589  0.536814  0.466428  1
  Si  Si33  1  0.780084  0.591637  0.750000  1
  Si  Si34  1  0.219916  0.408363  0.250000  1
  Si  Si35  1  0.646411  0.036814  0.966428  1
