# generated using pymatgen
data_LiNd5Th3Zn7Rh8
_symmetry_space_group_name_H-M   'P 1'
_cell_length_a   3.94155400
_cell_length_b   7.50568151
_cell_length_c   16.55170731
_cell_angle_alpha   90.30016438
_cell_angle_beta   90.00000000
_cell_angle_gamma   90.00000000
_symmetry_Int_Tables_number   1
_chemical_formula_structural   LiNd5Th3Zn7Rh8
_chemical_formula_sum   'Li1 Nd5 Th3 Zn7 Rh8'
_cell_volume   489.65980043
_cell_formula_units_Z   1
loop_
 _symmetry_equiv_pos_site_id
 _symmetry_equiv_pos_as_xyz
  1  'x, y, z'
loop_
 _atom_site_type_symbol
 _atom_site_label
 _atom_site_symmetry_multiplicity
 _atom_site_fract_x
 _atom_site_fract_y
 _atom_site_fract_z
 _atom_site_occupancy
  Li  Li0  1  0.750000  0.009646  0.559509  1
  Nd  Nd1  1  0.750000  0.946013  0.284318  1
  Nd  Nd2  1  0.750000  0.828747  0.061431  1
  Nd  Nd3  1  0.750000  0.448336  0.213979  1
  Nd  Nd4  1  0.250000  0.054654  0.716092  1
  Nd  Nd5  1  0.250000  0.553524  0.785500  1
  Th  Th6  1  0.250000  0.172365  0.940232  1
  Th  Th7  1  0.250000  0.672235  0.561255  1
  Th  Th8  1  0.750000  0.324946  0.438721  1
  Zn  Zn9  1  0.250000  0.619884  0.346056  1
  Zn  Zn10  1  0.750000  0.378159  0.653497  1
  Zn  Zn11  1  0.250000  0.502705  0.059552  1
  Zn  Zn12  1  0.750000  0.509860  0.940184  1
  Zn  Zn13  1  0.250000  0.992154  0.440489  1
  Zn  Zn14  1  0.250000  0.117518  0.152294  1
  Zn  Zn15  1  0.750000  0.880867  0.845819  1
  Rh  Rh16  1  0.750000  0.736862  0.442492  1
  Rh  Rh17  1  0.250000  0.249176  0.319556  1
  Rh  Rh18  1  0.750000  0.246888  0.820452  1
  Rh  Rh19  1  0.750000  0.745045  0.680423  1
  Rh  Rh20  1  0.250000  0.264399  0.557814  1
  Rh  Rh21  1  0.250000  0.743944  0.187545  1
  Rh  Rh22  1  0.750000  0.248311  0.058880  1
  Rh  Rh23  1  0.250000  0.753762  0.933909  1
