# generated using pymatgen
data_La6IrOsI6
_symmetry_space_group_name_H-M   'P 1'
_cell_length_a   4.42811800
_cell_length_b   9.60358269
_cell_length_c   12.66258925
_cell_angle_alpha   86.85076143
_cell_angle_beta   90.00000000
_cell_angle_gamma   90.00000000
_symmetry_Int_Tables_number   1
_chemical_formula_structural   La6IrOsI6
_chemical_formula_sum   'La6 Ir1 Os1 I6'
_cell_volume   537.67349698
_cell_formula_units_Z   1
loop_
 _symmetry_equiv_pos_site_id
 _symmetry_equiv_pos_as_xyz
  1  'x, y, z'
loop_
 _atom_site_type_symbol
 _atom_site_label
 _atom_site_symmetry_multiplicity
 _atom_site_fract_x
 _atom_site_fract_y
 _atom_site_fract_z
 _atom_site_occupancy
  La  La0  1  0.250000  0.314847  0.879341  1
  La  La1  1  0.750000  0.686505  0.119586  1
  La  La2  1  0.750000  0.116904  0.667360  1
  La  La3  1  0.250000  0.884009  0.336846  1
  La  La4  1  0.750000  0.093872  0.102196  1
  La  La5  1  0.250000  0.908775  0.895655  1
  Ir  Ir6  1  0.250000  0.883450  0.123170  1
  Os  Os7  1  0.750000  0.115555  0.875029  1
  I  I8  1  0.750000  0.132396  0.380921  1
  I  I9  1  0.250000  0.867674  0.618954  1
  I  I10  1  0.250000  0.366359  0.620919  1
  I  I11  1  0.750000  0.631638  0.379622  1
  I  I12  1  0.750000  0.606650  0.865464  1
  I  I13  1  0.250000  0.391363  0.134939  1
