# generated using pymatgen
data_Pr2GdY3Ta2O14
_symmetry_space_group_name_H-M   'P 1'
_cell_length_a   6.54946807
_cell_length_b   6.53513006
_cell_length_c   7.65047000
_cell_angle_alpha   90.00000000
_cell_angle_beta   90.00000000
_cell_angle_gamma   109.44119137
_symmetry_Int_Tables_number   1
_chemical_formula_structural   Pr2GdY3Ta2O14
_chemical_formula_sum   'Pr2 Gd1 Y3 Ta2 O14'
_cell_volume   308.78239225
_cell_formula_units_Z   1
loop_
 _symmetry_equiv_pos_site_id
 _symmetry_equiv_pos_as_xyz
  1  'x, y, z'
loop_
 _atom_site_type_symbol
 _atom_site_label
 _atom_site_symmetry_multiplicity
 _atom_site_fract_x
 _atom_site_fract_y
 _atom_site_fract_z
 _atom_site_occupancy
  Pr  Pr0  1  0.499200  0.499027  0.499179  1
  Pr  Pr1  1  0.499200  0.499027  0.000821  1
  Gd  Gd2  1  0.532414  0.000461  0.750000  1
  Y  Y3  1  0.000557  0.532676  0.250000  1
  Y  Y4  1  0.466499  0.999704  0.250000  1
  Y  Y5  1  0.999331  0.467358  0.750000  1
  Ta  Ta6  1  0.999511  0.999959  0.499396  1
  Ta  Ta7  1  0.999511  0.999959  0.000604  1
  O  O8  1  0.682353  0.931355  0.465969  1
  O  O9  1  0.932547  0.681517  0.531799  1
  O  O10  1  0.682353  0.931355  0.034031  1
  O  O11  1  0.932547  0.681517  0.968201  1
  O  O12  1  0.319912  0.070414  0.528730  1
  O  O13  1  0.067234  0.319036  0.468208  1
  O  O14  1  0.319912  0.070414  0.971270  1
  O  O15  1  0.067234  0.319036  0.031792  1
  O  O16  1  0.940405  0.061730  0.750000  1
  O  O17  1  0.061675  0.937292  0.250000  1
  O  O18  1  0.361057  0.632399  0.750000  1
  O  O19  1  0.637471  0.363388  0.250000  1
  O  O20  1  0.643293  0.359113  0.750000  1
  O  O21  1  0.355784  0.643260  0.250000  1
