# generated using pymatgen
data_U2TaCo9
_symmetry_space_group_name_H-M   'P 1'
_cell_length_a   5.24447534
_cell_length_b   5.24447516
_cell_length_c   7.09597052
_cell_angle_alpha   68.31280794
_cell_angle_beta   111.68719054
_cell_angle_gamma   120.00000625
_symmetry_Int_Tables_number   1
_chemical_formula_structural   U2TaCo9
_chemical_formula_sum   'U2 Ta1 Co9'
_cell_volume   152.86294529
_cell_formula_units_Z   1
loop_
 _symmetry_equiv_pos_site_id
 _symmetry_equiv_pos_as_xyz
  1  'x, y, z'
loop_
 _atom_site_type_symbol
 _atom_site_label
 _atom_site_symmetry_multiplicity
 _atom_site_fract_x
 _atom_site_fract_y
 _atom_site_fract_z
 _atom_site_occupancy
  U  U0  1  0.998037  0.001963  0.994112  1
  U  U1  1  0.781078  0.218921  0.343238  1
  Ta  Ta2  1  0.220676  0.779325  0.662027  1
  Co  Co3  1  0.499187  0.999513  0.998862  1
  Co  Co4  1  0.000487  0.500812  0.998862  1
  Co  Co5  1  0.499187  0.500814  0.998862  1
  Co  Co6  1  0.763456  0.715511  0.332434  1
  Co  Co7  1  0.284487  0.236544  0.332434  1
  Co  Co8  1  0.284487  0.715511  0.332434  1
  Co  Co9  1  0.714620  0.285381  0.668912  1
  Co  Co10  1  0.714620  0.760328  0.668912  1
  Co  Co11  1  0.239672  0.285379  0.668912  1
