# generated using pymatgen
data_LaDy5(MoO7)2
_symmetry_space_group_name_H-M   'P 1'
_cell_length_a   6.47985531
_cell_length_b   6.47985546
_cell_length_c   7.57174448
_cell_angle_alpha   90.05464781
_cell_angle_beta   89.94535286
_cell_angle_gamma   109.03034506
_symmetry_Int_Tables_number   1
_chemical_formula_structural   LaDy5(MoO7)2
_chemical_formula_sum   'La1 Dy5 Mo2 O14'
_cell_volume   300.55023827
_cell_formula_units_Z   1
loop_
 _symmetry_equiv_pos_site_id
 _symmetry_equiv_pos_as_xyz
  1  'x, y, z'
loop_
 _atom_site_type_symbol
 _atom_site_label
 _atom_site_symmetry_multiplicity
 _atom_site_fract_x
 _atom_site_fract_y
 _atom_site_fract_z
 _atom_site_occupancy
  La  La0  1  0.500000  0.500000  0.000000  1
  Dy  Dy1  1  0.500000  0.500000  0.500000  1
  Dy  Dy2  1  0.535116  0.000954  0.746364  1
  Dy  Dy3  1  0.000954  0.535116  0.253636  1
  Dy  Dy4  1  0.464884  0.999046  0.253636  1
  Dy  Dy5  1  0.999046  0.464884  0.746364  1
  Mo  Mo6  1  0.000000  0.000000  0.500000  1
  Mo  Mo7  1  0.000000  0.000000  0.000000  1
  O  O8  1  0.679296  0.926455  0.470250  1
  O  O9  1  0.926455  0.679296  0.529750  1
  O  O10  1  0.679102  0.930466  0.030447  1
  O  O11  1  0.930466  0.679102  0.969553  1
  O  O12  1  0.320704  0.073545  0.529750  1
  O  O13  1  0.073545  0.320704  0.470250  1
  O  O14  1  0.320898  0.069534  0.969553  1
  O  O15  1  0.069534  0.320898  0.030447  1
  O  O16  1  0.928199  0.071801  0.750020  1
  O  O17  1  0.071801  0.928199  0.249980  1
  O  O18  1  0.365656  0.634344  0.738734  1
  O  O19  1  0.634344  0.365656  0.261266  1
  O  O20  1  0.639086  0.360914  0.739985  1
  O  O21  1  0.360914  0.639086  0.260015  1
