# generated using pymatgen
data_Eu20(AgAu3)3
_symmetry_space_group_name_H-M   'P 1'
_cell_length_a   8.27202100
_cell_length_b   8.27202100
_cell_length_c   14.92073500
_cell_angle_alpha   90.00000000
_cell_angle_beta   90.00000000
_cell_angle_gamma   90.00000000
_symmetry_Int_Tables_number   1
_chemical_formula_structural   Eu20(AgAu3)3
_chemical_formula_sum   'Eu20 Ag3 Au9'
_cell_volume   1020.97115821
_cell_formula_units_Z   1
loop_
 _symmetry_equiv_pos_site_id
 _symmetry_equiv_pos_as_xyz
  1  'x, y, z'
loop_
 _atom_site_type_symbol
 _atom_site_label
 _atom_site_symmetry_multiplicity
 _atom_site_fract_x
 _atom_site_fract_y
 _atom_site_fract_z
 _atom_site_occupancy
  Eu  Eu0  1  0.000000  0.000000  0.754530  1
  Eu  Eu1  1  0.500000  0.500000  0.249551  1
  Eu  Eu2  1  0.000000  0.000000  0.245470  1
  Eu  Eu3  1  0.500000  0.500000  0.750449  1
  Eu  Eu4  1  0.169808  0.660732  0.107257  1
  Eu  Eu5  1  0.665307  0.164947  0.609943  1
  Eu  Eu6  1  0.830192  0.339268  0.107257  1
  Eu  Eu7  1  0.334693  0.835053  0.609943  1
  Eu  Eu8  1  0.339268  0.169808  0.107257  1
  Eu  Eu9  1  0.835053  0.665307  0.609943  1
  Eu  Eu10  1  0.660732  0.830192  0.107257  1
  Eu  Eu11  1  0.164947  0.334693  0.609943  1
  Eu  Eu12  1  0.339268  0.830192  0.892743  1
  Eu  Eu13  1  0.835053  0.334693  0.390057  1
  Eu  Eu14  1  0.660732  0.169808  0.892743  1
  Eu  Eu15  1  0.164947  0.665307  0.390057  1
  Eu  Eu16  1  0.169808  0.339268  0.892743  1
  Eu  Eu17  1  0.665307  0.835053  0.390057  1
  Eu  Eu18  1  0.830192  0.660732  0.892743  1
  Eu  Eu19  1  0.334693  0.164947  0.390057  1
  Ag  Ag20  1  0.000000  0.000000  0.500000  1
  Ag  Ag21  1  0.000000  0.000000  0.000000  1
  Ag  Ag22  1  0.500000  0.500000  0.500000  1
  Au  Au23  1  0.632250  0.131541  0.248732  1
  Au  Au24  1  0.131541  0.632250  0.751268  1
  Au  Au25  1  0.868459  0.367750  0.751268  1
  Au  Au26  1  0.367750  0.868459  0.248732  1
  Au  Au27  1  0.367750  0.131541  0.751268  1
  Au  Au28  1  0.868459  0.632250  0.248732  1
  Au  Au29  1  0.131541  0.367750  0.248732  1
  Au  Au30  1  0.632250  0.868459  0.751268  1
  Au  Au31  1  0.500000  0.500000  0.000000  1
