# generated using pymatgen
data_TbYb6Y3Sn8
_symmetry_space_group_name_H-M   'P 1'
_cell_length_a   7.85399200
_cell_length_b   8.43471915
_cell_length_c   16.06985829
_cell_angle_alpha   90.02159383
_cell_angle_beta   90.00000000
_cell_angle_gamma   90.00000000
_symmetry_Int_Tables_number   1
_chemical_formula_structural   TbYb6Y3Sn8
_chemical_formula_sum   'Tb2 Yb12 Y6 Sn16'
_cell_volume   1064.56723909
_cell_formula_units_Z   2
loop_
 _symmetry_equiv_pos_site_id
 _symmetry_equiv_pos_as_xyz
  1  'x, y, z'
loop_
 _atom_site_type_symbol
 _atom_site_label
 _atom_site_symmetry_multiplicity
 _atom_site_fract_x
 _atom_site_fract_y
 _atom_site_fract_z
 _atom_site_occupancy
  Tb  Tb0  1  0.670062  0.167329  0.877840  1
  Tb  Tb1  1  0.170062  0.332671  0.622160  1
  Yb  Yb2  1  0.502434  0.687467  0.593209  1
  Yb  Yb3  1  0.002434  0.812533  0.906791  1
  Yb  Yb4  1  0.497562  0.312553  0.093274  1
  Yb  Yb5  1  0.997562  0.187447  0.406726  1
  Yb  Yb6  1  0.497630  0.312506  0.406750  1
  Yb  Yb7  1  0.997630  0.187494  0.093250  1
  Yb  Yb8  1  0.502320  0.687426  0.906739  1
  Yb  Yb9  1  0.002320  0.812574  0.593261  1
  Yb  Yb10  1  0.832493  0.511357  0.749969  1
  Yb  Yb11  1  0.332493  0.988643  0.750031  1
  Yb  Yb12  1  0.167539  0.488701  0.249966  1
  Yb  Yb13  1  0.667539  0.011299  0.250034  1
  Y  Y14  1  0.670489  0.167034  0.622071  1
  Y  Y15  1  0.170489  0.332966  0.877929  1
  Y  Y16  1  0.329658  0.832855  0.122247  1
  Y  Y17  1  0.829658  0.667145  0.377753  1
  Y  Y18  1  0.329706  0.832780  0.377728  1
  Y  Y19  1  0.829706  0.667220  0.122272  1
  Sn  Sn20  1  0.671802  0.964960  0.459646  1
  Sn  Sn21  1  0.171802  0.535040  0.040354  1
  Sn  Sn22  1  0.327870  0.034858  0.959727  1
  Sn  Sn23  1  0.827870  0.465142  0.540273  1
  Sn  Sn24  1  0.328583  0.035003  0.540332  1
  Sn  Sn25  1  0.828583  0.464997  0.959668  1
  Sn  Sn26  1  0.671748  0.964855  0.040511  1
  Sn  Sn27  1  0.171748  0.535145  0.459489  1
  Sn  Sn28  1  0.467906  0.376745  0.750242  1
  Sn  Sn29  1  0.967906  0.123255  0.749758  1
  Sn  Sn30  1  0.532118  0.623409  0.250009  1
  Sn  Sn31  1  0.032118  0.876591  0.249991  1
  Sn  Sn32  1  0.713263  0.872256  0.749984  1
  Sn  Sn33  1  0.213263  0.627744  0.750016  1
  Sn  Sn34  1  0.286816  0.127732  0.250005  1
  Sn  Sn35  1  0.786816  0.372268  0.249995  1
