# generated using pymatgen
data_YErZn14Pd3
_symmetry_space_group_name_H-M   'P 1'
_cell_length_a   6.83974979
_cell_length_b   6.83975052
_cell_length_c   6.83975100
_cell_angle_alpha   82.78855139
_cell_angle_beta   82.78854713
_cell_angle_gamma   82.78856230
_symmetry_Int_Tables_number   1
_chemical_formula_structural   YErZn14Pd3
_chemical_formula_sum   'Y1 Er1 Zn14 Pd3'
_cell_volume   312.97131713
_cell_formula_units_Z   1
loop_
 _symmetry_equiv_pos_site_id
 _symmetry_equiv_pos_as_xyz
  1  'x, y, z'
loop_
 _atom_site_type_symbol
 _atom_site_label
 _atom_site_symmetry_multiplicity
 _atom_site_fract_x
 _atom_site_fract_y
 _atom_site_fract_z
 _atom_site_occupancy
  Y  Y0  1  0.336697  0.336697  0.336697  1
  Er  Er1  1  0.663371  0.663371  0.663371  1
  Zn  Zn2  1  0.351418  0.351418  0.839193  1
  Zn  Zn3  1  0.839193  0.351418  0.351418  1
  Zn  Zn4  1  0.102562  0.102562  0.102562  1
  Zn  Zn5  1  0.897384  0.897384  0.897384  1
  Zn  Zn6  1  0.298701  0.701375  0.999927  1
  Zn  Zn7  1  0.701375  0.999927  0.298701  1
  Zn  Zn8  1  0.999927  0.298701  0.701375  1
  Zn  Zn9  1  0.701375  0.298701  0.999927  1
  Zn  Zn10  1  0.298701  0.999927  0.701375  1
  Zn  Zn11  1  0.999927  0.701375  0.298701  1
  Zn  Zn12  1  0.160772  0.648634  0.648634  1
  Zn  Zn13  1  0.648634  0.648634  0.160772  1
  Zn  Zn14  1  0.648634  0.160772  0.648634  1
  Zn  Zn15  1  0.351418  0.839193  0.351418  1
  Pd  Pd16  1  0.999929  0.999929  0.500050  1
  Pd  Pd17  1  0.999929  0.500050  0.999929  1
  Pd  Pd18  1  0.500050  0.999929  0.999929  1
