# generated using pymatgen
data_MnBi2Pt4PbO14
_symmetry_space_group_name_H-M   'P 1'
_cell_length_a   7.41057850
_cell_length_b   7.31283594
_cell_length_c   7.41057918
_cell_angle_alpha   59.22245516
_cell_angle_beta   59.28445961
_cell_angle_gamma   59.22245364
_symmetry_Int_Tables_number   1
_chemical_formula_structural   MnBi2Pt4PbO14
_chemical_formula_sum   'Mn1 Bi2 Pt4 Pb1 O14'
_cell_volume   279.07582611
_cell_formula_units_Z   1
loop_
 _symmetry_equiv_pos_site_id
 _symmetry_equiv_pos_as_xyz
  1  'x, y, z'
loop_
 _atom_site_type_symbol
 _atom_site_label
 _atom_site_symmetry_multiplicity
 _atom_site_fract_x
 _atom_site_fract_y
 _atom_site_fract_z
 _atom_site_occupancy
  Mn  Mn0  1  0.125000  0.625000  0.125000  1
  Bi  Bi1  1  0.125000  0.125000  0.625000  1
  Bi  Bi2  1  0.625000  0.125000  0.125000  1
  Pt  Pt3  1  0.625000  0.625000  0.125000  1
  Pt  Pt4  1  0.625000  0.125000  0.625000  1
  Pt  Pt5  1  0.125000  0.625000  0.625000  1
  Pt  Pt6  1  0.625000  0.625000  0.625000  1
  Pb  Pb7  1  0.125000  0.125000  0.125000  1
  O  O8  1  0.234728  0.269488  0.234728  1
  O  O9  1  0.015272  0.980512  0.015272  1
  O  O10  1  0.539434  0.962916  0.539434  1
  O  O11  1  0.291453  0.707506  0.291453  1
  O  O12  1  0.534922  0.544235  0.961486  1
  O  O13  1  0.961486  0.544235  0.534922  1
  O  O14  1  0.538303  0.961235  0.959072  1
  O  O15  1  0.959072  0.961235  0.538303  1
  O  O16  1  0.958547  0.542494  0.958547  1
  O  O17  1  0.711697  0.288765  0.290928  1
  O  O18  1  0.288514  0.705765  0.715078  1
  O  O19  1  0.710566  0.287084  0.710566  1
  O  O20  1  0.290928  0.288765  0.711697  1
  O  O21  1  0.715078  0.705765  0.288514  1
