# generated using pymatgen
data_LaZnCd2P3
_symmetry_space_group_name_H-M   'P 1'
_cell_length_a   4.20754700
_cell_length_b   4.20754797
_cell_length_c   21.62770500
_cell_angle_alpha   90.00000000
_cell_angle_beta   90.00000000
_cell_angle_gamma   119.99998450
_symmetry_Int_Tables_number   1
_chemical_formula_structural   LaZnCd2P3
_chemical_formula_sum   'La2 Zn2 Cd4 P6'
_cell_volume   331.58829286
_cell_formula_units_Z   2
loop_
 _symmetry_equiv_pos_site_id
 _symmetry_equiv_pos_as_xyz
  1  'x, y, z'
loop_
 _atom_site_type_symbol
 _atom_site_label
 _atom_site_symmetry_multiplicity
 _atom_site_fract_x
 _atom_site_fract_y
 _atom_site_fract_z
 _atom_site_occupancy
  La  La0  1  0.000000  0.000000  0.000000  1
  La  La1  1  0.000000  0.000000  0.500000  1
  Zn  Zn2  1  0.333333  0.666667  0.750000  1
  Zn  Zn3  1  0.666667  0.333333  0.250000  1
  Cd  Cd4  1  0.333333  0.666667  0.129496  1
  Cd  Cd5  1  0.666667  0.333333  0.870504  1
  Cd  Cd6  1  0.666667  0.333333  0.629496  1
  Cd  Cd7  1  0.333333  0.666667  0.370504  1
  P  P8  1  0.333333  0.666667  0.579561  1
  P  P9  1  0.666667  0.333333  0.420439  1
  P  P10  1  0.666667  0.333333  0.079561  1
  P  P11  1  0.333333  0.666667  0.920439  1
  P  P12  1  0.333333  0.666667  0.250000  1
  P  P13  1  0.666667  0.333333  0.750000  1
