# generated using pymatgen
data_K2CrFe3P6(O4F3)4
_symmetry_space_group_name_H-M   'P 1'
_cell_length_a   7.35114441
_cell_length_b   7.71793402
_cell_length_c   10.58885200
_cell_angle_alpha   101.26612856
_cell_angle_beta   110.28219974
_cell_angle_gamma   90.47303828
_symmetry_Int_Tables_number   1
_chemical_formula_structural   K2CrFe3P6(O4F3)4
_chemical_formula_sum   'K2 Cr1 Fe3 P6 O16 F12'
_cell_volume   550.76894792
_cell_formula_units_Z   1
loop_
 _symmetry_equiv_pos_site_id
 _symmetry_equiv_pos_as_xyz
  1  'x, y, z'
loop_
 _atom_site_type_symbol
 _atom_site_label
 _atom_site_symmetry_multiplicity
 _atom_site_fract_x
 _atom_site_fract_y
 _atom_site_fract_z
 _atom_site_occupancy
  K  K0  1  0.786399  0.072310  0.802224  1
  K  K1  1  0.213601  0.927690  0.197776  1
  Cr  Cr2  1  0.000000  0.000000  0.500000  1
  Fe  Fe3  1  0.656305  0.317241  0.332145  1
  Fe  Fe4  1  0.343695  0.682759  0.667855  1
  Fe  Fe5  1  0.500000  0.500000  0.000000  1
  P  P6  1  0.658633  0.725050  0.506068  1
  P  P7  1  0.341367  0.274950  0.493932  1
  P  P8  1  0.312429  0.089221  0.818422  1
  P  P9  1  0.687571  0.910779  0.181578  1
  P  P10  1  0.058994  0.585784  0.834321  1
  P  P11  1  0.941006  0.414216  0.165679  1
  O  O12  1  0.731462  0.557723  0.445624  1
  O  O13  1  0.268538  0.442277  0.554376  1
  O  O14  1  0.803554  0.887986  0.557037  1
  O  O15  1  0.196446  0.112014  0.442963  1
  O  O16  1  0.578846  0.071075  0.212783  1
  O  O17  1  0.421154  0.928925  0.787217  1
  O  O18  1  0.456345  0.250526  0.893879  1
  O  O19  1  0.543655  0.749474  0.106121  1
  O  O20  1  0.865051  0.879944  0.300201  1
  O  O21  1  0.134949  0.120056  0.699799  1
  O  O22  1  0.889329  0.338775  0.268787  1
  O  O23  1  0.110671  0.661225  0.731213  1
  O  O24  1  0.791722  0.480420  0.051963  1
  O  O25  1  0.208278  0.519580  0.948037  1
  O  O26  1  0.423958  0.291061  0.382726  1
  O  O27  1  0.576042  0.708939  0.617274  1
  F  F28  1  0.835273  0.202569  0.475910  1
  F  F29  1  0.164727  0.797431  0.524090  1
  F  F30  1  0.503595  0.413652  0.165559  1
  F  F31  1  0.496405  0.586348  0.834441  1
  F  F32  1  0.780590  0.952716  0.072521  1
  F  F33  1  0.219410  0.047284  0.927479  1
  F  F34  1  0.886847  0.439543  0.761251  1
  F  F35  1  0.113153  0.560457  0.238749  1
  F  F36  1  0.519729  0.229868  0.617957  1
  F  F37  1  0.480271  0.770132  0.382043  1
  F  F38  1  0.046725  0.269860  0.095016  1
  F  F39  1  0.953275  0.730140  0.904984  1
