# generated using pymatgen
data_YbDy2PaOs8
_symmetry_space_group_name_H-M   'P 1'
_cell_length_a   5.32391700
_cell_length_b   5.32391643
_cell_length_c   8.80289300
_cell_angle_alpha   90.00000000
_cell_angle_beta   90.00000000
_cell_angle_gamma   119.99999733
_symmetry_Int_Tables_number   1
_chemical_formula_structural   YbDy2PaOs8
_chemical_formula_sum   'Yb1 Dy2 Pa1 Os8'
_cell_volume   216.08199072
_cell_formula_units_Z   1
loop_
 _symmetry_equiv_pos_site_id
 _symmetry_equiv_pos_as_xyz
  1  'x, y, z'
loop_
 _atom_site_type_symbol
 _atom_site_label
 _atom_site_symmetry_multiplicity
 _atom_site_fract_x
 _atom_site_fract_y
 _atom_site_fract_z
 _atom_site_occupancy
  Yb  Yb0  1  0.333333  0.666667  0.065340  1
  Dy  Dy1  1  0.333333  0.666667  0.428907  1
  Dy  Dy2  1  0.666667  0.333333  0.563867  1
  Pa  Pa3  1  0.666667  0.333333  0.934003  1
  Os  Os4  1  0.000000  0.000000  0.502093  1
  Os  Os5  1  0.000000  0.000000  0.004587  1
  Os  Os6  1  0.828510  0.171490  0.250167  1
  Os  Os7  1  0.828510  0.657022  0.250167  1
  Os  Os8  1  0.342978  0.171490  0.250167  1
  Os  Os9  1  0.172086  0.827914  0.750234  1
  Os  Os10  1  0.172086  0.344171  0.750234  1
  Os  Os11  1  0.655829  0.827914  0.750234  1
