# generated using pymatgen
data_Hf7Mg(Si4Ru3)4
_symmetry_space_group_name_H-M   'P 1'
_cell_length_a   9.87877668
_cell_length_b   9.88656892
_cell_length_c   13.34114005
_cell_angle_alpha   53.99049363
_cell_angle_beta   53.87728586
_cell_angle_gamma   31.26397824
_symmetry_Int_Tables_number   1
_chemical_formula_structural   Hf7Mg(Si4Ru3)4
_chemical_formula_sum   'Hf7 Mg1 Si16 Ru12'
_cell_volume   535.14770309
_cell_formula_units_Z   1
loop_
 _symmetry_equiv_pos_site_id
 _symmetry_equiv_pos_as_xyz
  1  'x, y, z'
loop_
 _atom_site_type_symbol
 _atom_site_label
 _atom_site_symmetry_multiplicity
 _atom_site_fract_x
 _atom_site_fract_y
 _atom_site_fract_z
 _atom_site_occupancy
  Hf  Hf0  1  0.444606  0.702430  0.851808  1
  Hf  Hf1  1  0.702863  0.442475  0.354268  1
  Hf  Hf2  1  0.555009  0.296830  0.149110  1
  Hf  Hf3  1  0.036873  0.296120  0.637196  1
  Hf  Hf4  1  0.706229  0.961483  0.862376  1
  Hf  Hf5  1  0.963019  0.704133  0.363795  1
  Hf  Hf6  1  0.293277  0.041121  0.135073  1
  Mg  Mg7  1  0.305716  0.558395  0.640412  1
  Si  Si8  1  0.874374  0.125014  0.250597  1
  Si  Si9  1  0.126423  0.871883  0.749467  1
  Si  Si10  1  0.381680  0.614681  0.250046  1
  Si  Si11  1  0.621952  0.379887  0.749876  1
  Si  Si12  1  0.968479  0.256416  0.895227  1
  Si  Si13  1  0.742627  0.028741  0.606851  1
  Si  Si14  1  0.028116  0.745098  0.107271  1
  Si  Si15  1  0.248562  0.980373  0.390333  1
  Si  Si16  1  0.575366  0.081486  0.066469  1
  Si  Si17  1  0.911986  0.428628  0.437362  1
  Si  Si18  1  0.421983  0.922335  0.933446  1
  Si  Si19  1  0.089289  0.570887  0.566805  1
  Si  Si20  1  0.387611  0.142420  0.396619  1
  Si  Si21  1  0.856277  0.612010  0.104649  1
  Si  Si22  1  0.613669  0.855147  0.604156  1
  Si  Si23  1  0.145373  0.391299  0.891390  1
  Ru  Ru24  1  0.648034  0.825805  0.282233  1
  Ru  Ru25  1  0.171980  0.351203  0.219645  1
  Ru  Ru26  1  0.756273  0.485673  0.071035  1
  Ru  Ru27  1  0.823544  0.650243  0.783210  1
  Ru  Ru28  1  0.901803  0.137892  0.584620  1
  Ru  Ru29  1  0.864905  0.091560  0.916418  1
  Ru  Ru30  1  0.102366  0.857147  0.413223  1
  Ru  Ru31  1  0.137798  0.905692  0.083756  1
  Ru  Ru32  1  0.243288  0.512945  0.932306  1
  Ru  Ru33  1  0.479086  0.766793  0.567877  1
  Ru  Ru34  1  0.522421  0.231353  0.432469  1
  Ru  Ru35  1  0.347143  0.174403  0.718608  1
