# generated using pymatgen
data_NdPuUNi3Sb4
_symmetry_space_group_name_H-M   'P 1'
_cell_length_a   8.18549463
_cell_length_b   8.18549446
_cell_length_c   8.18549390
_cell_angle_alpha   109.46057030
_cell_angle_beta   109.91746946
_cell_angle_gamma   109.03681514
_symmetry_Int_Tables_number   1
_chemical_formula_structural   NdPuUNi3Sb4
_chemical_formula_sum   'Nd2 Pu2 U2 Ni6 Sb8'
_cell_volume   422.16983710
_cell_formula_units_Z   2
loop_
 _symmetry_equiv_pos_site_id
 _symmetry_equiv_pos_as_xyz
  1  'x, y, z'
loop_
 _atom_site_type_symbol
 _atom_site_label
 _atom_site_symmetry_multiplicity
 _atom_site_fract_x
 _atom_site_fract_y
 _atom_site_fract_z
 _atom_site_occupancy
  Nd  Nd0  1  0.250000  0.124390  0.874390  1
  Nd  Nd1  1  0.750000  0.375610  0.625610  1
  Pu  Pu2  1  0.872281  0.250000  0.122281  1
  Pu  Pu3  1  0.627719  0.750000  0.377719  1
  U  U4  1  0.126772  0.876772  0.250000  1
  U  U5  1  0.373228  0.623228  0.750000  1
  Ni  Ni6  1  0.369972  0.250000  0.619972  1
  Ni  Ni7  1  0.130028  0.750000  0.880028  1
  Ni  Ni8  1  0.250000  0.629856  0.379856  1
  Ni  Ni9  1  0.750000  0.870144  0.120144  1
  Ni  Ni10  1  0.625509  0.375509  0.250000  1
  Ni  Ni11  1  0.874491  0.124491  0.750000  1
  Sb  Sb12  1  0.661416  0.501501  0.002320  1
  Sb  Sb13  1  0.500821  0.998499  0.659915  1
  Sb  Sb14  1  0.999179  0.659095  0.497680  1
  Sb  Sb15  1  0.838584  0.840905  0.840085  1
  Sb  Sb16  1  0.501392  0.998508  0.161263  1
  Sb  Sb17  1  0.162755  0.501492  0.002885  1
  Sb  Sb18  1  0.998608  0.159871  0.497115  1
  Sb  Sb19  1  0.337245  0.340129  0.338737  1
