# generated using pymatgen
data_NaNd3Se4
_symmetry_space_group_name_H-M   'P 1'
_cell_length_a   7.32928563
_cell_length_b   7.32928452
_cell_length_c   4.22463100
_cell_angle_alpha   90.00000000
_cell_angle_beta   90.00000000
_cell_angle_gamma   108.97480198
_symmetry_Int_Tables_number   1
_chemical_formula_structural   NaNd3Se4
_chemical_formula_sum   'Na1 Nd3 Se4'
_cell_volume   214.60893244
_cell_formula_units_Z   1
loop_
 _symmetry_equiv_pos_site_id
 _symmetry_equiv_pos_as_xyz
  1  'x, y, z'
loop_
 _atom_site_type_symbol
 _atom_site_label
 _atom_site_symmetry_multiplicity
 _atom_site_fract_x
 _atom_site_fract_y
 _atom_site_fract_z
 _atom_site_occupancy
  Na  Na0  1  0.500000  0.500000  0.000000  1
  Nd  Nd1  1  0.500000  0.000000  0.500000  1
  Nd  Nd2  1  0.000000  0.500000  0.500000  1
  Nd  Nd3  1  0.000000  0.000000  0.000000  1
  Se  Se4  1  0.251762  0.748238  0.000000  1
  Se  Se5  1  0.748238  0.251762  0.000000  1
  Se  Se6  1  0.749807  0.749807  0.500000  1
  Se  Se7  1  0.250193  0.250193  0.500000  1
