# generated using pymatgen
data_CaPr7(Si3Rh)4
_symmetry_space_group_name_H-M   'P 1'
_cell_length_a   8.28520242
_cell_length_b   8.28346650
_cell_length_c   8.47362000
_cell_angle_alpha   90.00000000
_cell_angle_beta   90.00000000
_cell_angle_gamma   119.99307001
_symmetry_Int_Tables_number   1
_chemical_formula_structural   CaPr7(Si3Rh)4
_chemical_formula_sum   'Ca1 Pr7 Si12 Rh4'
_cell_volume   503.66895427
_cell_formula_units_Z   1
loop_
 _symmetry_equiv_pos_site_id
 _symmetry_equiv_pos_as_xyz
  1  'x, y, z'
loop_
 _atom_site_type_symbol
 _atom_site_label
 _atom_site_symmetry_multiplicity
 _atom_site_fract_x
 _atom_site_fract_y
 _atom_site_fract_z
 _atom_site_occupancy
  Ca  Ca0  1  0.002054  0.501027  0.750000  1
  Pr  Pr1  1  0.999956  0.999978  0.250000  1
  Pr  Pr2  1  0.999704  0.999852  0.750000  1
  Pr  Pr3  1  0.501015  0.499008  0.250000  1
  Pr  Pr4  1  0.501015  0.002008  0.250000  1
  Pr  Pr5  1  0.998460  0.499229  0.250000  1
  Pr  Pr6  1  0.498753  0.501170  0.750000  1
  Pr  Pr7  1  0.498753  0.997582  0.750000  1
  Si  Si8  1  0.165693  0.832320  0.500982  1
  Si  Si9  1  0.165693  0.333373  0.500982  1
  Si  Si10  1  0.668510  0.834255  0.498937  1
  Si  Si11  1  0.834040  0.167884  0.501411  1
  Si  Si12  1  0.834040  0.666157  0.501411  1
  Si  Si13  1  0.331924  0.165962  0.499574  1
  Si  Si14  1  0.834040  0.167884  0.998589  1
  Si  Si15  1  0.834040  0.666157  0.998589  1
  Si  Si16  1  0.331924  0.165962  0.000426  1
  Si  Si17  1  0.165693  0.832320  0.999018  1
  Si  Si18  1  0.165693  0.333373  0.999018  1
  Si  Si19  1  0.668510  0.834255  0.001063  1
  Rh  Rh20  1  0.334498  0.667249  0.498129  1
  Rh  Rh21  1  0.665749  0.332874  0.503711  1
  Rh  Rh22  1  0.665749  0.332874  0.996289  1
  Rh  Rh23  1  0.334498  0.667249  0.001871  1
