# generated using pymatgen
data_Dy8Er8Sc4Si15Os
_symmetry_space_group_name_H-M   'P 1'
_cell_length_a   7.20740246
_cell_length_b   7.65135678
_cell_length_c   14.32479400
_cell_angle_alpha   90.00000000
_cell_angle_beta   90.00000000
_cell_angle_gamma   90.14969747
_symmetry_Int_Tables_number   1
_chemical_formula_structural   Dy8Er8Sc4Si15Os
_chemical_formula_sum   'Dy8 Er8 Sc4 Si15 Os1'
_cell_volume   789.95823368
_cell_formula_units_Z   1
loop_
 _symmetry_equiv_pos_site_id
 _symmetry_equiv_pos_as_xyz
  1  'x, y, z'
loop_
 _atom_site_type_symbol
 _atom_site_label
 _atom_site_symmetry_multiplicity
 _atom_site_fract_x
 _atom_site_fract_y
 _atom_site_fract_z
 _atom_site_occupancy
  Dy  Dy0  1  0.015727  0.183446  0.096904  1
  Dy  Dy1  1  0.986928  0.825968  0.902417  1
  Dy  Dy2  1  0.484658  0.681301  0.903713  1
  Dy  Dy3  1  0.986928  0.825968  0.597583  1
  Dy  Dy4  1  0.515400  0.318955  0.097118  1
  Dy  Dy5  1  0.015727  0.183446  0.403096  1
  Dy  Dy6  1  0.515400  0.318955  0.402882  1
  Dy  Dy7  1  0.484658  0.681301  0.596287  1
  Er  Er8  1  0.313649  0.172858  0.628149  1
  Er  Er9  1  0.676021  0.824341  0.373667  1
  Er  Er10  1  0.175096  0.679369  0.374011  1
  Er  Er11  1  0.676021  0.824341  0.126333  1
  Er  Er12  1  0.833562  0.316435  0.627951  1
  Er  Er13  1  0.313649  0.172858  0.871851  1
  Er  Er14  1  0.833562  0.316435  0.872049  1
  Er  Er15  1  0.175096  0.679369  0.125989  1
  Sc  Sc16  1  0.156715  0.511180  0.750000  1
  Sc  Sc17  1  0.840517  0.486160  0.250000  1
  Sc  Sc18  1  0.341146  0.016361  0.250000  1
  Sc  Sc19  1  0.669584  0.986965  0.750000  1
  Si  Si20  1  0.977225  0.903245  0.250000  1
  Si  Si21  1  0.478068  0.597466  0.250000  1
  Si  Si22  1  0.521659  0.404000  0.750000  1
  Si  Si23  1  0.282751  0.859386  0.750000  1
  Si  Si24  1  0.715819  0.136897  0.250000  1
  Si  Si25  1  0.216892  0.365227  0.250000  1
  Si  Si26  1  0.775569  0.630403  0.750000  1
  Si  Si27  1  0.157335  0.472523  0.538274  1
  Si  Si28  1  0.845905  0.530965  0.460893  1
  Si  Si29  1  0.345998  0.970488  0.459620  1
  Si  Si30  1  0.845905  0.530965  0.039107  1
  Si  Si31  1  0.651651  0.030814  0.538710  1
  Si  Si32  1  0.157335  0.472523  0.961726  1
  Si  Si33  1  0.651651  0.030814  0.961290  1
  Si  Si34  1  0.345998  0.970488  0.040380  1
  Os  Os35  1  0.020197  0.087787  0.750000  1
