# generated using pymatgen
data_Cs10Ti3Mn3Se14
_symmetry_space_group_name_H-M   'P 1'
_cell_length_a   11.62045100
_cell_length_b   11.62044439
_cell_length_c   9.65701600
_cell_angle_alpha   76.43429928
_cell_angle_beta   76.43446946
_cell_angle_gamma   70.21092525
_symmetry_Int_Tables_number   1
_chemical_formula_structural   Cs10Ti3Mn3Se14
_chemical_formula_sum   'Cs10 Ti3 Mn3 Se14'
_cell_volume   1175.50914324
_cell_formula_units_Z   1
loop_
 _symmetry_equiv_pos_site_id
 _symmetry_equiv_pos_as_xyz
  1  'x, y, z'
loop_
 _atom_site_type_symbol
 _atom_site_label
 _atom_site_symmetry_multiplicity
 _atom_site_fract_x
 _atom_site_fract_y
 _atom_site_fract_z
 _atom_site_occupancy
  Cs  Cs0  1  0.028888  0.426089  0.733381  1
  Cs  Cs1  1  0.426089  0.028887  0.733381  1
  Cs  Cs2  1  0.976009  0.562064  0.269973  1
  Cs  Cs3  1  0.562064  0.976010  0.269973  1
  Cs  Cs4  1  0.289454  0.715822  0.005940  1
  Cs  Cs5  1  0.715822  0.289454  0.005940  1
  Cs  Cs6  1  0.853164  0.156901  0.490061  1
  Cs  Cs7  1  0.156901  0.853164  0.490061  1
  Cs  Cs8  1  0.429564  0.429561  0.699340  1
  Cs  Cs9  1  0.570839  0.570842  0.305647  1
  Ti  Ti10  1  0.927186  0.927186  0.936113  1
  Ti  Ti11  1  0.342804  0.342804  0.333749  1
  Ti  Ti12  1  0.658520  0.658520  0.670377  1
  Mn  Mn13  1  0.211352  0.211351  0.182385  1
  Mn  Mn14  1  0.788260  0.788261  0.815904  1
  Mn  Mn15  1  0.069637  0.069637  0.058495  1
  Se  Se16  1  0.993589  0.285810  0.120836  1
  Se  Se17  1  0.285810  0.993589  0.120836  1
  Se  Se18  1  0.005771  0.718383  0.877196  1
  Se  Se19  1  0.718383  0.005771  0.877196  1
  Se  Se20  1  0.212398  0.212398  0.448638  1
  Se  Se21  1  0.789144  0.789144  0.553555  1
  Se  Se22  1  0.054636  0.054636  0.800806  1
  Se  Se23  1  0.929798  0.929798  0.183121  1
  Se  Se24  1  0.353110  0.353111  0.077111  1
  Se  Se25  1  0.649798  0.649797  0.927221  1
  Se  Se26  1  0.253568  0.544632  0.401277  1
  Se  Se27  1  0.544632  0.253568  0.401277  1
  Se  Se28  1  0.746260  0.456549  0.605105  1
  Se  Se29  1  0.456549  0.746260  0.605105  1
