# generated using pymatgen
data_Tb10Nd6Cd4CoPt3
_symmetry_space_group_name_H-M   'P 1'
_cell_length_a   9.74645467
_cell_length_b   9.74645459
_cell_length_c   9.74645500
_cell_angle_alpha   60.40946586
_cell_angle_beta   60.40946360
_cell_angle_gamma   60.40947356
_symmetry_Int_Tables_number   1
_chemical_formula_structural   Tb10Nd6Cd4CoPt3
_chemical_formula_sum   'Tb10 Nd6 Cd4 Co1 Pt3'
_cell_volume   660.73575619
_cell_formula_units_Z   1
loop_
 _symmetry_equiv_pos_site_id
 _symmetry_equiv_pos_as_xyz
  1  'x, y, z'
loop_
 _atom_site_type_symbol
 _atom_site_label
 _atom_site_symmetry_multiplicity
 _atom_site_fract_x
 _atom_site_fract_y
 _atom_site_fract_z
 _atom_site_occupancy
  Tb  Tb0  1  0.350880  0.350880  0.350880  1
  Tb  Tb1  1  0.345238  0.345238  0.953610  1
  Tb  Tb2  1  0.345238  0.953610  0.345238  1
  Tb  Tb3  1  0.953610  0.345238  0.345238  1
  Tb  Tb4  1  0.820825  0.187619  0.187619  1
  Tb  Tb5  1  0.187766  0.810941  0.810941  1
  Tb  Tb6  1  0.187619  0.820825  0.187619  1
  Tb  Tb7  1  0.810941  0.187766  0.810941  1
  Tb  Tb8  1  0.187619  0.187619  0.820825  1
  Tb  Tb9  1  0.810941  0.810941  0.187766  1
  Nd  Nd10  1  0.939406  0.560822  0.560822  1
  Nd  Nd11  1  0.560388  0.937816  0.937816  1
  Nd  Nd12  1  0.560822  0.939406  0.560822  1
  Nd  Nd13  1  0.937816  0.560388  0.937816  1
  Nd  Nd14  1  0.560822  0.560822  0.939406  1
  Nd  Nd15  1  0.937816  0.937816  0.560388  1
  Cd  Cd16  1  0.579387  0.579387  0.579387  1
  Cd  Cd17  1  0.580585  0.580585  0.259764  1
  Cd  Cd18  1  0.580585  0.259764  0.580585  1
  Cd  Cd19  1  0.259764  0.580585  0.580585  1
  Co  Co20  1  0.142191  0.142191  0.142191  1
  Pt  Pt21  1  0.143788  0.143788  0.572160  1
  Pt  Pt22  1  0.143788  0.572160  0.143788  1
  Pt  Pt23  1  0.572160  0.143788  0.143788  1
