# generated using pymatgen
data_Tm8Sc12Sn15Sb
_symmetry_space_group_name_H-M   'P 1'
_cell_length_a   7.68962230
_cell_length_b   7.87405086
_cell_length_c   14.76509187
_cell_angle_alpha   90.01696659
_cell_angle_beta   89.25371280
_cell_angle_gamma   90.10987468
_symmetry_Int_Tables_number   1
_chemical_formula_structural   Tm8Sc12Sn15Sb
_chemical_formula_sum   'Tm8 Sc12 Sn15 Sb1'
_cell_volume   893.92631576
_cell_formula_units_Z   1
loop_
 _symmetry_equiv_pos_site_id
 _symmetry_equiv_pos_as_xyz
  1  'x, y, z'
loop_
 _atom_site_type_symbol
 _atom_site_label
 _atom_site_symmetry_multiplicity
 _atom_site_fract_x
 _atom_site_fract_y
 _atom_site_fract_z
 _atom_site_occupancy
  Tm  Tm0  1  0.989279  0.178026  0.093089  1
  Tm  Tm1  1  0.010413  0.822866  0.907034  1
  Tm  Tm2  1  0.510706  0.677151  0.906518  1
  Tm  Tm3  1  0.011987  0.820322  0.593210  1
  Tm  Tm4  1  0.489366  0.323365  0.093334  1
  Tm  Tm5  1  0.986899  0.179540  0.406194  1
  Tm  Tm6  1  0.487141  0.319957  0.404934  1
  Tm  Tm7  1  0.516492  0.678917  0.595818  1
  Sc  Sc8  1  0.174901  0.494721  0.749269  1
  Sc  Sc9  1  0.825414  0.505037  0.251916  1
  Sc  Sc10  1  0.326122  0.994798  0.250940  1
  Sc  Sc11  1  0.673812  0.004861  0.749478  1
  Sc  Sc12  1  0.350103  0.158969  0.627275  1
  Sc  Sc13  1  0.650624  0.840743  0.372649  1
  Sc  Sc14  1  0.148841  0.658395  0.374859  1
  Sc  Sc15  1  0.655399  0.838689  0.127607  1
  Sc  Sc16  1  0.849617  0.342312  0.625212  1
  Sc  Sc17  1  0.343352  0.160763  0.872240  1
  Sc  Sc18  1  0.844729  0.339034  0.872914  1
  Sc  Sc19  1  0.156245  0.660704  0.126562  1
  Sn  Sn20  1  0.036860  0.122981  0.748994  1
  Sn  Sn21  1  0.962767  0.876910  0.249996  1
  Sn  Sn22  1  0.459965  0.622367  0.250213  1
  Sn  Sn23  1  0.539619  0.376891  0.750083  1
  Sn  Sn24  1  0.315337  0.847095  0.750924  1
  Sn  Sn25  1  0.684679  0.152180  0.248652  1
  Sn  Sn26  1  0.183304  0.347979  0.249066  1
  Sn  Sn27  1  0.818212  0.652502  0.750983  1
  Sn  Sn28  1  0.800256  0.544113  0.457664  1
  Sn  Sn29  1  0.308276  0.957381  0.458313  1
  Sn  Sn30  1  0.813549  0.542914  0.042319  1
  Sn  Sn31  1  0.691686  0.042886  0.542218  1
  Sn  Sn32  1  0.185723  0.457459  0.957106  1
  Sn  Sn33  1  0.684763  0.042090  0.957192  1
  Sn  Sn34  1  0.314662  0.958616  0.042569  1
  Sb  Sb35  1  0.198896  0.456462  0.542660  1
