# generated using pymatgen
data_TbZr3F15
_symmetry_space_group_name_H-M   'P 1'
_cell_length_a   7.43519885
_cell_length_b   7.43519881
_cell_length_c   7.43519788
_cell_angle_alpha   112.77382191
_cell_angle_beta   112.77381754
_cell_angle_gamma   112.77380755
_symmetry_Int_Tables_number   1
_chemical_formula_structural   TbZr3F15
_chemical_formula_sum   'Tb1 Zr3 F15'
_cell_volume   270.92975300
_cell_formula_units_Z   1
loop_
 _symmetry_equiv_pos_site_id
 _symmetry_equiv_pos_as_xyz
  1  'x, y, z'
loop_
 _atom_site_type_symbol
 _atom_site_label
 _atom_site_symmetry_multiplicity
 _atom_site_fract_x
 _atom_site_fract_y
 _atom_site_fract_z
 _atom_site_occupancy
  Tb  Tb0  1  0.996752  0.996752  0.996752  1
  Zr  Zr1  1  0.357976  0.785989  0.357976  1
  Zr  Zr2  1  0.357976  0.357976  0.785989  1
  Zr  Zr3  1  0.785989  0.357976  0.357976  1
  F  F4  1  0.650076  0.436368  0.106108  1
  F  F5  1  0.106108  0.650076  0.436368  1
  F  F6  1  0.106108  0.436368  0.650076  1
  F  F7  1  0.436368  0.106108  0.650076  1
  F  F8  1  0.436368  0.650076  0.106108  1
  F  F9  1  0.650076  0.106108  0.436368  1
  F  F10  1  0.100285  0.764391  0.100285  1
  F  F11  1  0.100285  0.100285  0.764390  1
  F  F12  1  0.764390  0.100285  0.100285  1
  F  F13  1  0.649569  0.868648  0.649569  1
  F  F14  1  0.649569  0.649569  0.868648  1
  F  F15  1  0.868648  0.649569  0.649569  1
  F  F16  1  0.178791  0.408805  0.178791  1
  F  F17  1  0.178791  0.178791  0.408805  1
  F  F18  1  0.408805  0.178791  0.178791  1
