# generated using pymatgen
data_Sm2Mn3Ni9P7
_symmetry_space_group_name_H-M   'P 1'
_cell_length_a   9.17028600
_cell_length_b   9.17028682
_cell_length_c   3.71520200
_cell_angle_alpha   90.00000000
_cell_angle_beta   90.00000000
_cell_angle_gamma   120.00000427
_symmetry_Int_Tables_number   1
_chemical_formula_structural   Sm2Mn3Ni9P7
_chemical_formula_sum   'Sm2 Mn3 Ni9 P7'
_cell_volume   270.56950337
_cell_formula_units_Z   1
loop_
 _symmetry_equiv_pos_site_id
 _symmetry_equiv_pos_as_xyz
  1  'x, y, z'
loop_
 _atom_site_type_symbol
 _atom_site_label
 _atom_site_symmetry_multiplicity
 _atom_site_fract_x
 _atom_site_fract_y
 _atom_site_fract_z
 _atom_site_occupancy
  Sm  Sm0  1  0.333333  0.666667  0.000000  1
  Sm  Sm1  1  0.666667  0.333333  0.500000  1
  Mn  Mn2  1  0.217616  0.120280  0.500000  1
  Mn  Mn3  1  0.879720  0.097337  0.500000  1
  Mn  Mn4  1  0.902663  0.782384  0.500000  1
  Ni  Ni5  1  0.430604  0.370741  0.000000  1
  Ni  Ni6  1  0.629259  0.059864  0.000000  1
  Ni  Ni7  1  0.940136  0.569396  0.000000  1
  Ni  Ni8  1  0.153115  0.877371  0.000000  1
  Ni  Ni9  1  0.122629  0.275745  0.000000  1
  Ni  Ni10  1  0.724255  0.846885  0.000000  1
  Ni  Ni11  1  0.383033  0.950197  0.500000  1
  Ni  Ni12  1  0.049803  0.432835  0.500000  1
  Ni  Ni13  1  0.567165  0.616967  0.500000  1
  P  P14  1  0.406404  0.110064  0.000000  1
  P  P15  1  0.889936  0.296341  0.000000  1
  P  P16  1  0.703659  0.593596  0.000000  1
  P  P17  1  0.110360  0.707743  0.500000  1
  P  P18  1  0.292257  0.402616  0.500000  1
  P  P19  1  0.597384  0.889640  0.500000  1
  P  P20  1  0.000000  0.000000  0.000000  1
