# generated using pymatgen
data_Y9Er7Cd2(InPd2)2
_symmetry_space_group_name_H-M   'P 1'
_cell_length_a   9.67948838
_cell_length_b   9.67329843
_cell_length_c   9.70165660
_cell_angle_alpha   60.06961600
_cell_angle_beta   60.18992237
_cell_angle_gamma   60.19175444
_symmetry_Int_Tables_number   1
_chemical_formula_structural   Y9Er7Cd2(InPd2)2
_chemical_formula_sum   'Y9 Er7 Cd2 In2 Pd4'
_cell_volume   644.51629007
_cell_formula_units_Z   1
loop_
 _symmetry_equiv_pos_site_id
 _symmetry_equiv_pos_as_xyz
  1  'x, y, z'
loop_
 _atom_site_type_symbol
 _atom_site_label
 _atom_site_symmetry_multiplicity
 _atom_site_fract_x
 _atom_site_fract_y
 _atom_site_fract_z
 _atom_site_occupancy
  Y  Y0  1  0.809488  0.190699  0.809396  1
  Y  Y1  1  0.189396  0.188278  0.812080  1
  Y  Y2  1  0.808775  0.808651  0.192054  1
  Y  Y3  1  0.937576  0.566456  0.564214  1
  Y  Y4  1  0.562244  0.938054  0.935123  1
  Y  Y5  1  0.565808  0.937335  0.564616  1
  Y  Y6  1  0.937762  0.563375  0.934461  1
  Y  Y7  1  0.564499  0.565954  0.935361  1
  Y  Y8  1  0.938380  0.937927  0.560009  1
  Er  Er9  1  0.351077  0.351315  0.351761  1
  Er  Er10  1  0.352945  0.353958  0.941618  1
  Er  Er11  1  0.353789  0.939474  0.353718  1
  Er  Er12  1  0.940257  0.354180  0.353101  1
  Er  Er13  1  0.809958  0.190685  0.190578  1
  Er  Er14  1  0.190839  0.809562  0.809722  1
  Er  Er15  1  0.190882  0.810418  0.189882  1
  Cd  Cd16  1  0.580240  0.253318  0.582462  1
  Cd  Cd17  1  0.253143  0.580177  0.582631  1
  In  In18  1  0.582267  0.581385  0.584259  1
  In  In19  1  0.582108  0.581906  0.251618  1
  Pd  Pd20  1  0.143061  0.143562  0.148035  1
  Pd  Pd21  1  0.144641  0.141134  0.565738  1
  Pd  Pd22  1  0.145242  0.567563  0.142100  1
  Pd  Pd23  1  0.565621  0.144632  0.145463  1
