# generated using pymatgen
data_Rb4ScTaBr12
_symmetry_space_group_name_H-M   'P 1'
_cell_length_a   7.77733700
_cell_length_b   7.77733700
_cell_length_c   11.06606800
_cell_angle_alpha   90.00000000
_cell_angle_beta   90.00000000
_cell_angle_gamma   90.00000000
_symmetry_Int_Tables_number   1
_chemical_formula_structural   Rb4ScTaBr12
_chemical_formula_sum   'Rb4 Sc1 Ta1 Br12'
_cell_volume   669.35293211
_cell_formula_units_Z   1
loop_
 _symmetry_equiv_pos_site_id
 _symmetry_equiv_pos_as_xyz
  1  'x, y, z'
loop_
 _atom_site_type_symbol
 _atom_site_label
 _atom_site_symmetry_multiplicity
 _atom_site_fract_x
 _atom_site_fract_y
 _atom_site_fract_z
 _atom_site_occupancy
  Rb  Rb0  1  0.500000  0.000000  0.788987  1
  Rb  Rb1  1  0.000000  0.500000  0.211013  1
  Rb  Rb2  1  0.500000  0.000000  0.211013  1
  Rb  Rb3  1  0.000000  0.500000  0.788987  1
  Sc  Sc4  1  0.000000  0.000000  0.000000  1
  Ta  Ta5  1  0.500000  0.500000  0.500000  1
  Br  Br6  1  0.000000  0.000000  0.758490  1
  Br  Br7  1  0.500000  0.500000  0.269024  1
  Br  Br8  1  0.730564  0.730564  0.500000  1
  Br  Br9  1  0.242669  0.242669  0.000000  1
  Br  Br10  1  0.730564  0.269436  0.500000  1
  Br  Br11  1  0.242669  0.757331  0.000000  1
  Br  Br12  1  0.000000  0.000000  0.241510  1
  Br  Br13  1  0.500000  0.500000  0.730976  1
  Br  Br14  1  0.269436  0.269436  0.500000  1
  Br  Br15  1  0.757331  0.757331  0.000000  1
  Br  Br16  1  0.269436  0.730564  0.500000  1
  Br  Br17  1  0.757331  0.242669  0.000000  1
