# generated using pymatgen
data_Er20Sn15Pb
_symmetry_space_group_name_H-M   'P 1'
_cell_length_a   8.02743464
_cell_length_b   8.09356297
_cell_length_c   15.35759739
_cell_angle_alpha   90.04653593
_cell_angle_beta   90.13187652
_cell_angle_gamma   89.86852001
_symmetry_Int_Tables_number   1
_chemical_formula_structural   Er20Sn15Pb
_chemical_formula_sum   'Er20 Sn15 Pb1'
_cell_volume   997.78591901
_cell_formula_units_Z   1
loop_
 _symmetry_equiv_pos_site_id
 _symmetry_equiv_pos_as_xyz
  1  'x, y, z'
loop_
 _atom_site_type_symbol
 _atom_site_label
 _atom_site_symmetry_multiplicity
 _atom_site_fract_x
 _atom_site_fract_y
 _atom_site_fract_z
 _atom_site_occupancy
  Er  Er0  1  0.378685  0.837342  0.878499  1
  Er  Er1  1  0.877570  0.661923  0.621183  1
  Er  Er2  1  0.622083  0.161959  0.378672  1
  Er  Er3  1  0.124197  0.338126  0.121551  1
  Er  Er4  1  0.620981  0.159589  0.122089  1
  Er  Er5  1  0.123016  0.338174  0.378932  1
  Er  Er6  1  0.378167  0.837479  0.621215  1
  Er  Er7  1  0.878609  0.663274  0.877691  1
  Er  Er8  1  0.529659  0.321224  0.899503  1
  Er  Er9  1  0.030718  0.177900  0.598743  1
  Er  Er10  1  0.468355  0.676977  0.400996  1
  Er  Er11  1  0.969169  0.825673  0.099718  1
  Er  Er12  1  0.464673  0.679125  0.100188  1
  Er  Er13  1  0.969034  0.822588  0.401326  1
  Er  Er14  1  0.531570  0.323055  0.599259  1
  Er  Er15  1  0.033044  0.176040  0.899973  1
  Er  Er16  1  0.209015  0.504269  0.749819  1
  Er  Er17  1  0.709109  0.995835  0.749995  1
  Er  Er18  1  0.791438  0.495733  0.251526  1
  Er  Er19  1  0.290967  0.004219  0.250157  1
  Sn  Sn20  1  0.284648  0.033670  0.041881  1
  Sn  Sn21  1  0.784490  0.465745  0.458256  1
  Sn  Sn22  1  0.715357  0.966698  0.542118  1
  Sn  Sn23  1  0.215516  0.533265  0.957696  1
  Sn  Sn24  1  0.716127  0.967000  0.957905  1
  Sn  Sn25  1  0.215519  0.533990  0.541970  1
  Sn  Sn26  1  0.284856  0.033595  0.457937  1
  Sn  Sn27  1  0.575741  0.619908  0.749757  1
  Sn  Sn28  1  0.075664  0.879910  0.749671  1
  Sn  Sn29  1  0.424990  0.380266  0.250027  1
  Sn  Sn30  1  0.924721  0.120677  0.250080  1
  Sn  Sn31  1  0.341173  0.147477  0.749422  1
  Sn  Sn32  1  0.841683  0.351971  0.749970  1
  Sn  Sn33  1  0.658791  0.851307  0.250371  1
  Sn  Sn34  1  0.157600  0.648189  0.250381  1
  Pb  Pb35  1  0.783068  0.465827  0.041524  1
