# generated using pymatgen
data_Rb12Na8Zr(SiP4)3
_symmetry_space_group_name_H-M   'P 1'
_cell_length_a   10.51025938
_cell_length_b   10.51025987
_cell_length_c   15.38461908
_cell_angle_alpha   90.03195901
_cell_angle_beta   90.03195531
_cell_angle_gamma   142.42546514
_symmetry_Int_Tables_number   1
_chemical_formula_structural   Rb12Na8Zr(SiP4)3
_chemical_formula_sum   'Rb12 Na8 Zr1 Si3 P12'
_cell_volume   1036.32362287
_cell_formula_units_Z   1
loop_
 _symmetry_equiv_pos_site_id
 _symmetry_equiv_pos_as_xyz
  1  'x, y, z'
loop_
 _atom_site_type_symbol
 _atom_site_label
 _atom_site_symmetry_multiplicity
 _atom_site_fract_x
 _atom_site_fract_y
 _atom_site_fract_z
 _atom_site_occupancy
  Rb  Rb0  1  0.935470  0.606471  0.830054  1
  Rb  Rb1  1  0.564179  0.896501  0.326223  1
  Rb  Rb2  1  0.393529  0.064530  0.169946  1
  Rb  Rb3  1  0.065779  0.392593  0.170144  1
  Rb  Rb4  1  0.889054  0.548353  0.320265  1
  Rb  Rb5  1  0.451647  0.110946  0.679735  1
  Rb  Rb6  1  0.607407  0.934221  0.829856  1
  Rb  Rb7  1  0.271998  0.276149  0.312709  1
  Rb  Rb8  1  0.764015  0.764546  0.179320  1
  Rb  Rb9  1  0.235454  0.235985  0.820680  1
  Rb  Rb10  1  0.723851  0.728002  0.687291  1
  Rb  Rb11  1  0.103499  0.435821  0.673777  1
  Na  Na12  1  0.922015  0.077985  0.000000  1
  Na  Na13  1  0.578609  0.421391  0.500000  1
  Na  Na14  1  0.078146  0.921854  0.000000  1
  Na  Na15  1  0.418479  0.581521  0.500000  1
  Na  Na16  1  0.755030  0.244970  0.000000  1
  Na  Na17  1  0.746919  0.253081  0.500000  1
  Na  Na18  1  0.244823  0.755177  0.000000  1
  Na  Na19  1  0.256565  0.743435  0.500000  1
  Zr  Zr20  1  0.080932  0.919068  0.500000  1
  Si  Si21  1  0.583630  0.416370  0.000000  1
  Si  Si22  1  0.915971  0.084029  0.500000  1
  Si  Si23  1  0.416241  0.583759  0.000000  1
  P  P24  1  0.847910  0.548386  0.088746  1
  P  P25  1  0.451614  0.152090  0.911254  1
  P  P26  1  0.653969  0.952030  0.590483  1
  P  P27  1  0.941258  0.630707  0.598094  1
  P  P28  1  0.152014  0.451790  0.911341  1
  P  P29  1  0.548210  0.847986  0.088659  1
  P  P30  1  0.369293  0.058742  0.401906  1
  P  P31  1  0.185663  0.201100  0.586510  1
  P  P32  1  0.678180  0.678221  0.923089  1
  P  P33  1  0.321779  0.321820  0.076911  1
  P  P34  1  0.047970  0.346031  0.409517  1
  P  P35  1  0.798900  0.814337  0.413490  1
