# generated using pymatgen
data_Ba2SiPb3Au4
_symmetry_space_group_name_H-M   'P 1'
_cell_length_a   4.87513100
_cell_length_b   4.87513100
_cell_length_c   11.57710200
_cell_angle_alpha   90.00000000
_cell_angle_beta   90.00000000
_cell_angle_gamma   90.00000000
_symmetry_Int_Tables_number   1
_chemical_formula_structural   Ba2SiPb3Au4
_chemical_formula_sum   'Ba2 Si1 Pb3 Au4'
_cell_volume   275.15185177
_cell_formula_units_Z   1
loop_
 _symmetry_equiv_pos_site_id
 _symmetry_equiv_pos_as_xyz
  1  'x, y, z'
loop_
 _atom_site_type_symbol
 _atom_site_label
 _atom_site_symmetry_multiplicity
 _atom_site_fract_x
 _atom_site_fract_y
 _atom_site_fract_z
 _atom_site_occupancy
  Ba  Ba0  1  0.000000  0.500000  0.266024  1
  Ba  Ba1  1  0.500000  0.000000  0.735540  1
  Si  Si2  1  0.000000  0.500000  0.613711  1
  Pb  Pb3  1  0.000000  0.000000  0.991880  1
  Pb  Pb4  1  0.500000  0.500000  0.991880  1
  Pb  Pb5  1  0.500000  0.000000  0.382845  1
  Au  Au6  1  0.000000  0.000000  0.525845  1
  Au  Au7  1  0.500000  0.500000  0.525845  1
  Au  Au8  1  0.000000  0.500000  0.827636  1
  Au  Au9  1  0.500000  0.000000  0.138792  1
