# generated using pymatgen
data_TbPr2ThSe6
_symmetry_space_group_name_H-M   'P 1'
_cell_length_a   4.19576500
_cell_length_b   11.08068100
_cell_length_c   11.43788200
_cell_angle_alpha   90.00000000
_cell_angle_beta   90.00000000
_cell_angle_gamma   90.00000000
_symmetry_Int_Tables_number   1
_chemical_formula_structural   TbPr2ThSe6
_chemical_formula_sum   'Tb2 Pr4 Th2 Se12'
_cell_volume   531.76924951
_cell_formula_units_Z   2
loop_
 _symmetry_equiv_pos_site_id
 _symmetry_equiv_pos_as_xyz
  1  'x, y, z'
loop_
 _atom_site_type_symbol
 _atom_site_label
 _atom_site_symmetry_multiplicity
 _atom_site_fract_x
 _atom_site_fract_y
 _atom_site_fract_z
 _atom_site_occupancy
  Tb  Tb0  1  0.750000  0.810678  0.511400  1
  Tb  Tb1  1  0.750000  0.689322  0.011400  1
  Pr  Pr2  1  0.750000  0.505786  0.696212  1
  Pr  Pr3  1  0.750000  0.994214  0.196212  1
  Pr  Pr4  1  0.250000  0.508659  0.306575  1
  Pr  Pr5  1  0.250000  0.991341  0.806575  1
  Th  Th6  1  0.250000  0.187810  0.487460  1
  Th  Th7  1  0.250000  0.312190  0.987460  1
  Se  Se8  1  0.250000  0.297984  0.727480  1
  Se  Se9  1  0.250000  0.202016  0.227480  1
  Se  Se10  1  0.750000  0.707570  0.268964  1
  Se  Se11  1  0.750000  0.792430  0.768964  1
  Se  Se12  1  0.750000  0.052605  0.618537  1
  Se  Se13  1  0.750000  0.447395  0.118537  1
  Se  Se14  1  0.250000  0.943337  0.385362  1
  Se  Se15  1  0.250000  0.556663  0.885362  1
  Se  Se16  1  0.250000  0.633049  0.544045  1
  Se  Se17  1  0.250000  0.866951  0.044045  1
  Se  Se18  1  0.750000  0.373944  0.453967  1
  Se  Se19  1  0.750000  0.126056  0.953967  1
