# generated using pymatgen
data_Al11GaIr6
_symmetry_space_group_name_H-M   'P 1'
_cell_length_a   6.83111101
_cell_length_b   6.83111018
_cell_length_c   10.81950555
_cell_angle_alpha   89.81507588
_cell_angle_beta   90.18492501
_cell_angle_gamma   146.54668988
_symmetry_Int_Tables_number   1
_chemical_formula_structural   Al11GaIr6
_chemical_formula_sum   'Al11 Ga1 Ir6'
_cell_volume   278.31839755
_cell_formula_units_Z   1
loop_
 _symmetry_equiv_pos_site_id
 _symmetry_equiv_pos_as_xyz
  1  'x, y, z'
loop_
 _atom_site_type_symbol
 _atom_site_label
 _atom_site_symmetry_multiplicity
 _atom_site_fract_x
 _atom_site_fract_y
 _atom_site_fract_z
 _atom_site_occupancy
  Al  Al0  1  0.559914  0.440086  0.607211  1
  Al  Al1  1  0.440180  0.559820  0.393268  1
  Al  Al2  1  0.440284  0.559716  0.106218  1
  Al  Al3  1  0.559846  0.440154  0.892331  1
  Al  Al4  1  0.179279  0.820721  0.516143  1
  Al  Al5  1  0.820525  0.179475  0.484278  1
  Al  Al6  1  0.762807  0.237193  0.750574  1
  Al  Al7  1  0.236423  0.763577  0.251299  1
  Al  Al8  1  0.958789  0.041211  0.750258  1
  Al  Al9  1  0.041087  0.958913  0.250046  1
  Al  Al10  1  0.180124  0.819876  0.983509  1
  Ga  Ga11  1  0.821648  0.178352  0.016932  1
  Ir  Ir12  1  0.360095  0.639905  0.620966  1
  Ir  Ir13  1  0.639695  0.360305  0.378294  1
  Ir  Ir14  1  0.638337  0.361663  0.121960  1
  Ir  Ir15  1  0.360984  0.639016  0.875066  1
  Ir  Ir16  1  0.853584  0.146416  0.251875  1
  Ir  Ir17  1  0.146399  0.853601  0.749773  1
