# generated using pymatgen
data_Nb6Ga(Co2Ni)2
_symmetry_space_group_name_H-M   'P 1'
_cell_length_a   4.93246579
_cell_length_b   4.94790003
_cell_length_c   9.18598075
_cell_angle_alpha   74.36121906
_cell_angle_beta   74.42628332
_cell_angle_gamma   60.10312037
_symmetry_Int_Tables_number   1
_chemical_formula_structural   Nb6Ga(Co2Ni)2
_chemical_formula_sum   'Nb6 Ga1 Co4 Ni2'
_cell_volume   184.72741937
_cell_formula_units_Z   1
loop_
 _symmetry_equiv_pos_site_id
 _symmetry_equiv_pos_as_xyz
  1  'x, y, z'
loop_
 _atom_site_type_symbol
 _atom_site_label
 _atom_site_symmetry_multiplicity
 _atom_site_fract_x
 _atom_site_fract_y
 _atom_site_fract_z
 _atom_site_occupancy
  Nb  Nb0  1  0.167365  0.171531  0.493737  1
  Nb  Nb1  1  0.829503  0.829836  0.511159  1
  Nb  Nb2  1  0.345238  0.352411  0.957115  1
  Nb  Nb3  1  0.654167  0.658698  0.032967  1
  Nb  Nb4  1  0.449882  0.448464  0.651772  1
  Nb  Nb5  1  0.550643  0.548882  0.349833  1
  Ga  Ga6  1  0.000011  0.999602  0.000375  1
  Co  Co7  1  0.091415  0.583130  0.234040  1
  Co  Co8  1  0.411413  0.909301  0.768475  1
  Co  Co9  1  0.910811  0.909301  0.768475  1
  Co  Co10  1  0.910182  0.411324  0.768312  1
  Ni  Ni11  1  0.587465  0.088760  0.231870  1
  Ni  Ni12  1  0.091905  0.088760  0.231870  1
