# generated using pymatgen
data_Ti13Be4Al4GaCo8
_symmetry_space_group_name_H-M   'P 1'
_cell_length_a   8.30406588
_cell_length_b   8.30406589
_cell_length_c   8.30406719
_cell_angle_alpha   59.77220671
_cell_angle_beta   59.77220966
_cell_angle_gamma   59.77221060
_symmetry_Int_Tables_number   1
_chemical_formula_structural   Ti13Be4Al4GaCo8
_chemical_formula_sum   'Ti13 Be4 Al4 Ga1 Co8'
_cell_volume   402.81483346
_cell_formula_units_Z   1
loop_
 _symmetry_equiv_pos_site_id
 _symmetry_equiv_pos_as_xyz
  1  'x, y, z'
loop_
 _atom_site_type_symbol
 _atom_site_label
 _atom_site_symmetry_multiplicity
 _atom_site_fract_x
 _atom_site_fract_y
 _atom_site_fract_z
 _atom_site_occupancy
  Ti  Ti0  1  0.209295  0.209295  0.795293  1
  Ti  Ti1  1  0.795293  0.209295  0.209295  1
  Ti  Ti2  1  0.209295  0.795293  0.209295  1
  Ti  Ti3  1  0.802094  0.802094  0.179966  1
  Ti  Ti4  1  0.179966  0.802094  0.802094  1
  Ti  Ti5  1  0.802094  0.179966  0.802094  1
  Ti  Ti6  1  0.371807  0.371807  0.371807  1
  Ti  Ti7  1  0.373853  0.886001  0.373853  1
  Ti  Ti8  1  0.886001  0.373853  0.373853  1
  Ti  Ti9  1  0.373853  0.373853  0.886001  1
  Ti  Ti10  1  0.841603  0.468828  0.841603  1
  Ti  Ti11  1  0.468828  0.841603  0.841603  1
  Ti  Ti12  1  0.841603  0.841603  0.468828  1
  Be  Be13  1  0.154745  0.154745  0.154745  1
  Be  Be14  1  0.158068  0.533717  0.158068  1
  Be  Be15  1  0.533717  0.158068  0.158068  1
  Be  Be16  1  0.158068  0.158068  0.533717  1
  Al  Al17  1  0.616488  0.149932  0.616488  1
  Al  Al18  1  0.149932  0.616488  0.616488  1
  Al  Al19  1  0.616488  0.616488  0.149932  1
  Al  Al20  1  0.826787  0.826787  0.826787  1
  Ga  Ga21  1  0.616628  0.616628  0.616628  1
  Co  Co22  1  0.009157  0.009157  0.493261  1
  Co  Co23  1  0.493261  0.009157  0.009157  1
  Co  Co24  1  0.009157  0.493261  0.009157  1
  Co  Co25  1  0.494036  0.494036  0.009180  1
  Co  Co26  1  0.009180  0.494036  0.494036  1
  Co  Co27  1  0.494036  0.009180  0.494036  1
  Co  Co28  1  0.499375  0.499375  0.499375  1
  Co  Co29  1  0.005290  0.005290  0.005290  1
