# generated using pymatgen
data_Y13Th3Mg2(ZnIr2)2
_symmetry_space_group_name_H-M   'P 1'
_cell_length_a   9.71823863
_cell_length_b   9.72579218
_cell_length_c   9.74104800
_cell_angle_alpha   59.94810455
_cell_angle_beta   59.92233602
_cell_angle_gamma   60.05398431
_symmetry_Int_Tables_number   1
_chemical_formula_structural   Y13Th3Mg2(ZnIr2)2
_chemical_formula_sum   'Y13 Th3 Mg2 Zn2 Ir4'
_cell_volume   650.65950562
_cell_formula_units_Z   1
loop_
 _symmetry_equiv_pos_site_id
 _symmetry_equiv_pos_as_xyz
  1  'x, y, z'
loop_
 _atom_site_type_symbol
 _atom_site_label
 _atom_site_symmetry_multiplicity
 _atom_site_fract_x
 _atom_site_fract_y
 _atom_site_fract_z
 _atom_site_occupancy
  Y  Y0  1  0.194568  0.603761  0.600836  1
  Y  Y1  1  0.061008  0.439394  0.439855  1
  Y  Y2  1  0.436851  0.062050  0.062442  1
  Y  Y3  1  0.436851  0.062050  0.438658  1
  Y  Y4  1  0.061008  0.439394  0.059744  1
  Y  Y5  1  0.437031  0.437530  0.062720  1
  Y  Y6  1  0.058560  0.057396  0.442022  1
  Y  Y7  1  0.182230  0.812961  0.814643  1
  Y  Y8  1  0.814693  0.180669  0.189137  1
  Y  Y9  1  0.814693  0.180669  0.815501  1
  Y  Y10  1  0.182230  0.812961  0.190168  1
  Y  Y11  1  0.815109  0.814818  0.185036  1
  Y  Y12  1  0.187631  0.185454  0.813458  1
  Th  Th13  1  0.598204  0.600020  0.597702  1
  Th  Th14  1  0.598204  0.600020  0.204074  1
  Th  Th15  1  0.601964  0.197963  0.600036  1
  Mg  Mg16  1  0.830209  0.521406  0.824193  1
  Mg  Mg17  1  0.518397  0.829241  0.826182  1
  Zn  Zn18  1  0.833214  0.833096  0.833900  1
  Zn  Zn19  1  0.833214  0.833096  0.499791  1
  Ir  Ir20  1  0.395052  0.391223  0.393567  1
  Ir  Ir21  1  0.395052  0.391223  0.820158  1
  Ir  Ir22  1  0.394466  0.820948  0.392294  1
  Ir  Ir23  1  0.819560  0.392662  0.393888  1
