# generated using pymatgen
data_Er9TmCo4
_symmetry_space_group_name_H-M   'P 1'
_cell_length_a   6.24153540
_cell_length_b   6.89063048
_cell_length_c   8.45026652
_cell_angle_alpha   96.41139516
_cell_angle_beta   111.67307196
_cell_angle_gamma   90.00000633
_symmetry_Int_Tables_number   1
_chemical_formula_structural   Er9TmCo4
_chemical_formula_sum   'Er9 Tm1 Co4'
_cell_volume   335.29067460
_cell_formula_units_Z   1
loop_
 _symmetry_equiv_pos_site_id
 _symmetry_equiv_pos_as_xyz
  1  'x, y, z'
loop_
 _atom_site_type_symbol
 _atom_site_label
 _atom_site_symmetry_multiplicity
 _atom_site_fract_x
 _atom_site_fract_y
 _atom_site_fract_z
 _atom_site_occupancy
  Er  Er0  1  0.795393  0.086878  0.812072  1
  Er  Er1  1  0.983322  0.413122  0.187928  1
  Er  Er2  1  0.204080  0.912296  0.187705  1
  Er  Er3  1  0.016374  0.587704  0.812295  1
  Er  Er4  1  0.215294  0.184108  0.566760  1
  Er  Er5  1  0.648533  0.315892  0.433240  1
  Er  Er6  1  0.784832  0.815689  0.432821  1
  Er  Er7  1  0.352011  0.684311  0.567179  1
  Er  Er8  1  0.427833  0.250000  0.000000  1
  Tm  Tm9  1  0.571644  0.750000  0.000000  1
  Co  Co10  1  0.602155  0.428020  0.778763  1
  Co  Co11  1  0.823392  0.071980  0.221237  1
  Co  Co12  1  0.398163  0.572274  0.221193  1
  Co  Co13  1  0.176971  0.927726  0.778807  1
