# generated using pymatgen
data_Lu12ZnCo4Hg
_symmetry_space_group_name_H-M   'P 1'
_cell_length_a   8.09513170
_cell_length_b   8.09513031
_cell_length_c   8.09513123
_cell_angle_alpha   111.85661903
_cell_angle_beta   110.44048559
_cell_angle_gamma   106.16954117
_symmetry_Int_Tables_number   1
_chemical_formula_structural   Lu12ZnCo4Hg
_chemical_formula_sum   'Lu12 Zn1 Co4 Hg1'
_cell_volume   407.29043205
_cell_formula_units_Z   1
loop_
 _symmetry_equiv_pos_site_id
 _symmetry_equiv_pos_as_xyz
  1  'x, y, z'
loop_
 _atom_site_type_symbol
 _atom_site_label
 _atom_site_symmetry_multiplicity
 _atom_site_fract_x
 _atom_site_fract_y
 _atom_site_fract_z
 _atom_site_occupancy
  Lu  Lu0  1  0.431899  0.231448  0.200449  1
  Lu  Lu1  1  0.568101  0.768552  0.799551  1
  Lu  Lu2  1  0.030999  0.231448  0.799551  1
  Lu  Lu3  1  0.969001  0.768552  0.200449  1
  Lu  Lu4  1  0.183228  0.283086  0.466314  1
  Lu  Lu5  1  0.816772  0.716914  0.533686  1
  Lu  Lu6  1  0.183228  0.716914  0.900142  1
  Lu  Lu7  1  0.816772  0.283086  0.099858  1
  Lu  Lu8  1  0.319129  0.624343  0.305215  1
  Lu  Lu9  1  0.680871  0.375657  0.694785  1
  Lu  Lu10  1  0.319129  0.013914  0.694785  1
  Lu  Lu11  1  0.680871  0.986086  0.305215  1
  Zn  Zn12  1  0.000000  0.000000  0.000000  1
  Co  Co13  1  0.365209  0.000000  0.365209  1
  Co  Co14  1  0.634791  0.000000  0.634791  1
  Co  Co15  1  0.115325  0.615325  0.500000  1
  Co  Co16  1  0.884675  0.384675  0.500000  1
  Hg  Hg17  1  0.500000  0.500000  0.000000  1
