# generated using pymatgen
data_CeY2BiRh3Pb2
_symmetry_space_group_name_H-M   'P 1'
_cell_length_a   7.70675350
_cell_length_b   7.81178968
_cell_length_c   3.91815600
_cell_angle_alpha   90.00000000
_cell_angle_beta   90.00000000
_cell_angle_gamma   120.16767875
_symmetry_Int_Tables_number   1
_chemical_formula_structural   CeY2BiRh3Pb2
_chemical_formula_sum   'Ce1 Y2 Bi1 Rh3 Pb2'
_cell_volume   203.93796466
_cell_formula_units_Z   1
loop_
 _symmetry_equiv_pos_site_id
 _symmetry_equiv_pos_as_xyz
  1  'x, y, z'
loop_
 _atom_site_type_symbol
 _atom_site_label
 _atom_site_symmetry_multiplicity
 _atom_site_fract_x
 _atom_site_fract_y
 _atom_site_fract_z
 _atom_site_occupancy
  Ce  Ce0  1  0.002777  0.589190  0.500000  1
  Y  Y1  1  0.399520  0.398199  0.500000  1
  Y  Y2  1  0.597157  0.002853  0.500000  1
  Bi  Bi3  1  0.729537  0.737295  0.000000  1
  Rh  Rh4  1  0.998165  0.993054  0.500000  1
  Rh  Rh5  1  0.682405  0.349096  0.000000  1
  Rh  Rh6  1  0.316596  0.664973  0.000000  1
  Pb  Pb7  1  0.272751  0.009090  0.000000  1
  Pb  Pb8  1  0.001092  0.256247  0.000000  1
