# generated using pymatgen
data_Ho(ErHg2)5
_symmetry_space_group_name_H-M   'P 1'
_cell_length_a   6.32918525
_cell_length_b   6.32918513
_cell_length_c   10.19913492
_cell_angle_alpha   90.02930989
_cell_angle_beta   90.02930821
_cell_angle_gamma   105.05348950
_symmetry_Int_Tables_number   1
_chemical_formula_structural   Ho(ErHg2)5
_chemical_formula_sum   'Ho1 Er5 Hg10'
_cell_volume   394.54244073
_cell_formula_units_Z   1
loop_
 _symmetry_equiv_pos_site_id
 _symmetry_equiv_pos_as_xyz
  1  'x, y, z'
loop_
 _atom_site_type_symbol
 _atom_site_label
 _atom_site_symmetry_multiplicity
 _atom_site_fract_x
 _atom_site_fract_y
 _atom_site_fract_z
 _atom_site_occupancy
  Ho  Ho0  1  0.211438  0.788562  0.500000  1
  Er  Er1  1  0.589684  0.589314  0.249980  1
  Er  Er2  1  0.410686  0.410316  0.750020  1
  Er  Er3  1  0.211829  0.788171  0.000000  1
  Er  Er4  1  0.788408  0.211592  0.500000  1
  Er  Er5  1  0.787986  0.212014  0.000000  1
  Hg  Hg6  1  0.988487  0.988484  0.249728  1
  Hg  Hg7  1  0.011516  0.011513  0.750272  1
  Hg  Hg8  1  0.298931  0.298855  0.032832  1
  Hg  Hg9  1  0.701145  0.701069  0.967168  1
  Hg  Hg10  1  0.299119  0.299500  0.466861  1
  Hg  Hg11  1  0.700500  0.700881  0.533139  1
  Hg  Hg12  1  0.494313  0.052406  0.249809  1
  Hg  Hg13  1  0.947594  0.505687  0.750191  1
  Hg  Hg14  1  0.506483  0.948118  0.750415  1
  Hg  Hg15  1  0.051882  0.493517  0.249585  1
