# generated using pymatgen
data_Ho3Pa5(GaRh)8
_symmetry_space_group_name_H-M   'P 1'
_cell_length_a   4.02608000
_cell_length_b   7.26329917
_cell_length_c   16.00456600
_cell_angle_alpha   89.90893632
_cell_angle_beta   90.00000000
_cell_angle_gamma   90.00000000
_symmetry_Int_Tables_number   1
_chemical_formula_structural   Ho3Pa5(GaRh)8
_chemical_formula_sum   'Ho3 Pa5 Ga8 Rh8'
_cell_volume   468.01490730
_cell_formula_units_Z   1
loop_
 _symmetry_equiv_pos_site_id
 _symmetry_equiv_pos_as_xyz
  1  'x, y, z'
loop_
 _atom_site_type_symbol
 _atom_site_label
 _atom_site_symmetry_multiplicity
 _atom_site_fract_x
 _atom_site_fract_y
 _atom_site_fract_z
 _atom_site_occupancy
  Ho  Ho0  1  0.750000  0.335945  0.440282  1
  Ho  Ho1  1  0.750000  0.830511  0.057149  1
  Ho  Ho2  1  0.250000  0.164862  0.943305  1
  Pa  Pa3  1  0.250000  0.549605  0.781180  1
  Pa  Pa4  1  0.750000  0.444630  0.218065  1
  Pa  Pa5  1  0.750000  0.945809  0.281505  1
  Pa  Pa6  1  0.250000  0.053919  0.719347  1
  Pa  Pa7  1  0.250000  0.665107  0.557713  1
  Ga  Ga8  1  0.250000  0.610883  0.352120  1
  Ga  Ga9  1  0.750000  0.388105  0.650258  1
  Ga  Ga10  1  0.750000  0.889379  0.848302  1
  Ga  Ga11  1  0.250000  0.104935  0.148286  1
  Ga  Ga12  1  0.250000  0.512069  0.059823  1
  Ga  Ga13  1  0.750000  0.489266  0.939255  1
  Ga  Ga14  1  0.750000  0.005636  0.562752  1
  Ga  Ga15  1  0.250000  0.012187  0.439648  1
  Rh  Rh16  1  0.250000  0.736466  0.194232  1
  Rh  Rh17  1  0.750000  0.258755  0.809235  1
  Rh  Rh18  1  0.750000  0.756245  0.682715  1
  Rh  Rh19  1  0.250000  0.235454  0.309229  1
  Rh  Rh20  1  0.250000  0.729687  0.921803  1
  Rh  Rh21  1  0.750000  0.270661  0.076003  1
  Rh  Rh22  1  0.750000  0.766039  0.434731  1
  Rh  Rh23  1  0.250000  0.243845  0.573062  1
