# generated using pymatgen
data_Ce6Co12Si3Ge
_symmetry_space_group_name_H-M   'P 1'
_cell_length_a   7.55851138
_cell_length_b   7.56819767
_cell_length_c   7.56692158
_cell_angle_alpha   109.54934561
_cell_angle_beta   109.50924164
_cell_angle_gamma   109.49090153
_symmetry_Int_Tables_number   1
_chemical_formula_structural   Ce6Co12Si3Ge
_chemical_formula_sum   'Ce6 Co12 Si3 Ge1'
_cell_volume   332.65637334
_cell_formula_units_Z   1
loop_
 _symmetry_equiv_pos_site_id
 _symmetry_equiv_pos_as_xyz
  1  'x, y, z'
loop_
 _atom_site_type_symbol
 _atom_site_label
 _atom_site_symmetry_multiplicity
 _atom_site_fract_x
 _atom_site_fract_y
 _atom_site_fract_z
 _atom_site_occupancy
  Ce  Ce0  1  0.718301  0.718410  0.001122  1
  Ce  Ce1  1  0.281613  0.998850  0.281552  1
  Ce  Ce2  1  0.998739  0.281496  0.281542  1
  Ce  Ce3  1  0.281699  0.281590  0.998878  1
  Ce  Ce4  1  0.718387  0.001150  0.718448  1
  Ce  Ce5  1  0.001261  0.718504  0.718458  1
  Co  Co6  1  0.345709  0.345648  0.700071  1
  Co  Co7  1  0.651803  0.000009  0.348077  1
  Co  Co8  1  0.000025  0.651820  0.348208  1
  Co  Co9  1  0.651793  0.348058  0.999984  1
  Co  Co10  1  0.345755  0.700165  0.345725  1
  Co  Co11  1  0.999975  0.348180  0.651792  1
  Co  Co12  1  0.348207  0.651942  0.000016  1
  Co  Co13  1  0.348197  0.999991  0.651923  1
  Co  Co14  1  0.699788  0.345464  0.345494  1
  Co  Co15  1  0.654291  0.654352  0.299929  1
  Co  Co16  1  0.654245  0.299835  0.654275  1
  Co  Co17  1  0.300212  0.654536  0.654506  1
  Si  Si18  1  0.000000  0.000000  0.500000  1
  Si  Si19  1  0.000000  0.500000  0.000000  1
  Si  Si20  1  0.500000  0.000000  0.000000  1
  Ge  Ge21  1  0.500000  0.500000  0.500000  1
