# generated using pymatgen
data_Hf4Fe3Si4Ni
_symmetry_space_group_name_H-M   'P 1'
_cell_length_a   3.90722500
_cell_length_b   6.38113708
_cell_length_c   7.02115666
_cell_angle_alpha   89.82999791
_cell_angle_beta   90.00000000
_cell_angle_gamma   90.00000000
_symmetry_Int_Tables_number   1
_chemical_formula_structural   Hf4Fe3Si4Ni
_chemical_formula_sum   'Hf4 Fe3 Si4 Ni1'
_cell_volume   175.05448704
_cell_formula_units_Z   1
loop_
 _symmetry_equiv_pos_site_id
 _symmetry_equiv_pos_as_xyz
  1  'x, y, z'
loop_
 _atom_site_type_symbol
 _atom_site_label
 _atom_site_symmetry_multiplicity
 _atom_site_fract_x
 _atom_site_fract_y
 _atom_site_fract_z
 _atom_site_occupancy
  Hf  Hf0  1  0.250000  0.996853  0.302541  1
  Hf  Hf1  1  0.250000  0.505369  0.196867  1
  Hf  Hf2  1  0.750000  0.993210  0.692125  1
  Hf  Hf3  1  0.750000  0.503410  0.802645  1
  Fe  Fe4  1  0.250000  0.653738  0.568681  1
  Fe  Fe5  1  0.750000  0.849299  0.069021  1
  Fe  Fe6  1  0.750000  0.345524  0.437001  1
  Si  Si7  1  0.250000  0.285999  0.600256  1
  Si  Si8  1  0.250000  0.784676  0.894085  1
  Si  Si9  1  0.750000  0.710291  0.393245  1
  Si  Si10  1  0.750000  0.216395  0.112381  1
  Ni  Ni11  1  0.250000  0.155236  0.931152  1
