# generated using pymatgen
data_Ho6TmMoO12
_symmetry_space_group_name_H-M   'P 1'
_cell_length_a   6.64153963
_cell_length_b   6.64153919
_cell_length_c   6.64153965
_cell_angle_alpha   92.35211448
_cell_angle_beta   92.35210416
_cell_angle_gamma   92.35210285
_symmetry_Int_Tables_number   1
_chemical_formula_structural   Ho6TmMoO12
_chemical_formula_sum   'Ho6 Tm1 Mo1 O12'
_cell_volume   292.19722264
_cell_formula_units_Z   1
loop_
 _symmetry_equiv_pos_site_id
 _symmetry_equiv_pos_as_xyz
  1  'x, y, z'
loop_
 _atom_site_type_symbol
 _atom_site_label
 _atom_site_symmetry_multiplicity
 _atom_site_fract_x
 _atom_site_fract_y
 _atom_site_fract_z
 _atom_site_occupancy
  Ho  Ho0  1  0.744988  0.930110  0.439598  1
  Ho  Ho1  1  0.930110  0.439598  0.744988  1
  Ho  Ho2  1  0.439598  0.744988  0.930110  1
  Ho  Ho3  1  0.255012  0.069890  0.560402  1
  Ho  Ho4  1  0.069890  0.560402  0.255012  1
  Ho  Ho5  1  0.560402  0.255012  0.069890  1
  Tm  Tm6  1  0.000000  0.000000  0.000000  1
  Mo  Mo7  1  0.500000  0.500000  0.500000  1
  O  O8  1  0.597115  0.466760  0.811382  1
  O  O9  1  0.466760  0.811382  0.597115  1
  O  O10  1  0.811382  0.597115  0.466760  1
  O  O11  1  0.402885  0.533240  0.188618  1
  O  O12  1  0.533240  0.188618  0.402885  1
  O  O13  1  0.188618  0.402885  0.533240  1
  O  O14  1  0.070014  0.908205  0.315117  1
  O  O15  1  0.908205  0.315117  0.070014  1
  O  O16  1  0.684883  0.929986  0.091795  1
  O  O17  1  0.091795  0.684883  0.929986  1
  O  O18  1  0.929986  0.091795  0.684883  1
  O  O19  1  0.315117  0.070014  0.908205  1
