# generated using pymatgen
data_Nd3Dy2P12Ru18Pt
_symmetry_space_group_name_H-M   'P 1'
_cell_length_a   12.55652426
_cell_length_b   12.58443435
_cell_length_c   4.00583900
_cell_angle_alpha   90.00000000
_cell_angle_beta   90.00000000
_cell_angle_gamma   119.43118576
_symmetry_Int_Tables_number   1
_chemical_formula_structural   Nd3Dy2P12Ru18Pt
_chemical_formula_sum   'Nd3 Dy2 P12 Ru18 Pt1'
_cell_volume   551.30013801
_cell_formula_units_Z   1
loop_
 _symmetry_equiv_pos_site_id
 _symmetry_equiv_pos_as_xyz
  1  'x, y, z'
loop_
 _atom_site_type_symbol
 _atom_site_label
 _atom_site_symmetry_multiplicity
 _atom_site_fract_x
 _atom_site_fract_y
 _atom_site_fract_z
 _atom_site_occupancy
  Nd  Nd0  1  0.816356  0.999647  0.500000  1
  Nd  Nd1  1  0.184726  0.185175  0.500000  1
  Nd  Nd2  1  0.000006  0.815169  0.500000  1
  Dy  Dy3  1  0.662879  0.331545  0.000000  1
  Dy  Dy4  1  0.335470  0.667118  0.000000  1
  P  P5  1  0.627175  0.999098  0.000000  1
  P  P6  1  0.373904  0.374854  0.000000  1
  P  P7  1  0.011462  0.636628  0.000000  1
  P  P8  1  0.686315  0.521653  0.500000  1
  P  P9  1  0.821993  0.295757  0.500000  1
  P  P10  1  0.304944  0.825441  0.500000  1
  P  P11  1  0.521593  0.695370  0.500000  1
  P  P12  1  0.188547  0.001448  0.000000  1
  P  P13  1  0.814132  0.812110  0.000000  1
  P  P14  1  0.002086  0.189340  0.000000  1
  P  P15  1  0.476693  0.172586  0.500000  1
  P  P16  1  0.173588  0.479235  0.500000  1
  Ru  Ru17  1  0.620412  0.804045  0.000000  1
  Ru  Ru18  1  0.184833  0.382157  0.000000  1
  Ru  Ru19  1  0.379576  0.184606  0.000000  1
  Ru  Ru20  1  0.200286  0.818360  0.000000  1
  Ru  Ru21  1  0.807686  0.618177  0.000000  1
  Ru  Ru22  1  0.490404  0.365236  0.500000  1
  Ru  Ru23  1  0.630784  0.124622  0.500000  1
  Ru  Ru24  1  0.124179  0.633185  0.500000  1
  Ru  Ru25  1  0.367954  0.494241  0.500000  1
  Ru  Ru26  1  0.506367  0.874240  0.500000  1
  Ru  Ru27  1  0.000223  0.000497  0.000000  1
  Ru  Ru28  1  0.715402  0.714243  0.500000  1
  Ru  Ru29  1  0.000571  0.287906  0.500000  1
  Ru  Ru30  1  0.448335  0.001903  0.000000  1
  Ru  Ru31  1  0.555970  0.552854  0.000000  1
  Ru  Ru32  1  0.997408  0.448137  0.000000  1
  Ru  Ru33  1  0.815712  0.195464  0.000000  1
  Ru  Ru34  1  0.286354  0.999874  0.500000  1
  Pt  Pt35  1  0.865675  0.498081  0.500000  1
