# generated using pymatgen
data_Ba4Bi2O9
_symmetry_space_group_name_H-M   'P 1'
_cell_length_a   6.33262902
_cell_length_b   6.33257913
_cell_length_c   17.15883800
_cell_angle_alpha   90.00000000
_cell_angle_beta   90.00000000
_cell_angle_gamma   119.99830618
_symmetry_Int_Tables_number   1
_chemical_formula_structural   Ba4Bi2O9
_chemical_formula_sum   'Ba8 Bi4 O18'
_cell_volume   595.92360707
_cell_formula_units_Z   2
loop_
 _symmetry_equiv_pos_site_id
 _symmetry_equiv_pos_as_xyz
  1  'x, y, z'
loop_
 _atom_site_type_symbol
 _atom_site_label
 _atom_site_symmetry_multiplicity
 _atom_site_fract_x
 _atom_site_fract_y
 _atom_site_fract_z
 _atom_site_occupancy
  Ba  Ba0  1  0.000012  0.000018  0.750000  1
  Ba  Ba1  1  0.999988  0.999982  0.250000  1
  Ba  Ba2  1  0.666671  0.333350  0.633341  1
  Ba  Ba3  1  0.333329  0.666650  0.133341  1
  Ba  Ba4  1  0.333329  0.666650  0.366659  1
  Ba  Ba5  1  0.666671  0.333350  0.866659  1
  Ba  Ba6  1  0.000000  0.000000  0.500000  1
  Ba  Ba7  1  0.000000  0.000000  0.000000  1
  Bi  Bi8  1  0.666672  0.333328  0.341280  1
  Bi  Bi9  1  0.333328  0.666672  0.841280  1
  Bi  Bi10  1  0.333328  0.666672  0.658720  1
  Bi  Bi11  1  0.666672  0.333328  0.158720  1
  O  O12  1  0.540378  0.960175  0.750000  1
  O  O13  1  0.039839  0.580213  0.750000  1
  O  O14  1  0.419793  0.459637  0.750000  1
  O  O15  1  0.459622  0.039825  0.250000  1
  O  O16  1  0.960161  0.419787  0.250000  1
  O  O17  1  0.580207  0.540363  0.250000  1
  O  O18  1  0.084799  0.339127  0.606164  1
  O  O19  1  0.660895  0.745704  0.606163  1
  O  O20  1  0.254307  0.915238  0.606174  1
  O  O21  1  0.915201  0.660873  0.106164  1
  O  O22  1  0.339105  0.254296  0.106163  1
  O  O23  1  0.745693  0.084762  0.106174  1
  O  O24  1  0.915201  0.660873  0.393836  1
  O  O25  1  0.339105  0.254296  0.393837  1
  O  O26  1  0.745693  0.084762  0.393826  1
  O  O27  1  0.084799  0.339127  0.893836  1
  O  O28  1  0.660895  0.745704  0.893837  1
  O  O29  1  0.254307  0.915238  0.893826  1
