# generated using pymatgen
data_Nd5Sm(CI3)2
_symmetry_space_group_name_H-M   'P 1'
_cell_length_a   4.02719300
_cell_length_b   9.00404624
_cell_length_c   12.16429180
_cell_angle_alpha   92.51048684
_cell_angle_beta   90.00000000
_cell_angle_gamma   90.00000000
_symmetry_Int_Tables_number   1
_chemical_formula_structural   Nd5Sm(CI3)2
_chemical_formula_sum   'Nd5 Sm1 C2 I6'
_cell_volume   440.66642544
_cell_formula_units_Z   1
loop_
 _symmetry_equiv_pos_site_id
 _symmetry_equiv_pos_as_xyz
  1  'x, y, z'
loop_
 _atom_site_type_symbol
 _atom_site_label
 _atom_site_symmetry_multiplicity
 _atom_site_fract_x
 _atom_site_fract_y
 _atom_site_fract_z
 _atom_site_occupancy
  Nd  Nd0  1  0.250000  0.914320  0.602277  1
  Nd  Nd1  1  0.750000  0.084914  0.397568  1
  Nd  Nd2  1  0.250000  0.886040  0.180131  1
  Nd  Nd3  1  0.750000  0.113658  0.820314  1
  Nd  Nd4  1  0.250000  0.298847  0.615967  1
  Sm  Sm5  1  0.750000  0.704579  0.383618  1
  C  C6  1  0.250000  0.877028  0.384558  1
  C  C7  1  0.750000  0.118407  0.615637  1
  I  I8  1  0.250000  0.854721  0.875587  1
  I  I9  1  0.750000  0.144992  0.124462  1
  I  I10  1  0.250000  0.379291  0.873747  1
  I  I11  1  0.750000  0.620752  0.128587  1
  I  I12  1  0.250000  0.384781  0.364780  1
  I  I13  1  0.750000  0.617669  0.632766  1
