# generated using pymatgen
data_KSrH9W
_symmetry_space_group_name_H-M   'P 1'
_cell_length_a   9.27506000
_cell_length_b   9.27505950
_cell_length_c   5.41633700
_cell_angle_alpha   90.00000000
_cell_angle_beta   90.00000000
_cell_angle_gamma   120.00000180
_symmetry_Int_Tables_number   1
_chemical_formula_structural   KSrH9W
_chemical_formula_sum   'K3 Sr3 H27 W3'
_cell_volume   403.52433797
_cell_formula_units_Z   3
loop_
 _symmetry_equiv_pos_site_id
 _symmetry_equiv_pos_as_xyz
  1  'x, y, z'
loop_
 _atom_site_type_symbol
 _atom_site_label
 _atom_site_symmetry_multiplicity
 _atom_site_fract_x
 _atom_site_fract_y
 _atom_site_fract_z
 _atom_site_occupancy
  K  K0  1  0.000000  0.600985  0.000000  1
  K  K1  1  0.399015  0.399015  0.000000  1
  K  K2  1  0.600985  0.000000  0.000000  1
  Sr  Sr3  1  0.000000  0.274648  0.500000  1
  Sr  Sr4  1  0.725352  0.725352  0.500000  1
  Sr  Sr5  1  0.274648  0.000000  0.500000  1
  H  H6  1  0.798771  0.329348  0.736563  1
  H  H7  1  0.670652  0.469422  0.736563  1
  H  H8  1  0.530578  0.201229  0.736563  1
  H  H9  1  0.201229  0.530578  0.263437  1
  H  H10  1  0.530578  0.201229  0.263437  1
  H  H11  1  0.798771  0.329348  0.263437  1
  H  H12  1  0.670652  0.469422  0.263437  1
  H  H13  1  0.329348  0.798771  0.736563  1
  H  H14  1  0.469422  0.670652  0.736563  1
  H  H15  1  0.189347  0.000000  0.000000  1
  H  H16  1  0.810653  0.810653  0.000000  1
  H  H17  1  0.000000  0.189347  0.000000  1
  H  H18  1  0.865817  0.000000  0.236777  1
  H  H19  1  0.134183  0.134183  0.763223  1
  H  H20  1  0.000000  0.865817  0.763223  1
  H  H21  1  0.000000  0.865817  0.236777  1
  H  H22  1  0.134183  0.134183  0.236777  1
  H  H23  1  0.865817  0.000000  0.763223  1
  H  H24  1  0.143494  0.665421  0.500000  1
  H  H25  1  0.521927  0.856506  0.500000  1
  H  H26  1  0.334579  0.478073  0.500000  1
  H  H27  1  0.478073  0.334579  0.500000  1
  H  H28  1  0.856506  0.521927  0.500000  1
  H  H29  1  0.665421  0.143494  0.500000  1
  H  H30  1  0.201229  0.530578  0.736563  1
  H  H31  1  0.329348  0.798771  0.263437  1
  H  H32  1  0.469422  0.670652  0.263437  1
  W  W33  1  0.666667  0.333333  0.500000  1
  W  W34  1  0.333333  0.666667  0.500000  1
  W  W35  1  0.000000  0.000000  0.000000  1
