# generated using pymatgen
data_LaZn3Bi(PN2)6
_symmetry_space_group_name_H-M   'P 1'
_cell_length_a   7.43293413
_cell_length_b   7.34676736
_cell_length_c   7.43293426
_cell_angle_alpha   109.23655317
_cell_angle_beta   109.70484911
_cell_angle_gamma   109.23656513
_symmetry_Int_Tables_number   1
_chemical_formula_structural   LaZn3Bi(PN2)6
_chemical_formula_sum   'La1 Zn3 Bi1 P6 N12'
_cell_volume   313.36073201
_cell_formula_units_Z   1
loop_
 _symmetry_equiv_pos_site_id
 _symmetry_equiv_pos_as_xyz
  1  'x, y, z'
loop_
 _atom_site_type_symbol
 _atom_site_label
 _atom_site_symmetry_multiplicity
 _atom_site_fract_x
 _atom_site_fract_y
 _atom_site_fract_z
 _atom_site_occupancy
  La  La0  1  0.000000  0.339559  0.000000  1
  Zn  Zn1  1  0.625082  0.638041  0.625082  1
  Zn  Zn2  1  0.374918  0.012959  0.000000  1
  Zn  Zn3  1  0.000000  0.012959  0.374918  1
  Bi  Bi4  1  0.000000  0.901669  0.000000  1
  P  P5  1  0.742838  0.253207  0.492664  1
  P  P6  1  0.250174  0.760543  0.507336  1
  P  P7  1  0.507336  0.760543  0.250174  1
  P  P8  1  0.492664  0.253207  0.742838  1
  P  P9  1  0.749826  0.510368  0.257162  1
  P  P10  1  0.257162  0.510368  0.749826  1
  N  N11  1  0.588755  0.292553  0.000000  1
  N  N12  1  0.422494  0.428856  0.697306  1
  N  N13  1  0.000000  0.292553  0.588755  1
  N  N14  1  0.274811  0.006362  0.577506  1
  N  N15  1  0.697306  0.428856  0.422494  1
  N  N16  1  0.000000  0.577494  0.308344  1
  N  N17  1  0.577506  0.006362  0.274811  1
  N  N18  1  0.411245  0.703798  0.411245  1
  N  N19  1  0.308344  0.577494  0.000000  1
  N  N20  1  0.691656  0.269148  0.691656  1
  N  N21  1  0.725189  0.731551  0.302694  1
  N  N22  1  0.302694  0.731551  0.725189  1
