# generated using pymatgen
data_Er19Mg(Cd3Ir)2
_symmetry_space_group_name_H-M   'P 1'
_cell_length_a   9.56822800
_cell_length_b   9.56822755
_cell_length_c   9.74972100
_cell_angle_alpha   90.00000000
_cell_angle_beta   90.00000000
_cell_angle_gamma   120.00000155
_symmetry_Int_Tables_number   1
_chemical_formula_structural   Er19Mg(Cd3Ir)2
_chemical_formula_sum   'Er19 Mg1 Cd6 Ir2'
_cell_volume   773.01126632
_cell_formula_units_Z   1
loop_
 _symmetry_equiv_pos_site_id
 _symmetry_equiv_pos_as_xyz
  1  'x, y, z'
loop_
 _atom_site_type_symbol
 _atom_site_label
 _atom_site_symmetry_multiplicity
 _atom_site_fract_x
 _atom_site_fract_y
 _atom_site_fract_z
 _atom_site_occupancy
  Er  Er0  1  0.000000  0.000000  0.000000  1
  Er  Er1  1  0.207847  0.792153  0.439619  1
  Er  Er2  1  0.207847  0.415696  0.439619  1
  Er  Er3  1  0.584304  0.792153  0.439619  1
  Er  Er4  1  0.792153  0.207847  0.560381  1
  Er  Er5  1  0.792153  0.584304  0.560381  1
  Er  Er6  1  0.415696  0.207847  0.560381  1
  Er  Er7  1  0.789718  0.210282  0.942003  1
  Er  Er8  1  0.789718  0.579436  0.942003  1
  Er  Er9  1  0.420564  0.210282  0.942003  1
  Er  Er10  1  0.210282  0.789718  0.057997  1
  Er  Er11  1  0.210282  0.420564  0.057997  1
  Er  Er12  1  0.579436  0.789718  0.057997  1
  Er  Er13  1  0.541422  0.458578  0.251797  1
  Er  Er14  1  0.541422  0.082843  0.251797  1
  Er  Er15  1  0.917157  0.458578  0.251797  1
  Er  Er16  1  0.458578  0.541422  0.748203  1
  Er  Er17  1  0.458578  0.917157  0.748203  1
  Er  Er18  1  0.082843  0.541422  0.748203  1
  Mg  Mg19  1  0.000000  0.000000  0.500000  1
  Cd  Cd20  1  0.887776  0.112224  0.256528  1
  Cd  Cd21  1  0.887776  0.775552  0.256528  1
  Cd  Cd22  1  0.224448  0.112224  0.256528  1
  Cd  Cd23  1  0.112224  0.887776  0.743472  1
  Cd  Cd24  1  0.112224  0.224448  0.743472  1
  Cd  Cd25  1  0.775552  0.887776  0.743472  1
  Ir  Ir26  1  0.333333  0.666667  0.251001  1
  Ir  Ir27  1  0.666667  0.333333  0.748999  1
