# generated using pymatgen
data_YTh3(MgIr)4
_symmetry_space_group_name_H-M   'P 1'
_cell_length_a   4.13866700
_cell_length_b   7.21339671
_cell_length_c   8.74732138
_cell_angle_alpha   89.64538836
_cell_angle_beta   90.00000000
_cell_angle_gamma   90.00000000
_symmetry_Int_Tables_number   1
_chemical_formula_structural   YTh3(MgIr)4
_chemical_formula_sum   'Y1 Th3 Mg4 Ir4'
_cell_volume   261.13619188
_cell_formula_units_Z   1
loop_
 _symmetry_equiv_pos_site_id
 _symmetry_equiv_pos_as_xyz
  1  'x, y, z'
loop_
 _atom_site_type_symbol
 _atom_site_label
 _atom_site_symmetry_multiplicity
 _atom_site_fract_x
 _atom_site_fract_y
 _atom_site_fract_z
 _atom_site_occupancy
  Y  Y0  1  0.750000  0.458517  0.819104  1
  Th  Th1  1  0.250000  0.039064  0.319689  1
  Th  Th2  1  0.250000  0.541015  0.174789  1
  Th  Th3  1  0.750000  0.956659  0.684786  1
  Mg  Mg4  1  0.250000  0.141425  0.941324  1
  Mg  Mg5  1  0.250000  0.623905  0.562772  1
  Mg  Mg6  1  0.750000  0.872427  0.055042  1
  Mg  Mg7  1  0.750000  0.368368  0.444659  1
  Ir  Ir8  1  0.250000  0.232435  0.622417  1
  Ir  Ir9  1  0.250000  0.749423  0.871200  1
  Ir  Ir10  1  0.750000  0.756736  0.370571  1
  Ir  Ir11  1  0.750000  0.260027  0.133648  1
