# generated using pymatgen
data_Dy(TiZn2)2
_symmetry_space_group_name_H-M   'P 1'
_cell_length_a   5.51619882
_cell_length_b   5.51619839
_cell_length_c   5.51619888
_cell_angle_alpha   101.40682729
_cell_angle_beta   101.40682772
_cell_angle_gamma   127.18939173
_symmetry_Int_Tables_number   1
_chemical_formula_structural   Dy(TiZn2)2
_chemical_formula_sum   'Dy1 Ti2 Zn4'
_cell_volume   119.76534080
_cell_formula_units_Z   1
loop_
 _symmetry_equiv_pos_site_id
 _symmetry_equiv_pos_as_xyz
  1  'x, y, z'
loop_
 _atom_site_type_symbol
 _atom_site_label
 _atom_site_symmetry_multiplicity
 _atom_site_fract_x
 _atom_site_fract_y
 _atom_site_fract_z
 _atom_site_occupancy
  Dy  Dy0  1  0.000000  0.000000  0.000000  1
  Ti  Ti1  1  0.250000  0.750000  0.500000  1
  Ti  Ti2  1  0.750000  0.250000  0.500000  1
  Zn  Zn3  1  0.306989  0.306989  0.613980  1
  Zn  Zn4  1  0.693011  0.693011  0.386020  1
  Zn  Zn5  1  0.693011  0.306989  0.000000  1
  Zn  Zn6  1  0.306989  0.693011  0.000000  1
