# generated using pymatgen
data_YEr5Al24(RuRh3)2
_symmetry_space_group_name_H-M   'P 1'
_cell_length_a   8.79669000
_cell_length_b   8.80826646
_cell_length_c   9.51499200
_cell_angle_alpha   90.00000000
_cell_angle_beta   90.00000000
_cell_angle_gamma   119.95652624
_symmetry_Int_Tables_number   1
_chemical_formula_structural   YEr5Al24(RuRh3)2
_chemical_formula_sum   'Y1 Er5 Al24 Ru2 Rh6'
_cell_volume   638.76171093
_cell_formula_units_Z   1
loop_
 _symmetry_equiv_pos_site_id
 _symmetry_equiv_pos_as_xyz
  1  'x, y, z'
loop_
 _atom_site_type_symbol
 _atom_site_label
 _atom_site_symmetry_multiplicity
 _atom_site_fract_x
 _atom_site_fract_y
 _atom_site_fract_z
 _atom_site_occupancy
  Y  Y0  1  0.191752  0.383504  0.250000  1
  Er  Er1  1  0.807452  0.614904  0.750000  1
  Er  Er2  1  0.615105  0.807873  0.250000  1
  Er  Er3  1  0.385250  0.192510  0.750000  1
  Er  Er4  1  0.192768  0.807873  0.250000  1
  Er  Er5  1  0.807259  0.192510  0.750000  1
  Al  Al6  1  0.333547  0.667095  0.029162  1
  Al  Al7  1  0.666705  0.333410  0.970289  1
  Al  Al8  1  0.666705  0.333410  0.529711  1
  Al  Al9  1  0.333547  0.667095  0.470838  1
  Al  Al10  1  0.163145  0.326291  0.577173  1
  Al  Al11  1  0.836879  0.673758  0.423439  1
  Al  Al12  1  0.673924  0.836894  0.576877  1
  Al  Al13  1  0.836879  0.673758  0.076561  1
  Al  Al14  1  0.326379  0.162914  0.423489  1
  Al  Al15  1  0.163145  0.326291  0.922827  1
  Al  Al16  1  0.162968  0.836894  0.576877  1
  Al  Al17  1  0.326379  0.162914  0.076511  1
  Al  Al18  1  0.836535  0.162914  0.423489  1
  Al  Al19  1  0.673924  0.836894  0.923123  1
  Al  Al20  1  0.836535  0.162914  0.076511  1
  Al  Al21  1  0.162968  0.836894  0.923123  1
  Al  Al22  1  0.561667  0.123334  0.250000  1
  Al  Al23  1  0.438284  0.876566  0.750000  1
  Al  Al24  1  0.875983  0.438407  0.250000  1
  Al  Al25  1  0.123679  0.561783  0.750000  1
  Al  Al26  1  0.562423  0.438407  0.250000  1
  Al  Al27  1  0.438105  0.561783  0.750000  1
  Al  Al28  1  0.999398  0.998795  0.250000  1
  Al  Al29  1  0.999920  0.999840  0.750000  1
  Ru  Ru30  1  0.000074  0.000148  0.000026  1
  Ru  Ru31  1  0.000074  0.000148  0.499974  1
  Rh  Rh32  1  0.500104  0.000209  0.999889  1
  Rh  Rh33  1  0.999786  0.500215  0.999693  1
  Rh  Rh34  1  0.500104  0.000209  0.500111  1
  Rh  Rh35  1  0.500430  0.500215  0.999693  1
  Rh  Rh36  1  0.999786  0.500215  0.500307  1
  Rh  Rh37  1  0.500430  0.500215  0.500307  1
