# generated using pymatgen
data_TbNp3Ga12Ir
_symmetry_space_group_name_H-M   'P 1'
_cell_length_a   7.47434151
_cell_length_b   7.52285752
_cell_length_c   7.47434304
_cell_angle_alpha   109.60276474
_cell_angle_beta   109.33936641
_cell_angle_gamma   109.60275799
_symmetry_Int_Tables_number   1
_chemical_formula_structural   TbNp3Ga12Ir
_chemical_formula_sum   'Tb1 Np3 Ga12 Ir1'
_cell_volume   322.99758148
_cell_formula_units_Z   1
loop_
 _symmetry_equiv_pos_site_id
 _symmetry_equiv_pos_as_xyz
  1  'x, y, z'
loop_
 _atom_site_type_symbol
 _atom_site_label
 _atom_site_symmetry_multiplicity
 _atom_site_fract_x
 _atom_site_fract_y
 _atom_site_fract_z
 _atom_site_occupancy
  Tb  Tb0  1  0.000000  0.500000  0.000000  1
  Np  Np1  1  0.500000  0.000000  0.000000  1
  Np  Np2  1  0.000000  0.000000  0.500000  1
  Np  Np3  1  0.500000  0.500000  0.500000  1
  Ga  Ga4  1  0.292783  0.001984  0.292783  1
  Ga  Ga5  1  0.499029  0.249514  0.749514  1
  Ga  Ga6  1  0.000000  0.709202  0.707217  1
  Ga  Ga7  1  0.707217  0.998016  0.707217  1
  Ga  Ga8  1  0.749514  0.500000  0.250486  1
  Ga  Ga9  1  0.250486  0.750486  0.500971  1
  Ga  Ga10  1  0.749514  0.249514  0.499029  1
  Ga  Ga11  1  0.707217  0.709202  0.000000  1
  Ga  Ga12  1  0.250486  0.500000  0.749514  1
  Ga  Ga13  1  0.500971  0.750486  0.250486  1
  Ga  Ga14  1  0.292783  0.290798  0.000000  1
  Ga  Ga15  1  0.000000  0.290798  0.292783  1
  Ir  Ir16  1  0.000000  0.000000  0.000000  1
