# generated using pymatgen
data_ErTm3(LuIn)6
_symmetry_space_group_name_H-M   'P 1'
_cell_length_a   9.00481972
_cell_length_b   9.00481907
_cell_length_c   9.01135000
_cell_angle_alpha   96.49935027
_cell_angle_beta   96.46948908
_cell_angle_gamma   140.71176743
_symmetry_Int_Tables_number   1
_chemical_formula_structural   ErTm3(LuIn)6
_chemical_formula_sum   'Er1 Tm3 Lu6 In6'
_cell_volume   435.80681893
_cell_formula_units_Z   1
loop_
 _symmetry_equiv_pos_site_id
 _symmetry_equiv_pos_as_xyz
  1  'x, y, z'
loop_
 _atom_site_type_symbol
 _atom_site_label
 _atom_site_symmetry_multiplicity
 _atom_site_fract_x
 _atom_site_fract_y
 _atom_site_fract_z
 _atom_site_occupancy
  Er  Er0  1  0.081633  0.781535  0.863168  1
  Tm  Tm1  1  0.718146  0.419201  0.137347  1
  Tm  Tm2  1  0.282620  0.580702  0.863322  1
  Tm  Tm3  1  0.581378  0.718064  0.299441  1
  Lu  Lu4  1  0.217465  0.081577  0.299040  1
  Lu  Lu5  1  0.918298  0.217709  0.136006  1
  Lu  Lu6  1  0.749961  0.249649  0.499748  1
  Lu  Lu7  1  0.250099  0.749787  0.499748  1
  Lu  Lu8  1  0.782300  0.919395  0.701696  1
  Lu  Lu9  1  0.417876  0.282700  0.700577  1
  In  In10  1  0.838230  0.661987  0.500217  1
  In  In11  1  0.338765  0.838839  0.177604  1
  In  In12  1  0.750261  0.750175  0.999954  1
  In  In13  1  0.661420  0.161532  0.822952  1
  In  In14  1  0.161767  0.337456  0.499224  1
  In  In15  1  0.249780  0.249694  0.999954  1
