# generated using pymatgen
data_Li8Pr3Sm5Pt8
_symmetry_space_group_name_H-M   'P 1'
_cell_length_a   9.67144839
_cell_length_b   8.02233392
_cell_length_c   7.24194470
_cell_angle_alpha   90.00000068
_cell_angle_beta   90.12450285
_cell_angle_gamma   114.50314133
_symmetry_Int_Tables_number   1
_chemical_formula_structural   Li8Pr3Sm5Pt8
_chemical_formula_sum   'Li8 Pr3 Sm5 Pt8'
_cell_volume   511.27937785
_cell_formula_units_Z   1
loop_
 _symmetry_equiv_pos_site_id
 _symmetry_equiv_pos_as_xyz
  1  'x, y, z'
loop_
 _atom_site_type_symbol
 _atom_site_label
 _atom_site_symmetry_multiplicity
 _atom_site_fract_x
 _atom_site_fract_y
 _atom_site_fract_z
 _atom_site_occupancy
  Li  Li0  1  0.801643  0.149048  0.621703  1
  Li  Li1  1  0.801643  0.652594  0.621703  1
  Li  Li2  1  0.305349  0.152673  0.876411  1
  Li  Li3  1  0.199031  0.851066  0.122464  1
  Li  Li4  1  0.199031  0.347967  0.122464  1
  Li  Li5  1  0.694535  0.847267  0.378191  1
  Li  Li6  1  0.694869  0.347434  0.386280  1
  Li  Li7  1  0.306472  0.653237  0.883235  1
  Pr  Pr8  1  0.931408  0.465705  0.947276  1
  Pr  Pr9  1  0.070405  0.035202  0.447743  1
  Pr  Pr10  1  0.931067  0.965534  0.948966  1
  Sm  Sm11  1  0.433198  0.468663  0.556780  1
  Sm  Sm12  1  0.433198  0.964535  0.556780  1
  Sm  Sm13  1  0.070050  0.535025  0.446757  1
  Sm  Sm14  1  0.566224  0.531933  0.057671  1
  Sm  Sm15  1  0.566224  0.034290  0.057671  1
  Pt  Pt16  1  0.870073  0.187678  0.247137  1
  Pt  Pt17  1  0.870073  0.682394  0.247137  1
  Pt  Pt18  1  0.378596  0.189298  0.261977  1
  Pt  Pt19  1  0.130134  0.811636  0.741989  1
  Pt  Pt20  1  0.130134  0.318499  0.741989  1
  Pt  Pt21  1  0.621974  0.810987  0.763070  1
  Pt  Pt22  1  0.620825  0.310413  0.761790  1
  Pt  Pt23  1  0.373843  0.686922  0.260820  1
