# generated using pymatgen
data_La4Cd2PdAu3
_symmetry_space_group_name_H-M   'P 1'
_cell_length_a   8.19363572
_cell_length_b   8.19363572
_cell_length_c   3.97914300
_cell_angle_alpha   90.00000000
_cell_angle_beta   90.00000000
_cell_angle_gamma   89.42065089
_symmetry_Int_Tables_number   1
_chemical_formula_structural   La4Cd2PdAu3
_chemical_formula_sum   'La4 Cd2 Pd1 Au3'
_cell_volume   267.12875986
_cell_formula_units_Z   1
loop_
 _symmetry_equiv_pos_site_id
 _symmetry_equiv_pos_as_xyz
  1  'x, y, z'
loop_
 _atom_site_type_symbol
 _atom_site_label
 _atom_site_symmetry_multiplicity
 _atom_site_fract_x
 _atom_site_fract_y
 _atom_site_fract_z
 _atom_site_occupancy
  La  La0  1  0.667667  0.176358  0.500000  1
  La  La1  1  0.323642  0.832333  0.500000  1
  La  La2  1  0.182322  0.317678  0.500000  1
  La  La3  1  0.825910  0.674090  0.500000  1
  Cd  Cd4  1  0.003097  0.001141  0.000000  1
  Cd  Cd5  1  0.498859  0.496903  0.000000  1
  Pd  Pd6  1  0.372990  0.127010  0.000000  1
  Au  Au7  1  0.127289  0.624606  0.000000  1
  Au  Au8  1  0.875394  0.372711  0.000000  1
  Au  Au9  1  0.622828  0.877172  0.000000  1
