# generated using pymatgen
data_TbHoOs3Ru
_symmetry_space_group_name_H-M   'P 1'
_cell_length_a   5.28002409
_cell_length_b   5.27991427
_cell_length_c   9.01884200
_cell_angle_alpha   90.00051942
_cell_angle_beta   90.00214141
_cell_angle_gamma   119.99527329
_symmetry_Int_Tables_number   1
_chemical_formula_structural   TbHoOs3Ru
_chemical_formula_sum   'Tb2 Ho2 Os6 Ru2'
_cell_volume   217.75336161
_cell_formula_units_Z   2
loop_
 _symmetry_equiv_pos_site_id
 _symmetry_equiv_pos_as_xyz
  1  'x, y, z'
loop_
 _atom_site_type_symbol
 _atom_site_label
 _atom_site_symmetry_multiplicity
 _atom_site_fract_x
 _atom_site_fract_y
 _atom_site_fract_z
 _atom_site_occupancy
  Tb  Tb0  1  0.666697  0.333299  0.565670  1
  Tb  Tb1  1  0.333303  0.666701  0.434330  1
  Ho  Ho2  1  0.333301  0.666701  0.065495  1
  Ho  Ho3  1  0.666699  0.333299  0.934505  1
  Os  Os4  1  0.170707  0.341348  0.751366  1
  Os  Os5  1  0.170654  0.829340  0.751363  1
  Os  Os6  1  0.658658  0.829292  0.751366  1
  Os  Os7  1  0.829293  0.658652  0.248634  1
  Os  Os8  1  0.829346  0.170660  0.248637  1
  Os  Os9  1  0.341342  0.170708  0.248634  1
  Ru  Ru10  1  0.000000  0.000000  0.500000  1
  Ru  Ru11  1  0.000000  0.000000  0.000000  1
