# generated using pymatgen
data_Na5H9Pt2
_symmetry_space_group_name_H-M   'P 1'
_cell_length_a   8.07496780
_cell_length_b   8.07496756
_cell_length_c   8.07496792
_cell_angle_alpha   110.59570375
_cell_angle_beta   110.59571196
_cell_angle_gamma   107.24491891
_symmetry_Int_Tables_number   1
_chemical_formula_structural   Na5H9Pt2
_chemical_formula_sum   'Na10 H18 Pt4'
_cell_volume   404.86557726
_cell_formula_units_Z   2
loop_
 _symmetry_equiv_pos_site_id
 _symmetry_equiv_pos_as_xyz
  1  'x, y, z'
loop_
 _atom_site_type_symbol
 _atom_site_label
 _atom_site_symmetry_multiplicity
 _atom_site_fract_x
 _atom_site_fract_y
 _atom_site_fract_z
 _atom_site_occupancy
  Na  Na0  1  0.694260  0.194260  0.203485  1
  Na  Na1  1  0.990775  0.490775  0.796515  1
  Na  Na2  1  0.194260  0.990775  0.500000  1
  Na  Na3  1  0.490775  0.694260  0.500000  1
  Na  Na4  1  0.305740  0.805740  0.796515  1
  Na  Na5  1  0.009225  0.509225  0.203485  1
  Na  Na6  1  0.805740  0.009225  0.500000  1
  Na  Na7  1  0.509225  0.305740  0.500000  1
  Na  Na8  1  0.500000  0.500000  0.000000  1
  Na  Na9  1  0.000000  0.000000  0.000000  1
  H  H10  1  0.460535  0.141261  0.843904  1
  H  H11  1  0.297356  0.616631  0.156096  1
  H  H12  1  0.960535  0.116631  0.319273  1
  H  H13  1  0.797356  0.641261  0.680727  1
  H  H14  1  0.616631  0.460535  0.319273  1
  H  H15  1  0.141261  0.297356  0.680727  1
  H  H16  1  0.641261  0.960535  0.843904  1
  H  H17  1  0.116631  0.797356  0.156096  1
  H  H18  1  0.539465  0.858739  0.156096  1
  H  H19  1  0.702644  0.383369  0.843904  1
  H  H20  1  0.039465  0.883369  0.680727  1
  H  H21  1  0.202644  0.358739  0.319273  1
  H  H22  1  0.383369  0.539465  0.680727  1
  H  H23  1  0.858739  0.702644  0.319273  1
  H  H24  1  0.358739  0.039465  0.156096  1
  H  H25  1  0.883369  0.202644  0.843904  1
  H  H26  1  0.500000  0.000000  0.500000  1
  H  H27  1  0.000000  0.500000  0.500000  1
  Pt  Pt28  1  0.655322  0.155322  0.810645  1
  Pt  Pt29  1  0.344678  0.844678  0.189355  1
  Pt  Pt30  1  0.155322  0.344678  0.500000  1
  Pt  Pt31  1  0.844678  0.655322  0.500000  1
