# generated using pymatgen
data_Cs6K2Zr6BeI20
_symmetry_space_group_name_H-M   'P 1'
_cell_length_a   13.08956081
_cell_length_b   13.16443834
_cell_length_c   13.16443800
_cell_angle_alpha   60.00000085
_cell_angle_beta   59.81059044
_cell_angle_gamma   59.81058812
_symmetry_Int_Tables_number   1
_chemical_formula_structural   Cs6K2Zr6BeI20
_chemical_formula_sum   'Cs6 K2 Zr6 Be1 I20'
_cell_volume   1599.43069801
_cell_formula_units_Z   1
loop_
 _symmetry_equiv_pos_site_id
 _symmetry_equiv_pos_as_xyz
  1  'x, y, z'
loop_
 _atom_site_type_symbol
 _atom_site_label
 _atom_site_symmetry_multiplicity
 _atom_site_fract_x
 _atom_site_fract_y
 _atom_site_fract_z
 _atom_site_occupancy
  Cs  Cs0  1  0.361367  0.359748  0.359748  1
  Cs  Cs1  1  0.638633  0.640252  0.640252  1
  Cs  Cs2  1  0.361367  0.359748  0.919137  1
  Cs  Cs3  1  0.361367  0.919137  0.359748  1
  Cs  Cs4  1  0.638633  0.640252  0.080863  1
  Cs  Cs5  1  0.638633  0.080863  0.640252  1
  K  K6  1  0.903063  0.365646  0.365646  1
  K  K7  1  0.096937  0.634354  0.634354  1
  Zr  Zr8  1  0.867786  0.132160  0.132160  1
  Zr  Zr9  1  0.132214  0.867840  0.867840  1
  Zr  Zr10  1  0.132214  0.867840  0.132106  1
  Zr  Zr11  1  0.867786  0.132160  0.867894  1
  Zr  Zr12  1  0.132214  0.132106  0.867840  1
  Zr  Zr13  1  0.867786  0.867894  0.132160  1
  Be  Be14  1  0.000000  0.000000  0.000000  1
  I  I15  1  0.316582  0.998732  0.998732  1
  I  I16  1  0.683418  0.001268  0.001268  1
  I  I17  1  0.000000  0.311941  0.688059  1
  I  I18  1  0.000000  0.688059  0.311941  1
  I  I19  1  0.000000  0.311941  0.000000  1
  I  I20  1  0.683418  0.001268  0.314046  1
  I  I21  1  0.000000  0.688059  0.000000  1
  I  I22  1  0.316582  0.998732  0.685954  1
  I  I23  1  0.000000  0.000000  0.311941  1
  I  I24  1  0.000000  0.000000  0.688059  1
  I  I25  1  0.683418  0.314046  0.001268  1
  I  I26  1  0.316582  0.685954  0.998732  1
  I  I27  1  0.701725  0.305654  0.305654  1
  I  I28  1  0.298275  0.694346  0.694346  1
  I  I29  1  0.298275  0.694346  0.313033  1
  I  I30  1  0.701725  0.305654  0.686967  1
  I  I31  1  0.298275  0.313033  0.694346  1
  I  I32  1  0.701725  0.686967  0.305654  1
  I  I33  1  0.219225  0.260258  0.260258  1
  I  I34  1  0.780775  0.739742  0.739742  1
