# generated using pymatgen
data_Tm8Ti3Ge16Mo9
_symmetry_space_group_name_H-M   'P 1'
_cell_length_a   6.84744193
_cell_length_b   7.03833533
_cell_length_c   13.23781561
_cell_angle_alpha   90.03438756
_cell_angle_beta   89.95581505
_cell_angle_gamma   90.03718724
_symmetry_Int_Tables_number   1
_chemical_formula_structural   Tm8Ti3Ge16Mo9
_chemical_formula_sum   'Tm8 Ti3 Ge16 Mo9'
_cell_volume   637.99069011
_cell_formula_units_Z   1
loop_
 _symmetry_equiv_pos_site_id
 _symmetry_equiv_pos_as_xyz
  1  'x, y, z'
loop_
 _atom_site_type_symbol
 _atom_site_label
 _atom_site_symmetry_multiplicity
 _atom_site_fract_x
 _atom_site_fract_y
 _atom_site_fract_z
 _atom_site_occupancy
  Tm  Tm0  1  0.494957  0.324221  0.093202  1
  Tm  Tm1  1  0.993510  0.172564  0.407157  1
  Tm  Tm2  1  0.504303  0.676385  0.592897  1
  Tm  Tm3  1  0.003521  0.824108  0.905983  1
  Tm  Tm4  1  0.505872  0.670503  0.906890  1
  Tm  Tm5  1  0.007540  0.828391  0.593491  1
  Tm  Tm6  1  0.493152  0.328159  0.407723  1
  Tm  Tm7  1  0.992839  0.169996  0.092192  1
  Ti  Ti8  1  0.836649  0.336560  0.626408  1
  Ti  Ti9  1  0.335472  0.164321  0.872830  1
  Ti  Ti10  1  0.163579  0.664506  0.128079  1
  Ge  Ge11  1  0.673306  0.046211  0.544546  1
  Ge  Ge12  1  0.171375  0.457012  0.956033  1
  Ge  Ge13  1  0.328770  0.956396  0.044903  1
  Ge  Ge14  1  0.827751  0.544961  0.454982  1
  Ge  Ge15  1  0.329105  0.955597  0.454964  1
  Ge  Ge16  1  0.826317  0.543073  0.044302  1
  Ge  Ge17  1  0.672599  0.043515  0.955865  1
  Ge  Ge18  1  0.173733  0.455786  0.544528  1
  Ge  Ge19  1  0.531652  0.372080  0.747698  1
  Ge  Ge20  1  0.032234  0.127525  0.750818  1
  Ge  Ge21  1  0.469869  0.627937  0.249222  1
  Ge  Ge22  1  0.968421  0.872462  0.251484  1
  Ge  Ge23  1  0.804059  0.640802  0.748354  1
  Ge  Ge24  1  0.305598  0.859031  0.752143  1
  Ge  Ge25  1  0.194197  0.357917  0.248977  1
  Ge  Ge26  1  0.692292  0.142830  0.250111  1
  Mo  Mo27  1  0.666312  0.840314  0.372431  1
  Mo  Mo28  1  0.167070  0.660945  0.375866  1
  Mo  Mo29  1  0.671842  0.839354  0.125832  1
  Mo  Mo30  1  0.831257  0.337515  0.875262  1
  Mo  Mo31  1  0.331574  0.160357  0.623088  1
  Mo  Mo32  1  0.662882  0.008468  0.750470  1
  Mo  Mo33  1  0.162513  0.491367  0.750107  1
  Mo  Mo34  1  0.336324  0.990816  0.250686  1
  Mo  Mo35  1  0.837551  0.508013  0.250477  1
