# generated using pymatgen
data_Ba3DyScReO9
_symmetry_space_group_name_H-M   'P 1'
_cell_length_a   5.97913100
_cell_length_b   5.97913169
_cell_length_c   7.32926800
_cell_angle_alpha   90.00000000
_cell_angle_beta   90.00000000
_cell_angle_gamma   119.99997959
_symmetry_Int_Tables_number   1
_chemical_formula_structural   Ba3DyScReO9
_chemical_formula_sum   'Ba3 Dy1 Sc1 Re1 O9'
_cell_volume   226.91724949
_cell_formula_units_Z   1
loop_
 _symmetry_equiv_pos_site_id
 _symmetry_equiv_pos_as_xyz
  1  'x, y, z'
loop_
 _atom_site_type_symbol
 _atom_site_label
 _atom_site_symmetry_multiplicity
 _atom_site_fract_x
 _atom_site_fract_y
 _atom_site_fract_z
 _atom_site_occupancy
  Ba  Ba0  1  0.000000  0.000000  0.502985  1
  Ba  Ba1  1  0.666667  0.333333  0.821947  1
  Ba  Ba2  1  0.333333  0.666667  0.175104  1
  Dy  Dy3  1  0.666667  0.333333  0.335615  1
  Sc  Sc4  1  0.333333  0.666667  0.660156  1
  Re  Re5  1  0.000000  0.000000  0.994368  1
  O  O6  1  0.687517  0.843758  0.846485  1
  O  O7  1  0.305731  0.152866  0.149550  1
  O  O8  1  0.009735  0.504867  0.507239  1
  O  O9  1  0.495133  0.990265  0.507239  1
  O  O10  1  0.156242  0.312483  0.846485  1
  O  O11  1  0.847134  0.694269  0.149550  1
  O  O12  1  0.495133  0.504867  0.507239  1
  O  O13  1  0.156242  0.843758  0.846485  1
  O  O14  1  0.847134  0.152866  0.149550  1
