# generated using pymatgen
data_Li8La7YSn3Sb5
_symmetry_space_group_name_H-M   'P 1'
_cell_length_a   9.58588696
_cell_length_b   9.58588674
_cell_length_c   7.76571360
_cell_angle_alpha   90.04930721
_cell_angle_beta   89.95069337
_cell_angle_gamma   119.94278422
_symmetry_Int_Tables_number   1
_chemical_formula_structural   Li8La7YSn3Sb5
_chemical_formula_sum   'Li8 La7 Y1 Sn3 Sb5'
_cell_volume   618.33878012
_cell_formula_units_Z   1
loop_
 _symmetry_equiv_pos_site_id
 _symmetry_equiv_pos_as_xyz
  1  'x, y, z'
loop_
 _atom_site_type_symbol
 _atom_site_label
 _atom_site_symmetry_multiplicity
 _atom_site_fract_x
 _atom_site_fract_y
 _atom_site_fract_z
 _atom_site_occupancy
  Li  Li0  1  0.166478  0.833522  0.208300  1
  Li  Li1  1  0.331391  0.165444  0.699235  1
  Li  Li2  1  0.834556  0.668609  0.699235  1
  Li  Li3  1  0.166087  0.332600  0.209317  1
  Li  Li4  1  0.667400  0.833913  0.209317  1
  Li  Li5  1  0.834393  0.165607  0.697065  1
  Li  Li6  1  0.333200  0.666800  0.805888  1
  Li  Li7  1  0.666903  0.333097  0.309136  1
  La  La8  1  0.510615  0.489385  0.991836  1
  La  La9  1  0.021464  0.509388  0.490278  1
  La  La10  1  0.490612  0.978536  0.490278  1
  La  La11  1  0.512527  0.022572  0.991995  1
  La  La12  1  0.977428  0.487473  0.991995  1
  La  La13  1  0.489418  0.510582  0.490468  1
  La  La14  1  0.999057  0.000943  0.985120  1
  Y  Y15  1  0.998474  0.001526  0.481339  1
  Sn  Sn16  1  0.835995  0.164005  0.256615  1
  Sn  Sn17  1  0.333561  0.666439  0.219016  1
  Sn  Sn18  1  0.666129  0.333871  0.721457  1
  Sb  Sb19  1  0.164400  0.835600  0.743702  1
  Sb  Sb20  1  0.327837  0.163989  0.254620  1
  Sb  Sb21  1  0.836011  0.672163  0.254620  1
  Sb  Sb22  1  0.165385  0.329320  0.744587  1
  Sb  Sb23  1  0.670680  0.834615  0.744587  1
