# generated using pymatgen
data_Sm2Mn2Co10As7
_symmetry_space_group_name_H-M   'P 1'
_cell_length_a   3.78094200
_cell_length_b   9.42584164
_cell_length_c   9.46056439
_cell_angle_alpha   119.87743441
_cell_angle_beta   90.00000000
_cell_angle_gamma   90.00000000
_symmetry_Int_Tables_number   1
_chemical_formula_structural   Sm2Mn2Co10As7
_chemical_formula_sum   'Sm2 Mn2 Co10 As7'
_cell_volume   292.34985640
_cell_formula_units_Z   1
loop_
 _symmetry_equiv_pos_site_id
 _symmetry_equiv_pos_as_xyz
  1  'x, y, z'
loop_
 _atom_site_type_symbol
 _atom_site_label
 _atom_site_symmetry_multiplicity
 _atom_site_fract_x
 _atom_site_fract_y
 _atom_site_fract_z
 _atom_site_occupancy
  Sm  Sm0  1  0.000000  0.669745  0.334639  1
  Sm  Sm1  1  0.500000  0.331971  0.667426  1
  Mn  Mn2  1  0.500000  0.781214  0.893759  1
  Mn  Mn3  1  0.500000  0.117187  0.219429  1
  Co  Co4  1  0.000000  0.569666  0.941854  1
  Co  Co5  1  0.000000  0.370229  0.429069  1
  Co  Co6  1  0.000000  0.056828  0.630101  1
  Co  Co7  1  0.500000  0.095513  0.879851  1
  Co  Co8  1  0.000000  0.882472  0.154999  1
  Co  Co9  1  0.000000  0.279281  0.122125  1
  Co  Co10  1  0.000000  0.844131  0.723843  1
  Co  Co11  1  0.500000  0.949334  0.382742  1
  Co  Co12  1  0.500000  0.430623  0.049161  1
  Co  Co13  1  0.500000  0.618438  0.568022  1
  As  As14  1  0.000000  0.003252  0.998082  1
  As  As15  1  0.500000  0.707877  0.113159  1
  As  As16  1  0.500000  0.409313  0.292966  1
  As  As17  1  0.500000  0.888431  0.598166  1
  As  As18  1  0.000000  0.586893  0.699977  1
  As  As19  1  0.000000  0.111926  0.412503  1
  As  As20  1  0.000000  0.295672  0.888129  1
