# generated using pymatgen
data_Yb2HoTl(Ru2O7)2
_symmetry_space_group_name_H-M   'P 1'
_cell_length_a   7.30917733
_cell_length_b   7.17973223
_cell_length_c   7.30927000
_cell_angle_alpha   59.40136344
_cell_angle_beta   59.99958967
_cell_angle_gamma   59.39113276
_symmetry_Int_Tables_number   1
_chemical_formula_structural   Yb2HoTl(Ru2O7)2
_chemical_formula_sum   'Yb2 Ho1 Tl1 Ru4 O14'
_cell_volume   268.72638240
_cell_formula_units_Z   1
loop_
 _symmetry_equiv_pos_site_id
 _symmetry_equiv_pos_as_xyz
  1  'x, y, z'
loop_
 _atom_site_type_symbol
 _atom_site_label
 _atom_site_symmetry_multiplicity
 _atom_site_fract_x
 _atom_site_fract_y
 _atom_site_fract_z
 _atom_site_occupancy
  Yb  Yb0  1  0.625000  0.625000  0.125000  1
  Yb  Yb1  1  0.625000  0.625000  0.625000  1
  Ho  Ho2  1  0.125000  0.625000  0.625000  1
  Tl  Tl3  1  0.625000  0.125000  0.625000  1
  Ru  Ru4  1  0.125000  0.125000  0.625000  1
  Ru  Ru5  1  0.125000  0.625000  0.125000  1
  Ru  Ru6  1  0.625000  0.125000  0.125000  1
  Ru  Ru7  1  0.125000  0.125000  0.125000  1
  O  O8  1  0.445960  0.051498  0.447154  1
  O  O9  1  0.206109  0.790730  0.791493  1
  O  O10  1  0.804040  0.198502  0.194614  1
  O  O11  1  0.206109  0.790730  0.211670  1
  O  O12  1  0.803023  0.795500  0.200738  1
  O  O13  1  0.197533  0.203590  0.799439  1
  O  O14  1  0.446977  0.454500  0.049262  1
  O  O15  1  0.043891  0.459270  0.458507  1
  O  O16  1  0.445960  0.051498  0.055386  1
  O  O17  1  0.052467  0.046410  0.450561  1
  O  O18  1  0.804040  0.198502  0.802846  1
  O  O19  1  0.043891  0.459270  0.038330  1
  O  O20  1  0.498767  0.485909  0.507662  1
  O  O21  1  0.751233  0.764091  0.742338  1
