# generated using pymatgen
data_La2Dy3YTa2O14
_symmetry_space_group_name_H-M   'P 1'
_cell_length_a   6.53935705
_cell_length_b   6.54373777
_cell_length_c   7.64639900
_cell_angle_alpha   90.00000000
_cell_angle_beta   90.00000000
_cell_angle_gamma   109.03065736
_symmetry_Int_Tables_number   1
_chemical_formula_structural   La2Dy3YTa2O14
_chemical_formula_sum   'La2 Dy3 Y1 Ta2 O14'
_cell_volume   309.31991036
_cell_formula_units_Z   1
loop_
 _symmetry_equiv_pos_site_id
 _symmetry_equiv_pos_as_xyz
  1  'x, y, z'
loop_
 _atom_site_type_symbol
 _atom_site_label
 _atom_site_symmetry_multiplicity
 _atom_site_fract_x
 _atom_site_fract_y
 _atom_site_fract_z
 _atom_site_occupancy
  La  La0  1  0.499999  0.499944  0.499899  1
  La  La1  1  0.499999  0.499944  0.000101  1
  Dy  Dy2  1  0.532732  0.001011  0.750000  1
  Dy  Dy3  1  0.001023  0.532662  0.250000  1
  Dy  Dy4  1  0.467333  0.998976  0.250000  1
  Y  Y5  1  0.999259  0.467556  0.750000  1
  Ta  Ta6  1  0.000027  0.999987  0.499897  1
  Ta  Ta7  1  0.000027  0.999987  0.000103  1
  O  O8  1  0.681589  0.934103  0.467746  1
  O  O9  1  0.933867  0.681920  0.531711  1
  O  O10  1  0.681589  0.934103  0.032254  1
  O  O11  1  0.933867  0.681920  0.968289  1
  O  O12  1  0.318370  0.065884  0.532313  1
  O  O13  1  0.066042  0.318299  0.467428  1
  O  O14  1  0.318370  0.065884  0.967687  1
  O  O15  1  0.066042  0.318299  0.032572  1
  O  O16  1  0.937655  0.061866  0.750000  1
  O  O17  1  0.062371  0.937777  0.250000  1
  O  O18  1  0.362917  0.637408  0.750000  1
  O  O19  1  0.637371  0.362632  0.250000  1
  O  O20  1  0.643795  0.355576  0.750000  1
  O  O21  1  0.355755  0.644262  0.250000  1
