# generated using pymatgen
data_Er3AlP2Ru3
_symmetry_space_group_name_H-M   'P 1'
_cell_length_a   6.93481800
_cell_length_b   6.93481838
_cell_length_c   3.72642700
_cell_angle_alpha   90.00000000
_cell_angle_beta   90.00000000
_cell_angle_gamma   119.99999818
_symmetry_Int_Tables_number   1
_chemical_formula_structural   Er3AlP2Ru3
_chemical_formula_sum   'Er3 Al1 P2 Ru3'
_cell_volume   155.20060756
_cell_formula_units_Z   1
loop_
 _symmetry_equiv_pos_site_id
 _symmetry_equiv_pos_as_xyz
  1  'x, y, z'
loop_
 _atom_site_type_symbol
 _atom_site_label
 _atom_site_symmetry_multiplicity
 _atom_site_fract_x
 _atom_site_fract_y
 _atom_site_fract_z
 _atom_site_occupancy
  Er  Er0  1  0.415213  0.415213  0.500000  1
  Er  Er1  1  0.584787  0.000000  0.500000  1
  Er  Er2  1  0.000000  0.584787  0.500000  1
  Al  Al3  1  0.000000  0.000000  0.500000  1
  P  P4  1  0.666667  0.333333  0.000000  1
  P  P5  1  0.333333  0.666667  0.000000  1
  Ru  Ru6  1  0.000000  0.248895  0.000000  1
  Ru  Ru7  1  0.248895  0.000000  0.000000  1
  Ru  Ru8  1  0.751105  0.751105  0.000000  1
