# generated using pymatgen
data_Y3Ho(MoN3)4
_symmetry_space_group_name_H-M   'P 1'
_cell_length_a   7.34345739
_cell_length_b   7.34345671
_cell_length_c   6.28850182
_cell_angle_alpha   73.41140710
_cell_angle_beta   73.41140845
_cell_angle_gamma   81.41392918
_symmetry_Int_Tables_number   1
_chemical_formula_structural   Y3Ho(MoN3)4
_chemical_formula_sum   'Y3 Ho1 Mo4 N12'
_cell_volume   310.62565340
_cell_formula_units_Z   1
loop_
 _symmetry_equiv_pos_site_id
 _symmetry_equiv_pos_as_xyz
  1  'x, y, z'
loop_
 _atom_site_type_symbol
 _atom_site_label
 _atom_site_symmetry_multiplicity
 _atom_site_fract_x
 _atom_site_fract_y
 _atom_site_fract_z
 _atom_site_occupancy
  Y  Y0  1  0.706702  0.293298  0.250000  1
  Y  Y1  1  0.087474  0.912526  0.250000  1
  Y  Y2  1  0.293260  0.706740  0.750000  1
  Ho  Ho3  1  0.912084  0.087916  0.750000  1
  Mo  Mo4  1  0.800124  0.619496  0.773342  1
  Mo  Mo5  1  0.199967  0.379977  0.227009  1
  Mo  Mo6  1  0.620023  0.800033  0.272991  1
  Mo  Mo7  1  0.380504  0.199876  0.726658  1
  N  N8  1  0.218564  0.001039  0.845053  1
  N  N9  1  0.366233  0.345801  0.430881  1
  N  N10  1  0.634352  0.654269  0.568865  1
  N  N11  1  0.624635  0.112496  0.662029  1
  N  N12  1  0.998961  0.781436  0.654947  1
  N  N13  1  0.780878  0.999895  0.152145  1
  N  N14  1  0.112437  0.623737  0.161196  1
  N  N15  1  0.887504  0.375365  0.837971  1
  N  N16  1  0.000105  0.219122  0.347855  1
  N  N17  1  0.345731  0.365648  0.931135  1
  N  N18  1  0.654199  0.633767  0.069119  1
  N  N19  1  0.376263  0.887563  0.338804  1
