# generated using pymatgen
data_Ba2AlPdI
_symmetry_space_group_name_H-M   'P 1'
_cell_length_a   4.50197400
_cell_length_b   4.50197513
_cell_length_c   19.79627400
_cell_angle_alpha   90.00000000
_cell_angle_beta   90.00000000
_cell_angle_gamma   120.00002110
_symmetry_Int_Tables_number   1
_chemical_formula_structural   Ba2AlPdI
_chemical_formula_sum   'Ba4 Al2 Pd2 I2'
_cell_volume   347.47220446
_cell_formula_units_Z   2
loop_
 _symmetry_equiv_pos_site_id
 _symmetry_equiv_pos_as_xyz
  1  'x, y, z'
loop_
 _atom_site_type_symbol
 _atom_site_label
 _atom_site_symmetry_multiplicity
 _atom_site_fract_x
 _atom_site_fract_y
 _atom_site_fract_z
 _atom_site_occupancy
  Ba  Ba0  1  0.000000  0.000000  0.384554  1
  Ba  Ba1  1  0.000000  0.000000  0.884554  1
  Ba  Ba2  1  0.000000  0.000000  0.616257  1
  Ba  Ba3  1  0.000000  0.000000  0.116257  1
  Al  Al4  1  0.333333  0.666667  0.500772  1
  Al  Al5  1  0.666667  0.333333  0.000772  1
  Pd  Pd6  1  0.666667  0.333333  0.499194  1
  Pd  Pd7  1  0.333333  0.666667  0.999194  1
  I  I8  1  0.333333  0.666667  0.249224  1
  I  I9  1  0.666667  0.333333  0.749224  1
