# generated using pymatgen
data_Dy7YCdHgIr2
_symmetry_space_group_name_H-M   'P 1'
_cell_length_a   9.62363462
_cell_length_b   9.62363360
_cell_length_c   9.63218600
_cell_angle_alpha   59.97059810
_cell_angle_beta   59.97060161
_cell_angle_gamma   59.95048235
_symmetry_Int_Tables_number   1
_chemical_formula_structural   Dy7YCdHgIr2
_chemical_formula_sum   'Dy14 Y2 Cd2 Hg2 Ir4'
_cell_volume   630.27820124
_cell_formula_units_Z   2
loop_
 _symmetry_equiv_pos_site_id
 _symmetry_equiv_pos_as_xyz
  1  'x, y, z'
loop_
 _atom_site_type_symbol
 _atom_site_label
 _atom_site_symmetry_multiplicity
 _atom_site_fract_x
 _atom_site_fract_y
 _atom_site_fract_z
 _atom_site_occupancy
  Dy  Dy0  1  0.349632  0.349632  0.348272  1
  Dy  Dy1  1  0.349632  0.349632  0.952465  1
  Dy  Dy2  1  0.351403  0.949366  0.349616  1
  Dy  Dy3  1  0.949366  0.351403  0.349616  1
  Dy  Dy4  1  0.809360  0.188965  0.191487  1
  Dy  Dy5  1  0.188965  0.809360  0.810187  1
  Dy  Dy6  1  0.188965  0.809360  0.191487  1
  Dy  Dy7  1  0.809360  0.188965  0.810187  1
  Dy  Dy8  1  0.189704  0.189704  0.810296  1
  Dy  Dy9  1  0.809028  0.809028  0.190972  1
  Dy  Dy10  1  0.937758  0.561252  0.562138  1
  Dy  Dy11  1  0.561252  0.937758  0.938852  1
  Dy  Dy12  1  0.561252  0.937758  0.562138  1
  Dy  Dy13  1  0.937758  0.561252  0.938852  1
  Y  Y14  1  0.561629  0.561629  0.938371  1
  Y  Y15  1  0.937954  0.937954  0.562046  1
  Cd  Cd16  1  0.580213  0.257731  0.581029  1
  Cd  Cd17  1  0.257731  0.580213  0.581029  1
  Hg  Hg18  1  0.583725  0.583725  0.585672  1
  Hg  Hg19  1  0.583725  0.583725  0.246879  1
  Ir  Ir20  1  0.142100  0.142100  0.141097  1
  Ir  Ir21  1  0.142100  0.142100  0.574704  1
  Ir  Ir22  1  0.142079  0.575311  0.141304  1
  Ir  Ir23  1  0.575311  0.142079  0.141304  1
