# generated using pymatgen
data_Rb2Na2Zr6FeBr18
_symmetry_space_group_name_H-M   'P 1'
_cell_length_a   10.57190521
_cell_length_b   10.55108944
_cell_length_c   10.64317136
_cell_angle_alpha   119.39138842
_cell_angle_beta   101.90686411
_cell_angle_gamma   100.24263707
_symmetry_Int_Tables_number   1
_chemical_formula_structural   Rb2Na2Zr6FeBr18
_chemical_formula_sum   'Rb2 Na2 Zr6 Fe1 Br18'
_cell_volume   956.36856496
_cell_formula_units_Z   1
loop_
 _symmetry_equiv_pos_site_id
 _symmetry_equiv_pos_as_xyz
  1  'x, y, z'
loop_
 _atom_site_type_symbol
 _atom_site_label
 _atom_site_symmetry_multiplicity
 _atom_site_fract_x
 _atom_site_fract_y
 _atom_site_fract_z
 _atom_site_occupancy
  Rb  Rb0  1  0.682213  0.227677  0.546533  1
  Rb  Rb1  1  0.317787  0.772323  0.453467  1
  Na  Na2  1  0.616280  0.530529  0.202764  1
  Na  Na3  1  0.383720  0.469471  0.797236  1
  Zr  Zr4  1  0.152264  0.072424  0.251192  1
  Zr  Zr5  1  0.847736  0.927576  0.748808  1
  Zr  Zr6  1  0.860037  0.151989  0.129271  1
  Zr  Zr7  1  0.139963  0.848011  0.870729  1
  Zr  Zr8  1  0.146673  0.229781  0.028362  1
  Zr  Zr9  1  0.853327  0.770219  0.971638  1
  Fe  Fe10  1  0.000000  0.000000  0.000000  1
  Br  Br11  1  0.007833  0.419442  0.170703  1
  Br  Br12  1  0.992167  0.580558  0.829297  1
  Br  Br13  1  0.326616  0.335146  0.309444  1
  Br  Br14  1  0.673384  0.664854  0.690556  1
  Br  Br15  1  0.325995  0.498281  0.069820  1
  Br  Br16  1  0.674005  0.501719  0.930180  1
  Br  Br17  1  0.005410  0.827094  0.245590  1
  Br  Br18  1  0.994590  0.172906  0.754410  1
  Br  Br19  1  0.702631  0.323553  0.279051  1
  Br  Br20  1  0.297369  0.676447  0.720949  1
  Br  Br21  1  0.313682  0.087152  0.890388  1
  Br  Br22  1  0.686318  0.912848  0.109612  1
  Br  Br23  1  0.014429  0.244990  0.417823  1
  Br  Br24  1  0.985571  0.755010  0.582177  1
  Br  Br25  1  0.319931  0.913346  0.135175  1
  Br  Br26  1  0.680069  0.086654  0.864825  1
  Br  Br27  1  0.336150  0.153960  0.538014  1
  Br  Br28  1  0.663850  0.846040  0.461986  1
