# generated using pymatgen
data_Dy7Th(InAu2)4
_symmetry_space_group_name_H-M   'P 1'
_cell_length_a   8.02534624
_cell_length_b   8.02534736
_cell_length_c   7.47907200
_cell_angle_alpha   90.00000000
_cell_angle_beta   90.00000000
_cell_angle_gamma   90.03432605
_symmetry_Int_Tables_number   1
_chemical_formula_structural   Dy7Th(InAu2)4
_chemical_formula_sum   'Dy7 Th1 In4 Au8'
_cell_volume   481.69845569
_cell_formula_units_Z   1
loop_
 _symmetry_equiv_pos_site_id
 _symmetry_equiv_pos_as_xyz
  1  'x, y, z'
loop_
 _atom_site_type_symbol
 _atom_site_label
 _atom_site_symmetry_multiplicity
 _atom_site_fract_x
 _atom_site_fract_y
 _atom_site_fract_z
 _atom_site_occupancy
  Dy  Dy0  1  0.167738  0.832262  0.500000  1
  Dy  Dy1  1  0.330009  0.335184  0.000000  1
  Dy  Dy2  1  0.664816  0.669991  0.000000  1
  Dy  Dy3  1  0.674538  0.672263  0.500000  1
  Dy  Dy4  1  0.327737  0.325462  0.500000  1
  Dy  Dy5  1  0.175964  0.824036  0.000000  1
  Dy  Dy6  1  0.827920  0.172080  0.000000  1
  Th  Th7  1  0.831384  0.168616  0.500000  1
  In  In8  1  0.495964  0.997263  0.261615  1
  In  In9  1  0.002737  0.504036  0.738385  1
  In  In10  1  0.495964  0.997263  0.738385  1
  In  In11  1  0.002737  0.504036  0.261615  1
  Au  Au12  1  0.626635  0.373365  0.246878  1
  Au  Au13  1  0.371214  0.628786  0.258088  1
  Au  Au14  1  0.130579  0.127183  0.761156  1
  Au  Au15  1  0.872817  0.869421  0.761156  1
  Au  Au16  1  0.371214  0.628786  0.741912  1
  Au  Au17  1  0.626635  0.373365  0.753122  1
  Au  Au18  1  0.872817  0.869421  0.238844  1
  Au  Au19  1  0.130579  0.127183  0.238844  1
