# generated using pymatgen
data_Tm3LuAl2(ZnPt2)2
_symmetry_space_group_name_H-M   'P 1'
_cell_length_a   4.31059700
_cell_length_b   6.74376250
_cell_length_c   7.90927208
_cell_angle_alpha   89.25741664
_cell_angle_beta   90.00000000
_cell_angle_gamma   90.00000000
_symmetry_Int_Tables_number   1
_chemical_formula_structural   Tm3LuAl2(ZnPt2)2
_chemical_formula_sum   'Tm3 Lu1 Al2 Zn2 Pt4'
_cell_volume   229.90040094
_cell_formula_units_Z   1
loop_
 _symmetry_equiv_pos_site_id
 _symmetry_equiv_pos_as_xyz
  1  'x, y, z'
loop_
 _atom_site_type_symbol
 _atom_site_label
 _atom_site_symmetry_multiplicity
 _atom_site_fract_x
 _atom_site_fract_y
 _atom_site_fract_z
 _atom_site_occupancy
  Tm  Tm0  1  0.250000  0.534826  0.178713  1
  Tm  Tm1  1  0.750000  0.465036  0.821694  1
  Tm  Tm2  1  0.750000  0.968948  0.684059  1
  Lu  Lu3  1  0.250000  0.031399  0.315839  1
  Al  Al4  1  0.250000  0.640121  0.557336  1
  Al  Al5  1  0.750000  0.360016  0.441965  1
  Zn  Zn6  1  0.750000  0.857860  0.062867  1
  Zn  Zn7  1  0.250000  0.142278  0.937670  1
  Pt  Pt8  1  0.250000  0.754218  0.868495  1
  Pt  Pt9  1  0.750000  0.244796  0.131996  1
  Pt  Pt10  1  0.750000  0.737022  0.386445  1
  Pt  Pt11  1  0.250000  0.263480  0.612923  1
