# generated using pymatgen
data_Ho12GaFe2Ni2Pb
_symmetry_space_group_name_H-M   'P 1'
_cell_length_a   8.32074991
_cell_length_b   8.32069813
_cell_length_c   8.32075040
_cell_angle_alpha   110.82035578
_cell_angle_beta   109.69237817
_cell_angle_gamma   107.91435445
_symmetry_Int_Tables_number   1
_chemical_formula_structural   Ho12GaFe2Ni2Pb
_chemical_formula_sum   'Ho12 Ga1 Fe2 Ni2 Pb1'
_cell_volume   443.17820852
_cell_formula_units_Z   1
loop_
 _symmetry_equiv_pos_site_id
 _symmetry_equiv_pos_as_xyz
  1  'x, y, z'
loop_
 _atom_site_type_symbol
 _atom_site_label
 _atom_site_symmetry_multiplicity
 _atom_site_fract_x
 _atom_site_fract_y
 _atom_site_fract_z
 _atom_site_occupancy
  Ho  Ho0  1  0.971102  0.267354  0.703742  1
  Ho  Ho1  1  0.028898  0.732646  0.296258  1
  Ho  Ho2  1  0.681785  0.872835  0.191050  1
  Ho  Ho3  1  0.318214  0.509262  0.191047  1
  Ho  Ho4  1  0.318215  0.127165  0.808950  1
  Ho  Ho5  1  0.681786  0.490738  0.808953  1
  Ho  Ho6  1  0.563612  0.267354  0.296252  1
  Ho  Ho7  1  0.436388  0.732646  0.703748  1
  Ho  Ho8  1  0.179562  0.781283  0.960849  1
  Ho  Ho9  1  0.820435  0.781283  0.601722  1
  Ho  Ho10  1  0.179565  0.218717  0.398278  1
  Ho  Ho11  1  0.820438  0.218717  0.039151  1
  Ga  Ga12  1  0.000000  0.500000  0.500000  1
  Fe  Fe13  1  0.109698  0.109696  0.999998  1
  Fe  Fe14  1  0.890302  0.890304  0.000002  1
  Ni  Ni15  1  0.643976  0.500000  0.143976  1
  Ni  Ni16  1  0.356024  0.500000  0.856024  1
  Pb  Pb17  1  0.500000  0.000000  0.500000  1
