# generated using pymatgen
data_Tm7Co5Sn23Ru
_symmetry_space_group_name_H-M   'P 1'
_cell_length_a   9.68524228
_cell_length_b   9.68524227
_cell_length_c   9.94003634
_cell_angle_alpha   90.16235225
_cell_angle_beta   89.83764601
_cell_angle_gamma   119.99492499
_symmetry_Int_Tables_number   1
_chemical_formula_structural   Tm7Co5Sn23Ru
_chemical_formula_sum   'Tm7 Co5 Sn23 Ru1'
_cell_volume   807.53148515
_cell_formula_units_Z   1
loop_
 _symmetry_equiv_pos_site_id
 _symmetry_equiv_pos_as_xyz
  1  'x, y, z'
loop_
 _atom_site_type_symbol
 _atom_site_label
 _atom_site_symmetry_multiplicity
 _atom_site_fract_x
 _atom_site_fract_y
 _atom_site_fract_z
 _atom_site_occupancy
  Tm  Tm0  1  0.996384  0.003616  0.004037  1
  Tm  Tm1  1  0.479785  0.520215  0.307181  1
  Tm  Tm2  1  0.520761  0.479239  0.693345  1
  Tm  Tm3  1  0.480378  0.959238  0.306107  1
  Tm  Tm4  1  0.520073  0.041659  0.693554  1
  Tm  Tm5  1  0.040762  0.519622  0.306107  1
  Tm  Tm6  1  0.958341  0.479927  0.693554  1
  Co  Co7  1  0.168128  0.831872  0.803434  1
  Co  Co8  1  0.831993  0.663045  0.196437  1
  Co  Co9  1  0.169850  0.336030  0.801419  1
  Co  Co10  1  0.336955  0.168007  0.196437  1
  Co  Co11  1  0.663970  0.830150  0.801419  1
  Sn  Sn12  1  0.344759  0.999358  0.999939  1
  Sn  Sn13  1  0.648752  0.995720  0.995419  1
  Sn  Sn14  1  0.004280  0.351248  0.995419  1
  Sn  Sn15  1  0.000642  0.655241  0.999939  1
  Sn  Sn16  1  0.653681  0.653649  0.999707  1
  Sn  Sn17  1  0.346351  0.346319  0.999707  1
  Sn  Sn18  1  0.333401  0.666599  0.816185  1
  Sn  Sn19  1  0.665440  0.334560  0.182079  1
  Sn  Sn20  1  0.999180  0.000820  0.501453  1
  Sn  Sn21  1  0.779372  0.220628  0.457031  1
  Sn  Sn22  1  0.218410  0.781590  0.549268  1
  Sn  Sn23  1  0.781155  0.562492  0.451050  1
  Sn  Sn24  1  0.218606  0.437550  0.548825  1
  Sn  Sn25  1  0.437508  0.218845  0.451050  1
  Sn  Sn26  1  0.562450  0.781394  0.548825  1
  Sn  Sn27  1  0.333502  0.666498  0.120091  1
  Sn  Sn28  1  0.666443  0.333557  0.879119  1
  Sn  Sn29  1  0.118224  0.881776  0.273527  1
  Sn  Sn30  1  0.881608  0.118392  0.726033  1
  Sn  Sn31  1  0.124791  0.238080  0.276564  1
  Sn  Sn32  1  0.882738  0.763444  0.725899  1
  Sn  Sn33  1  0.761920  0.875209  0.276564  1
  Sn  Sn34  1  0.236556  0.117262  0.725899  1
  Ru  Ru35  1  0.832849  0.167151  0.197372  1
