# generated using pymatgen
data_Ho14Er3Tm3Pb16
_symmetry_space_group_name_H-M   'P 1'
_cell_length_a   8.16477400
_cell_length_b   8.23568917
_cell_length_c   15.57260102
_cell_angle_alpha   90.00522121
_cell_angle_beta   89.99949719
_cell_angle_gamma   90.01130413
_symmetry_Int_Tables_number   1
_chemical_formula_structural   Ho14Er3Tm3Pb16
_chemical_formula_sum   'Ho14 Er3 Tm3 Pb16'
_cell_volume   1047.14123484
_cell_formula_units_Z   1
loop_
 _symmetry_equiv_pos_site_id
 _symmetry_equiv_pos_as_xyz
  1  'x, y, z'
loop_
 _atom_site_type_symbol
 _atom_site_label
 _atom_site_symmetry_multiplicity
 _atom_site_fract_x
 _atom_site_fract_y
 _atom_site_fract_z
 _atom_site_occupancy
  Ho  Ho0  1  0.622752  0.158914  0.379056  1
  Ho  Ho1  1  0.122734  0.341098  0.120984  1
  Ho  Ho2  1  0.622752  0.158958  0.120984  1
  Ho  Ho3  1  0.122739  0.341044  0.378979  1
  Ho  Ho4  1  0.377363  0.841153  0.620983  1
  Ho  Ho5  1  0.877125  0.659017  0.879029  1
  Ho  Ho6  1  0.536826  0.323299  0.900128  1
  Ho  Ho7  1  0.036692  0.176535  0.599881  1
  Ho  Ho8  1  0.463230  0.676642  0.400092  1
  Ho  Ho9  1  0.963246  0.823368  0.099872  1
  Ho  Ho10  1  0.463220  0.676638  0.099853  1
  Ho  Ho11  1  0.963233  0.823369  0.400183  1
  Ho  Ho12  1  0.536845  0.323351  0.599887  1
  Ho  Ho13  1  0.036711  0.176492  0.900102  1
  Er  Er14  1  0.377282  0.841161  0.878998  1
  Er  Er15  1  0.877073  0.658999  0.620993  1
  Er  Er16  1  0.208599  0.504175  0.749991  1
  Tm  Tm17  1  0.708700  0.995683  0.749997  1
  Tm  Tm18  1  0.791313  0.495798  0.250001  1
  Tm  Tm19  1  0.291303  0.004178  0.249991  1
  Pb  Pb20  1  0.280715  0.032369  0.042588  1
  Pb  Pb21  1  0.780734  0.467655  0.457417  1
  Pb  Pb22  1  0.719414  0.967353  0.542683  1
  Pb  Pb23  1  0.219460  0.532671  0.957466  1
  Pb  Pb24  1  0.719171  0.967488  0.957313  1
  Pb  Pb25  1  0.219192  0.532560  0.542538  1
  Pb  Pb26  1  0.280665  0.032485  0.457314  1
  Pb  Pb27  1  0.780674  0.467553  0.042692  1
  Pb  Pb28  1  0.571870  0.626809  0.750013  1
  Pb  Pb29  1  0.071445  0.873581  0.749986  1
  Pb  Pb30  1  0.428505  0.373449  0.250000  1
  Pb  Pb31  1  0.928505  0.126560  0.250005  1
  Pb  Pb32  1  0.348438  0.153706  0.750036  1
  Pb  Pb33  1  0.848222  0.345784  0.749966  1
  Pb  Pb34  1  0.651644  0.845859  0.249997  1
  Pb  Pb35  1  0.151613  0.654247  0.250003  1
