# generated using pymatgen
data_Nd2HoTeAs2
_symmetry_space_group_name_H-M   'P 1'
_cell_length_a   4.24505500
_cell_length_b   10.55704765
_cell_length_c   7.34352800
_cell_angle_alpha   89.86651657
_cell_angle_beta   90.00000000
_cell_angle_gamma   90.00000000
_symmetry_Int_Tables_number   1
_chemical_formula_structural   Nd2HoTeAs2
_chemical_formula_sum   'Nd4 Ho2 Te2 As4'
_cell_volume   329.10113474
_cell_formula_units_Z   2
loop_
 _symmetry_equiv_pos_site_id
 _symmetry_equiv_pos_as_xyz
  1  'x, y, z'
loop_
 _atom_site_type_symbol
 _atom_site_label
 _atom_site_symmetry_multiplicity
 _atom_site_fract_x
 _atom_site_fract_y
 _atom_site_fract_z
 _atom_site_occupancy
  Nd  Nd0  1  0.250000  0.804305  0.915849  1
  Nd  Nd1  1  0.750000  0.195695  0.084151  1
  Nd  Nd2  1  0.750000  0.803248  0.416283  1
  Nd  Nd3  1  0.250000  0.196752  0.583717  1
  Ho  Ho4  1  0.250000  0.500193  0.249488  1
  Ho  Ho5  1  0.750000  0.499807  0.750512  1
  Te  Te6  1  0.750000  0.000393  0.749190  1
  Te  Te7  1  0.250000  0.999607  0.250810  1
  As  As8  1  0.250000  0.650924  0.583594  1
  As  As9  1  0.750000  0.349076  0.416406  1
  As  As10  1  0.750000  0.651663  0.082935  1
  As  As11  1  0.250000  0.348337  0.917065  1
