# generated using pymatgen
data_La4YbGa2Pb
_symmetry_space_group_name_H-M   'P 1'
_cell_length_a   9.41485013
_cell_length_b   9.41484969
_cell_length_c   9.41485200
_cell_angle_alpha   128.36610439
_cell_angle_beta   128.36610226
_cell_angle_gamma   76.03269985
_symmetry_Int_Tables_number   1
_chemical_formula_structural   La4YbGa2Pb
_chemical_formula_sum   'La8 Yb2 Ga4 Pb2'
_cell_volume   498.77733593
_cell_formula_units_Z   2
loop_
 _symmetry_equiv_pos_site_id
 _symmetry_equiv_pos_as_xyz
  1  'x, y, z'
loop_
 _atom_site_type_symbol
 _atom_site_label
 _atom_site_symmetry_multiplicity
 _atom_site_fract_x
 _atom_site_fract_y
 _atom_site_fract_z
 _atom_site_occupancy
  La  La0  1  0.524469  0.024469  0.834869  1
  La  La1  1  0.189650  0.689650  0.165134  1
  La  La2  1  0.024468  0.189757  0.499976  1
  La  La3  1  0.689757  0.524468  0.499976  1
  La  La4  1  0.475531  0.975531  0.165131  1
  La  La5  1  0.810350  0.310350  0.834866  1
  La  La6  1  0.975532  0.810243  0.500024  1
  La  La7  1  0.310243  0.475532  0.500024  1
  Yb  Yb8  1  0.500000  0.500000  0.000000  1
  Yb  Yb9  1  0.000000  0.000000  0.000000  1
  Ga  Ga10  1  0.878328  0.378328  0.256656  1
  Ga  Ga11  1  0.121672  0.621672  0.743344  1
  Ga  Ga12  1  0.378310  0.121690  0.500000  1
  Ga  Ga13  1  0.621690  0.878310  0.500000  1
  Pb  Pb14  1  0.250006  0.249994  0.000000  1
  Pb  Pb15  1  0.749994  0.750006  0.000000  1
