# generated using pymatgen
data_YbHfI26
_symmetry_space_group_name_H-M   'P 1'
_cell_length_a   13.13291471
_cell_length_b   11.65695141
_cell_length_c   15.82939740
_cell_angle_alpha   124.64184340
_cell_angle_beta   83.12706353
_cell_angle_gamma   108.44819368
_symmetry_Int_Tables_number   1
_chemical_formula_structural   YbHfI26
_chemical_formula_sum   'Yb1 Hf1 I26'
_cell_volume   1885.62176497
_cell_formula_units_Z   1
loop_
 _symmetry_equiv_pos_site_id
 _symmetry_equiv_pos_as_xyz
  1  'x, y, z'
loop_
 _atom_site_type_symbol
 _atom_site_label
 _atom_site_symmetry_multiplicity
 _atom_site_fract_x
 _atom_site_fract_y
 _atom_site_fract_z
 _atom_site_occupancy
  Yb  Yb0  1  0.318202  0.862271  0.944508  1
  Hf  Hf1  1  0.664105  0.132322  0.049848  1
  I  I2  1  0.374386  0.651272  0.980226  1
  I  I3  1  0.618637  0.334852  0.023033  1
  I  I4  1  0.588373  0.853976  0.429330  1
  I  I5  1  0.430328  0.190725  0.615402  1
  I  I6  1  0.730055  0.707122  0.008604  1
  I  I7  1  0.266461  0.294472  0.992560  1
  I  I8  1  0.705199  0.991751  0.145182  1
  I  I9  1  0.289479  0.017754  0.842089  1
  I  I10  1  0.459548  0.145592  0.141576  1
  I  I11  1  0.562649  0.866898  0.870772  1
  I  I12  1  0.241766  0.640633  0.709363  1
  I  I13  1  0.763204  0.364774  0.260529  1
  I  I14  1  0.090604  0.817568  0.011165  1
  I  I15  1  0.858593  0.159928  0.969314  1
  I  I16  1  0.062901  0.088559  0.213578  1
  I  I17  1  0.901881  0.832498  0.726691  1
  I  I18  1  0.280544  0.907222  0.467396  1
  I  I19  1  0.748659  0.131728  0.566971  1
  I  I20  1  0.335894  0.414476  0.655155  1
  I  I21  1  0.674846  0.614879  0.351058  1
  I  I22  1  0.886518  0.428398  0.723354  1
  I  I23  1  0.139581  0.615230  0.309969  1
  I  I24  1  0.952518  0.591598  0.553826  1
  I  I25  1  0.038569  0.319204  0.418478  1
  I  I26  1  0.251200  0.622961  0.136831  1
  I  I27  1  0.765299  0.401336  0.883192  1
