# generated using pymatgen
data_Tb8DyTm11Sn16
_symmetry_space_group_name_H-M   'P 1'
_cell_length_a   7.99220450
_cell_length_b   8.13105553
_cell_length_c   15.36269517
_cell_angle_alpha   89.98663141
_cell_angle_beta   89.98931988
_cell_angle_gamma   89.96098795
_symmetry_Int_Tables_number   1
_chemical_formula_structural   Tb8DyTm11Sn16
_chemical_formula_sum   'Tb8 Dy1 Tm11 Sn16'
_cell_volume   998.34536929
_cell_formula_units_Z   1
loop_
 _symmetry_equiv_pos_site_id
 _symmetry_equiv_pos_as_xyz
  1  'x, y, z'
loop_
 _atom_site_type_symbol
 _atom_site_label
 _atom_site_symmetry_multiplicity
 _atom_site_fract_x
 _atom_site_fract_y
 _atom_site_fract_z
 _atom_site_occupancy
  Tb  Tb0  1  0.520681  0.320774  0.902854  1
  Tb  Tb1  1  0.020617  0.179472  0.597067  1
  Tb  Tb2  1  0.479274  0.679357  0.402845  1
  Tb  Tb3  1  0.979476  0.820748  0.097117  1
  Tb  Tb4  1  0.479431  0.679263  0.097436  1
  Tb  Tb5  1  0.979299  0.820600  0.402872  1
  Tb  Tb6  1  0.520703  0.320615  0.597023  1
  Tb  Tb7  1  0.020479  0.179521  0.902939  1
  Dy  Dy8  1  0.366922  0.836469  0.877556  1
  Tm  Tm9  1  0.866902  0.663275  0.622555  1
  Tm  Tm10  1  0.633236  0.163353  0.377313  1
  Tm  Tm11  1  0.133156  0.336708  0.122918  1
  Tm  Tm12  1  0.633173  0.163246  0.122639  1
  Tm  Tm13  1  0.133231  0.336715  0.377327  1
  Tm  Tm14  1  0.366765  0.836728  0.622587  1
  Tm  Tm15  1  0.866628  0.663365  0.877263  1
  Tm  Tm16  1  0.197779  0.503691  0.749773  1
  Tm  Tm17  1  0.698232  0.996141  0.749849  1
  Tm  Tm18  1  0.801972  0.495932  0.250003  1
  Tm  Tm19  1  0.301977  0.004087  0.250074  1
  Sn  Sn20  1  0.294679  0.038477  0.042324  1
  Sn  Sn21  1  0.794913  0.462174  0.458291  1
  Sn  Sn22  1  0.705014  0.962251  0.541654  1
  Sn  Sn23  1  0.204227  0.536584  0.958520  1
  Sn  Sn24  1  0.706423  0.962605  0.958477  1
  Sn  Sn25  1  0.205064  0.537768  0.541665  1
  Sn  Sn26  1  0.294917  0.037789  0.458324  1
  Sn  Sn27  1  0.795005  0.462206  0.041686  1
  Sn  Sn28  1  0.564690  0.620376  0.749627  1
  Sn  Sn29  1  0.063559  0.879016  0.749649  1
  Sn  Sn30  1  0.435907  0.378970  0.250047  1
  Sn  Sn31  1  0.935856  0.121000  0.250053  1
  Sn  Sn32  1  0.329538  0.147610  0.749693  1
  Sn  Sn33  1  0.829626  0.352992  0.749966  1
  Sn  Sn34  1  0.670281  0.852975  0.250017  1
  Sn  Sn35  1  0.170369  0.647147  0.249996  1
