# generated using pymatgen
data_Er5Sc3Os4
_symmetry_space_group_name_H-M   'P 1'
_cell_length_a   4.22893600
_cell_length_b   7.26938479
_cell_length_c   8.57723691
_cell_angle_alpha   89.50464022
_cell_angle_beta   90.00000000
_cell_angle_gamma   90.00000000
_symmetry_Int_Tables_number   1
_chemical_formula_structural   Er5Sc3Os4
_chemical_formula_sum   'Er5 Sc3 Os4'
_cell_volume   263.66952978
_cell_formula_units_Z   1
loop_
 _symmetry_equiv_pos_site_id
 _symmetry_equiv_pos_as_xyz
  1  'x, y, z'
loop_
 _atom_site_type_symbol
 _atom_site_label
 _atom_site_symmetry_multiplicity
 _atom_site_fract_x
 _atom_site_fract_y
 _atom_site_fract_z
 _atom_site_occupancy
  Er  Er0  1  0.250000  0.984353  0.329671  1
  Er  Er1  1  0.750000  0.026319  0.675855  1
  Er  Er2  1  0.250000  0.470249  0.163250  1
  Er  Er3  1  0.750000  0.528587  0.828711  1
  Er  Er4  1  0.750000  0.647755  0.433147  1
  Sc  Sc5  1  0.250000  0.353378  0.565141  1
  Sc  Sc6  1  0.750000  0.140795  0.061345  1
  Sc  Sc7  1  0.250000  0.857524  0.938023  1
  Os  Os8  1  0.250000  0.236242  0.879454  1
  Os  Os9  1  0.750000  0.762925  0.113971  1
  Os  Os10  1  0.250000  0.734856  0.630995  1
  Os  Os11  1  0.750000  0.257017  0.380437  1
