# generated using pymatgen
data_Pr2B4IrOs2Ru
_symmetry_space_group_name_H-M   'P 1'
_cell_length_a   6.90645551
_cell_length_b   6.06452871
_cell_length_c   5.61176952
_cell_angle_alpha   72.40848148
_cell_angle_beta   56.82801093
_cell_angle_gamma   51.27675116
_symmetry_Int_Tables_number   1
_chemical_formula_structural   Pr2B4IrOs2Ru
_chemical_formula_sum   'Pr2 B4 Ir1 Os2 Ru1'
_cell_volume   153.20354898
_cell_formula_units_Z   1
loop_
 _symmetry_equiv_pos_site_id
 _symmetry_equiv_pos_as_xyz
  1  'x, y, z'
loop_
 _atom_site_type_symbol
 _atom_site_label
 _atom_site_symmetry_multiplicity
 _atom_site_fract_x
 _atom_site_fract_y
 _atom_site_fract_z
 _atom_site_occupancy
  Pr  Pr0  1  0.498589  0.498589  0.501411  1
  Pr  Pr1  1  0.749702  0.749702  0.750298  1
  B  B2  1  0.176835  0.822146  0.178163  1
  B  B3  1  0.066124  0.435939  0.063689  1
  B  B4  1  0.822146  0.176835  0.822856  1
  B  B5  1  0.435939  0.066124  0.434248  1
  Ir  Ir6  1  0.115862  0.115862  0.384138  1
  Os  Os7  1  0.864563  0.864563  0.135437  1
  Os  Os8  1  0.135388  0.135388  0.864612  1
  Ru  Ru9  1  0.384852  0.384852  0.115148  1
