# generated using pymatgen
data_Gd4Ho5LuSn8
_symmetry_space_group_name_H-M   'P 1'
_cell_length_a   8.05046700
_cell_length_b   8.20455800
_cell_length_c   15.50298500
_cell_angle_alpha   90.00000000
_cell_angle_beta   90.00000000
_cell_angle_gamma   90.00000000
_symmetry_Int_Tables_number   1
_chemical_formula_structural   Gd4Ho5LuSn8
_chemical_formula_sum   'Gd8 Ho10 Lu2 Sn16'
_cell_volume   1023.98027396
_cell_formula_units_Z   2
loop_
 _symmetry_equiv_pos_site_id
 _symmetry_equiv_pos_as_xyz
  1  'x, y, z'
loop_
 _atom_site_type_symbol
 _atom_site_label
 _atom_site_symmetry_multiplicity
 _atom_site_fract_x
 _atom_site_fract_y
 _atom_site_fract_z
 _atom_site_occupancy
  Gd  Gd0  1  0.518685  0.321685  0.903336  1
  Gd  Gd1  1  0.018685  0.178315  0.596664  1
  Gd  Gd2  1  0.480955  0.678442  0.403344  1
  Gd  Gd3  1  0.980955  0.821558  0.096656  1
  Gd  Gd4  1  0.480955  0.678442  0.096656  1
  Gd  Gd5  1  0.980955  0.821558  0.403344  1
  Gd  Gd6  1  0.518685  0.321685  0.596664  1
  Gd  Gd7  1  0.018685  0.178315  0.903336  1
  Ho  Ho8  1  0.362803  0.837503  0.877176  1
  Ho  Ho9  1  0.862803  0.662497  0.622824  1
  Ho  Ho10  1  0.637053  0.162178  0.377068  1
  Ho  Ho11  1  0.137053  0.337822  0.122932  1
  Ho  Ho12  1  0.637053  0.162178  0.122932  1
  Ho  Ho13  1  0.137053  0.337822  0.377068  1
  Ho  Ho14  1  0.362803  0.837503  0.622824  1
  Ho  Ho15  1  0.862803  0.662497  0.877176  1
  Ho  Ho16  1  0.195668  0.502189  0.750000  1
  Ho  Ho17  1  0.695668  0.997811  0.750000  1
  Lu  Lu18  1  0.804253  0.497223  0.250000  1
  Lu  Lu19  1  0.304253  0.002777  0.250000  1
  Sn  Sn20  1  0.298930  0.039532  0.042255  1
  Sn  Sn21  1  0.798930  0.460468  0.457745  1
  Sn  Sn22  1  0.701299  0.961827  0.542464  1
  Sn  Sn23  1  0.201299  0.538173  0.957536  1
  Sn  Sn24  1  0.701299  0.961827  0.957536  1
  Sn  Sn25  1  0.201299  0.538173  0.542464  1
  Sn  Sn26  1  0.298930  0.039532  0.457745  1
  Sn  Sn27  1  0.798930  0.460468  0.042255  1
  Sn  Sn28  1  0.560998  0.621003  0.750000  1
  Sn  Sn29  1  0.060998  0.878997  0.750000  1
  Sn  Sn30  1  0.440331  0.378383  0.250000  1
  Sn  Sn31  1  0.940331  0.121617  0.250000  1
  Sn  Sn32  1  0.327416  0.146614  0.750000  1
  Sn  Sn33  1  0.827416  0.353386  0.750000  1
  Sn  Sn34  1  0.671884  0.852281  0.250000  1
  Sn  Sn35  1  0.171884  0.647719  0.250000  1
