# generated using pymatgen
data_YLuPa2(Al3Rh)6
_symmetry_space_group_name_H-M   'P 1'
_cell_length_a   7.58547259
_cell_length_b   7.59251575
_cell_length_c   9.36513200
_cell_angle_alpha   90.00000000
_cell_angle_beta   90.00000000
_cell_angle_gamma   119.60555999
_symmetry_Int_Tables_number   1
_chemical_formula_structural   YLuPa2(Al3Rh)6
_chemical_formula_sum   'Y1 Lu1 Pa2 Al18 Rh6'
_cell_volume   468.94872355
_cell_formula_units_Z   1
loop_
 _symmetry_equiv_pos_site_id
 _symmetry_equiv_pos_as_xyz
  1  'x, y, z'
loop_
 _atom_site_type_symbol
 _atom_site_label
 _atom_site_symmetry_multiplicity
 _atom_site_fract_x
 _atom_site_fract_y
 _atom_site_fract_z
 _atom_site_occupancy
  Y  Y0  1  0.670120  0.993088  0.250000  1
  Lu  Lu1  1  0.328845  0.006891  0.750000  1
  Pa  Pa2  1  0.997574  0.671350  0.250000  1
  Pa  Pa3  1  0.002449  0.328500  0.750000  1
  Al  Al4  1  0.130933  0.126659  0.250000  1
  Al  Al5  1  0.870351  0.873746  0.750000  1
  Al  Al6  1  0.000530  0.332176  0.077202  1
  Al  Al7  1  0.000897  0.668848  0.921157  1
  Al  Al8  1  0.000897  0.668848  0.578843  1
  Al  Al9  1  0.337880  0.002795  0.426503  1
  Al  Al10  1  0.000530  0.332176  0.422798  1
  Al  Al11  1  0.660658  0.997271  0.576493  1
  Al  Al12  1  0.660658  0.997271  0.923507  1
  Al  Al13  1  0.337880  0.002795  0.073497  1
  Al  Al14  1  0.334620  0.332550  0.553863  1
  Al  Al15  1  0.665471  0.666676  0.449057  1
  Al  Al16  1  0.665471  0.666676  0.050943  1
  Al  Al17  1  0.334620  0.332550  0.946137  1
  Al  Al18  1  0.340673  0.548436  0.250000  1
  Al  Al19  1  0.658809  0.450026  0.750000  1
  Al  Al20  1  0.550308  0.341831  0.250000  1
  Al  Al21  1  0.448848  0.658399  0.750000  1
  Rh  Rh22  1  0.675240  0.329450  0.999102  1
  Rh  Rh23  1  0.324495  0.670590  0.000038  1
  Rh  Rh24  1  0.324495  0.670590  0.499962  1
  Rh  Rh25  1  0.675240  0.329450  0.500898  1
  Rh  Rh26  1  0.000755  0.000183  0.999081  1
  Rh  Rh27  1  0.000755  0.000183  0.500919  1
