# generated using pymatgen
data_Zr3Sc(NiTe2)4
_symmetry_space_group_name_H-M   'P 1'
_cell_length_a   6.76206378
_cell_length_b   7.49779305
_cell_length_c   8.10242400
_cell_angle_alpha   90.00000000
_cell_angle_beta   90.00000000
_cell_angle_gamma   90.04088742
_symmetry_Int_Tables_number   1
_chemical_formula_structural   Zr3Sc(NiTe2)4
_chemical_formula_sum   'Zr3 Sc1 Ni4 Te8'
_cell_volume   410.79728765
_cell_formula_units_Z   1
loop_
 _symmetry_equiv_pos_site_id
 _symmetry_equiv_pos_as_xyz
  1  'x, y, z'
loop_
 _atom_site_type_symbol
 _atom_site_label
 _atom_site_symmetry_multiplicity
 _atom_site_fract_x
 _atom_site_fract_y
 _atom_site_fract_z
 _atom_site_occupancy
  Zr  Zr0  1  0.500000  0.000000  0.790139  1
  Zr  Zr1  1  0.000000  0.000000  0.708448  1
  Zr  Zr2  1  0.000000  0.000000  0.288643  1
  Sc  Sc3  1  0.500000  0.000000  0.210559  1
  Ni  Ni4  1  0.854053  0.878301  0.995200  1
  Ni  Ni5  1  0.647251  0.879355  0.497972  1
  Ni  Ni6  1  0.145947  0.121699  0.995200  1
  Ni  Ni7  1  0.352749  0.120645  0.497972  1
  Te  Te8  1  0.768014  0.212592  0.005277  1
  Te  Te9  1  0.732297  0.213018  0.505850  1
  Te  Te10  1  0.749138  0.683193  0.748055  1
  Te  Te11  1  0.750865  0.685813  0.248753  1
  Te  Te12  1  0.231986  0.787408  0.005277  1
  Te  Te13  1  0.267703  0.786982  0.505850  1
  Te  Te14  1  0.250862  0.316807  0.748055  1
  Te  Te15  1  0.249135  0.314187  0.248753  1
