# generated using pymatgen
data_Ho6Co18Si11P
_symmetry_space_group_name_H-M   'P 1'
_cell_length_a   3.75862500
_cell_length_b   10.70148803
_cell_length_c   12.30972935
_cell_angle_alpha   89.92924485
_cell_angle_beta   90.00000000
_cell_angle_gamma   90.00000000
_symmetry_Int_Tables_number   1
_chemical_formula_structural   Ho6Co18Si11P
_chemical_formula_sum   'Ho6 Co18 Si11 P1'
_cell_volume   495.13239476
_cell_formula_units_Z   1
loop_
 _symmetry_equiv_pos_site_id
 _symmetry_equiv_pos_as_xyz
  1  'x, y, z'
loop_
 _atom_site_type_symbol
 _atom_site_label
 _atom_site_symmetry_multiplicity
 _atom_site_fract_x
 _atom_site_fract_y
 _atom_site_fract_z
 _atom_site_occupancy
  Ho  Ho0  1  0.000000  0.499439  0.525320  1
  Ho  Ho1  1  0.500000  0.000682  0.473576  1
  Ho  Ho2  1  0.500000  0.817652  0.205408  1
  Ho  Ho3  1  0.500000  0.184276  0.204013  1
  Ho  Ho4  1  0.000000  0.682547  0.795988  1
  Ho  Ho5  1  0.000000  0.317113  0.793773  1
  Co  Co6  1  0.000000  0.495303  0.986621  1
  Co  Co7  1  0.500000  0.001059  0.018367  1
  Co  Co8  1  0.500000  0.302470  0.428002  1
  Co  Co9  1  0.500000  0.697881  0.429933  1
  Co  Co10  1  0.000000  0.198603  0.569406  1
  Co  Co11  1  0.000000  0.801713  0.570706  1
  Co  Co12  1  0.500000  0.882799  0.709399  1
  Co  Co13  1  0.500000  0.117877  0.709119  1
  Co  Co14  1  0.000000  0.617557  0.290773  1
  Co  Co15  1  0.000000  0.382171  0.283504  1
  Co  Co16  1  0.500000  0.331222  0.998010  1
  Co  Co17  1  0.500000  0.667998  0.993793  1
  Co  Co18  1  0.000000  0.169932  0.007304  1
  Co  Co19  1  0.000000  0.831770  0.006465  1
  Co  Co20  1  0.500000  0.502186  0.151287  1
  Co  Co21  1  0.000000  0.001201  0.849419  1
  Co  Co22  1  0.500000  0.499511  0.697957  1
  Co  Co23  1  0.000000  0.000361  0.303439  1
  Si  Si24  1  0.500000  0.304761  0.614109  1
  Si  Si25  1  0.500000  0.695149  0.615602  1
  Si  Si26  1  0.000000  0.196665  0.383613  1
  Si  Si27  1  0.000000  0.804542  0.385186  1
  Si  Si28  1  0.500000  0.499031  0.884111  1
  Si  Si29  1  0.000000  0.000075  0.117838  1
  Si  Si30  1  0.500000  0.852993  0.894853  1
  Si  Si31  1  0.500000  0.148011  0.894434  1
  Si  Si32  1  0.000000  0.648617  0.105469  1
  Si  Si33  1  0.500000  0.499746  0.338104  1
  Si  Si34  1  0.000000  0.000230  0.661640  1
  P  P35  1  0.000000  0.346857  0.103459  1
