# generated using pymatgen
data_Mn13Cr7Tc2GeC6
_symmetry_space_group_name_H-M   'P 1'
_cell_length_a   7.43556837
_cell_length_b   7.43282900
_cell_length_c   7.43363820
_cell_angle_alpha   60.08828586
_cell_angle_beta   59.99141939
_cell_angle_gamma   59.98780234
_symmetry_Int_Tables_number   1
_chemical_formula_structural   Mn13Cr7Tc2GeC6
_chemical_formula_sum   'Mn13 Cr7 Tc2 Ge1 C6'
_cell_volume   290.65336796
_cell_formula_units_Z   1
loop_
 _symmetry_equiv_pos_site_id
 _symmetry_equiv_pos_as_xyz
  1  'x, y, z'
loop_
 _atom_site_type_symbol
 _atom_site_label
 _atom_site_symmetry_multiplicity
 _atom_site_fract_x
 _atom_site_fract_y
 _atom_site_fract_z
 _atom_site_occupancy
  Mn  Mn0  1  0.617433  0.614653  0.150481  1
  Mn  Mn1  1  0.617777  0.150557  0.613885  1
  Mn  Mn2  1  0.150551  0.616660  0.616162  1
  Mn  Mn3  1  0.616624  0.616660  0.616162  1
  Mn  Mn4  1  0.383075  0.382601  0.851249  1
  Mn  Mn5  1  0.383469  0.851439  0.381625  1
  Mn  Mn6  1  0.852387  0.382530  0.381861  1
  Mn  Mn7  1  0.383223  0.382530  0.381861  1
  Mn  Mn8  1  0.999688  0.999462  0.342151  1
  Mn  Mn9  1  0.658699  0.999462  0.342151  1
  Mn  Mn10  1  0.998754  0.659431  0.343061  1
  Mn  Mn11  1  0.658520  0.341619  0.999702  1
  Mn  Mn12  1  0.000160  0.341619  0.999702  1
  Cr  Cr13  1  0.999079  0.344703  0.657140  1
  Cr  Cr14  1  0.342926  0.655785  0.001147  1
  Cr  Cr15  1  0.343227  0.000741  0.656153  1
  Cr  Cr16  1  0.341646  0.000308  0.001264  1
  Cr  Cr17  1  0.999878  0.000741  0.656153  1
  Cr  Cr18  1  0.000141  0.655785  0.001147  1
  Cr  Cr19  1  0.656783  0.000308  0.001264  1
  Tc  Tc20  1  0.748803  0.751424  0.750969  1
  Tc  Tc21  1  0.248914  0.250085  0.252086  1
  Ge  Ge22  1  0.998507  0.000635  0.002350  1
  C  C23  1  0.717913  0.718046  0.283999  1
  C  C24  1  0.280041  0.718046  0.283999  1
  C  C25  1  0.720509  0.279832  0.279148  1
  C  C26  1  0.282728  0.283457  0.718254  1
  C  C27  1  0.715561  0.283457  0.718254  1
  C  C28  1  0.282982  0.717420  0.716615  1
