# generated using pymatgen
data_Tb4DyHo3(ReB6)4
_symmetry_space_group_name_H-M   'P 1'
_cell_length_a   3.68535500
_cell_length_b   9.18004101
_cell_length_c   11.57156200
_cell_angle_alpha   90.00227921
_cell_angle_beta   90.00000000
_cell_angle_gamma   90.00000000
_symmetry_Int_Tables_number   1
_chemical_formula_structural   Tb4DyHo3(ReB6)4
_chemical_formula_sum   'Tb4 Dy1 Ho3 Re4 B24'
_cell_volume   391.48572978
_cell_formula_units_Z   1
loop_
 _symmetry_equiv_pos_site_id
 _symmetry_equiv_pos_as_xyz
  1  'x, y, z'
loop_
 _atom_site_type_symbol
 _atom_site_label
 _atom_site_symmetry_multiplicity
 _atom_site_fract_x
 _atom_site_fract_y
 _atom_site_fract_z
 _atom_site_occupancy
  Tb  Tb0  1  0.000000  0.323205  0.413904  1
  Tb  Tb1  1  0.000000  0.676681  0.586147  1
  Tb  Tb2  1  0.000000  0.823217  0.086018  1
  Tb  Tb3  1  0.000000  0.176884  0.913860  1
  Dy  Dy4  1  0.000000  0.942707  0.370131  1
  Ho  Ho5  1  0.000000  0.057345  0.630184  1
  Ho  Ho6  1  0.000000  0.442717  0.129855  1
  Ho  Ho7  1  0.000000  0.557318  0.869994  1
  Re  Re8  1  0.000000  0.637824  0.320662  1
  Re  Re9  1  0.000000  0.361719  0.679572  1
  Re  Re10  1  0.000000  0.138479  0.179107  1
  Re  Re11  1  0.000000  0.861833  0.820791  1
  B  B12  1  0.500000  0.552830  0.432745  1
  B  B13  1  0.500000  0.446785  0.567341  1
  B  B14  1  0.500000  0.053243  0.067083  1
  B  B15  1  0.500000  0.946912  0.932744  1
  B  B16  1  0.500000  0.748398  0.418259  1
  B  B17  1  0.500000  0.251114  0.581810  1
  B  B18  1  0.500000  0.249057  0.081580  1
  B  B19  1  0.500000  0.751085  0.918298  1
  B  B20  1  0.500000  0.791223  0.265374  1
  B  B21  1  0.500000  0.208457  0.734575  1
  B  B22  1  0.500000  0.291727  0.234341  1
  B  B23  1  0.500000  0.708441  0.765558  1
  B  B24  1  0.500000  0.630072  0.185492  1
  B  B25  1  0.500000  0.369853  0.814413  1
  B  B26  1  0.500000  0.130573  0.314160  1
  B  B27  1  0.500000  0.869771  0.685724  1
  B  B28  1  0.500000  0.982108  0.211781  1
  B  B29  1  0.500000  0.018123  0.788002  1
  B  B30  1  0.500000  0.481742  0.287834  1
  B  B31  1  0.500000  0.518117  0.712073  1
  B  B32  1  0.500000  0.599386  0.027805  1
  B  B33  1  0.500000  0.400712  0.972090  1
  B  B34  1  0.500000  0.099987  0.472387  1
  B  B35  1  0.500000  0.900352  0.528304  1
