# generated using pymatgen
data_Dy2UNi3Bi4
_symmetry_space_group_name_H-M   'P 1'
_cell_length_a   8.33781442
_cell_length_b   8.33781435
_cell_length_c   8.33781401
_cell_angle_alpha   109.55073712
_cell_angle_beta   109.43148045
_cell_angle_gamma   109.43147625
_symmetry_Int_Tables_number   1
_chemical_formula_structural   Dy2UNi3Bi4
_chemical_formula_sum   'Dy4 U2 Ni6 Bi8'
_cell_volume   446.20467479
_cell_formula_units_Z   2
loop_
 _symmetry_equiv_pos_site_id
 _symmetry_equiv_pos_as_xyz
  1  'x, y, z'
loop_
 _atom_site_type_symbol
 _atom_site_label
 _atom_site_symmetry_multiplicity
 _atom_site_fract_x
 _atom_site_fract_y
 _atom_site_fract_z
 _atom_site_occupancy
  Dy  Dy0  1  0.125027  0.875027  0.250000  1
  Dy  Dy1  1  0.374973  0.624973  0.750000  1
  Dy  Dy2  1  0.874973  0.250000  0.124973  1
  Dy  Dy3  1  0.625027  0.750000  0.375027  1
  U  U4  1  0.250000  0.125000  0.875000  1
  U  U5  1  0.750000  0.375000  0.625000  1
  Ni  Ni6  1  0.621582  0.371582  0.250000  1
  Ni  Ni7  1  0.878418  0.128418  0.750000  1
  Ni  Ni8  1  0.378418  0.250000  0.628418  1
  Ni  Ni9  1  0.121582  0.750000  0.871582  1
  Ni  Ni10  1  0.250000  0.625000  0.375000  1
  Ni  Ni11  1  0.750000  0.875000  0.125000  1
  Bi  Bi12  1  0.337873  0.339924  0.339351  1
  Bi  Bi13  1  0.162127  0.501478  0.002051  1
  Bi  Bi14  1  0.999427  0.160076  0.497949  1
  Bi  Bi15  1  0.837873  0.839351  0.839924  1
  Bi  Bi16  1  0.500573  0.998522  0.160649  1
  Bi  Bi17  1  0.662127  0.502051  0.001478  1
  Bi  Bi18  1  0.499427  0.997949  0.660076  1
  Bi  Bi19  1  0.000573  0.660649  0.498522  1
