# generated using pymatgen
data_TmZn3CdIr
_symmetry_space_group_name_H-M   'P 1'
_cell_length_a   5.27881269
_cell_length_b   5.27881185
_cell_length_c   5.27881243
_cell_angle_alpha   59.87567599
_cell_angle_beta   59.87569426
_cell_angle_gamma   59.87567673
_symmetry_Int_Tables_number   1
_chemical_formula_structural   TmZn3CdIr
_chemical_formula_sum   'Tm1 Zn3 Cd1 Ir1'
_cell_volume   103.72104497
_cell_formula_units_Z   1
loop_
 _symmetry_equiv_pos_site_id
 _symmetry_equiv_pos_as_xyz
  1  'x, y, z'
loop_
 _atom_site_type_symbol
 _atom_site_label
 _atom_site_symmetry_multiplicity
 _atom_site_fract_x
 _atom_site_fract_y
 _atom_site_fract_z
 _atom_site_occupancy
  Tm  Tm0  1  0.995842  0.995842  0.995842  1
  Zn  Zn1  1  0.624079  0.624079  0.128823  1
  Zn  Zn2  1  0.624079  0.128823  0.624079  1
  Zn  Zn3  1  0.128823  0.624079  0.624079  1
  Cd  Cd4  1  0.250123  0.250123  0.250123  1
  Ir  Ir5  1  0.627053  0.627053  0.627053  1
