# generated using pymatgen
data_Tb9Tm(Zn2Bi)2
_symmetry_space_group_name_H-M   'P 1'
_cell_length_a   8.65042792
_cell_length_b   8.65042811
_cell_length_c   8.65042832
_cell_angle_alpha   123.19298058
_cell_angle_beta   123.19297378
_cell_angle_gamma   84.55320561
_symmetry_Int_Tables_number   1
_chemical_formula_structural   Tb9Tm(Zn2Bi)2
_chemical_formula_sum   'Tb9 Tm1 Zn4 Bi2'
_cell_volume   433.48653543
_cell_formula_units_Z   1
loop_
 _symmetry_equiv_pos_site_id
 _symmetry_equiv_pos_as_xyz
  1  'x, y, z'
loop_
 _atom_site_type_symbol
 _atom_site_label
 _atom_site_symmetry_multiplicity
 _atom_site_fract_x
 _atom_site_fract_y
 _atom_site_fract_z
 _atom_site_occupancy
  Tb  Tb0  1  0.000000  0.000000  0.000000  1
  Tb  Tb1  1  0.509306  0.010059  0.803987  1
  Tb  Tb2  1  0.206072  0.705319  0.196013  1
  Tb  Tb3  1  0.010059  0.206072  0.500752  1
  Tb  Tb4  1  0.705319  0.509306  0.499248  1
  Tb  Tb5  1  0.490694  0.989941  0.196013  1
  Tb  Tb6  1  0.793928  0.294681  0.803987  1
  Tb  Tb7  1  0.989941  0.793928  0.499248  1
  Tb  Tb8  1  0.294681  0.490694  0.500752  1
  Tm  Tm9  1  0.500000  0.500000  0.000000  1
  Zn  Zn10  1  0.141809  0.640557  0.782366  1
  Zn  Zn11  1  0.858191  0.359443  0.217634  1
  Zn  Zn12  1  0.640557  0.858191  0.498748  1
  Zn  Zn13  1  0.359443  0.141809  0.501252  1
  Bi  Bi14  1  0.250904  0.250904  0.000000  1
  Bi  Bi15  1  0.749096  0.749096  0.000000  1
