# generated using pymatgen
data_Ca9Nd(TaN5)2
_symmetry_space_group_name_H-M   'P 1'
_cell_length_a   6.97747453
_cell_length_b   6.95899118
_cell_length_c   8.94146225
_cell_angle_alpha   80.78937982
_cell_angle_beta   80.49187859
_cell_angle_gamma   59.85694231
_symmetry_Int_Tables_number   1
_chemical_formula_structural   Ca9Nd(TaN5)2
_chemical_formula_sum   'Ca9 Nd1 Ta2 N10'
_cell_volume   368.77871459
_cell_formula_units_Z   1
loop_
 _symmetry_equiv_pos_site_id
 _symmetry_equiv_pos_as_xyz
  1  'x, y, z'
loop_
 _atom_site_type_symbol
 _atom_site_label
 _atom_site_symmetry_multiplicity
 _atom_site_fract_x
 _atom_site_fract_y
 _atom_site_fract_z
 _atom_site_occupancy
  Ca  Ca0  1  0.871274  0.870504  0.826927  1
  Ca  Ca1  1  0.740394  0.743482  0.520283  1
  Ca  Ca2  1  0.754271  0.248413  0.502528  1
  Ca  Ca3  1  0.622812  0.135666  0.156032  1
  Ca  Ca4  1  0.363003  0.872376  0.837613  1
  Ca  Ca5  1  0.250280  0.755250  0.507348  1
  Ca  Ca6  1  0.244018  0.243525  0.489610  1
  Ca  Ca7  1  0.144274  0.137115  0.167732  1
  Ca  Ca8  1  0.136868  0.626604  0.153681  1
  Nd  Nd9  1  0.879110  0.350125  0.836833  1
  Ta  Ta10  1  0.631050  0.630530  0.221805  1
  Ta  Ta11  1  0.372537  0.367060  0.772974  1
  N  N12  1  0.914294  0.466346  0.320122  1
  N  N13  1  0.990454  0.008151  0.015745  1
  N  N14  1  0.677803  0.684077  0.000717  1
  N  N15  1  0.539977  0.533176  0.695336  1
  N  N16  1  0.466115  0.912914  0.324491  1
  N  N17  1  0.539493  0.085124  0.675275  1
  N  N18  1  0.464571  0.466935  0.299662  1
  N  N19  1  0.317108  0.318043  0.992256  1
  N  N20  1  0.054857  0.071838  0.650906  1
  N  N21  1  0.087724  0.535034  0.677930  1
