# generated using pymatgen
data_TiNb2Pt3
_symmetry_space_group_name_H-M   'P 1'
_cell_length_a   13.89096600
_cell_length_b   2.80649200
_cell_length_c   4.99031500
_cell_angle_alpha   90.00000000
_cell_angle_beta   90.00000000
_cell_angle_gamma   90.00000000
_symmetry_Int_Tables_number   1
_chemical_formula_structural   TiNb2Pt3
_chemical_formula_sum   'Ti2 Nb4 Pt6'
_cell_volume   194.54685615
_cell_formula_units_Z   2
loop_
 _symmetry_equiv_pos_site_id
 _symmetry_equiv_pos_as_xyz
  1  'x, y, z'
loop_
 _atom_site_type_symbol
 _atom_site_label
 _atom_site_symmetry_multiplicity
 _atom_site_fract_x
 _atom_site_fract_y
 _atom_site_fract_z
 _atom_site_occupancy
  Ti  Ti0  1  0.250000  0.000000  0.999914  1
  Ti  Ti1  1  0.750000  0.000000  0.000086  1
  Nb  Nb2  1  0.082230  0.000000  0.340781  1
  Nb  Nb3  1  0.417770  0.000000  0.340781  1
  Nb  Nb4  1  0.582230  0.000000  0.659219  1
  Nb  Nb5  1  0.917770  0.000000  0.659219  1
  Pt  Pt6  1  0.585759  0.499998  0.155084  1
  Pt  Pt7  1  0.914241  0.499998  0.155084  1
  Pt  Pt8  1  0.750000  0.499998  0.497960  1
  Pt  Pt9  1  0.250000  0.499998  0.502040  1
  Pt  Pt10  1  0.085759  0.499998  0.844917  1
  Pt  Pt11  1  0.414241  0.499998  0.844917  1
