# generated using pymatgen
data_Nb8Fe4Co3Si14Ni
_symmetry_space_group_name_H-M   'P 1'
_cell_length_a   9.24291133
_cell_length_b   9.24287530
_cell_length_c   9.25421910
_cell_angle_alpha   94.25914646
_cell_angle_beta   94.26007238
_cell_angle_gamma   148.40861885
_symmetry_Int_Tables_number   1
_chemical_formula_structural   Nb8Fe4Co3Si14Ni
_chemical_formula_sum   'Nb8 Fe4 Co3 Si14 Ni1'
_cell_volume   398.44453297
_cell_formula_units_Z   1
loop_
 _symmetry_equiv_pos_site_id
 _symmetry_equiv_pos_as_xyz
  1  'x, y, z'
loop_
 _atom_site_type_symbol
 _atom_site_label
 _atom_site_symmetry_multiplicity
 _atom_site_fract_x
 _atom_site_fract_y
 _atom_site_fract_z
 _atom_site_occupancy
  Nb  Nb0  1  0.135622  0.134872  0.268925  1
  Nb  Nb1  1  0.865070  0.864403  0.731066  1
  Nb  Nb2  1  0.865484  0.134434  0.999972  1
  Nb  Nb3  1  0.134869  0.865202  0.000044  1
  Nb  Nb4  1  0.499217  0.691309  0.191204  1
  Nb  Nb5  1  0.499135  0.307435  0.808822  1
  Nb  Nb6  1  0.308716  0.500826  0.808772  1
  Nb  Nb7  1  0.692559  0.500831  0.191198  1
  Fe  Fe8  1  0.598192  0.401798  0.500010  1
  Fe  Fe9  1  0.900676  0.099295  0.499976  1
  Fe  Fe10  1  0.900869  0.402393  0.803801  1
  Fe  Fe11  1  0.597604  0.099086  0.196157  1
  Co  Co12  1  0.397313  0.895497  0.792825  1
  Co  Co13  1  0.104534  0.602672  0.207209  1
  Co  Co14  1  0.103655  0.896337  0.500013  1
  Si  Si15  1  0.287885  0.286530  0.583838  1
  Si  Si16  1  0.713469  0.712096  0.416156  1
  Si  Si17  1  0.708766  0.291423  0.000021  1
  Si  Si18  1  0.290938  0.708904  0.000002  1
  Si  Si19  1  0.988576  0.285914  0.295043  1
  Si  Si20  1  0.993068  0.695986  0.702993  1
  Si  Si21  1  0.714099  0.011525  0.704884  1
  Si  Si22  1  0.304047  0.006873  0.297088  1
  Si  Si23  1  0.521859  0.929916  0.403690  1
  Si  Si24  1  0.515290  0.109333  0.594516  1
  Si  Si25  1  0.070006  0.478088  0.596305  1
  Si  Si26  1  0.890770  0.484803  0.405498  1
  Si  Si27  1  0.750935  0.750841  0.000065  1
  Si  Si28  1  0.249152  0.249049  0.999942  1
  Ni  Ni29  1  0.397626  0.602330  0.499966  1
