# generated using pymatgen
data_NaEu2B2Pt7
_symmetry_space_group_name_H-M   'P 1'
_cell_length_a   8.32899942
_cell_length_b   8.32899958
_cell_length_c   8.32899905
_cell_angle_alpha   39.11038001
_cell_angle_beta   39.11037751
_cell_angle_gamma   39.11037542
_symmetry_Int_Tables_number   1
_chemical_formula_structural   NaEu2B2Pt7
_chemical_formula_sum   'Na1 Eu2 B2 Pt7'
_cell_volume   206.81726717
_cell_formula_units_Z   1
loop_
 _symmetry_equiv_pos_site_id
 _symmetry_equiv_pos_as_xyz
  1  'x, y, z'
loop_
 _atom_site_type_symbol
 _atom_site_label
 _atom_site_symmetry_multiplicity
 _atom_site_fract_x
 _atom_site_fract_y
 _atom_site_fract_z
 _atom_site_occupancy
  Na  Na0  1  0.000000  0.000000  0.000000  1
  Eu  Eu1  1  0.861390  0.861390  0.861390  1
  Eu  Eu2  1  0.138610  0.138610  0.138610  1
  B  B3  1  0.668180  0.668180  0.668180  1
  B  B4  1  0.331820  0.331820  0.331820  1
  Pt  Pt5  1  0.436076  0.933861  0.436076  1
  Pt  Pt6  1  0.436076  0.436076  0.933861  1
  Pt  Pt7  1  0.933861  0.436076  0.436076  1
  Pt  Pt8  1  0.563924  0.066139  0.563924  1
  Pt  Pt9  1  0.563924  0.563924  0.066139  1
  Pt  Pt10  1  0.066139  0.563924  0.563924  1
  Pt  Pt11  1  0.500000  0.500000  0.500000  1
