# generated using pymatgen
data_Cr2(RuRh)3
_symmetry_space_group_name_H-M   'P 1'
_cell_length_a   5.40145300
_cell_length_b   5.40145317
_cell_length_c   4.27421700
_cell_angle_alpha   90.00000000
_cell_angle_beta   90.00000000
_cell_angle_gamma   119.99999284
_symmetry_Int_Tables_number   1
_chemical_formula_structural   Cr2(RuRh)3
_chemical_formula_sum   'Cr2 Ru3 Rh3'
_cell_volume   107.99619316
_cell_formula_units_Z   1
loop_
 _symmetry_equiv_pos_site_id
 _symmetry_equiv_pos_as_xyz
  1  'x, y, z'
loop_
 _atom_site_type_symbol
 _atom_site_label
 _atom_site_symmetry_multiplicity
 _atom_site_fract_x
 _atom_site_fract_y
 _atom_site_fract_z
 _atom_site_occupancy
  Cr  Cr0  1  0.333333  0.666667  0.750000  1
  Cr  Cr1  1  0.666667  0.333333  0.250000  1
  Ru  Ru2  1  0.169339  0.338676  0.250000  1
  Ru  Ru3  1  0.661324  0.830661  0.250000  1
  Ru  Ru4  1  0.169339  0.830661  0.250000  1
  Rh  Rh5  1  0.830784  0.661570  0.750000  1
  Rh  Rh6  1  0.338430  0.169216  0.750000  1
  Rh  Rh7  1  0.830784  0.169216  0.750000  1
