# generated using pymatgen
data_TbYbLu4(Si3Ru)8
_symmetry_space_group_name_H-M   'P 1'
_cell_length_a   10.09682447
_cell_length_b   10.09682493
_cell_length_c   8.10232105
_cell_angle_alpha   89.89959809
_cell_angle_beta   90.10040369
_cell_angle_gamma   132.66944646
_symmetry_Int_Tables_number   1
_chemical_formula_structural   TbYbLu4(Si3Ru)8
_chemical_formula_sum   'Tb1 Yb1 Lu4 Si24 Ru8'
_cell_volume   607.33561569
_cell_formula_units_Z   1
loop_
 _symmetry_equiv_pos_site_id
 _symmetry_equiv_pos_as_xyz
  1  'x, y, z'
loop_
 _atom_site_type_symbol
 _atom_site_label
 _atom_site_symmetry_multiplicity
 _atom_site_fract_x
 _atom_site_fract_y
 _atom_site_fract_z
 _atom_site_occupancy
  Tb  Tb0  1  0.002748  0.502748  0.750000  1
  Yb  Yb1  1  0.502264  0.002264  0.750000  1
  Lu  Lu2  1  0.500215  0.500382  0.500194  1
  Lu  Lu3  1  0.000382  0.000215  0.999806  1
  Lu  Lu4  1  0.998738  0.498738  0.250000  1
  Lu  Lu5  1  0.497475  0.997475  0.250000  1
  Si  Si6  1  0.793935  0.204326  0.498440  1
  Si  Si7  1  0.296105  0.706752  0.000533  1
  Si  Si8  1  0.206752  0.796105  0.499467  1
  Si  Si9  1  0.704326  0.293935  0.001560  1
  Si  Si10  1  0.332133  0.333600  0.832717  1
  Si  Si11  1  0.667008  0.668640  0.166930  1
  Si  Si12  1  0.168640  0.167008  0.333070  1
  Si  Si13  1  0.833600  0.832133  0.667283  1
  Si  Si14  1  0.121285  0.886630  0.729279  1
  Si  Si15  1  0.110839  0.877602  0.272585  1
  Si  Si16  1  0.611343  0.378250  0.228100  1
  Si  Si17  1  0.623214  0.388948  0.771000  1
  Si  Si18  1  0.878250  0.111343  0.271900  1
  Si  Si19  1  0.888948  0.123214  0.729000  1
  Si  Si20  1  0.386630  0.621285  0.770721  1
  Si  Si21  1  0.377602  0.610839  0.227415  1
  Si  Si22  1  0.344909  0.111786  0.502923  1
  Si  Si23  1  0.887862  0.654576  0.494190  1
  Si  Si24  1  0.388130  0.154499  0.005999  1
  Si  Si25  1  0.845030  0.612341  0.995364  1
  Si  Si26  1  0.654499  0.888130  0.494001  1
  Si  Si27  1  0.112341  0.345030  0.504636  1
  Si  Si28  1  0.611786  0.844909  0.997077  1
  Si  Si29  1  0.154576  0.387862  0.005810  1
  Ru  Ru30  1  0.669571  0.330444  0.497167  1
  Ru  Ru31  1  0.168621  0.830045  0.003923  1
  Ru  Ru32  1  0.330045  0.668621  0.496077  1
  Ru  Ru33  1  0.830444  0.169571  0.002833  1
  Ru  Ru34  1  0.126783  0.126687  0.627814  1
  Ru  Ru35  1  0.872859  0.873422  0.373032  1
  Ru  Ru36  1  0.373422  0.372859  0.126968  1
  Ru  Ru37  1  0.626687  0.626783  0.872186  1
