# generated using pymatgen
data_CaPr3(Pd2Pb)2
_symmetry_space_group_name_H-M   'P 1'
_cell_length_a   8.02099406
_cell_length_b   8.02099406
_cell_length_c   3.84658300
_cell_angle_alpha   90.00000000
_cell_angle_beta   90.00000000
_cell_angle_gamma   89.63785209
_symmetry_Int_Tables_number   1
_chemical_formula_structural   CaPr3(Pd2Pb)2
_chemical_formula_sum   'Ca1 Pr3 Pd4 Pb2'
_cell_volume   247.47015002
_cell_formula_units_Z   1
loop_
 _symmetry_equiv_pos_site_id
 _symmetry_equiv_pos_as_xyz
  1  'x, y, z'
loop_
 _atom_site_type_symbol
 _atom_site_label
 _atom_site_symmetry_multiplicity
 _atom_site_fract_x
 _atom_site_fract_y
 _atom_site_fract_z
 _atom_site_occupancy
  Ca  Ca0  1  0.325624  0.825624  0.500000  1
  Pr  Pr1  1  0.673524  0.173524  0.500000  1
  Pr  Pr2  1  0.826031  0.676570  0.500000  1
  Pr  Pr3  1  0.176570  0.326031  0.500000  1
  Pd  Pd4  1  0.875358  0.375358  0.000000  1
  Pd  Pd5  1  0.624478  0.875957  0.000000  1
  Pd  Pd6  1  0.375957  0.124478  0.000000  1
  Pd  Pd7  1  0.122407  0.622407  0.000000  1
  Pb  Pb8  1  0.496999  0.503052  0.000000  1
  Pb  Pb9  1  0.003052  0.996999  0.000000  1
