# generated using pymatgen
data_DyH9W
_symmetry_space_group_name_H-M   'P 1'
_cell_length_a   4.72228800
_cell_length_b   4.72228854
_cell_length_c   8.79499300
_cell_angle_alpha   90.00000000
_cell_angle_beta   90.00000000
_cell_angle_gamma   119.99999619
_symmetry_Int_Tables_number   1
_chemical_formula_structural   DyH9W
_chemical_formula_sum   'Dy2 H18 W2'
_cell_volume   169.85218443
_cell_formula_units_Z   2
loop_
 _symmetry_equiv_pos_site_id
 _symmetry_equiv_pos_as_xyz
  1  'x, y, z'
loop_
 _atom_site_type_symbol
 _atom_site_label
 _atom_site_symmetry_multiplicity
 _atom_site_fract_x
 _atom_site_fract_y
 _atom_site_fract_z
 _atom_site_occupancy
  Dy  Dy0  1  0.000000  0.000000  0.000000  1
  Dy  Dy1  1  0.000000  0.000000  0.500000  1
  H  H2  1  0.485500  0.514500  0.393339  1
  H  H3  1  0.485500  0.971001  0.393339  1
  H  H4  1  0.028999  0.514500  0.393339  1
  H  H5  1  0.971001  0.485500  0.893339  1
  H  H6  1  0.124718  0.249436  0.250000  1
  H  H7  1  0.875282  0.124718  0.750000  1
  H  H8  1  0.249436  0.124718  0.750000  1
  H  H9  1  0.750564  0.875282  0.250000  1
  H  H10  1  0.124718  0.875282  0.250000  1
  H  H11  1  0.875282  0.750564  0.750000  1
  H  H12  1  0.485500  0.971001  0.106661  1
  H  H13  1  0.514500  0.485500  0.606661  1
  H  H14  1  0.971001  0.485500  0.606661  1
  H  H15  1  0.028999  0.514500  0.106661  1
  H  H16  1  0.485500  0.514500  0.106661  1
  H  H17  1  0.514500  0.028999  0.893339  1
  H  H18  1  0.514500  0.485500  0.893339  1
  H  H19  1  0.514500  0.028999  0.606661  1
  W  W20  1  0.333333  0.666667  0.250000  1
  W  W21  1  0.666667  0.333333  0.750000  1
