# generated using pymatgen
data_Ta12TcMo6Ru5
_symmetry_space_group_name_H-M   'P 1'
_cell_length_a   4.51246600
_cell_length_b   6.39733100
_cell_length_c   13.63682800
_cell_angle_alpha   90.00000000
_cell_angle_beta   90.00002110
_cell_angle_gamma   90.00000000
_symmetry_Int_Tables_number   1
_chemical_formula_structural   Ta12TcMo6Ru5
_chemical_formula_sum   'Ta12 Tc1 Mo6 Ru5'
_cell_volume   393.66438642
_cell_formula_units_Z   1
loop_
 _symmetry_equiv_pos_site_id
 _symmetry_equiv_pos_as_xyz
  1  'x, y, z'
loop_
 _atom_site_type_symbol
 _atom_site_label
 _atom_site_symmetry_multiplicity
 _atom_site_fract_x
 _atom_site_fract_y
 _atom_site_fract_z
 _atom_site_occupancy
  Ta  Ta0  1  0.500000  0.248085  0.000000  1
  Ta  Ta1  1  0.500000  0.751915  0.000000  1
  Ta  Ta2  1  0.999988  0.249167  0.165571  1
  Ta  Ta3  1  0.999988  0.750833  0.165571  1
  Ta  Ta4  1  0.499987  0.249928  0.333191  1
  Ta  Ta5  1  0.499987  0.750072  0.333191  1
  Ta  Ta6  1  0.000000  0.250235  0.500000  1
  Ta  Ta7  1  0.000000  0.749765  0.500000  1
  Ta  Ta8  1  0.500013  0.249928  0.666809  1
  Ta  Ta9  1  0.500013  0.750072  0.666809  1
  Ta  Ta10  1  0.000012  0.249167  0.834429  1
  Ta  Ta11  1  0.000012  0.750833  0.834429  1
  Tc  Tc12  1  0.000000  0.000000  0.000000  1
  Mo  Mo13  1  0.000000  0.500000  0.000000  1
  Mo  Mo14  1  0.499989  0.000000  0.167952  1
  Mo  Mo15  1  0.999985  0.500000  0.333862  1
  Mo  Mo16  1  0.500000  0.000000  0.500000  1
  Mo  Mo17  1  0.000015  0.500000  0.666138  1
  Mo  Mo18  1  0.500011  0.000000  0.832048  1
  Ru  Ru19  1  0.499987  0.500000  0.167135  1
  Ru  Ru20  1  0.999987  0.000000  0.333804  1
  Ru  Ru21  1  0.500000  0.500000  0.500000  1
  Ru  Ru22  1  0.000013  0.000000  0.666196  1
  Ru  Ru23  1  0.500013  0.500000  0.832865  1
