# generated using pymatgen
data_Tb15Ho(ErSn4)4
_symmetry_space_group_name_H-M   'P 1'
_cell_length_a   8.03619004
_cell_length_b   8.18937717
_cell_length_c   15.49406402
_cell_angle_alpha   90.00731265
_cell_angle_beta   90.00285541
_cell_angle_gamma   90.02699348
_symmetry_Int_Tables_number   1
_chemical_formula_structural   Tb15Ho(ErSn4)4
_chemical_formula_sum   'Tb15 Ho1 Er4 Sn16'
_cell_volume   1019.68578618
_cell_formula_units_Z   1
loop_
 _symmetry_equiv_pos_site_id
 _symmetry_equiv_pos_as_xyz
  1  'x, y, z'
loop_
 _atom_site_type_symbol
 _atom_site_label
 _atom_site_symmetry_multiplicity
 _atom_site_fract_x
 _atom_site_fract_y
 _atom_site_fract_z
 _atom_site_occupancy
  Tb  Tb0  1  0.867390  0.663905  0.621950  1
  Tb  Tb1  1  0.632455  0.163800  0.378238  1
  Tb  Tb2  1  0.132675  0.336058  0.121370  1
  Tb  Tb3  1  0.632543  0.163945  0.121789  1
  Tb  Tb4  1  0.132472  0.336103  0.378247  1
  Tb  Tb5  1  0.367539  0.836187  0.621869  1
  Tb  Tb6  1  0.867674  0.663778  0.878359  1
  Tb  Tb7  1  0.520008  0.319856  0.902371  1
  Tb  Tb8  1  0.020122  0.179930  0.597781  1
  Tb  Tb9  1  0.479975  0.680054  0.402348  1
  Tb  Tb10  1  0.979758  0.819901  0.097695  1
  Tb  Tb11  1  0.479873  0.680137  0.097359  1
  Tb  Tb12  1  0.979949  0.820026  0.402302  1
  Tb  Tb13  1  0.519995  0.320039  0.597824  1
  Tb  Tb14  1  0.020182  0.179842  0.902254  1
  Ho  Ho15  1  0.367357  0.836417  0.877924  1
  Er  Er16  1  0.198657  0.502585  0.750264  1
  Er  Er17  1  0.698306  0.997468  0.750153  1
  Er  Er18  1  0.801616  0.497684  0.249987  1
  Er  Er19  1  0.301612  0.002266  0.249866  1
  Sn  Sn20  1  0.292639  0.034218  0.041660  1
  Sn  Sn21  1  0.792614  0.465100  0.457603  1
  Sn  Sn22  1  0.707464  0.964980  0.542456  1
  Sn  Sn23  1  0.208313  0.536128  0.957392  1
  Sn  Sn24  1  0.706052  0.964687  0.957439  1
  Sn  Sn25  1  0.207318  0.534978  0.542479  1
  Sn  Sn26  1  0.292572  0.034949  0.457559  1
  Sn  Sn27  1  0.792583  0.465107  0.042454  1
  Sn  Sn28  1  0.564355  0.619307  0.750360  1
  Sn  Sn29  1  0.065248  0.881191  0.750438  1
  Sn  Sn30  1  0.435234  0.381330  0.249943  1
  Sn  Sn31  1  0.935288  0.118656  0.249965  1
  Sn  Sn32  1  0.328555  0.146763  0.750286  1
  Sn  Sn33  1  0.828365  0.352842  0.750063  1
  Sn  Sn34  1  0.671670  0.852798  0.249964  1
  Sn  Sn35  1  0.171574  0.646984  0.249989  1
