# generated using pymatgen
data_TbDy9(IrRu)3
_symmetry_space_group_name_H-M   'P 1'
_cell_length_a   10.83742091
_cell_length_b   10.83148900
_cell_length_c   6.40049705
_cell_angle_alpha   90.00000000
_cell_angle_beta   89.98367034
_cell_angle_gamma   90.00000000
_symmetry_Int_Tables_number   1
_chemical_formula_structural   TbDy9(IrRu)3
_chemical_formula_sum   'Tb2 Dy18 Ir6 Ru6'
_cell_volume   751.32491042
_cell_formula_units_Z   2
loop_
 _symmetry_equiv_pos_site_id
 _symmetry_equiv_pos_as_xyz
  1  'x, y, z'
loop_
 _atom_site_type_symbol
 _atom_site_label
 _atom_site_symmetry_multiplicity
 _atom_site_fract_x
 _atom_site_fract_y
 _atom_site_fract_z
 _atom_site_occupancy
  Tb  Tb0  1  0.292783  0.086724  0.379098  1
  Tb  Tb1  1  0.292783  0.913276  0.879098  1
  Dy  Dy2  1  0.707722  0.086702  0.878574  1
  Dy  Dy3  1  0.707722  0.913298  0.378574  1
  Dy  Dy4  1  0.587915  0.793491  0.879539  1
  Dy  Dy5  1  0.587915  0.206509  0.379539  1
  Dy  Dy6  1  0.413413  0.793463  0.378688  1
  Dy  Dy7  1  0.413413  0.206537  0.878688  1
  Dy  Dy8  1  0.206199  0.413295  0.620683  1
  Dy  Dy9  1  0.206199  0.586705  0.120683  1
  Dy  Dy10  1  0.793601  0.412381  0.121125  1
  Dy  Dy11  1  0.793601  0.587619  0.621125  1
  Dy  Dy12  1  0.913127  0.707144  0.120614  1
  Dy  Dy13  1  0.913127  0.292856  0.620614  1
  Dy  Dy14  1  0.086202  0.707493  0.621471  1
  Dy  Dy15  1  0.086202  0.292507  0.121471  1
  Dy  Dy16  1  0.998318  0.000584  0.499824  1
  Dy  Dy17  1  0.998318  0.999416  0.999824  1
  Dy  Dy18  1  0.500002  0.500287  0.000173  1
  Dy  Dy19  1  0.500002  0.499713  0.500173  1
  Ir  Ir20  1  0.153433  0.153800  0.750664  1
  Ir  Ir21  1  0.153433  0.846200  0.250664  1
  Ir  Ir22  1  0.652283  0.348058  0.749730  1
  Ir  Ir23  1  0.652283  0.651942  0.249730  1
  Ir  Ir24  1  0.347533  0.347289  0.250172  1
  Ir  Ir25  1  0.347533  0.652711  0.750172  1
  Ru  Ru26  1  0.847332  0.152710  0.249674  1
  Ru  Ru27  1  0.847332  0.847290  0.749674  1
  Ru  Ru28  1  0.500540  0.000184  0.124009  1
  Ru  Ru29  1  0.500540  0.999816  0.624009  1
  Ru  Ru30  1  0.999595  0.500299  0.875961  1
  Ru  Ru31  1  0.999595  0.499701  0.375961  1
