# generated using pymatgen
data_La16In4OsRh3
_symmetry_space_group_name_H-M   'P 1'
_cell_length_a   10.14639010
_cell_length_b   10.14639057
_cell_length_c   10.14638926
_cell_angle_alpha   59.72354911
_cell_angle_beta   59.72354654
_cell_angle_gamma   59.72354630
_symmetry_Int_Tables_number   1
_chemical_formula_structural   La16In4OsRh3
_chemical_formula_sum   'La16 In4 Os1 Rh3'
_cell_volume   733.98005695
_cell_formula_units_Z   1
loop_
 _symmetry_equiv_pos_site_id
 _symmetry_equiv_pos_as_xyz
  1  'x, y, z'
loop_
 _atom_site_type_symbol
 _atom_site_label
 _atom_site_symmetry_multiplicity
 _atom_site_fract_x
 _atom_site_fract_y
 _atom_site_fract_z
 _atom_site_occupancy
  La  La0  1  0.347600  0.347600  0.347600  1
  La  La1  1  0.347110  0.347110  0.956683  1
  La  La2  1  0.347110  0.956683  0.347110  1
  La  La3  1  0.956683  0.347110  0.347110  1
  La  La4  1  0.812302  0.190639  0.190639  1
  La  La5  1  0.191881  0.808082  0.808082  1
  La  La6  1  0.190639  0.812301  0.190639  1
  La  La7  1  0.808082  0.191882  0.808082  1
  La  La8  1  0.190639  0.190639  0.812302  1
  La  La9  1  0.808081  0.808082  0.191882  1
  La  La10  1  0.938767  0.561150  0.561150  1
  La  La11  1  0.556829  0.940831  0.940831  1
  La  La12  1  0.561150  0.938767  0.561150  1
  La  La13  1  0.940831  0.556829  0.940831  1
  La  La14  1  0.561150  0.561150  0.938767  1
  La  La15  1  0.940831  0.940831  0.556829  1
  In  In16  1  0.579927  0.579927  0.579927  1
  In  In17  1  0.580123  0.580123  0.259570  1
  In  In18  1  0.580123  0.259570  0.580123  1
  In  In19  1  0.259570  0.580123  0.580123  1
  Os  Os20  1  0.139769  0.139769  0.139769  1
  Rh  Rh21  1  0.140906  0.140906  0.578995  1
  Rh  Rh22  1  0.140906  0.578995  0.140906  1
  Rh  Rh23  1  0.578995  0.140906  0.140906  1
