# generated using pymatgen
data_Tb3Y2Th3(MgRu)2
_symmetry_space_group_name_H-M   'P 1'
_cell_length_a   9.75855029
_cell_length_b   9.85434862
_cell_length_c   9.85434800
_cell_angle_alpha   59.35786589
_cell_angle_beta   60.32105037
_cell_angle_gamma   60.32105682
_symmetry_Int_Tables_number   1
_chemical_formula_structural   Tb3Y2Th3(MgRu)2
_chemical_formula_sum   'Tb6 Y4 Th6 Mg4 Ru4'
_cell_volume   669.95360868
_cell_formula_units_Z   2
loop_
 _symmetry_equiv_pos_site_id
 _symmetry_equiv_pos_as_xyz
  1  'x, y, z'
loop_
 _atom_site_type_symbol
 _atom_site_label
 _atom_site_symmetry_multiplicity
 _atom_site_fract_x
 _atom_site_fract_y
 _atom_site_fract_z
 _atom_site_occupancy
  Tb  Tb0  1  0.183976  0.816024  0.816024  1
  Tb  Tb1  1  0.816024  0.183976  0.183976  1
  Tb  Tb2  1  0.812603  0.187397  0.812603  1
  Tb  Tb3  1  0.187397  0.812603  0.187397  1
  Tb  Tb4  1  0.812603  0.812603  0.187397  1
  Tb  Tb5  1  0.187397  0.187397  0.812603  1
  Y  Y6  1  0.439410  0.060590  0.439410  1
  Y  Y7  1  0.060590  0.439410  0.060590  1
  Y  Y8  1  0.439410  0.439410  0.060590  1
  Y  Y9  1  0.060590  0.060590  0.439410  1
  Th  Th10  1  0.591868  0.598599  0.598599  1
  Th  Th11  1  0.598599  0.591868  0.210937  1
  Th  Th12  1  0.598599  0.210937  0.591868  1
  Th  Th13  1  0.210937  0.598599  0.598599  1
  Th  Th14  1  0.065894  0.434106  0.434106  1
  Th  Th15  1  0.434106  0.065894  0.065894  1
  Mg  Mg16  1  0.831973  0.828963  0.828963  1
  Mg  Mg17  1  0.828963  0.831973  0.510102  1
  Mg  Mg18  1  0.828963  0.510102  0.831973  1
  Mg  Mg19  1  0.510102  0.828963  0.828963  1
  Ru  Ru20  1  0.377281  0.399788  0.399788  1
  Ru  Ru21  1  0.399788  0.377281  0.823143  1
  Ru  Ru22  1  0.399788  0.823143  0.377281  1
  Ru  Ru23  1  0.823143  0.399788  0.399788  1
