# generated using pymatgen
data_LuTh8Se17
_symmetry_space_group_name_H-M   'P 1'
_cell_length_a   8.50438207
_cell_length_b   8.50438101
_cell_length_c   11.37995694
_cell_angle_alpha   80.25082383
_cell_angle_beta   80.25082430
_cell_angle_gamma   64.97754933
_symmetry_Int_Tables_number   1
_chemical_formula_structural   LuTh8Se17
_chemical_formula_sum   'Lu1 Th8 Se17'
_cell_volume   730.61682006
_cell_formula_units_Z   1
loop_
 _symmetry_equiv_pos_site_id
 _symmetry_equiv_pos_as_xyz
  1  'x, y, z'
loop_
 _atom_site_type_symbol
 _atom_site_label
 _atom_site_symmetry_multiplicity
 _atom_site_fract_x
 _atom_site_fract_y
 _atom_site_fract_z
 _atom_site_occupancy
  Lu  Lu0  1  0.000000  0.000000  0.000000  1
  Th  Th1  1  0.793816  0.793816  0.459452  1
  Th  Th2  1  0.206184  0.206184  0.540548  1
  Th  Th3  1  0.696322  0.183638  0.699882  1
  Th  Th4  1  0.183638  0.696322  0.699882  1
  Th  Th5  1  0.816362  0.303678  0.300118  1
  Th  Th6  1  0.678571  0.678571  0.983470  1
  Th  Th7  1  0.321429  0.321429  0.016530  1
  Th  Th8  1  0.303678  0.816362  0.300118  1
  Se  Se9  1  0.480476  0.480476  0.166980  1
  Se  Se10  1  0.695466  0.695466  0.247501  1
  Se  Se11  1  0.569466  0.177256  0.466572  1
  Se  Se12  1  0.054271  0.669232  0.961315  1
  Se  Se13  1  0.210446  0.210446  0.278952  1
  Se  Se14  1  0.430534  0.822744  0.533428  1
  Se  Se15  1  0.519524  0.519524  0.833020  1
  Se  Se16  1  0.669232  0.054271  0.961315  1
  Se  Se17  1  0.938239  0.938239  0.236638  1
  Se  Se18  1  0.061761  0.061761  0.763362  1
  Se  Se19  1  0.304534  0.304534  0.752499  1
  Se  Se20  1  0.330768  0.945729  0.038685  1
  Se  Se21  1  0.822744  0.430534  0.533428  1
  Se  Se22  1  0.945729  0.330768  0.038685  1
  Se  Se23  1  0.177256  0.569466  0.466572  1
  Se  Se24  1  0.000000  0.000000  0.500000  1
  Se  Se25  1  0.789554  0.789554  0.721048  1
