# generated using pymatgen
data_Ti11V8Si16Mo
_symmetry_space_group_name_H-M   'P 1'
_cell_length_a   6.53769043
_cell_length_b   6.53769090
_cell_length_c   12.04656700
_cell_angle_alpha   89.99958911
_cell_angle_beta   90.00040955
_cell_angle_gamma   89.90377183
_symmetry_Int_Tables_number   1
_chemical_formula_structural   Ti11V8Si16Mo
_chemical_formula_sum   'Ti11 V8 Si16 Mo1'
_cell_volume   514.88640365
_cell_formula_units_Z   1
loop_
 _symmetry_equiv_pos_site_id
 _symmetry_equiv_pos_as_xyz
  1  'x, y, z'
loop_
 _atom_site_type_symbol
 _atom_site_label
 _atom_site_symmetry_multiplicity
 _atom_site_fract_x
 _atom_site_fract_y
 _atom_site_fract_z
 _atom_site_occupancy
  Ti  Ti0  1  0.005854  0.338684  0.220302  1
  Ti  Ti1  1  0.161504  0.503270  0.470409  1
  Ti  Ti2  1  0.838169  0.496423  0.970658  1
  Ti  Ti3  1  0.503270  0.161504  0.529591  1
  Ti  Ti4  1  0.496423  0.838169  0.029342  1
  Ti  Ti5  1  0.996888  0.662167  0.720786  1
  Ti  Ti6  1  0.338684  0.005854  0.779698  1
  Ti  Ti7  1  0.662167  0.996888  0.279214  1
  Ti  Ti8  1  0.333691  0.664745  0.249435  1
  Ti  Ti9  1  0.664745  0.333691  0.750565  1
  Ti  Ti10  1  0.834052  0.834052  0.500000  1
  V  V11  1  0.994601  0.154573  0.622505  1
  V  V12  1  0.344624  0.496700  0.870774  1
  V  V13  1  0.654938  0.506126  0.372563  1
  V  V14  1  0.496700  0.344624  0.129226  1
  V  V15  1  0.506126  0.654938  0.627437  1
  V  V16  1  0.006123  0.840836  0.122014  1
  V  V17  1  0.154573  0.994601  0.377495  1
  V  V18  1  0.840836  0.006123  0.877986  1
  Si  Si19  1  0.040715  0.298821  0.812856  1
  Si  Si20  1  0.203908  0.540172  0.062077  1
  Si  Si21  1  0.799282  0.458236  0.563287  1
  Si  Si22  1  0.540172  0.203908  0.937923  1
  Si  Si23  1  0.458236  0.799282  0.436713  1
  Si  Si24  1  0.958916  0.700351  0.313391  1
  Si  Si25  1  0.298821  0.040715  0.187144  1
  Si  Si26  1  0.700351  0.958916  0.686609  1
  Si  Si27  1  0.290669  0.367777  0.672256  1
  Si  Si28  1  0.130562  0.791737  0.922167  1
  Si  Si29  1  0.867704  0.209297  0.423104  1
  Si  Si30  1  0.791737  0.130562  0.077833  1
  Si  Si31  1  0.209297  0.867704  0.576896  1
  Si  Si32  1  0.709721  0.631797  0.173553  1
  Si  Si33  1  0.367777  0.290669  0.327744  1
  Si  Si34  1  0.631797  0.709721  0.826447  1
  Mo  Mo35  1  0.166366  0.166366  0.000000  1
