# generated using pymatgen
data_Zr6Zn15GeAu8
_symmetry_space_group_name_H-M   'P 1'
_cell_length_a   8.94470359
_cell_length_b   8.94470260
_cell_length_c   8.94470300
_cell_angle_alpha   60.00000222
_cell_angle_beta   60.00000589
_cell_angle_gamma   59.99999812
_symmetry_Int_Tables_number   1
_chemical_formula_structural   Zr6Zn15GeAu8
_chemical_formula_sum   'Zr6 Zn15 Ge1 Au8'
_cell_volume   506.03762221
_cell_formula_units_Z   1
loop_
 _symmetry_equiv_pos_site_id
 _symmetry_equiv_pos_as_xyz
  1  'x, y, z'
loop_
 _atom_site_type_symbol
 _atom_site_label
 _atom_site_symmetry_multiplicity
 _atom_site_fract_x
 _atom_site_fract_y
 _atom_site_fract_z
 _atom_site_occupancy
  Zr  Zr0  1  0.713122  0.286878  0.286878  1
  Zr  Zr1  1  0.286878  0.713122  0.713122  1
  Zr  Zr2  1  0.286878  0.713122  0.286878  1
  Zr  Zr3  1  0.713122  0.286878  0.713122  1
  Zr  Zr4  1  0.286878  0.286878  0.713122  1
  Zr  Zr5  1  0.713122  0.713122  0.286878  1
  Zn  Zn6  1  0.500000  0.000000  0.000000  1
  Zn  Zn7  1  0.000000  0.500000  0.500000  1
  Zn  Zn8  1  0.000000  0.500000  0.000000  1
  Zn  Zn9  1  0.500000  0.000000  0.500000  1
  Zn  Zn10  1  0.000000  0.000000  0.500000  1
  Zn  Zn11  1  0.500000  0.500000  0.000000  1
  Zn  Zn12  1  0.337702  0.337702  0.337702  1
  Zn  Zn13  1  0.662298  0.662298  0.662298  1
  Zn  Zn14  1  0.337702  0.337702  0.986895  1
  Zn  Zn15  1  0.337702  0.986895  0.337702  1
  Zn  Zn16  1  0.662298  0.662298  0.013105  1
  Zn  Zn17  1  0.662298  0.013105  0.662298  1
  Zn  Zn18  1  0.986895  0.337702  0.337702  1
  Zn  Zn19  1  0.013105  0.662298  0.662298  1
  Zn  Zn20  1  0.000000  0.000000  0.000000  1
  Ge  Ge21  1  0.500000  0.500000  0.500000  1
  Au  Au22  1  0.122379  0.122379  0.122379  1
  Au  Au23  1  0.877621  0.877621  0.877621  1
  Au  Au24  1  0.122379  0.122379  0.632864  1
  Au  Au25  1  0.122379  0.632864  0.122379  1
  Au  Au26  1  0.877621  0.877621  0.367136  1
  Au  Au27  1  0.877621  0.367136  0.877621  1
  Au  Au28  1  0.632864  0.122379  0.122379  1
  Au  Au29  1  0.367136  0.877621  0.877621  1
