# generated using pymatgen
data_Mg4Ni(PIr)6
_symmetry_space_group_name_H-M   'P 1'
_cell_length_a   6.84024147
_cell_length_b   6.84024053
_cell_length_c   6.84024157
_cell_angle_alpha   109.33433816
_cell_angle_beta   109.33434331
_cell_angle_gamma   109.74533985
_symmetry_Int_Tables_number   1
_chemical_formula_structural   Mg4Ni(PIr)6
_chemical_formula_sum   'Mg4 Ni1 P6 Ir6'
_cell_volume   246.36830524
_cell_formula_units_Z   1
loop_
 _symmetry_equiv_pos_site_id
 _symmetry_equiv_pos_as_xyz
  1  'x, y, z'
loop_
 _atom_site_type_symbol
 _atom_site_label
 _atom_site_symmetry_multiplicity
 _atom_site_fract_x
 _atom_site_fract_y
 _atom_site_fract_z
 _atom_site_occupancy
  Mg  Mg0  1  0.500207  0.499793  0.500000  1
  Mg  Mg1  1  0.999793  0.000207  0.500000  1
  Mg  Mg2  1  0.500207  0.000207  0.000414  1
  Mg  Mg3  1  0.999793  0.499793  0.999586  1
  Ni  Ni4  1  0.250000  0.750000  0.500000  1
  P  P5  1  0.316457  0.996910  0.319547  1
  P  P6  1  0.677362  0.996910  0.680453  1
  P  P7  1  0.003090  0.683543  0.680453  1
  P  P8  1  0.003090  0.322638  0.319547  1
  P  P9  1  0.682993  0.682993  0.000000  1
  P  P10  1  0.317007  0.317007  0.000000  1
  Ir  Ir11  1  0.000000  0.000000  0.000000  1
  Ir  Ir12  1  0.257350  0.509330  0.748020  1
  Ir  Ir13  1  0.490670  0.742650  0.251980  1
  Ir  Ir14  1  0.490670  0.238691  0.748020  1
  Ir  Ir15  1  0.750000  0.250000  0.500000  1
  Ir  Ir16  1  0.761309  0.509330  0.251980  1
