# generated using pymatgen
data_Np4Ga6Si6Ag
_symmetry_space_group_name_H-M   'P 1'
_cell_length_a   7.35750583
_cell_length_b   7.35750579
_cell_length_c   7.35750600
_cell_angle_alpha   109.47122121
_cell_angle_beta   109.47122110
_cell_angle_gamma   109.47122417
_symmetry_Int_Tables_number   1
_chemical_formula_structural   Np4Ga6Si6Ag
_chemical_formula_sum   'Np4 Ga6 Si6 Ag1'
_cell_volume   306.59843740
_cell_formula_units_Z   1
loop_
 _symmetry_equiv_pos_site_id
 _symmetry_equiv_pos_as_xyz
  1  'x, y, z'
loop_
 _atom_site_type_symbol
 _atom_site_label
 _atom_site_symmetry_multiplicity
 _atom_site_fract_x
 _atom_site_fract_y
 _atom_site_fract_z
 _atom_site_occupancy
  Np  Np0  1  0.500000  0.500000  0.500000  1
  Np  Np1  1  0.000000  0.000000  0.500000  1
  Np  Np2  1  0.000000  0.500000  0.000000  1
  Np  Np3  1  0.500000  0.000000  0.000000  1
  Ga  Ga4  1  0.000000  0.308562  0.308562  1
  Ga  Ga5  1  0.000000  0.691438  0.691438  1
  Ga  Ga6  1  0.308562  0.000000  0.308562  1
  Ga  Ga7  1  0.691438  0.000000  0.691438  1
  Ga  Ga8  1  0.308562  0.308562  0.000000  1
  Ga  Ga9  1  0.691438  0.691438  0.000000  1
  Si  Si10  1  0.500000  0.750000  0.250000  1
  Si  Si11  1  0.500000  0.250000  0.750000  1
  Si  Si12  1  0.250000  0.500000  0.750000  1
  Si  Si13  1  0.750000  0.500000  0.250000  1
  Si  Si14  1  0.750000  0.250000  0.500000  1
  Si  Si15  1  0.250000  0.750000  0.500000  1
  Ag  Ag16  1  0.000000  0.000000  0.000000  1
