# generated using pymatgen
data_Ho12Er3Tm5Bi12
_symmetry_space_group_name_H-M   'P 1'
_cell_length_a   8.21900903
_cell_length_b   9.47177600
_cell_length_c   11.98929004
_cell_angle_alpha   89.99752230
_cell_angle_beta   89.99080177
_cell_angle_gamma   90.00274636
_symmetry_Int_Tables_number   1
_chemical_formula_structural   Ho12Er3Tm5Bi12
_chemical_formula_sum   'Ho12 Er3 Tm5 Bi12'
_cell_volume   933.34958066
_cell_formula_units_Z   1
loop_
 _symmetry_equiv_pos_site_id
 _symmetry_equiv_pos_as_xyz
  1  'x, y, z'
loop_
 _atom_site_type_symbol
 _atom_site_label
 _atom_site_symmetry_multiplicity
 _atom_site_fract_x
 _atom_site_fract_y
 _atom_site_fract_z
 _atom_site_occupancy
  Ho  Ho0  1  0.353398  0.749997  0.216492  1
  Ho  Ho1  1  0.853415  0.750029  0.283497  1
  Ho  Ho2  1  0.646658  0.250058  0.783472  1
  Ho  Ho3  1  0.146561  0.250043  0.716477  1
  Ho  Ho4  1  0.476790  0.250037  0.488927  1
  Ho  Ho5  1  0.976691  0.250017  0.011090  1
  Ho  Ho6  1  0.523352  0.749961  0.511096  1
  Ho  Ho7  1  0.023320  0.750042  0.988894  1
  Ho  Ho8  1  0.314278  0.250034  0.218045  1
  Ho  Ho9  1  0.814287  0.250006  0.281982  1
  Ho  Ho10  1  0.685727  0.750027  0.781952  1
  Ho  Ho11  1  0.185730  0.749977  0.718050  1
  Er  Er12  1  0.691866  0.564736  0.058982  1
  Er  Er13  1  0.191813  0.935224  0.441019  1
  Er  Er14  1  0.308121  0.064752  0.941004  1
  Tm  Tm15  1  0.808108  0.435010  0.558997  1
  Tm  Tm16  1  0.308145  0.435091  0.941005  1
  Tm  Tm17  1  0.808126  0.065008  0.558984  1
  Tm  Tm18  1  0.691855  0.935072  0.058989  1
  Tm  Tm19  1  0.191881  0.564922  0.441013  1
  Bi  Bi20  1  0.405438  0.749857  0.957485  1
  Bi  Bi21  1  0.905383  0.749928  0.542542  1
  Bi  Bi22  1  0.594576  0.249857  0.042513  1
  Bi  Bi23  1  0.094499  0.250221  0.457514  1
  Bi  Bi24  1  0.566266  0.996087  0.325672  1
  Bi  Bi25  1  0.066240  0.503933  0.174348  1
  Bi  Bi26  1  0.433773  0.496095  0.674319  1
  Bi  Bi27  1  0.933741  0.003934  0.825653  1
  Bi  Bi28  1  0.433785  0.003918  0.674326  1
  Bi  Bi29  1  0.933763  0.496100  0.825631  1
  Bi  Bi30  1  0.566205  0.503925  0.325688  1
  Bi  Bi31  1  0.066207  0.996099  0.174341  1
