# generated using pymatgen
data_ErMnCdPt3
_symmetry_space_group_name_H-M   'P 1'
_cell_length_a   5.48889593
_cell_length_b   5.48889606
_cell_length_c   5.22830276
_cell_angle_alpha   58.33704754
_cell_angle_beta   58.33705028
_cell_angle_gamma   59.99999824
_symmetry_Int_Tables_number   1
_chemical_formula_structural   ErMnCdPt3
_chemical_formula_sum   'Er1 Mn1 Cd1 Pt3'
_cell_volume   108.49991624
_cell_formula_units_Z   1
loop_
 _symmetry_equiv_pos_site_id
 _symmetry_equiv_pos_as_xyz
  1  'x, y, z'
loop_
 _atom_site_type_symbol
 _atom_site_label
 _atom_site_symmetry_multiplicity
 _atom_site_fract_x
 _atom_site_fract_y
 _atom_site_fract_z
 _atom_site_occupancy
  Er  Er0  1  0.752112  0.752112  0.743665  1
  Mn  Mn1  1  0.373762  0.373762  0.878712  1
  Cd  Cd2  1  0.001721  0.001721  0.994839  1
  Pt  Pt3  1  0.373621  0.875164  0.377595  1
  Pt  Pt4  1  0.373621  0.373621  0.377595  1
  Pt  Pt5  1  0.875164  0.373621  0.377595  1
