# generated using pymatgen
data_Tm2Si6AsRh12
_symmetry_space_group_name_H-M   'P 1'
_cell_length_a   9.77597500
_cell_length_b   9.77597638
_cell_length_c   3.83582900
_cell_angle_alpha   90.00000000
_cell_angle_beta   90.00000000
_cell_angle_gamma   119.99999872
_symmetry_Int_Tables_number   1
_chemical_formula_structural   Tm2Si6AsRh12
_chemical_formula_sum   'Tm2 Si6 As1 Rh12'
_cell_volume   317.47541629
_cell_formula_units_Z   1
loop_
 _symmetry_equiv_pos_site_id
 _symmetry_equiv_pos_as_xyz
  1  'x, y, z'
loop_
 _atom_site_type_symbol
 _atom_site_label
 _atom_site_symmetry_multiplicity
 _atom_site_fract_x
 _atom_site_fract_y
 _atom_site_fract_z
 _atom_site_occupancy
  Tm  Tm0  1  0.333333  0.666667  0.249292  1
  Tm  Tm1  1  0.666667  0.333333  0.750708  1
  Si  Si2  1  0.403458  0.112613  0.248887  1
  Si  Si3  1  0.709155  0.596542  0.248887  1
  Si  Si4  1  0.887387  0.290845  0.248887  1
  Si  Si5  1  0.596542  0.887387  0.751113  1
  Si  Si6  1  0.290845  0.403458  0.751113  1
  Si  Si7  1  0.112613  0.709155  0.751113  1
  As  As8  1  0.000000  0.000000  0.500000  1
  Rh  Rh9  1  0.445455  0.381047  0.249318  1
  Rh  Rh10  1  0.935592  0.554545  0.249318  1
  Rh  Rh11  1  0.618953  0.064408  0.249318  1
  Rh  Rh12  1  0.554545  0.618953  0.750682  1
  Rh  Rh13  1  0.064408  0.445455  0.750682  1
  Rh  Rh14  1  0.381047  0.935592  0.750682  1
  Rh  Rh15  1  0.146147  0.880002  0.249702  1
  Rh  Rh16  1  0.733855  0.853853  0.249702  1
  Rh  Rh17  1  0.119998  0.266145  0.249702  1
  Rh  Rh18  1  0.853853  0.119998  0.750298  1
  Rh  Rh19  1  0.266145  0.146147  0.750298  1
  Rh  Rh20  1  0.880002  0.733855  0.750298  1
