# generated using pymatgen
data_Dy15Ho5(Bi2Ir)4
_symmetry_space_group_name_H-M   'P 1'
_cell_length_a   7.99546009
_cell_length_b   9.00599018
_cell_length_c   12.52399730
_cell_angle_alpha   90.02079655
_cell_angle_beta   89.98585605
_cell_angle_gamma   90.00988829
_symmetry_Int_Tables_number   1
_chemical_formula_structural   Dy15Ho5(Bi2Ir)4
_chemical_formula_sum   'Dy15 Ho5 Bi8 Ir4'
_cell_volume   901.81581269
_cell_formula_units_Z   1
loop_
 _symmetry_equiv_pos_site_id
 _symmetry_equiv_pos_as_xyz
  1  'x, y, z'
loop_
 _atom_site_type_symbol
 _atom_site_label
 _atom_site_symmetry_multiplicity
 _atom_site_fract_x
 _atom_site_fract_y
 _atom_site_fract_z
 _atom_site_occupancy
  Dy  Dy0  1  0.839225  0.749947  0.794087  1
  Dy  Dy1  1  0.160707  0.250035  0.205936  1
  Dy  Dy2  1  0.339215  0.250066  0.705947  1
  Dy  Dy3  1  0.660811  0.749948  0.294030  1
  Dy  Dy4  1  0.375446  0.749903  0.691121  1
  Dy  Dy5  1  0.624571  0.250098  0.308861  1
  Dy  Dy6  1  0.875408  0.250041  0.808921  1
  Dy  Dy7  1  0.124463  0.749925  0.191082  1
  Dy  Dy8  1  0.948090  0.749876  0.501740  1
  Dy  Dy9  1  0.051898  0.250111  0.498260  1
  Dy  Dy10  1  0.448144  0.250061  0.998260  1
  Dy  Dy11  1  0.552027  0.749947  0.001749  1
  Dy  Dy12  1  0.676356  0.041779  0.566190  1
  Dy  Dy13  1  0.323645  0.958215  0.433813  1
  Dy  Dy14  1  0.176221  0.958250  0.933869  1
  Ho  Ho15  1  0.324229  0.541778  0.433923  1
  Ho  Ho16  1  0.824110  0.041744  0.066112  1
  Ho  Ho17  1  0.675775  0.458246  0.566075  1
  Ho  Ho18  1  0.824260  0.458232  0.066072  1
  Ho  Ho19  1  0.175765  0.541707  0.933937  1
  Bi  Bi20  1  0.566449  0.491671  0.826477  1
  Bi  Bi21  1  0.433539  0.508324  0.173521  1
  Bi  Bi22  1  0.066450  0.508320  0.673535  1
  Bi  Bi23  1  0.433548  0.991686  0.173481  1
  Bi  Bi24  1  0.933543  0.491676  0.326477  1
  Bi  Bi25  1  0.566559  0.008353  0.826472  1
  Bi  Bi26  1  0.933368  0.008353  0.326419  1
  Bi  Bi27  1  0.066596  0.991672  0.673528  1
  Ir  Ir28  1  0.571375  0.749616  0.508708  1
  Ir  Ir29  1  0.428634  0.250382  0.491286  1
  Ir  Ir30  1  0.071079  0.250204  0.991376  1
  Ir  Ir31  1  0.928495  0.749833  0.008731  1
