# generated using pymatgen
data_Y20Ir3Pt2Rh7
_symmetry_space_group_name_H-M   'P 1'
_cell_length_a   10.99441851
_cell_length_b   10.99441782
_cell_length_c   6.37589501
_cell_angle_alpha   90.00623896
_cell_angle_beta   90.00623739
_cell_angle_gamma   89.76923044
_symmetry_Int_Tables_number   1
_chemical_formula_structural   Y20Ir3Pt2Rh7
_chemical_formula_sum   'Y20 Ir3 Pt2 Rh7'
_cell_volume   770.69427193
_cell_formula_units_Z   1
loop_
 _symmetry_equiv_pos_site_id
 _symmetry_equiv_pos_as_xyz
  1  'x, y, z'
loop_
 _atom_site_type_symbol
 _atom_site_label
 _atom_site_symmetry_multiplicity
 _atom_site_fract_x
 _atom_site_fract_y
 _atom_site_fract_z
 _atom_site_occupancy
  Y  Y0  1  0.291769  0.091453  0.379193  1
  Y  Y1  1  0.293092  0.910073  0.876217  1
  Y  Y2  1  0.707242  0.088175  0.876242  1
  Y  Y3  1  0.707897  0.908424  0.378961  1
  Y  Y4  1  0.588088  0.789673  0.880227  1
  Y  Y5  1  0.585986  0.209365  0.379255  1
  Y  Y6  1  0.413645  0.790067  0.380177  1
  Y  Y7  1  0.410083  0.209524  0.880346  1
  Y  Y8  1  0.210327  0.411912  0.619773  1
  Y  Y9  1  0.209933  0.586355  0.119823  1
  Y  Y10  1  0.790635  0.414014  0.120745  1
  Y  Y11  1  0.790476  0.589917  0.619654  1
  Y  Y12  1  0.908547  0.708231  0.120807  1
  Y  Y13  1  0.911825  0.292758  0.623758  1
  Y  Y14  1  0.089927  0.706908  0.623783  1
  Y  Y15  1  0.091576  0.292103  0.121039  1
  Y  Y16  1  0.999813  0.999928  0.501342  1
  Y  Y17  1  0.000072  0.000187  0.998658  1
  Y  Y18  1  0.499762  0.500055  0.999712  1
  Y  Y19  1  0.499945  0.500238  0.500288  1
  Ir  Ir20  1  0.654630  0.653997  0.249925  1
  Ir  Ir21  1  0.346003  0.345370  0.250075  1
  Ir  Ir22  1  0.344860  0.655140  0.750000  1
  Pt  Pt23  1  0.845264  0.154736  0.250000  1
  Pt  Pt24  1  0.154160  0.845840  0.250000  1
  Rh  Rh25  1  0.846683  0.847020  0.750171  1
  Rh  Rh26  1  0.152980  0.153317  0.749829  1
  Rh  Rh27  1  0.655342  0.344658  0.750000  1
  Rh  Rh28  1  0.500183  0.000369  0.125405  1
  Rh  Rh29  1  0.500247  0.000627  0.625153  1
  Rh  Rh30  1  0.999373  0.499753  0.874847  1
  Rh  Rh31  1  0.999631  0.499817  0.374595  1
