# generated using pymatgen
data_Rb5NaHo2Br12
_symmetry_space_group_name_H-M   'P 1'
_cell_length_a   8.55886322
_cell_length_b   8.03847443
_cell_length_c   14.01993700
_cell_angle_alpha   55.58624483
_cell_angle_beta   89.92559929
_cell_angle_gamma   90.17710661
_symmetry_Int_Tables_number   1
_chemical_formula_structural   Rb5NaHo2Br12
_chemical_formula_sum   'Rb5 Na1 Ho2 Br12'
_cell_volume   795.74337525
_cell_formula_units_Z   1
loop_
 _symmetry_equiv_pos_site_id
 _symmetry_equiv_pos_as_xyz
  1  'x, y, z'
loop_
 _atom_site_type_symbol
 _atom_site_label
 _atom_site_symmetry_multiplicity
 _atom_site_fract_x
 _atom_site_fract_y
 _atom_site_fract_z
 _atom_site_occupancy
  Rb  Rb0  1  0.500000  0.500000  0.000000  1
  Rb  Rb1  1  0.069848  0.725423  0.749587  1
  Rb  Rb2  1  0.930152  0.274577  0.250413  1
  Rb  Rb3  1  0.573350  0.284484  0.741308  1
  Rb  Rb4  1  0.426650  0.715516  0.258692  1
  Na  Na5  1  0.000000  0.500000  0.500000  1
  Ho  Ho6  1  0.500000  0.000000  0.500000  1
  Ho  Ho7  1  0.000000  0.000000  0.000000  1
  Br  Br8  1  0.773377  0.759665  0.562949  1
  Br  Br9  1  0.226623  0.240335  0.437051  1
  Br  Br10  1  0.275743  0.229395  0.933240  1
  Br  Br11  1  0.724257  0.770605  0.066760  1
  Br  Br12  1  0.452860  0.888998  0.725212  1
  Br  Br13  1  0.547140  0.111002  0.274788  1
  Br  Br14  1  0.958406  0.129965  0.765832  1
  Br  Br15  1  0.041594  0.870035  0.234168  1
  Br  Br16  1  0.312103  0.670658  0.545759  1
  Br  Br17  1  0.687897  0.329342  0.454241  1
  Br  Br18  1  0.828916  0.334383  0.951538  1
  Br  Br19  1  0.171084  0.665617  0.048462  1
