# generated using pymatgen
data_Tb4Co2TcOs5
_symmetry_space_group_name_H-M   'P 1'
_cell_length_a   5.23575052
_cell_length_b   5.23574998
_cell_length_c   8.83047800
_cell_angle_alpha   90.00000000
_cell_angle_beta   90.00000000
_cell_angle_gamma   119.12245825
_symmetry_Int_Tables_number   1
_chemical_formula_structural   Tb4Co2TcOs5
_chemical_formula_sum   'Tb4 Co2 Tc1 Os5'
_cell_volume   211.46840967
_cell_formula_units_Z   1
loop_
 _symmetry_equiv_pos_site_id
 _symmetry_equiv_pos_as_xyz
  1  'x, y, z'
loop_
 _atom_site_type_symbol
 _atom_site_label
 _atom_site_symmetry_multiplicity
 _atom_site_fract_x
 _atom_site_fract_y
 _atom_site_fract_z
 _atom_site_occupancy
  Tb  Tb0  1  0.332687  0.667313  0.434217  1
  Tb  Tb1  1  0.666505  0.333495  0.567367  1
  Tb  Tb2  1  0.666505  0.333495  0.932633  1
  Tb  Tb3  1  0.332687  0.667313  0.065783  1
  Co  Co4  1  0.000265  0.999735  0.502420  1
  Co  Co5  1  0.000265  0.999735  0.997580  1
  Tc  Tc6  1  0.833110  0.166890  0.250000  1
  Os  Os7  1  0.832068  0.664200  0.250000  1
  Os  Os8  1  0.335800  0.167932  0.250000  1
  Os  Os9  1  0.168041  0.831959  0.750000  1
  Os  Os10  1  0.167530  0.335463  0.750000  1
  Os  Os11  1  0.664537  0.832470  0.750000  1
