# generated using pymatgen
data_Y20Os5Pt7
_symmetry_space_group_name_H-M   'P 1'
_cell_length_a   11.09291608
_cell_length_b   11.09291592
_cell_length_c   6.51425200
_cell_angle_alpha   89.96489296
_cell_angle_beta   89.96488780
_cell_angle_gamma   90.56628679
_symmetry_Int_Tables_number   1
_chemical_formula_structural   Y20Os5Pt7
_chemical_formula_sum   'Y20 Os5 Pt7'
_cell_volume   801.55739821
_cell_formula_units_Z   1
loop_
 _symmetry_equiv_pos_site_id
 _symmetry_equiv_pos_as_xyz
  1  'x, y, z'
loop_
 _atom_site_type_symbol
 _atom_site_label
 _atom_site_symmetry_multiplicity
 _atom_site_fract_x
 _atom_site_fract_y
 _atom_site_fract_z
 _atom_site_occupancy
  Y  Y0  1  0.297748  0.083258  0.372575  1
  Y  Y1  1  0.296938  0.908751  0.872250  1
  Y  Y2  1  0.701566  0.083956  0.870713  1
  Y  Y3  1  0.701125  0.915019  0.370081  1
  Y  Y4  1  0.579803  0.794300  0.868919  1
  Y  Y5  1  0.584731  0.202941  0.373232  1
  Y  Y6  1  0.412066  0.793569  0.375661  1
  Y  Y7  1  0.414422  0.199905  0.871576  1
  Y  Y8  1  0.205700  0.420197  0.631081  1
  Y  Y9  1  0.206431  0.587934  0.124339  1
  Y  Y10  1  0.797059  0.415269  0.126768  1
  Y  Y11  1  0.800095  0.585578  0.628424  1
  Y  Y12  1  0.916742  0.702252  0.127425  1
  Y  Y13  1  0.916044  0.298434  0.629287  1
  Y  Y14  1  0.091249  0.703062  0.627750  1
  Y  Y15  1  0.084981  0.298875  0.129919  1
  Y  Y16  1  0.998988  0.000009  0.500942  1
  Y  Y17  1  0.999991  0.001012  0.999058  1
  Y  Y18  1  0.496473  0.501241  0.998399  1
  Y  Y19  1  0.498759  0.503527  0.501601  1
  Os  Os20  1  0.348496  0.651504  0.750000  1
  Os  Os21  1  0.499965  0.000297  0.124335  1
  Os  Os22  1  0.499650  0.999863  0.622147  1
  Os  Os23  1  0.000137  0.500350  0.877853  1
  Os  Os24  1  0.999703  0.500035  0.375665  1
  Pt  Pt25  1  0.847711  0.152289  0.250000  1
  Pt  Pt26  1  0.846122  0.848066  0.750886  1
  Pt  Pt27  1  0.151934  0.153878  0.749114  1
  Pt  Pt28  1  0.150219  0.849781  0.250000  1
  Pt  Pt29  1  0.652241  0.347759  0.750000  1
  Pt  Pt30  1  0.655486  0.652577  0.249077  1
  Pt  Pt31  1  0.347423  0.344514  0.250923  1
