# generated using pymatgen
data_Pr4(Al8Pd3)3
_symmetry_space_group_name_H-M   'P 1'
_cell_length_a   7.56085992
_cell_length_b   7.61579232
_cell_length_c   13.41300181
_cell_angle_alpha   84.90143236
_cell_angle_beta   100.50863398
_cell_angle_gamma   119.58357169
_symmetry_Int_Tables_number   1
_chemical_formula_structural   Pr4(Al8Pd3)3
_chemical_formula_sum   'Pr4 Al24 Pd9'
_cell_volume   660.39475822
_cell_formula_units_Z   1
loop_
 _symmetry_equiv_pos_site_id
 _symmetry_equiv_pos_as_xyz
  1  'x, y, z'
loop_
 _atom_site_type_symbol
 _atom_site_label
 _atom_site_symmetry_multiplicity
 _atom_site_fract_x
 _atom_site_fract_y
 _atom_site_fract_z
 _atom_site_occupancy
  Pr  Pr0  1  0.437070  0.830353  0.808626  1
  Pr  Pr1  1  0.562930  0.169647  0.191374  1
  Pr  Pr2  1  0.769791  0.502847  0.808813  1
  Pr  Pr3  1  0.230209  0.497153  0.191187  1
  Al  Al4  1  0.479070  0.166671  0.946404  1
  Al  Al5  1  0.520930  0.833329  0.053596  1
  Al  Al6  1  0.021060  0.166672  0.558629  1
  Al  Al7  1  0.978940  0.833328  0.441371  1
  Al  Al8  1  0.355305  0.833223  0.557358  1
  Al  Al9  1  0.644695  0.166777  0.442642  1
  Al  Al10  1  0.621093  0.834556  0.332793  1
  Al  Al11  1  0.378907  0.165444  0.667207  1
  Al  Al12  1  0.056172  0.491985  0.665901  1
  Al  Al13  1  0.943828  0.508015  0.334099  1
  Al  Al14  1  0.733155  0.841939  0.665005  1
  Al  Al15  1  0.266845  0.158061  0.334995  1
  Al  Al16  1  0.147932  0.496446  0.947364  1
  Al  Al17  1  0.852068  0.503554  0.052636  1
  Al  Al18  1  0.820332  0.835117  0.957100  1
  Al  Al19  1  0.179668  0.164883  0.042900  1
  Al  Al20  1  0.312651  0.500634  0.441705  1
  Al  Al21  1  0.687349  0.499366  0.558295  1
  Al  Al22  1  0.101074  0.836002  0.183755  1
  Al  Al23  1  0.898926  0.163998  0.816245  1
  Al  Al24  1  0.304423  0.366710  0.814661  1
  Al  Al25  1  0.695577  0.633290  0.185339  1
  Al  Al26  1  0.102759  0.961904  0.815670  1
  Al  Al27  1  0.897241  0.038096  0.184330  1
  Pd  Pd28  1  0.385597  0.504544  0.635639  1
  Pd  Pd29  1  0.614403  0.495456  0.364361  1
  Pd  Pd30  1  0.171772  0.829483  0.999354  1
  Pd  Pd31  1  0.828228  0.170517  0.000646  1
  Pd  Pd32  1  0.293248  0.834038  0.363661  1
  Pd  Pd33  1  0.706752  0.165962  0.636339  1
  Pd  Pd34  1  0.048642  0.828325  0.635337  1
  Pd  Pd35  1  0.951358  0.171675  0.364663  1
  Pd  Pd36  1  0.500000  0.500000  0.000000  1
