# generated using pymatgen
data_V7Ga3SiTc5
_symmetry_space_group_name_H-M   'P 1'
_cell_length_a   4.77091629
_cell_length_b   4.79162756
_cell_length_c   9.58266053
_cell_angle_alpha   89.79703587
_cell_angle_beta   89.91811897
_cell_angle_gamma   89.92312620
_symmetry_Int_Tables_number   1
_chemical_formula_structural   V7Ga3SiTc5
_chemical_formula_sum   'V7 Ga3 Si1 Tc5'
_cell_volume   219.06217609
_cell_formula_units_Z   1
loop_
 _symmetry_equiv_pos_site_id
 _symmetry_equiv_pos_as_xyz
  1  'x, y, z'
loop_
 _atom_site_type_symbol
 _atom_site_label
 _atom_site_symmetry_multiplicity
 _atom_site_fract_x
 _atom_site_fract_y
 _atom_site_fract_z
 _atom_site_occupancy
  V  V0  1  0.753608  0.499139  0.499932  1
  V  V1  1  0.501403  0.999814  0.124703  1
  V  V2  1  0.498504  0.999930  0.624941  1
  V  V3  1  0.249652  0.499885  0.000262  1
  V  V4  1  0.245714  0.498954  0.500015  1
  V  V5  1  0.000236  0.249845  0.253465  1
  V  V6  1  0.999996  0.249373  0.745358  1
  Ga  Ga7  1  0.498722  0.496795  0.250313  1
  Ga  Ga8  1  0.498569  0.496725  0.746147  1
  Ga  Ga9  1  0.002745  0.002404  0.001342  1
  Si  Si10  1  0.999963  0.005532  0.501204  1
  Tc  Tc11  1  0.499582  0.999862  0.377615  1
  Tc  Tc12  1  0.499989  0.000103  0.875641  1
  Tc  Tc13  1  0.751860  0.500275  0.000182  1
  Tc  Tc14  1  0.000513  0.750790  0.254424  1
  Tc  Tc15  1  0.998944  0.750576  0.744455  1
