# generated using pymatgen
data_Zr6Ti4Ga12Fe2Pd5
_symmetry_space_group_name_H-M   'P 1'
_cell_length_a   8.77927943
_cell_length_b   8.77852585
_cell_length_c   8.76421000
_cell_angle_alpha   60.05571627
_cell_angle_beta   60.05813588
_cell_angle_gamma   60.00247271
_symmetry_Int_Tables_number   1
_chemical_formula_structural   Zr6Ti4Ga12Fe2Pd5
_chemical_formula_sum   'Zr6 Ti4 Ga12 Fe2 Pd5'
_cell_volume   478.03480482
_cell_formula_units_Z   1
loop_
 _symmetry_equiv_pos_site_id
 _symmetry_equiv_pos_as_xyz
  1  'x, y, z'
loop_
 _atom_site_type_symbol
 _atom_site_label
 _atom_site_symmetry_multiplicity
 _atom_site_fract_x
 _atom_site_fract_y
 _atom_site_fract_z
 _atom_site_occupancy
  Zr  Zr0  1  0.697131  0.697162  0.302856  1
  Zr  Zr1  1  0.303322  0.697324  0.306162  1
  Zr  Zr2  1  0.697310  0.303357  0.306147  1
  Zr  Zr3  1  0.302345  0.302422  0.697588  1
  Zr  Zr4  1  0.697349  0.303378  0.693150  1
  Zr  Zr5  1  0.303341  0.697363  0.693156  1
  Ti  Ti6  1  0.887854  0.887875  0.356768  1
  Ti  Ti7  1  0.885648  0.350187  0.882062  1
  Ti  Ti8  1  0.350266  0.885640  0.882027  1
  Ti  Ti9  1  0.887881  0.887903  0.867526  1
  Ga  Ga10  1  0.112530  0.112580  0.648086  1
  Ga  Ga11  1  0.111861  0.654657  0.116721  1
  Ga  Ga12  1  0.654829  0.111836  0.116648  1
  Ga  Ga13  1  0.112611  0.112661  0.126754  1
  Ga  Ga14  1  0.659754  0.659724  0.020930  1
  Ga  Ga15  1  0.665151  0.019396  0.657695  1
  Ga  Ga16  1  0.019439  0.665125  0.657687  1
  Ga  Ga17  1  0.659762  0.659735  0.659569  1
  Ga  Ga18  1  0.340526  0.340559  0.978972  1
  Ga  Ga19  1  0.328078  0.981966  0.344996  1
  Ga  Ga20  1  0.981978  0.328083  0.344988  1
  Ga  Ga21  1  0.340543  0.340572  0.339935  1
  Fe  Fe22  1  0.003920  0.003940  0.996038  1
  Fe  Fe23  1  0.993840  0.993896  0.506138  1
  Pd  Pd24  1  0.501461  0.999148  0.500619  1
  Pd  Pd25  1  0.999094  0.501425  0.500696  1
  Pd  Pd26  1  0.501517  0.501410  0.998522  1
  Pd  Pd27  1  0.999127  0.501493  0.998787  1
  Pd  Pd28  1  0.501528  0.999181  0.998776  1
