# generated using pymatgen
data_La7Pr3(Bi3Cl)2
_symmetry_space_group_name_H-M   'P 1'
_cell_length_a   9.75767100
_cell_length_b   9.75767128
_cell_length_c   6.75006400
_cell_angle_alpha   90.00000000
_cell_angle_beta   90.00000000
_cell_angle_gamma   120.00000245
_symmetry_Int_Tables_number   1
_chemical_formula_structural   La7Pr3(Bi3Cl)2
_chemical_formula_sum   'La7 Pr3 Bi6 Cl2'
_cell_volume   556.58418979
_cell_formula_units_Z   1
loop_
 _symmetry_equiv_pos_site_id
 _symmetry_equiv_pos_as_xyz
  1  'x, y, z'
loop_
 _atom_site_type_symbol
 _atom_site_label
 _atom_site_symmetry_multiplicity
 _atom_site_fract_x
 _atom_site_fract_y
 _atom_site_fract_z
 _atom_site_occupancy
  La  La0  1  0.733218  0.000048  0.750030  1
  La  La1  1  0.999952  0.266782  0.249970  1
  La  La2  1  0.733218  0.733170  0.249970  1
  La  La3  1  0.333333  0.666667  0.500000  1
  La  La4  1  0.266830  0.000048  0.249970  1
  La  La5  1  0.266830  0.266782  0.750030  1
  La  La6  1  0.999952  0.733170  0.750030  1
  Pr  Pr7  1  0.333333  0.666667  0.000000  1
  Pr  Pr8  1  0.666667  0.333333  0.500000  1
  Pr  Pr9  1  0.666667  0.333333  0.000000  1
  Bi  Bi10  1  0.385360  0.000191  0.750167  1
  Bi  Bi11  1  0.614831  0.000191  0.249833  1
  Bi  Bi12  1  0.999809  0.614640  0.249833  1
  Bi  Bi13  1  0.614831  0.614640  0.750167  1
  Bi  Bi14  1  0.999809  0.385169  0.750167  1
  Bi  Bi15  1  0.385360  0.385169  0.249833  1
  Cl  Cl16  1  0.000000  0.000000  0.500000  1
  Cl  Cl17  1  0.000000  0.000000  0.000000  1
