# generated using pymatgen
data_La4Tb5YRu4
_symmetry_space_group_name_H-M   'P 1'
_cell_length_a   6.55123560
_cell_length_b   7.25676751
_cell_length_c   8.87005099
_cell_angle_alpha   96.23300236
_cell_angle_beta   111.67181561
_cell_angle_gamma   89.99999950
_symmetry_Int_Tables_number   1
_chemical_formula_structural   La4Tb5YRu4
_chemical_formula_sum   'La4 Tb5 Y1 Ru4'
_cell_volume   389.19823625
_cell_formula_units_Z   1
loop_
 _symmetry_equiv_pos_site_id
 _symmetry_equiv_pos_as_xyz
  1  'x, y, z'
loop_
 _atom_site_type_symbol
 _atom_site_label
 _atom_site_symmetry_multiplicity
 _atom_site_fract_x
 _atom_site_fract_y
 _atom_site_fract_z
 _atom_site_occupancy
  La  La0  1  0.980774  0.908638  0.193983  1
  La  La1  1  0.786791  0.591362  0.806017  1
  La  La2  1  0.019098  0.091308  0.806077  1
  La  La3  1  0.213020  0.408692  0.193923  1
  Tb  Tb4  1  0.636570  0.816005  0.429862  1
  Tb  Tb5  1  0.206710  0.683995  0.570138  1
  Tb  Tb6  1  0.363526  0.184091  0.570076  1
  Tb  Tb7  1  0.793449  0.315909  0.429924  1
  Tb  Tb8  1  0.427461  0.750000  0.000000  1
  Y  Y9  1  0.572874  0.250000  0.000000  1
  Ru  Ru10  1  0.830856  0.582713  0.224807  1
  Ru  Ru11  1  0.606050  0.917287  0.775193  1
  Ru  Ru12  1  0.168995  0.417894  0.775168  1
  Ru  Ru13  1  0.393827  0.082106  0.224832  1
