# generated using pymatgen
data_Zr7Fe2Co6Si14Mo
_symmetry_space_group_name_H-M   'P 1'
_cell_length_a   9.46158224
_cell_length_b   9.46063437
_cell_length_c   9.46960001
_cell_angle_alpha   94.14912213
_cell_angle_beta   94.15376467
_cell_angle_gamma   148.76898670
_symmetry_Int_Tables_number   1
_chemical_formula_structural   Zr7Fe2Co6Si14Mo
_chemical_formula_sum   'Zr7 Fe2 Co6 Si14 Mo1'
_cell_volume   423.30484606
_cell_formula_units_Z   1
loop_
 _symmetry_equiv_pos_site_id
 _symmetry_equiv_pos_as_xyz
  1  'x, y, z'
loop_
 _atom_site_type_symbol
 _atom_site_label
 _atom_site_symmetry_multiplicity
 _atom_site_fract_x
 _atom_site_fract_y
 _atom_site_fract_z
 _atom_site_occupancy
  Zr  Zr0  1  0.864209  0.864188  0.728392  1
  Zr  Zr1  1  0.862289  0.138041  0.999823  1
  Zr  Zr2  1  0.137530  0.861787  0.999825  1
  Zr  Zr3  1  0.500998  0.305068  0.803609  1
  Zr  Zr4  1  0.503750  0.696711  0.199302  1
  Zr  Zr5  1  0.695573  0.502610  0.199332  1
  Zr  Zr6  1  0.302616  0.498547  0.803632  1
  Fe  Fe7  1  0.398351  0.898352  0.796702  1
  Fe  Fe8  1  0.102332  0.602336  0.204650  1
  Co  Co9  1  0.101626  0.897886  0.498092  1
  Co  Co10  1  0.396449  0.600194  0.498100  1
  Co  Co11  1  0.601352  0.394969  0.498138  1
  Co  Co12  1  0.896797  0.103175  0.498143  1
  Co  Co13  1  0.897322  0.397323  0.794651  1
  Co  Co14  1  0.603338  0.103338  0.206662  1
  Si  Si15  1  0.497787  0.088033  0.593415  1
  Si  Si16  1  0.493749  0.903914  0.406970  1
  Si  Si17  1  0.913205  0.503080  0.406972  1
  Si  Si18  1  0.095611  0.505404  0.593424  1
  Si  Si19  1  0.757109  0.757016  0.006226  1
  Si  Si20  1  0.249122  0.249209  0.006224  1
  Si  Si21  1  0.284038  0.283976  0.568004  1
  Si  Si22  1  0.711933  0.711881  0.423844  1
  Si  Si23  1  0.711395  0.290402  0.000913  1
  Si  Si24  1  0.289518  0.710514  0.000910  1
  Si  Si25  1  0.004632  0.301942  0.302103  1
  Si  Si26  1  0.001955  0.697983  0.695572  1
  Si  Si27  1  0.693615  0.997610  0.695614  1
  Si  Si28  1  0.297492  0.000206  0.302152  1
  Mo  Mo29  1  0.134307  0.134306  0.268607  1
