# generated using pymatgen
data_KFe2Sb12PtRh
_symmetry_space_group_name_H-M   'P 1'
_cell_length_a   8.10633833
_cell_length_b   8.06835441
_cell_length_c   8.10676060
_cell_angle_alpha   109.41323808
_cell_angle_beta   109.77727920
_cell_angle_gamma   109.40553469
_symmetry_Int_Tables_number   1
_chemical_formula_structural   KFe2Sb12PtRh
_chemical_formula_sum   'K1 Fe2 Sb12 Pt1 Rh1'
_cell_volume   407.23888182
_cell_formula_units_Z   1
loop_
 _symmetry_equiv_pos_site_id
 _symmetry_equiv_pos_as_xyz
  1  'x, y, z'
loop_
 _atom_site_type_symbol
 _atom_site_label
 _atom_site_symmetry_multiplicity
 _atom_site_fract_x
 _atom_site_fract_y
 _atom_site_fract_z
 _atom_site_occupancy
  K  K0  1  0.000000  0.000000  0.000000  1
  Fe  Fe1  1  0.500000  0.000000  0.000000  1
  Fe  Fe2  1  0.000000  0.000000  0.500000  1
  Sb  Sb3  1  0.852466  0.669245  0.500638  1
  Sb  Sb4  1  0.147534  0.330755  0.499362  1
  Sb  Sb5  1  0.166722  0.667563  0.820357  1
  Sb  Sb6  1  0.833278  0.332437  0.179643  1
  Sb  Sb7  1  0.655446  0.497800  0.849739  1
  Sb  Sb8  1  0.344554  0.502200  0.150261  1
  Sb  Sb9  1  0.668122  0.830688  0.162875  1
  Sb  Sb10  1  0.331878  0.169312  0.837125  1
  Sb  Sb11  1  0.501764  0.853099  0.669787  1
  Sb  Sb12  1  0.498236  0.146901  0.330213  1
  Sb  Sb13  1  0.179569  0.847408  0.345497  1
  Sb  Sb14  1  0.820431  0.152592  0.654503  1
  Pt  Pt15  1  0.500000  0.500000  0.500000  1
  Rh  Rh16  1  0.000000  0.500000  0.000000  1
