# generated using pymatgen
data_Pr8In3Os
_symmetry_space_group_name_H-M   'P 1'
_cell_length_a   10.83618300
_cell_length_b   10.83618246
_cell_length_c   7.37165800
_cell_angle_alpha   90.00000000
_cell_angle_beta   90.00000000
_cell_angle_gamma   119.99999249
_symmetry_Int_Tables_number   1
_chemical_formula_structural   Pr8In3Os
_chemical_formula_sum   'Pr16 In6 Os2'
_cell_volume   749.63263085
_cell_formula_units_Z   2
loop_
 _symmetry_equiv_pos_site_id
 _symmetry_equiv_pos_as_xyz
  1  'x, y, z'
loop_
 _atom_site_type_symbol
 _atom_site_label
 _atom_site_symmetry_multiplicity
 _atom_site_fract_x
 _atom_site_fract_y
 _atom_site_fract_z
 _atom_site_occupancy
  Pr  Pr0  1  0.536310  0.072620  0.792624  1
  Pr  Pr1  1  0.927380  0.463690  0.792624  1
  Pr  Pr2  1  0.536310  0.463690  0.792624  1
  Pr  Pr3  1  0.463690  0.927380  0.292624  1
  Pr  Pr4  1  0.072620  0.536310  0.292624  1
  Pr  Pr5  1  0.463690  0.536310  0.292624  1
  Pr  Pr6  1  0.824641  0.649281  0.498495  1
  Pr  Pr7  1  0.350719  0.175359  0.498495  1
  Pr  Pr8  1  0.824641  0.175359  0.498495  1
  Pr  Pr9  1  0.175359  0.350719  0.998495  1
  Pr  Pr10  1  0.649281  0.824641  0.998495  1
  Pr  Pr11  1  0.175359  0.824641  0.998495  1
  Pr  Pr12  1  0.666667  0.333333  0.172100  1
  Pr  Pr13  1  0.333333  0.666667  0.672100  1
  Pr  Pr14  1  0.000000  0.000000  0.782868  1
  Pr  Pr15  1  0.000000  0.000000  0.282868  1
  In  In16  1  0.836610  0.673221  0.042377  1
  In  In17  1  0.326779  0.163390  0.042377  1
  In  In18  1  0.836610  0.163390  0.042377  1
  In  In19  1  0.163390  0.326779  0.542377  1
  In  In20  1  0.673221  0.836610  0.542377  1
  In  In21  1  0.163390  0.836610  0.542377  1
  Os  Os22  1  0.666667  0.333333  0.562499  1
  Os  Os23  1  0.333333  0.666667  0.062499  1
