# generated using pymatgen
data_Np3SnGe2Ir3
_symmetry_space_group_name_H-M   'P 1'
_cell_length_a   7.18597300
_cell_length_b   7.07085243
_cell_length_c   3.98954600
_cell_angle_alpha   90.00000000
_cell_angle_beta   90.00000000
_cell_angle_gamma   120.54004395
_symmetry_Int_Tables_number   1
_chemical_formula_structural   Np3SnGe2Ir3
_chemical_formula_sum   'Np3 Sn1 Ge2 Ir3'
_cell_volume   174.59117420
_cell_formula_units_Z   1
loop_
 _symmetry_equiv_pos_site_id
 _symmetry_equiv_pos_as_xyz
  1  'x, y, z'
loop_
 _atom_site_type_symbol
 _atom_site_label
 _atom_site_symmetry_multiplicity
 _atom_site_fract_x
 _atom_site_fract_y
 _atom_site_fract_z
 _atom_site_occupancy
  Np  Np0  1  0.995044  0.571593  0.500000  1
  Np  Np1  1  0.591235  0.000000  0.500000  1
  Np  Np2  1  0.423451  0.428407  0.500000  1
  Sn  Sn3  1  0.247155  0.000000  0.000000  1
  Ge  Ge4  1  0.001467  0.253972  0.000000  1
  Ge  Ge5  1  0.747495  0.746028  0.000000  1
  Ir  Ir6  1  0.337564  0.661014  0.000000  1
  Ir  Ir7  1  0.980038  0.000000  0.500000  1
  Ir  Ir8  1  0.676551  0.338986  0.000000  1
