# generated using pymatgen
data_ZrBe9NbW
_symmetry_space_group_name_H-M   'P 1'
_cell_length_a   7.55142491
_cell_length_b   7.55142494
_cell_length_c   7.55142436
_cell_angle_alpha   35.18430531
_cell_angle_beta   35.18430333
_cell_angle_gamma   35.18430582
_symmetry_Int_Tables_number   1
_chemical_formula_structural   ZrBe9NbW
_chemical_formula_sum   'Zr1 Be9 Nb1 W1'
_cell_volume   127.69575349
_cell_formula_units_Z   1
loop_
 _symmetry_equiv_pos_site_id
 _symmetry_equiv_pos_as_xyz
  1  'x, y, z'
loop_
 _atom_site_type_symbol
 _atom_site_label
 _atom_site_symmetry_multiplicity
 _atom_site_fract_x
 _atom_site_fract_y
 _atom_site_fract_z
 _atom_site_occupancy
  Zr  Zr0  1  0.001518  0.001518  0.001518  1
  Be  Be1  1  0.499620  0.499620  0.499620  1
  Be  Be2  1  0.334289  0.334289  0.334290  1
  Be  Be3  1  0.664310  0.664310  0.664309  1
  Be  Be4  1  0.079744  0.585642  0.585642  1
  Be  Be5  1  0.585642  0.585642  0.079744  1
  Be  Be6  1  0.585642  0.079744  0.585642  1
  Be  Be7  1  0.412746  0.923828  0.412746  1
  Be  Be8  1  0.923828  0.412746  0.412746  1
  Be  Be9  1  0.412746  0.412746  0.923828  1
  Nb  Nb10  1  0.856975  0.856975  0.856975  1
  W  W11  1  0.142939  0.142939  0.142939  1
