# generated using pymatgen
data_Nd4Mg2As5
_symmetry_space_group_name_H-M   'P 1'
_cell_length_a   4.32433400
_cell_length_b   4.32433391
_cell_length_c   17.57250200
_cell_angle_alpha   90.00000000
_cell_angle_beta   90.00000000
_cell_angle_gamma   120.00000065
_symmetry_Int_Tables_number   1
_chemical_formula_structural   Nd4Mg2As5
_chemical_formula_sum   'Nd4 Mg2 As5'
_cell_volume   284.57889083
_cell_formula_units_Z   1
loop_
 _symmetry_equiv_pos_site_id
 _symmetry_equiv_pos_as_xyz
  1  'x, y, z'
loop_
 _atom_site_type_symbol
 _atom_site_label
 _atom_site_symmetry_multiplicity
 _atom_site_fract_x
 _atom_site_fract_y
 _atom_site_fract_z
 _atom_site_occupancy
  Nd  Nd0  1  0.666667  0.333333  0.903508  1
  Nd  Nd1  1  0.333333  0.666667  0.096492  1
  Nd  Nd2  1  0.000000  0.000000  0.711672  1
  Nd  Nd3  1  0.000000  0.000000  0.288328  1
  Mg  Mg4  1  0.666667  0.333333  0.444754  1
  Mg  Mg5  1  0.333333  0.666667  0.555246  1
  As  As6  1  0.666667  0.333333  0.601796  1
  As  As7  1  0.333333  0.666667  0.398204  1
  As  As8  1  0.666667  0.333333  0.196983  1
  As  As9  1  0.333333  0.666667  0.803017  1
  As  As10  1  0.000000  0.000000  0.000000  1
