# generated using pymatgen
data_Er(Zr3Sn2)3
_symmetry_space_group_name_H-M   'P 1'
_cell_length_a   8.63026317
_cell_length_b   8.52920923
_cell_length_c   5.85498700
_cell_angle_alpha   90.00000000
_cell_angle_beta   90.00000000
_cell_angle_gamma   119.61341410
_symmetry_Int_Tables_number   1
_chemical_formula_structural   Er(Zr3Sn2)3
_chemical_formula_sum   'Er1 Zr9 Sn6'
_cell_volume   374.68647741
_cell_formula_units_Z   1
loop_
 _symmetry_equiv_pos_site_id
 _symmetry_equiv_pos_as_xyz
  1  'x, y, z'
loop_
 _atom_site_type_symbol
 _atom_site_label
 _atom_site_symmetry_multiplicity
 _atom_site_fract_x
 _atom_site_fract_y
 _atom_site_fract_z
 _atom_site_occupancy
  Er  Er0  1  0.000000  0.766083  0.250000  1
  Zr  Zr1  1  0.668042  0.333211  0.999291  1
  Zr  Zr2  1  0.331958  0.665171  0.999291  1
  Zr  Zr3  1  0.331958  0.665171  0.500709  1
  Zr  Zr4  1  0.668042  0.333211  0.500709  1
  Zr  Zr5  1  0.748815  0.748489  0.750000  1
  Zr  Zr6  1  0.251185  0.999674  0.750000  1
  Zr  Zr7  1  0.000000  0.239470  0.750000  1
  Zr  Zr8  1  0.250843  0.252189  0.250000  1
  Zr  Zr9  1  0.749157  0.001345  0.250000  1
  Sn  Sn10  1  0.390652  0.390023  0.750000  1
  Sn  Sn11  1  0.609348  0.999372  0.750000  1
  Sn  Sn12  1  0.000000  0.606996  0.750000  1
  Sn  Sn13  1  0.604383  0.606743  0.250000  1
  Sn  Sn14  1  0.395617  0.002361  0.250000  1
  Sn  Sn15  1  0.000000  0.390490  0.250000  1
