# generated using pymatgen
data_TiAl3(VOs3)2
_symmetry_space_group_name_H-M   'P 1'
_cell_length_a   4.28104600
_cell_length_b   6.08260300
_cell_length_c   12.85079200
_cell_angle_alpha   89.99995887
_cell_angle_beta   90.00042815
_cell_angle_gamma   90.00003222
_symmetry_Int_Tables_number   1
_chemical_formula_structural   TiAl3(VOs3)2
_chemical_formula_sum   'Ti2 Al6 V4 Os12'
_cell_volume   334.63338027
_cell_formula_units_Z   2
loop_
 _symmetry_equiv_pos_site_id
 _symmetry_equiv_pos_as_xyz
  1  'x, y, z'
loop_
 _atom_site_type_symbol
 _atom_site_label
 _atom_site_symmetry_multiplicity
 _atom_site_fract_x
 _atom_site_fract_y
 _atom_site_fract_z
 _atom_site_occupancy
  Ti  Ti0  1  0.000006  0.000000  0.999849  1
  Ti  Ti1  1  0.499838  0.500000  0.166810  1
  Al  Al2  1  0.999998  0.500000  0.001017  1
  Al  Al3  1  0.499813  0.000000  0.165651  1
  Al  Al4  1  0.999810  0.500000  0.333197  1
  Al  Al5  1  0.499999  0.000000  0.500794  1
  Al  Al6  1  0.000176  0.500000  0.665876  1
  Al  Al7  1  0.500189  0.000001  0.833472  1
  V  V8  1  0.999828  0.000000  0.332589  1
  V  V9  1  0.500001  0.500001  0.499581  1
  V  V10  1  0.000176  0.000001  0.667087  1
  V  V11  1  0.500177  0.500000  0.834068  1
  Os  Os12  1  0.500005  0.252817  0.997078  1
  Os  Os13  1  0.500005  0.747183  0.997078  1
  Os  Os14  1  0.999840  0.247173  0.169589  1
  Os  Os15  1  0.999840  0.752827  0.169589  1
  Os  Os16  1  0.499836  0.246740  0.336865  1
  Os  Os17  1  0.499836  0.753260  0.336865  1
  Os  Os18  1  0.999995  0.250909  0.500810  1
  Os  Os19  1  0.999995  0.749090  0.500810  1
  Os  Os20  1  0.500155  0.249053  0.665868  1
  Os  Os21  1  0.500155  0.750948  0.665868  1
  Os  Os22  1  0.000165  0.253235  0.829795  1
  Os  Os23  1  0.000164  0.746764  0.829795  1
