# generated using pymatgen
data_Ba2PaRhS6
_symmetry_space_group_name_H-M   'P 1'
_cell_length_a   7.01809147
_cell_length_b   7.01810841
_cell_length_c   7.01809400
_cell_angle_alpha   120.00041093
_cell_angle_beta   120.00021231
_cell_angle_gamma   59.99967378
_symmetry_Int_Tables_number   1
_chemical_formula_structural   Ba2PaRhS6
_chemical_formula_sum   'Ba2 Pa1 Rh1 S6'
_cell_volume   244.42192721
_cell_formula_units_Z   1
loop_
 _symmetry_equiv_pos_site_id
 _symmetry_equiv_pos_as_xyz
  1  'x, y, z'
loop_
 _atom_site_type_symbol
 _atom_site_label
 _atom_site_symmetry_multiplicity
 _atom_site_fract_x
 _atom_site_fract_y
 _atom_site_fract_z
 _atom_site_occupancy
  Ba  Ba0  1  0.750000  0.749999  0.249998  1
  Ba  Ba1  1  0.250000  0.250000  0.749997  1
  Pa  Pa2  1  0.500000  0.499999  0.499999  1
  Rh  Rh3  1  0.000002  0.999998  0.000006  1
  S  S4  1  0.239559  0.239559  0.239558  1
  S  S5  1  0.760439  0.239560  0.239559  1
  S  S6  1  0.239562  0.760438  0.239563  1
  S  S7  1  0.760434  0.239562  0.760436  1
  S  S8  1  0.239559  0.760439  0.760437  1
  S  S9  1  0.760440  0.760441  0.760441  1
