# generated using pymatgen
data_Dy3HoLuBiAu2
_symmetry_space_group_name_H-M   'P 1'
_cell_length_a   8.68589044
_cell_length_b   8.68589000
_cell_length_c   8.68710757
_cell_angle_alpha   124.22911142
_cell_angle_beta   124.22910718
_cell_angle_gamma   82.80972712
_symmetry_Int_Tables_number   1
_chemical_formula_structural   Dy3HoLuBiAu2
_chemical_formula_sum   'Dy6 Ho2 Lu2 Bi2 Au4'
_cell_volume   430.13175078
_cell_formula_units_Z   2
loop_
 _symmetry_equiv_pos_site_id
 _symmetry_equiv_pos_as_xyz
  1  'x, y, z'
loop_
 _atom_site_type_symbol
 _atom_site_label
 _atom_site_symmetry_multiplicity
 _atom_site_fract_x
 _atom_site_fract_y
 _atom_site_fract_z
 _atom_site_occupancy
  Dy  Dy0  1  0.014999  0.514999  0.810302  1
  Dy  Dy1  1  0.704697  0.204697  0.189698  1
  Dy  Dy2  1  0.515168  0.704681  0.500000  1
  Dy  Dy3  1  0.204681  0.015168  0.500000  1
  Dy  Dy4  1  0.984824  0.484824  0.189573  1
  Dy  Dy5  1  0.295251  0.795251  0.810427  1
  Ho  Ho6  1  0.484814  0.294847  0.500000  1
  Ho  Ho7  1  0.794847  0.984814  0.500000  1
  Lu  Lu8  1  0.000077  0.000077  0.000000  1
  Lu  Lu9  1  0.500077  0.500077  0.000000  1
  Bi  Bi10  1  0.749988  0.749988  0.000000  1
  Bi  Bi11  1  0.249988  0.249988  0.000000  1
  Au  Au12  1  0.638695  0.138695  0.777005  1
  Au  Au13  1  0.361690  0.861690  0.222995  1
  Au  Au14  1  0.138854  0.361349  0.500000  1
  Au  Au15  1  0.861349  0.638854  0.500000  1
