# generated using pymatgen
data_Pr2Nd6Al(Si4Rh)3
_symmetry_space_group_name_H-M   'P 1'
_cell_length_a   8.26484500
_cell_length_b   8.26484499
_cell_length_c   8.50417900
_cell_angle_alpha   90.00000000
_cell_angle_beta   90.00000000
_cell_angle_gamma   119.99999606
_symmetry_Int_Tables_number   1
_chemical_formula_structural   Pr2Nd6Al(Si4Rh)3
_chemical_formula_sum   'Pr2 Nd6 Al1 Si12 Rh3'
_cell_volume   503.07468897
_cell_formula_units_Z   1
loop_
 _symmetry_equiv_pos_site_id
 _symmetry_equiv_pos_as_xyz
  1  'x, y, z'
loop_
 _atom_site_type_symbol
 _atom_site_label
 _atom_site_symmetry_multiplicity
 _atom_site_fract_x
 _atom_site_fract_y
 _atom_site_fract_z
 _atom_site_occupancy
  Pr  Pr0  1  0.000000  0.000000  0.747754  1
  Pr  Pr1  1  0.000000  0.000000  0.252179  1
  Nd  Nd2  1  0.497054  0.502946  0.745866  1
  Nd  Nd3  1  0.497054  0.994110  0.745866  1
  Nd  Nd4  1  0.005890  0.502946  0.745866  1
  Nd  Nd5  1  0.499386  0.500614  0.253896  1
  Nd  Nd6  1  0.001228  0.500614  0.253896  1
  Nd  Nd7  1  0.499386  0.998772  0.253896  1
  Al  Al8  1  0.666667  0.333333  0.994991  1
  Si  Si9  1  0.838271  0.161729  0.999750  1
  Si  Si10  1  0.838271  0.676543  0.999750  1
  Si  Si11  1  0.323457  0.161729  0.999750  1
  Si  Si12  1  0.832271  0.167729  0.501329  1
  Si  Si13  1  0.832271  0.664541  0.501329  1
  Si  Si14  1  0.335459  0.167729  0.501329  1
  Si  Si15  1  0.167106  0.832894  0.498755  1
  Si  Si16  1  0.665790  0.832894  0.498755  1
  Si  Si17  1  0.167106  0.334210  0.498755  1
  Si  Si18  1  0.169553  0.830447  0.000814  1
  Si  Si19  1  0.660894  0.830447  0.000814  1
  Si  Si20  1  0.169553  0.339106  0.000814  1
  Rh  Rh21  1  0.666667  0.333333  0.503839  1
  Rh  Rh22  1  0.333333  0.666667  0.496943  1
  Rh  Rh23  1  0.333333  0.666667  0.003061  1
