# generated using pymatgen
data_HoEr2BBr3
_symmetry_space_group_name_H-M   'P 1'
_cell_length_a   9.67010473
_cell_length_b   9.67050614
_cell_length_c   9.67063815
_cell_angle_alpha   109.49099350
_cell_angle_beta   109.46580684
_cell_angle_gamma   109.45458192
_symmetry_Int_Tables_number   1
_chemical_formula_structural   HoEr2BBr3
_chemical_formula_sum   'Ho4 Er8 B4 Br12'
_cell_volume   696.18683854
_cell_formula_units_Z   4
loop_
 _symmetry_equiv_pos_site_id
 _symmetry_equiv_pos_as_xyz
  1  'x, y, z'
loop_
 _atom_site_type_symbol
 _atom_site_label
 _atom_site_symmetry_multiplicity
 _atom_site_fract_x
 _atom_site_fract_y
 _atom_site_fract_z
 _atom_site_occupancy
  Ho  Ho0  1  0.458657  0.479324  0.229273  1
  Ho  Ho1  1  0.749941  0.229355  0.270556  1
  Ho  Ho2  1  0.749792  0.020445  0.479343  1
  Ho  Ho3  1  0.229490  0.458797  0.479411  1
  Er  Er4  1  0.270938  0.749997  0.228867  1
  Er  Er5  1  0.041973  0.270947  0.020955  1
  Er  Er6  1  0.020909  0.041763  0.270950  1
  Er  Er7  1  0.478823  0.750042  0.021022  1
  Er  Er8  1  0.478819  0.228777  0.457810  1
  Er  Er9  1  0.021032  0.479026  0.750015  1
  Er  Er10  1  0.270940  0.020831  0.041959  1
  Er  Er11  1  0.229033  0.271067  0.750070  1
  B  B12  1  0.249680  0.249366  0.249650  1
  B  B13  1  0.499293  0.999666  0.249651  1
  B  B14  1  0.000405  0.250062  0.500424  1
  B  B15  1  0.249624  0.499907  0.999604  1
  Br  Br16  1  0.249980  0.758079  0.742424  1
  Br  Br17  1  0.516080  0.507863  0.758216  1
  Br  Br18  1  0.984290  0.742157  0.992161  1
  Br  Br19  1  0.742179  0.250384  0.758189  1
  Br  Br20  1  0.992428  0.984249  0.742387  1
  Br  Br21  1  0.250006  0.992140  0.507865  1
  Br  Br22  1  0.758100  0.516003  0.508490  1
  Br  Br23  1  0.507491  0.249599  0.991512  1
  Br  Br24  1  0.758078  0.742138  0.249592  1
  Br  Br25  1  0.742173  0.991789  0.984019  1
  Br  Br26  1  0.992106  0.508122  0.249655  1
  Br  Br27  1  0.507740  0.758105  0.515930  1
