# generated using pymatgen
data_Sr2DyOsO6
_symmetry_space_group_name_H-M   'P 1'
_cell_length_a   5.83288348
_cell_length_b   5.87736800
_cell_length_c   10.09457077
_cell_angle_alpha   90.00000000
_cell_angle_beta   125.02556270
_cell_angle_gamma   90.00000000
_symmetry_Int_Tables_number   1
_chemical_formula_structural   Sr2DyOsO6
_chemical_formula_sum   'Sr4 Dy2 Os2 O12'
_cell_volume   283.38889209
_cell_formula_units_Z   2
loop_
 _symmetry_equiv_pos_site_id
 _symmetry_equiv_pos_as_xyz
  1  'x, y, z'
loop_
 _atom_site_type_symbol
 _atom_site_label
 _atom_site_symmetry_multiplicity
 _atom_site_fract_x
 _atom_site_fract_y
 _atom_site_fract_z
 _atom_site_occupancy
  Sr  Sr0  1  0.257946  0.033804  0.750906  1
  Sr  Sr1  1  0.257946  0.466196  0.250906  1
  Sr  Sr2  1  0.742054  0.966196  0.249094  1
  Sr  Sr3  1  0.742054  0.533804  0.749094  1
  Dy  Dy4  1  0.000000  0.500000  0.500000  1
  Dy  Dy5  1  0.000000  0.000000  0.000000  1
  Os  Os6  1  0.500000  0.000000  0.500000  1
  Os  Os7  1  0.500000  0.500000  0.000000  1
  O  O8  1  0.190566  0.480821  0.765503  1
  O  O9  1  0.190566  0.019179  0.265503  1
  O  O10  1  0.809434  0.519179  0.234497  1
  O  O11  1  0.809434  0.980821  0.734497  1
  O  O12  1  0.731545  0.200139  0.461286  1
  O  O13  1  0.731545  0.299861  0.961286  1
  O  O14  1  0.268455  0.799861  0.538714  1
  O  O15  1  0.268455  0.700139  0.038714  1
  O  O16  1  0.656889  0.728160  0.459853  1
  O  O17  1  0.656889  0.771840  0.959853  1
  O  O18  1  0.343111  0.271840  0.540147  1
  O  O19  1  0.343111  0.228160  0.040147  1
