# generated using pymatgen
data_TbNdCd4(Ga2Ni)2
_symmetry_space_group_name_H-M   'P 1'
_cell_length_a   4.12573304
_cell_length_b   6.69319100
_cell_length_c   8.64929295
_cell_angle_alpha   90.00000000
_cell_angle_beta   103.79809199
_cell_angle_gamma   90.00000000
_symmetry_Int_Tables_number   1
_chemical_formula_structural   TbNdCd4(Ga2Ni)2
_chemical_formula_sum   'Tb1 Nd1 Cd4 Ga4 Ni2'
_cell_volume   231.95182045
_cell_formula_units_Z   1
loop_
 _symmetry_equiv_pos_site_id
 _symmetry_equiv_pos_as_xyz
  1  'x, y, z'
loop_
 _atom_site_type_symbol
 _atom_site_label
 _atom_site_symmetry_multiplicity
 _atom_site_fract_x
 _atom_site_fract_y
 _atom_site_fract_z
 _atom_site_occupancy
  Tb  Tb0  1  0.869527  0.750000  0.739053  1
  Nd  Nd1  1  0.128609  0.250000  0.257220  1
  Cd  Cd2  1  0.497655  0.503440  0.995309  1
  Cd  Cd3  1  0.497655  0.996560  0.995309  1
  Cd  Cd4  1  0.075909  0.750000  0.151820  1
  Cd  Cd5  1  0.923995  0.250000  0.847989  1
  Ga  Ga6  1  0.691602  0.555737  0.383204  1
  Ga  Ga7  1  0.310946  0.446071  0.621892  1
  Ga  Ga8  1  0.691602  0.944263  0.383204  1
  Ga  Ga9  1  0.310946  0.053929  0.621892  1
  Ni  Ni10  1  0.233088  0.750000  0.466177  1
  Ni  Ni11  1  0.768465  0.250000  0.536931  1
