# generated using pymatgen
data_Tb6Mn3Al24Pt5
_symmetry_space_group_name_H-M   'P 1'
_cell_length_a   8.81076400
_cell_length_b   8.84186381
_cell_length_c   9.46018166
_cell_angle_alpha   90.32922498
_cell_angle_beta   90.00000000
_cell_angle_gamma   119.88372297
_symmetry_Int_Tables_number   1
_chemical_formula_structural   Tb6Mn3Al24Pt5
_chemical_formula_sum   'Tb6 Mn3 Al24 Pt5'
_cell_volume   638.97758681
_cell_formula_units_Z   1
loop_
 _symmetry_equiv_pos_site_id
 _symmetry_equiv_pos_as_xyz
  1  'x, y, z'
loop_
 _atom_site_type_symbol
 _atom_site_label
 _atom_site_symmetry_multiplicity
 _atom_site_fract_x
 _atom_site_fract_y
 _atom_site_fract_z
 _atom_site_occupancy
  Tb  Tb0  1  0.382648  0.189040  0.248502  1
  Tb  Tb1  1  0.806392  0.189040  0.248502  1
  Tb  Tb2  1  0.809053  0.618106  0.247873  1
  Tb  Tb3  1  0.617352  0.810960  0.751498  1
  Tb  Tb4  1  0.193608  0.810960  0.751498  1
  Tb  Tb5  1  0.190947  0.381894  0.752127  1
  Mn  Mn6  1  0.000000  0.000000  0.500000  1
  Mn  Mn7  1  0.000000  0.000000  0.000000  1
  Mn  Mn8  1  0.500000  0.000000  0.000000  1
  Al  Al9  1  0.437833  0.875666  0.242070  1
  Al  Al10  1  0.128820  0.565335  0.250197  1
  Al  Al11  1  0.436514  0.565335  0.250197  1
  Al  Al12  1  0.562167  0.124334  0.757930  1
  Al  Al13  1  0.871180  0.434665  0.749803  1
  Al  Al14  1  0.563486  0.434665  0.749803  1
  Al  Al15  1  0.158203  0.841433  0.421933  1
  Al  Al16  1  0.157802  0.315605  0.423318  1
  Al  Al17  1  0.683229  0.841433  0.421933  1
  Al  Al18  1  0.841797  0.158567  0.578067  1
  Al  Al19  1  0.842198  0.684395  0.576682  1
  Al  Al20  1  0.316771  0.158567  0.578067  1
  Al  Al21  1  0.832736  0.153555  0.924816  1
  Al  Al22  1  0.841193  0.682385  0.924611  1
  Al  Al23  1  0.320820  0.153555  0.924816  1
  Al  Al24  1  0.167264  0.846445  0.075184  1
  Al  Al25  1  0.158807  0.317615  0.075389  1
  Al  Al26  1  0.679180  0.846445  0.075184  1
  Al  Al27  1  0.333238  0.666475  0.529648  1
  Al  Al28  1  0.666762  0.333525  0.470352  1
  Al  Al29  1  0.661127  0.322253  0.027782  1
  Al  Al30  1  0.338873  0.677747  0.972218  1
  Al  Al31  1  0.999309  0.998618  0.249562  1
  Al  Al32  1  0.000691  0.001382  0.750438  1
  Pt  Pt33  1  0.500000  0.000000  0.500000  1
  Pt  Pt34  1  0.000000  0.500000  0.500000  1
  Pt  Pt35  1  0.500000  0.500000  0.500000  1
  Pt  Pt36  1  0.000000  0.500000  0.000000  1
  Pt  Pt37  1  0.500000  0.500000  0.000000  1
