# generated using pymatgen
data_TbHo9(IrOs)2
_symmetry_space_group_name_H-M   'P 1'
_cell_length_a   6.42374321
_cell_length_b   7.27085724
_cell_length_c   8.40029000
_cell_angle_alpha   96.62162034
_cell_angle_beta   112.45690911
_cell_angle_gamma   89.99831640
_symmetry_Int_Tables_number   1
_chemical_formula_structural   TbHo9(IrOs)2
_chemical_formula_sum   'Tb1 Ho9 Ir2 Os2'
_cell_volume   359.75925280
_cell_formula_units_Z   1
loop_
 _symmetry_equiv_pos_site_id
 _symmetry_equiv_pos_as_xyz
  1  'x, y, z'
loop_
 _atom_site_type_symbol
 _atom_site_label
 _atom_site_symmetry_multiplicity
 _atom_site_fract_x
 _atom_site_fract_y
 _atom_site_fract_z
 _atom_site_occupancy
  Tb  Tb0  1  0.969977  0.916582  0.180398  1
  Ho  Ho1  1  0.790053  0.583477  0.819679  1
  Ho  Ho2  1  0.026084  0.081799  0.816054  1
  Ho  Ho3  1  0.209709  0.418449  0.183367  1
  Ho  Ho4  1  0.653157  0.817046  0.440437  1
  Ho  Ho5  1  0.213125  0.682773  0.559845  1
  Ho  Ho6  1  0.349023  0.180844  0.561819  1
  Ho  Ho7  1  0.787365  0.319145  0.438603  1
  Ho  Ho8  1  0.425753  0.749708  0.999801  1
  Ho  Ho9  1  0.576064  0.250220  0.000028  1
  Ir  Ir10  1  0.173010  0.424481  0.779671  1
  Ir  Ir11  1  0.394383  0.076259  0.220079  1
  Os  Os12  1  0.825069  0.573054  0.218396  1
  Os  Os13  1  0.607229  0.926162  0.781825  1
