# generated using pymatgen
data_Hf9TaFeRe3
_symmetry_space_group_name_H-M   'P 1'
_cell_length_a   8.46428400
_cell_length_b   8.64874121
_cell_length_c   8.64874106
_cell_angle_alpha   119.99834472
_cell_angle_beta   90.00000000
_cell_angle_gamma   90.00000000
_symmetry_Int_Tables_number   1
_chemical_formula_structural   Hf9TaFeRe3
_chemical_formula_sum   'Hf18 Ta2 Fe2 Re6'
_cell_volume   548.31976274
_cell_formula_units_Z   2
loop_
 _symmetry_equiv_pos_site_id
 _symmetry_equiv_pos_as_xyz
  1  'x, y, z'
loop_
 _atom_site_type_symbol
 _atom_site_label
 _atom_site_symmetry_multiplicity
 _atom_site_fract_x
 _atom_site_fract_y
 _atom_site_fract_z
 _atom_site_occupancy
  Hf  Hf0  1  0.559908  0.798171  0.596352  1
  Hf  Hf1  1  0.559931  0.798161  0.201839  1
  Hf  Hf2  1  0.559908  0.403648  0.201829  1
  Hf  Hf3  1  0.440092  0.201829  0.403648  1
  Hf  Hf4  1  0.440069  0.201839  0.798161  1
  Hf  Hf5  1  0.440092  0.596352  0.798171  1
  Hf  Hf6  1  0.059908  0.201829  0.403648  1
  Hf  Hf7  1  0.059931  0.201839  0.798161  1
  Hf  Hf8  1  0.059908  0.596352  0.798171  1
  Hf  Hf9  1  0.940092  0.798171  0.596352  1
  Hf  Hf10  1  0.940069  0.798161  0.201839  1
  Hf  Hf11  1  0.940092  0.403648  0.201829  1
  Hf  Hf12  1  0.750000  0.458560  0.917144  1
  Hf  Hf13  1  0.750000  0.458565  0.541435  1
  Hf  Hf14  1  0.750000  0.082856  0.541439  1
  Hf  Hf15  1  0.250000  0.541439  0.082856  1
  Hf  Hf16  1  0.250000  0.541435  0.458565  1
  Hf  Hf17  1  0.250000  0.917144  0.458560  1
  Ta  Ta18  1  0.500000  0.000000  0.000000  1
  Ta  Ta19  1  0.000000  0.000000  0.000000  1
  Fe  Fe20  1  0.750000  0.666642  0.333358  1
  Fe  Fe21  1  0.250000  0.333358  0.666642  1
  Re  Re22  1  0.750000  0.114475  0.228963  1
  Re  Re23  1  0.750000  0.114466  0.885534  1
  Re  Re24  1  0.750000  0.771037  0.885525  1
  Re  Re25  1  0.250000  0.885525  0.771037  1
  Re  Re26  1  0.250000  0.885534  0.114466  1
  Re  Re27  1  0.250000  0.228963  0.114475  1
