# generated using pymatgen
data_PrMnSi2Tc
_symmetry_space_group_name_H-M   'P 1'
_cell_length_a   6.01355252
_cell_length_b   6.01355194
_cell_length_c   6.01355089
_cell_angle_alpha   140.23307493
_cell_angle_beta   140.23306735
_cell_angle_gamma   57.49957676
_symmetry_Int_Tables_number   1
_chemical_formula_structural   PrMnSi2Tc
_chemical_formula_sum   'Pr1 Mn1 Si2 Tc1'
_cell_volume   88.21702799
_cell_formula_units_Z   1
loop_
 _symmetry_equiv_pos_site_id
 _symmetry_equiv_pos_as_xyz
  1  'x, y, z'
loop_
 _atom_site_type_symbol
 _atom_site_label
 _atom_site_symmetry_multiplicity
 _atom_site_fract_x
 _atom_site_fract_y
 _atom_site_fract_z
 _atom_site_occupancy
  Pr  Pr0  1  0.000000  0.000000  0.000000  1
  Mn  Mn1  1  0.250000  0.750000  0.500000  1
  Si  Si2  1  0.624524  0.624524  0.000000  1
  Si  Si3  1  0.375476  0.375476  0.000000  1
  Tc  Tc4  1  0.750000  0.250000  0.500000  1
