# generated using pymatgen
data_Nd4GaSi2Ge
_symmetry_space_group_name_H-M   'P 1'
_cell_length_a   4.02792500
_cell_length_b   4.47496200
_cell_length_c   11.11390400
_cell_angle_alpha   90.00000000
_cell_angle_beta   90.00000000
_cell_angle_gamma   90.00000000
_symmetry_Int_Tables_number   1
_chemical_formula_structural   Nd4GaSi2Ge
_chemical_formula_sum   'Nd4 Ga1 Si2 Ge1'
_cell_volume   200.32602256
_cell_formula_units_Z   1
loop_
 _symmetry_equiv_pos_site_id
 _symmetry_equiv_pos_as_xyz
  1  'x, y, z'
loop_
 _atom_site_type_symbol
 _atom_site_label
 _atom_site_symmetry_multiplicity
 _atom_site_fract_x
 _atom_site_fract_y
 _atom_site_fract_z
 _atom_site_occupancy
  Nd  Nd0  1  0.000000  0.000000  0.363058  1
  Nd  Nd1  1  0.000000  0.500000  0.855954  1
  Nd  Nd2  1  0.500000  0.500000  0.143542  1
  Nd  Nd3  1  0.500000  0.000000  0.637501  1
  Ga  Ga4  1  0.000000  0.000000  0.074315  1
  Si  Si5  1  0.000000  0.500000  0.572162  1
  Si  Si6  1  0.500000  0.500000  0.430587  1
  Ge  Ge7  1  0.500000  0.000000  0.922881  1
