# generated using pymatgen
data_Ho12ZnFe4Sn
_symmetry_space_group_name_H-M   'P 1'
_cell_length_a   8.33461345
_cell_length_b   8.33461356
_cell_length_c   8.33461365
_cell_angle_alpha   111.06627448
_cell_angle_beta   110.71356733
_cell_angle_gamma   106.66982972
_symmetry_Int_Tables_number   1
_chemical_formula_structural   Ho12ZnFe4Sn
_chemical_formula_sum   'Ho12 Zn1 Fe4 Sn1'
_cell_volume   444.89305241
_cell_formula_units_Z   1
loop_
 _symmetry_equiv_pos_site_id
 _symmetry_equiv_pos_as_xyz
  1  'x, y, z'
loop_
 _atom_site_type_symbol
 _atom_site_label
 _atom_site_symmetry_multiplicity
 _atom_site_fract_x
 _atom_site_fract_y
 _atom_site_fract_z
 _atom_site_occupancy
  Ho  Ho0  1  0.429511  0.223849  0.205662  1
  Ho  Ho1  1  0.570489  0.776151  0.794338  1
  Ho  Ho2  1  0.018187  0.223849  0.794338  1
  Ho  Ho3  1  0.981813  0.776151  0.205662  1
  Ho  Ho4  1  0.186673  0.285990  0.472662  1
  Ho  Ho5  1  0.813327  0.714010  0.527338  1
  Ho  Ho6  1  0.186673  0.714010  0.900683  1
  Ho  Ho7  1  0.813327  0.285990  0.099317  1
  Ho  Ho8  1  0.311615  0.612744  0.301130  1
  Ho  Ho9  1  0.688385  0.387256  0.698870  1
  Ho  Ho10  1  0.311615  0.010484  0.698870  1
  Ho  Ho11  1  0.688385  0.989516  0.301130  1
  Zn  Zn12  1  0.000000  0.000000  0.000000  1
  Fe  Fe13  1  0.383854  0.000000  0.383854  1
  Fe  Fe14  1  0.616146  0.000000  0.616146  1
  Fe  Fe15  1  0.108055  0.608055  0.500000  1
  Fe  Fe16  1  0.891945  0.391945  0.500000  1
  Sn  Sn17  1  0.500000  0.500000  0.000000  1
