# generated using pymatgen
data_Nd2SmY3RuI10
_symmetry_space_group_name_H-M   'P 1'
_cell_length_a   7.84890738
_cell_length_b   9.85165346
_cell_length_c   9.89851064
_cell_angle_alpha   107.04567891
_cell_angle_beta   96.42738355
_cell_angle_gamma   104.85932895
_symmetry_Int_Tables_number   1
_chemical_formula_structural   Nd2SmY3RuI10
_chemical_formula_sum   'Nd2 Sm1 Y3 Ru1 I10'
_cell_volume   692.65303217
_cell_formula_units_Z   1
loop_
 _symmetry_equiv_pos_site_id
 _symmetry_equiv_pos_as_xyz
  1  'x, y, z'
loop_
 _atom_site_type_symbol
 _atom_site_label
 _atom_site_symmetry_multiplicity
 _atom_site_fract_x
 _atom_site_fract_y
 _atom_site_fract_z
 _atom_site_occupancy
  Nd  Nd0  1  0.116312  0.042956  0.760640  1
  Nd  Nd1  1  0.882939  0.956568  0.238930  1
  Sm  Sm2  1  0.968258  0.280909  0.082745  1
  Y  Y3  1  0.647443  0.872485  0.831382  1
  Y  Y4  1  0.352714  0.126002  0.168482  1
  Y  Y5  1  0.031027  0.722286  0.917812  1
  Ru  Ru6  1  0.999764  0.000724  0.000136  1
  I  I7  1  0.351574  0.446563  0.271415  1
  I  I8  1  0.654798  0.553672  0.730673  1
  I  I9  1  0.736027  0.910701  0.542552  1
  I  I10  1  0.086264  0.375732  0.820154  1
  I  I11  1  0.915755  0.627157  0.176183  1
  I  I12  1  0.449423  0.816394  0.088104  1
  I  I13  1  0.547409  0.181661  0.910071  1
  I  I14  1  0.776033  0.258825  0.346065  1
  I  I15  1  0.220936  0.738843  0.657248  1
  I  I16  1  0.263322  0.088521  0.457410  1
