# generated using pymatgen
data_Ho6Er3Sc7(In3Co)2
_symmetry_space_group_name_H-M   'P 1'
_cell_length_a   9.92058000
_cell_length_b   9.92057924
_cell_length_c   6.99549800
_cell_angle_alpha   90.00000000
_cell_angle_beta   90.00000000
_cell_angle_gamma   119.99999587
_symmetry_Int_Tables_number   1
_chemical_formula_structural   Ho6Er3Sc7(In3Co)2
_chemical_formula_sum   'Ho6 Er3 Sc7 In6 Co2'
_cell_volume   596.24311966
_cell_formula_units_Z   1
loop_
 _symmetry_equiv_pos_site_id
 _symmetry_equiv_pos_as_xyz
  1  'x, y, z'
loop_
 _atom_site_type_symbol
 _atom_site_label
 _atom_site_symmetry_multiplicity
 _atom_site_fract_x
 _atom_site_fract_y
 _atom_site_fract_z
 _atom_site_occupancy
  Ho  Ho0  1  0.535392  0.070785  0.788323  1
  Ho  Ho1  1  0.929215  0.464608  0.788323  1
  Ho  Ho2  1  0.535392  0.464608  0.788323  1
  Ho  Ho3  1  0.467552  0.935103  0.286101  1
  Ho  Ho4  1  0.064897  0.532448  0.286101  1
  Ho  Ho5  1  0.467552  0.532448  0.286101  1
  Er  Er6  1  0.333333  0.666667  0.680269  1
  Er  Er7  1  0.000000  0.000000  0.781819  1
  Er  Er8  1  0.000000  0.000000  0.283916  1
  Sc  Sc9  1  0.819547  0.639095  0.493306  1
  Sc  Sc10  1  0.360905  0.180453  0.493306  1
  Sc  Sc11  1  0.819547  0.180453  0.493306  1
  Sc  Sc12  1  0.179683  0.359366  0.996986  1
  Sc  Sc13  1  0.640634  0.820317  0.996986  1
  Sc  Sc14  1  0.179683  0.820317  0.996986  1
  Sc  Sc15  1  0.666667  0.333333  0.190116  1
  In  In16  1  0.836610  0.673220  0.051286  1
  In  In17  1  0.326780  0.163390  0.051286  1
  In  In18  1  0.836610  0.163390  0.051286  1
  In  In19  1  0.160345  0.320690  0.547392  1
  In  In20  1  0.679310  0.839655  0.547392  1
  In  In21  1  0.160345  0.839655  0.547392  1
  Co  Co22  1  0.666667  0.333333  0.551175  1
  Co  Co23  1  0.333333  0.666667  0.058425  1
