# generated using pymatgen
data_Pr3HoTmSn3
_symmetry_space_group_name_H-M   'P 1'
_cell_length_a   6.69439900
_cell_length_b   9.20069163
_cell_length_c   9.20107100
_cell_angle_alpha   119.99862600
_cell_angle_beta   90.00020234
_cell_angle_gamma   89.99960113
_symmetry_Int_Tables_number   1
_chemical_formula_structural   Pr3HoTmSn3
_chemical_formula_sum   'Pr6 Ho2 Tm2 Sn6'
_cell_volume   490.80287169
_cell_formula_units_Z   2
loop_
 _symmetry_equiv_pos_site_id
 _symmetry_equiv_pos_as_xyz
  1  'x, y, z'
loop_
 _atom_site_type_symbol
 _atom_site_label
 _atom_site_symmetry_multiplicity
 _atom_site_fract_x
 _atom_site_fract_y
 _atom_site_fract_z
 _atom_site_occupancy
  Pr  Pr0  1  0.750076  0.241815  0.000000  1
  Pr  Pr1  1  0.750069  0.758114  0.758145  1
  Pr  Pr2  1  0.750069  0.999968  0.241855  1
  Pr  Pr3  1  0.249928  0.758182  0.000000  1
  Pr  Pr4  1  0.249926  0.241890  0.241857  1
  Pr  Pr5  1  0.249926  0.000034  0.758143  1
  Ho  Ho6  1  0.500003  0.333337  0.666696  1
  Ho  Ho7  1  0.500003  0.666641  0.333304  1
  Tm  Tm8  1  0.999999  0.666659  0.333303  1
  Tm  Tm9  1  0.999999  0.333356  0.666697  1
  Sn  Sn10  1  0.750197  0.600479  0.000000  1
  Sn  Sn11  1  0.750198  0.399472  0.399466  1
  Sn  Sn12  1  0.750198  0.000006  0.600534  1
  Sn  Sn13  1  0.249802  0.399522  0.000000  1
  Sn  Sn14  1  0.249803  0.600530  0.600534  1
  Sn  Sn15  1  0.249803  0.999997  0.399466  1
