# generated using pymatgen
data_Y6Ho2Sc12Si15Bi
_symmetry_space_group_name_H-M   'P 1'
_cell_length_a   7.17467984
_cell_length_b   7.41789402
_cell_length_c   14.07277504
_cell_angle_alpha   90.05954527
_cell_angle_beta   88.69566016
_cell_angle_gamma   90.18240817
_symmetry_Int_Tables_number   1
_chemical_formula_structural   Y6Ho2Sc12Si15Bi
_chemical_formula_sum   'Y6 Ho2 Sc12 Si15 Bi1'
_cell_volume   748.76915616
_cell_formula_units_Z   1
loop_
 _symmetry_equiv_pos_site_id
 _symmetry_equiv_pos_as_xyz
  1  'x, y, z'
loop_
 _atom_site_type_symbol
 _atom_site_label
 _atom_site_symmetry_multiplicity
 _atom_site_fract_x
 _atom_site_fract_y
 _atom_site_fract_z
 _atom_site_occupancy
  Y  Y0  1  0.011940  0.176601  0.096647  1
  Y  Y1  1  0.988401  0.824787  0.904105  1
  Y  Y2  1  0.489202  0.675678  0.904064  1
  Y  Y3  1  0.993529  0.831354  0.598377  1
  Y  Y4  1  0.511343  0.324420  0.097335  1
  Y  Y5  1  0.999231  0.170147  0.399024  1
  Ho  Ho6  1  0.511342  0.317095  0.397422  1
  Ho  Ho7  1  0.512035  0.686526  0.601232  1
  Sc  Sc8  1  0.164965  0.500770  0.756119  1
  Sc  Sc9  1  0.834260  0.499257  0.251490  1
  Sc  Sc10  1  0.334589  0.001496  0.250358  1
  Sc  Sc11  1  0.667334  0.998977  0.751186  1
  Sc  Sc12  1  0.349715  0.155854  0.631736  1
  Sc  Sc13  1  0.657877  0.827340  0.372541  1
  Sc  Sc14  1  0.153944  0.682966  0.368874  1
  Sc  Sc15  1  0.666989  0.822730  0.123925  1
  Sc  Sc16  1  0.826841  0.326495  0.625947  1
  Sc  Sc17  1  0.331070  0.175498  0.875400  1
  Sc  Sc18  1  0.831800  0.323599  0.875544  1
  Sc  Sc19  1  0.168062  0.676612  0.124998  1
  Si  Si20  1  0.037242  0.119650  0.751220  1
  Si  Si21  1  0.960132  0.884694  0.245961  1
  Si  Si22  1  0.460592  0.616522  0.247648  1
  Si  Si23  1  0.536325  0.384369  0.752830  1
  Si  Si24  1  0.289896  0.867328  0.752938  1
  Si  Si25  1  0.710251  0.126376  0.246558  1
  Si  Si26  1  0.209529  0.373565  0.248941  1
  Si  Si27  1  0.793569  0.628288  0.751726  1
  Si  Si28  1  0.811636  0.541224  0.456454  1
  Si  Si29  1  0.329611  0.963078  0.459766  1
  Si  Si30  1  0.843740  0.534435  0.039870  1
  Si  Si31  1  0.671745  0.039021  0.538588  1
  Si  Si32  1  0.155516  0.465228  0.961412  1
  Si  Si33  1  0.655375  0.034827  0.960329  1
  Si  Si34  1  0.343323  0.965952  0.040175  1
  Bi  Bi35  1  0.187051  0.457238  0.539262  1
