# generated using pymatgen
data_YGe3AsRh6
_symmetry_space_group_name_H-M   'P 1'
_cell_length_a   7.20643700
_cell_length_b   7.25239535
_cell_length_c   3.84806700
_cell_angle_alpha   90.00000000
_cell_angle_beta   90.00000000
_cell_angle_gamma   119.79059000
_symmetry_Int_Tables_number   1
_chemical_formula_structural   YGe3AsRh6
_chemical_formula_sum   'Y1 Ge3 As1 Rh6'
_cell_volume   174.53715313
_cell_formula_units_Z   1
loop_
 _symmetry_equiv_pos_site_id
 _symmetry_equiv_pos_as_xyz
  1  'x, y, z'
loop_
 _atom_site_type_symbol
 _atom_site_label
 _atom_site_symmetry_multiplicity
 _atom_site_fract_x
 _atom_site_fract_y
 _atom_site_fract_z
 _atom_site_occupancy
  Y  Y0  1  0.001405  0.002810  0.000000  1
  Ge  Ge1  1  0.803688  0.193006  0.500000  1
  Ge  Ge2  1  0.389318  0.193006  0.500000  1
  Ge  Ge3  1  0.333895  0.667790  0.000000  1
  As  As4  1  0.806323  0.612646  0.500000  1
  Rh  Rh5  1  0.197261  0.800303  0.500000  1
  Rh  Rh6  1  0.198851  0.397703  0.500000  1
  Rh  Rh7  1  0.534143  0.068287  0.000000  1
  Rh  Rh8  1  0.931564  0.465407  0.000000  1
  Rh  Rh9  1  0.533844  0.465407  0.000000  1
  Rh  Rh10  1  0.603042  0.800303  0.500000  1
