# generated using pymatgen
data_Tb10In8AgPd3
_symmetry_space_group_name_H-M   'P 1'
_cell_length_a   8.16511900
_cell_length_b   18.39388800
_cell_length_c   3.67840500
_cell_angle_alpha   90.00000000
_cell_angle_beta   90.00000000
_cell_angle_gamma   90.00181272
_symmetry_Int_Tables_number   1
_chemical_formula_structural   Tb10In8AgPd3
_chemical_formula_sum   'Tb10 In8 Ag1 Pd3'
_cell_volume   552.45333612
_cell_formula_units_Z   1
loop_
 _symmetry_equiv_pos_site_id
 _symmetry_equiv_pos_as_xyz
  1  'x, y, z'
loop_
 _atom_site_type_symbol
 _atom_site_label
 _atom_site_symmetry_multiplicity
 _atom_site_fract_x
 _atom_site_fract_y
 _atom_site_fract_z
 _atom_site_occupancy
  Tb  Tb0  1  0.499034  0.500997  0.000000  1
  Tb  Tb1  1  0.000403  0.998945  0.000000  1
  Tb  Tb2  1  0.755294  0.283253  0.000000  1
  Tb  Tb3  1  0.255997  0.720430  0.000000  1
  Tb  Tb4  1  0.756316  0.779384  0.000000  1
  Tb  Tb5  1  0.228121  0.220012  0.000000  1
  Tb  Tb6  1  0.623063  0.077544  0.000000  1
  Tb  Tb7  1  0.381297  0.915702  0.000000  1
  Tb  Tb8  1  0.881782  0.583890  0.000000  1
  Tb  Tb9  1  0.119497  0.418117  0.000000  1
  In  In10  1  0.708891  0.929957  0.500000  1
  In  In11  1  0.292040  0.067545  0.500000  1
  In  In12  1  0.792156  0.433112  0.500000  1
  In  In13  1  0.207704  0.568908  0.500000  1
  In  In14  1  0.576987  0.649678  0.500000  1
  In  In15  1  0.422289  0.351711  0.500000  1
  In  In16  1  0.921293  0.148005  0.500000  1
  In  In17  1  0.076166  0.850129  0.500000  1
  Ag  Ag18  1  0.525929  0.197763  0.500000  1
  Pd  Pd19  1  0.473859  0.803991  0.500000  1
  Pd  Pd20  1  0.974040  0.695924  0.500000  1
  Pd  Pd21  1  0.027840  0.305003  0.500000  1
