# generated using pymatgen
data_Sb3TePtRh
_symmetry_space_group_name_H-M   'P 1'
_cell_length_a   6.52926754
_cell_length_b   6.53592190
_cell_length_c   6.52601400
_cell_angle_alpha   90.00000000
_cell_angle_beta   90.00000000
_cell_angle_gamma   90.75830258
_symmetry_Int_Tables_number   1
_chemical_formula_structural   Sb3TePtRh
_chemical_formula_sum   'Sb6 Te2 Pt2 Rh2'
_cell_volume   278.47183855
_cell_formula_units_Z   2
loop_
 _symmetry_equiv_pos_site_id
 _symmetry_equiv_pos_as_xyz
  1  'x, y, z'
loop_
 _atom_site_type_symbol
 _atom_site_label
 _atom_site_symmetry_multiplicity
 _atom_site_fract_x
 _atom_site_fract_y
 _atom_site_fract_z
 _atom_site_occupancy
  Sb  Sb0  1  0.869320  0.379538  0.129119  1
  Sb  Sb1  1  0.630680  0.620462  0.629119  1
  Sb  Sb2  1  0.373046  0.380104  0.372243  1
  Sb  Sb3  1  0.126954  0.619896  0.872243  1
  Sb  Sb4  1  0.876601  0.134709  0.623599  1
  Sb  Sb5  1  0.623399  0.865291  0.123599  1
  Te  Te6  1  0.379189  0.133464  0.877276  1
  Te  Te7  1  0.120811  0.866536  0.377276  1
  Pt  Pt8  1  0.504811  0.000167  0.497619  1
  Pt  Pt9  1  0.995189  0.999833  0.997619  1
  Rh  Rh10  1  0.000126  0.497143  0.500144  1
  Rh  Rh11  1  0.499874  0.502857  0.000144  1
