# generated using pymatgen
data_DyHoCoOs3
_symmetry_space_group_name_H-M   'P 1'
_cell_length_a   5.30990035
_cell_length_b   5.30990088
_cell_length_c   5.30990065
_cell_angle_alpha   59.43729692
_cell_angle_beta   59.43729019
_cell_angle_gamma   59.43729967
_symmetry_Int_Tables_number   1
_chemical_formula_structural   DyHoCoOs3
_chemical_formula_sum   'Dy1 Ho1 Co1 Os3'
_cell_volume   104.50771028
_cell_formula_units_Z   1
loop_
 _symmetry_equiv_pos_site_id
 _symmetry_equiv_pos_as_xyz
  1  'x, y, z'
loop_
 _atom_site_type_symbol
 _atom_site_label
 _atom_site_symmetry_multiplicity
 _atom_site_fract_x
 _atom_site_fract_y
 _atom_site_fract_z
 _atom_site_occupancy
  Dy  Dy0  1  0.000754  0.000754  0.000754  1
  Ho  Ho1  1  0.249140  0.249140  0.249140  1
  Co  Co2  1  0.624977  0.624977  0.624977  1
  Os  Os3  1  0.625020  0.625020  0.125091  1
  Os  Os4  1  0.625020  0.125091  0.625020  1
  Os  Os5  1  0.125091  0.625020  0.625020  1
