# generated using pymatgen
data_PrNd4Mn2O12
_symmetry_space_group_name_H-M   'P 1'
_cell_length_a   7.05367673
_cell_length_b   7.05367626
_cell_length_c   7.57549065
_cell_angle_alpha   74.52714083
_cell_angle_beta   74.52713929
_cell_angle_gamma   49.66992723
_symmetry_Int_Tables_number   1
_chemical_formula_structural   PrNd4Mn2O12
_chemical_formula_sum   'Pr1 Nd4 Mn2 O12'
_cell_volume   274.63643407
_cell_formula_units_Z   1
loop_
 _symmetry_equiv_pos_site_id
 _symmetry_equiv_pos_as_xyz
  1  'x, y, z'
loop_
 _atom_site_type_symbol
 _atom_site_label
 _atom_site_symmetry_multiplicity
 _atom_site_fract_x
 _atom_site_fract_y
 _atom_site_fract_z
 _atom_site_occupancy
  Pr  Pr0  1  0.000000  0.000000  0.500000  1
  Nd  Nd1  1  0.307890  0.307890  0.354494  1
  Nd  Nd2  1  0.692110  0.692110  0.645506  1
  Nd  Nd3  1  0.693651  0.693651  0.162247  1
  Nd  Nd4  1  0.306349  0.306349  0.837753  1
  Mn  Mn5  1  0.755139  0.244861  0.000000  1
  Mn  Mn6  1  0.244861  0.755139  0.000000  1
  O  O7  1  0.095423  0.594984  0.578015  1
  O  O8  1  0.999175  0.999175  0.170256  1
  O  O9  1  0.405016  0.904577  0.421985  1
  O  O10  1  0.500453  0.500453  0.170352  1
  O  O11  1  0.101166  0.585345  0.077029  1
  O  O12  1  0.904577  0.405016  0.421985  1
  O  O13  1  0.000825  0.000825  0.829744  1
  O  O14  1  0.594984  0.095422  0.578015  1
  O  O15  1  0.499547  0.499547  0.829648  1
  O  O16  1  0.585345  0.101166  0.077029  1
  O  O17  1  0.414655  0.898834  0.922971  1
  O  O18  1  0.898834  0.414655  0.922971  1
