# generated using pymatgen
data_Li4RuO5
_symmetry_space_group_name_H-M   'P 1'
_cell_length_a   5.37653236
_cell_length_b   5.37653236
_cell_length_c   7.97708512
_cell_angle_alpha   82.94085404
_cell_angle_beta   82.94086635
_cell_angle_gamma   67.09855919
_symmetry_Int_Tables_number   1
_chemical_formula_structural   Li4RuO5
_chemical_formula_sum   'Li8 Ru2 O10'
_cell_volume   210.09582697
_cell_formula_units_Z   2
loop_
 _symmetry_equiv_pos_site_id
 _symmetry_equiv_pos_as_xyz
  1  'x, y, z'
loop_
 _atom_site_type_symbol
 _atom_site_label
 _atom_site_symmetry_multiplicity
 _atom_site_fract_x
 _atom_site_fract_y
 _atom_site_fract_z
 _atom_site_occupancy
  Li  Li0  1  0.635855  0.962047  0.652946  1
  Li  Li1  1  0.962047  0.635855  0.152946  1
  Li  Li2  1  0.785035  0.443651  0.553404  1
  Li  Li3  1  0.443651  0.785035  0.053404  1
  Li  Li4  1  0.556349  0.214965  0.946596  1
  Li  Li5  1  0.214965  0.556349  0.446596  1
  Li  Li6  1  0.037953  0.364145  0.847054  1
  Li  Li7  1  0.364145  0.037953  0.347054  1
  Ru  Ru8  1  0.168106  0.831893  0.750000  1
  Ru  Ru9  1  0.831894  0.168107  0.250000  1
  O  O10  1  0.414197  0.767940  0.565256  1
  O  O11  1  0.767940  0.414197  0.065256  1
  O  O12  1  0.859682  0.140318  0.750000  1
  O  O13  1  0.140318  0.859682  0.250000  1
  O  O14  1  0.232060  0.585803  0.934744  1
  O  O15  1  0.585803  0.232060  0.434744  1
  O  O16  1  0.976334  0.642739  0.655276  1
  O  O17  1  0.642739  0.976334  0.155276  1
  O  O18  1  0.357261  0.023666  0.844724  1
  O  O19  1  0.023666  0.357261  0.344724  1
