# generated using pymatgen
data_LaPr3In4
_symmetry_space_group_name_H-M   'P 1'
_cell_length_a   6.77640390
_cell_length_b   6.77640391
_cell_length_c   11.22605300
_cell_angle_alpha   90.00000000
_cell_angle_beta   90.00000000
_cell_angle_gamma   110.10588981
_symmetry_Int_Tables_number   1
_chemical_formula_structural   LaPr3In4
_chemical_formula_sum   'La2 Pr6 In8'
_cell_volume   484.08151424
_cell_formula_units_Z   2
loop_
 _symmetry_equiv_pos_site_id
 _symmetry_equiv_pos_as_xyz
  1  'x, y, z'
loop_
 _atom_site_type_symbol
 _atom_site_label
 _atom_site_symmetry_multiplicity
 _atom_site_fract_x
 _atom_site_fract_y
 _atom_site_fract_z
 _atom_site_occupancy
  La  La0  1  0.992032  0.992032  0.250000  1
  La  La1  1  0.007968  0.007968  0.750000  1
  Pr  Pr2  1  0.506766  0.506766  0.250000  1
  Pr  Pr3  1  0.493234  0.493234  0.750000  1
  Pr  Pr4  1  0.248389  0.751611  0.500000  1
  Pr  Pr5  1  0.248389  0.751611  0.000000  1
  Pr  Pr6  1  0.751611  0.248389  0.500000  1
  Pr  Pr7  1  0.751611  0.248389  0.000000  1
  In  In8  1  0.254305  0.254305  0.004876  1
  In  In9  1  0.745695  0.745695  0.995124  1
  In  In10  1  0.254305  0.254305  0.495124  1
  In  In11  1  0.745695  0.745695  0.504876  1
  In  In12  1  0.495332  0.004284  0.250000  1
  In  In13  1  0.995716  0.504668  0.750000  1
  In  In14  1  0.504668  0.995716  0.750000  1
  In  In15  1  0.004284  0.495332  0.250000  1
