# generated using pymatgen
data_Tb3MgZn2PdPt2
_symmetry_space_group_name_H-M   'P 1'
_cell_length_a   7.42270930
_cell_length_b   7.46397342
_cell_length_c   3.87228300
_cell_angle_alpha   90.00000000
_cell_angle_beta   90.00000000
_cell_angle_gamma   120.18406095
_symmetry_Int_Tables_number   1
_chemical_formula_structural   Tb3MgZn2PdPt2
_chemical_formula_sum   'Tb3 Mg1 Zn2 Pd1 Pt2'
_cell_volume   185.44783663
_cell_formula_units_Z   1
loop_
 _symmetry_equiv_pos_site_id
 _symmetry_equiv_pos_as_xyz
  1  'x, y, z'
loop_
 _atom_site_type_symbol
 _atom_site_label
 _atom_site_symmetry_multiplicity
 _atom_site_fract_x
 _atom_site_fract_y
 _atom_site_fract_z
 _atom_site_occupancy
  Tb  Tb0  1  0.000000  0.393117  0.000000  1
  Tb  Tb1  1  0.574261  0.585400  0.000000  1
  Tb  Tb2  1  0.425739  0.011138  0.000000  1
  Mg  Mg3  1  0.000000  0.756032  0.500000  1
  Zn  Zn4  1  0.253763  0.248845  0.500000  1
  Zn  Zn5  1  0.746237  0.995082  0.500000  1
  Pd  Pd6  1  0.000000  0.006304  0.000000  1
  Pt  Pt7  1  0.327872  0.665977  0.500000  1
  Pt  Pt8  1  0.672128  0.338105  0.500000  1
