# generated using pymatgen
data_Zr4In2PdPt2Rh
_symmetry_space_group_name_H-M   'P 1'
_cell_length_a   7.59811184
_cell_length_b   7.59974226
_cell_length_c   6.81656479
_cell_angle_alpha   90.21536098
_cell_angle_beta   89.99985853
_cell_angle_gamma   89.91484891
_symmetry_Int_Tables_number   1
_chemical_formula_structural   Zr4In2PdPt2Rh
_chemical_formula_sum   'Zr8 In4 Pd2 Pt4 Rh2'
_cell_volume   393.61040013
_cell_formula_units_Z   2
loop_
 _symmetry_equiv_pos_site_id
 _symmetry_equiv_pos_as_xyz
  1  'x, y, z'
loop_
 _atom_site_type_symbol
 _atom_site_label
 _atom_site_symmetry_multiplicity
 _atom_site_fract_x
 _atom_site_fract_y
 _atom_site_fract_z
 _atom_site_occupancy
  Zr  Zr0  1  0.654313  0.654487  0.502813  1
  Zr  Zr1  1  0.814469  0.186040  0.497575  1
  Zr  Zr2  1  0.678338  0.678680  0.998694  1
  Zr  Zr3  1  0.840864  0.159177  0.002181  1
  Zr  Zr4  1  0.185531  0.813960  0.502425  1
  Zr  Zr5  1  0.321662  0.321320  0.001306  1
  Zr  Zr6  1  0.159136  0.840823  0.997819  1
  Zr  Zr7  1  0.345687  0.345513  0.497187  1
  In  In8  1  0.994425  0.500820  0.249901  1
  In  In9  1  0.498273  0.995821  0.750128  1
  In  In10  1  0.501727  0.004179  0.249872  1
  In  In11  1  0.005575  0.499180  0.750099  1
  Pd  Pd12  1  0.869674  0.868980  0.280068  1
  Pd  Pd13  1  0.130326  0.131020  0.719932  1
  Pt  Pt14  1  0.872310  0.873490  0.726131  1
  Pt  Pt15  1  0.628890  0.370307  0.776206  1
  Pt  Pt16  1  0.371110  0.629693  0.223794  1
  Pt  Pt17  1  0.127690  0.126510  0.273869  1
  Rh  Rh18  1  0.630326  0.369276  0.227142  1
  Rh  Rh19  1  0.369674  0.630724  0.772858  1
