# generated using pymatgen
data_SrSi4(IrRh)3
_symmetry_space_group_name_H-M   'P 1'
_cell_length_a   7.03752400
_cell_length_b   7.03752351
_cell_length_c   3.86625900
_cell_angle_alpha   90.00000000
_cell_angle_beta   90.00000000
_cell_angle_gamma   120.00000229
_symmetry_Int_Tables_number   1
_chemical_formula_structural   SrSi4(IrRh)3
_chemical_formula_sum   'Sr1 Si4 Ir3 Rh3'
_cell_volume   165.82931752
_cell_formula_units_Z   1
loop_
 _symmetry_equiv_pos_site_id
 _symmetry_equiv_pos_as_xyz
  1  'x, y, z'
loop_
 _atom_site_type_symbol
 _atom_site_label
 _atom_site_symmetry_multiplicity
 _atom_site_fract_x
 _atom_site_fract_y
 _atom_site_fract_z
 _atom_site_occupancy
  Sr  Sr0  1  0.000000  0.000000  0.000000  1
  Si  Si1  1  0.333334  0.666667  0.000000  1
  Si  Si2  1  0.404900  0.202450  0.500000  1
  Si  Si3  1  0.797551  0.202450  0.500000  1
  Si  Si4  1  0.797551  0.595101  0.500000  1
  Ir  Ir5  1  0.532307  0.064612  0.000000  1
  Ir  Ir6  1  0.532306  0.467694  0.000000  1
  Ir  Ir7  1  0.935388  0.467694  0.000000  1
  Rh  Rh8  1  0.199245  0.398490  0.500000  1
  Rh  Rh9  1  0.199244  0.800755  0.500000  1
  Rh  Rh10  1  0.601510  0.800755  0.500000  1
