# generated using pymatgen
data_CeDyAl20TcRu3
_symmetry_space_group_name_H-M   'P 1'
_cell_length_a   6.89037250
_cell_length_b   6.89126682
_cell_length_c   9.19054268
_cell_angle_alpha   90.23425081
_cell_angle_beta   90.09467562
_cell_angle_gamma   96.92022597
_symmetry_Int_Tables_number   1
_chemical_formula_structural   CeDyAl20TcRu3
_chemical_formula_sum   'Ce1 Dy1 Al20 Tc1 Ru3'
_cell_volume   433.21432247
_cell_formula_units_Z   1
loop_
 _symmetry_equiv_pos_site_id
 _symmetry_equiv_pos_as_xyz
  1  'x, y, z'
loop_
 _atom_site_type_symbol
 _atom_site_label
 _atom_site_symmetry_multiplicity
 _atom_site_fract_x
 _atom_site_fract_y
 _atom_site_fract_z
 _atom_site_occupancy
  Ce  Ce0  1  0.122528  0.872415  0.248853  1
  Dy  Dy1  1  0.876375  0.128293  0.750981  1
  Al  Al2  1  0.589594  0.861363  0.250099  1
  Al  Al3  1  0.779040  0.519621  0.249564  1
  Al  Al4  1  0.158754  0.841446  0.899456  1
  Al  Al5  1  0.412231  0.138880  0.749954  1
  Al  Al6  1  0.623500  0.377189  0.950485  1
  Al  Al7  1  0.840548  0.158297  0.400237  1
  Al  Al8  1  0.772762  0.773918  0.999054  1
  Al  Al9  1  0.861117  0.588540  0.749753  1
  Al  Al10  1  0.840723  0.158825  0.099828  1
  Al  Al11  1  0.219850  0.478668  0.750646  1
  Al  Al12  1  0.159157  0.842153  0.600140  1
  Al  Al13  1  0.773655  0.774269  0.500559  1
  Al  Al14  1  0.479340  0.219668  0.251152  1
  Al  Al15  1  0.622562  0.377064  0.549907  1
  Al  Al16  1  0.225846  0.226313  0.500983  1
  Al  Al17  1  0.377857  0.622576  0.448892  1
  Al  Al18  1  0.138968  0.409571  0.250441  1
  Al  Al19  1  0.522225  0.781384  0.748874  1
  Al  Al20  1  0.377171  0.622070  0.050315  1
  Al  Al21  1  0.226605  0.226643  0.999055  1
  Tc  Tc22  1  0.000287  0.500756  0.999953  1
  Ru  Ru23  1  0.499432  0.999796  0.999510  1
  Ru  Ru24  1  0.499708  0.999904  0.500716  1
  Ru  Ru25  1  0.000165  0.500378  0.500592  1
