# generated using pymatgen
data_Li3Tb2Pa2ZnRh4
_symmetry_space_group_name_H-M   'P 1'
_cell_length_a   3.78964900
_cell_length_b   7.14840204
_cell_length_c   8.53773851
_cell_angle_alpha   93.12771813
_cell_angle_beta   90.00000000
_cell_angle_gamma   90.00000000
_symmetry_Int_Tables_number   1
_chemical_formula_structural   Li3Tb2Pa2ZnRh4
_chemical_formula_sum   'Li3 Tb2 Pa2 Zn1 Rh4'
_cell_volume   230.94225135
_cell_formula_units_Z   1
loop_
 _symmetry_equiv_pos_site_id
 _symmetry_equiv_pos_as_xyz
  1  'x, y, z'
loop_
 _atom_site_type_symbol
 _atom_site_label
 _atom_site_symmetry_multiplicity
 _atom_site_fract_x
 _atom_site_fract_y
 _atom_site_fract_z
 _atom_site_occupancy
  Li  Li0  1  0.250000  0.121189  0.941283  1
  Li  Li1  1  0.750000  0.879158  0.057314  1
  Li  Li2  1  0.250000  0.619947  0.552466  1
  Tb  Tb3  1  0.250000  0.058877  0.319935  1
  Tb  Tb4  1  0.750000  0.945096  0.681042  1
  Pa  Pa5  1  0.250000  0.546195  0.192566  1
  Pa  Pa6  1  0.750000  0.452471  0.808332  1
  Zn  Zn7  1  0.750000  0.378518  0.445480  1
  Rh  Rh8  1  0.750000  0.744360  0.356993  1
  Rh  Rh9  1  0.250000  0.256307  0.642820  1
  Rh  Rh10  1  0.750000  0.289565  0.120173  1
  Rh  Rh11  1  0.250000  0.708318  0.881596  1
