# generated using pymatgen
data_Hf(Zr3P2)2
_symmetry_space_group_name_H-M   'P 1'
_cell_length_a   8.13626651
_cell_length_b   8.13626627
_cell_length_c   14.80411981
_cell_angle_alpha   75.38413739
_cell_angle_beta   75.38413710
_cell_angle_gamma   25.71245676
_symmetry_Int_Tables_number   1
_chemical_formula_structural   Hf(Zr3P2)2
_chemical_formula_sum   'Hf2 Zr12 P8'
_cell_volume   410.69600499
_cell_formula_units_Z   2
loop_
 _symmetry_equiv_pos_site_id
 _symmetry_equiv_pos_as_xyz
  1  'x, y, z'
loop_
 _atom_site_type_symbol
 _atom_site_label
 _atom_site_symmetry_multiplicity
 _atom_site_fract_x
 _atom_site_fract_y
 _atom_site_fract_z
 _atom_site_occupancy
  Hf  Hf0  1  0.500000  0.500000  0.500000  1
  Hf  Hf1  1  0.000000  0.000000  0.000000  1
  Zr  Zr2  1  0.659481  0.659481  0.028891  1
  Zr  Zr3  1  0.340519  0.340519  0.971109  1
  Zr  Zr4  1  0.996094  0.996094  0.667462  1
  Zr  Zr5  1  0.003906  0.003906  0.332538  1
  Zr  Zr6  1  0.824941  0.824941  0.542135  1
  Zr  Zr7  1  0.175059  0.175059  0.457865  1
  Zr  Zr8  1  0.204943  0.204943  0.203415  1
  Zr  Zr9  1  0.795057  0.795057  0.796585  1
  Zr  Zr10  1  0.195737  0.195737  0.689186  1
  Zr  Zr11  1  0.804263  0.804263  0.310814  1
  Zr  Zr12  1  0.431869  0.431869  0.167558  1
  Zr  Zr13  1  0.568131  0.568131  0.832442  1
  P  P14  1  0.062973  0.062973  0.146552  1
  P  P15  1  0.937027  0.937027  0.853448  1
  P  P16  1  0.370202  0.370202  0.659330  1
  P  P17  1  0.629798  0.629798  0.340670  1
  P  P18  1  0.374476  0.374476  0.399384  1
  P  P19  1  0.625524  0.625524  0.600616  1
  P  P20  1  0.176184  0.176184  0.888524  1
  P  P21  1  0.823816  0.823816  0.111476  1
