# generated using pymatgen
data_TbNdPa(Co3P2)3
_symmetry_space_group_name_H-M   'P 1'
_cell_length_a   3.72826900
_cell_length_b   10.53331300
_cell_length_c   12.18242500
_cell_angle_alpha   90.00000000
_cell_angle_beta   90.00000000
_cell_angle_gamma   90.00000000
_symmetry_Int_Tables_number   1
_chemical_formula_structural   TbNdPa(Co3P2)3
_chemical_formula_sum   'Tb2 Nd2 Pa2 Co18 P12'
_cell_volume   478.41630851
_cell_formula_units_Z   2
loop_
 _symmetry_equiv_pos_site_id
 _symmetry_equiv_pos_as_xyz
  1  'x, y, z'
loop_
 _atom_site_type_symbol
 _atom_site_label
 _atom_site_symmetry_multiplicity
 _atom_site_fract_x
 _atom_site_fract_y
 _atom_site_fract_z
 _atom_site_occupancy
  Tb  Tb0  1  0.000000  0.685033  0.794124  1
  Tb  Tb1  1  0.000000  0.314967  0.794124  1
  Nd  Nd2  1  0.500000  0.814098  0.205716  1
  Nd  Nd3  1  0.500000  0.185902  0.205716  1
  Pa  Pa4  1  0.000000  0.500000  0.529027  1
  Pa  Pa5  1  0.500000  0.000000  0.473071  1
  Co  Co6  1  0.500000  0.500000  0.158285  1
  Co  Co7  1  0.000000  0.000000  0.841087  1
  Co  Co8  1  0.500000  0.500000  0.695590  1
  Co  Co9  1  0.000000  0.000000  0.307175  1
  Co  Co10  1  0.000000  0.500000  0.981506  1
  Co  Co11  1  0.500000  0.000000  0.012573  1
  Co  Co12  1  0.500000  0.335283  0.992146  1
  Co  Co13  1  0.500000  0.664717  0.992146  1
  Co  Co14  1  0.000000  0.166977  0.003328  1
  Co  Co15  1  0.000000  0.833023  0.003328  1
  Co  Co16  1  0.500000  0.302921  0.433645  1
  Co  Co17  1  0.500000  0.697079  0.433645  1
  Co  Co18  1  0.000000  0.198402  0.570483  1
  Co  Co19  1  0.000000  0.801598  0.570483  1
  Co  Co20  1  0.500000  0.880702  0.710678  1
  Co  Co21  1  0.500000  0.119298  0.710678  1
  Co  Co22  1  0.000000  0.617622  0.291114  1
  Co  Co23  1  0.000000  0.382378  0.291114  1
  P  P24  1  0.500000  0.500000  0.877499  1
  P  P25  1  0.000000  0.000000  0.116958  1
  P  P26  1  0.500000  0.500000  0.343550  1
  P  P27  1  0.000000  0.000000  0.657359  1
  P  P28  1  0.500000  0.306887  0.617389  1
  P  P29  1  0.500000  0.693113  0.617389  1
  P  P30  1  0.000000  0.194760  0.387431  1
  P  P31  1  0.000000  0.805240  0.387431  1
  P  P32  1  0.500000  0.846750  0.893948  1
  P  P33  1  0.500000  0.153250  0.893948  1
  P  P34  1  0.000000  0.649305  0.103158  1
  P  P35  1  0.000000  0.350695  0.103158  1
