# generated using pymatgen
data_Y5MnAsO12
_symmetry_space_group_name_H-M   'P 1'
_cell_length_a   6.81868952
_cell_length_b   6.81868983
_cell_length_c   7.27172100
_cell_angle_alpha   74.55272768
_cell_angle_beta   74.55272696
_cell_angle_gamma   50.50341501
_symmetry_Int_Tables_number   1
_chemical_formula_structural   Y5MnAsO12
_chemical_formula_sum   'Y5 Mn1 As1 O12'
_cell_volume   249.32569895
_cell_formula_units_Z   1
loop_
 _symmetry_equiv_pos_site_id
 _symmetry_equiv_pos_as_xyz
  1  'x, y, z'
loop_
 _atom_site_type_symbol
 _atom_site_label
 _atom_site_symmetry_multiplicity
 _atom_site_fract_x
 _atom_site_fract_y
 _atom_site_fract_z
 _atom_site_occupancy
  Y  Y0  1  0.695839  0.694964  0.664931  1
  Y  Y1  1  0.701520  0.692055  0.140904  1
  Y  Y2  1  0.005048  0.994952  0.000000  1
  Y  Y3  1  0.307945  0.298480  0.859096  1
  Y  Y4  1  0.305036  0.304161  0.335069  1
  Mn  Mn5  1  0.751581  0.248419  0.500000  1
  As  As6  1  0.238676  0.761324  0.500000  1
  O  O7  1  0.404912  0.899890  0.925148  1
  O  O8  1  0.575945  0.100642  0.578797  1
  O  O9  1  0.899358  0.424055  0.421203  1
  O  O10  1  0.100110  0.595088  0.074852  1
  O  O11  1  0.006393  0.994728  0.324266  1
  O  O12  1  0.490607  0.509878  0.675913  1
  O  O13  1  0.906544  0.400671  0.921292  1
  O  O14  1  0.102800  0.587040  0.577838  1
  O  O15  1  0.412960  0.897200  0.422162  1
  O  O16  1  0.599329  0.093456  0.078708  1
  O  O17  1  0.490122  0.509393  0.324087  1
  O  O18  1  0.005272  0.993607  0.675734  1
