# generated using pymatgen
data_NbAg(PO4)2
_symmetry_space_group_name_H-M   'P 1'
_cell_length_a   5.29551796
_cell_length_b   5.29937051
_cell_length_c   9.33871704
_cell_angle_alpha   103.62139562
_cell_angle_beta   104.48942544
_cell_angle_gamma   60.11110433
_symmetry_Int_Tables_number   1
_chemical_formula_structural   NbAg(PO4)2
_chemical_formula_sum   'Nb1 Ag1 P2 O8'
_cell_volume   218.06179943
_cell_formula_units_Z   1
loop_
 _symmetry_equiv_pos_site_id
 _symmetry_equiv_pos_as_xyz
  1  'x, y, z'
loop_
 _atom_site_type_symbol
 _atom_site_label
 _atom_site_symmetry_multiplicity
 _atom_site_fract_x
 _atom_site_fract_y
 _atom_site_fract_z
 _atom_site_occupancy
  Nb  Nb0  1  0.999987  0.000017  0.999984  1
  Ag  Ag1  1  0.000032  0.999992  0.499988  1
  P  P2  1  0.723124  0.715359  0.193546  1
  P  P3  1  0.276866  0.284698  0.806464  1
  O  O4  1  0.852654  0.849808  0.118228  1
  O  O5  1  0.385064  0.857081  0.136143  1
  O  O6  1  0.851887  0.383014  0.130528  1
  O  O7  1  0.789981  0.759664  0.360950  1
  O  O8  1  0.210037  0.240299  0.639045  1
  O  O9  1  0.148107  0.616982  0.869506  1
  O  O10  1  0.614895  0.142893  0.863871  1
  O  O11  1  0.147371  0.150196  0.881747  1
