# generated using pymatgen
data_YCo2SiC
_symmetry_space_group_name_H-M   'P 1'
_cell_length_a   5.56491380
_cell_length_b   5.56491404
_cell_length_c   6.72094600
_cell_angle_alpha   90.00000000
_cell_angle_beta   90.00000000
_cell_angle_gamma   140.94434699
_symmetry_Int_Tables_number   1
_chemical_formula_structural   YCo2SiC
_chemical_formula_sum   'Y2 Co4 Si2 C2'
_cell_volume   131.14131292
_cell_formula_units_Z   2
loop_
 _symmetry_equiv_pos_site_id
 _symmetry_equiv_pos_as_xyz
  1  'x, y, z'
loop_
 _atom_site_type_symbol
 _atom_site_label
 _atom_site_symmetry_multiplicity
 _atom_site_fract_x
 _atom_site_fract_y
 _atom_site_fract_z
 _atom_site_occupancy
  Y  Y0  1  0.550851  0.449149  0.250000  1
  Y  Y1  1  0.449149  0.550851  0.750000  1
  Co  Co2  1  0.836163  0.163837  0.056437  1
  Co  Co3  1  0.163837  0.836163  0.943563  1
  Co  Co4  1  0.163837  0.836163  0.556437  1
  Co  Co5  1  0.836163  0.163837  0.443563  1
  Si  Si6  1  0.271664  0.728336  0.250000  1
  Si  Si7  1  0.728336  0.271664  0.750000  1
  C  C8  1  0.000000  0.000000  0.000000  1
  C  C9  1  0.000000  0.000000  0.500000  1
