# generated using pymatgen
data_Ba7Na(US6)2
_symmetry_space_group_name_H-M   'P 1'
_cell_length_a   8.60309599
_cell_length_b   8.60309506
_cell_length_c   8.60309600
_cell_angle_alpha   90.47848630
_cell_angle_beta   90.47847959
_cell_angle_gamma   90.47848963
_symmetry_Int_Tables_number   1
_chemical_formula_structural   Ba7Na(US6)2
_chemical_formula_sum   'Ba7 Na1 U2 S12'
_cell_volume   636.67613336
_cell_formula_units_Z   1
loop_
 _symmetry_equiv_pos_site_id
 _symmetry_equiv_pos_as_xyz
  1  'x, y, z'
loop_
 _atom_site_type_symbol
 _atom_site_label
 _atom_site_symmetry_multiplicity
 _atom_site_fract_x
 _atom_site_fract_y
 _atom_site_fract_z
 _atom_site_occupancy
  Ba  Ba0  1  0.879223  0.620777  0.250000  1
  Ba  Ba1  1  0.250000  0.879223  0.620777  1
  Ba  Ba2  1  0.620777  0.250000  0.879223  1
  Ba  Ba3  1  0.750000  0.122902  0.377098  1
  Ba  Ba4  1  0.377098  0.750000  0.122902  1
  Ba  Ba5  1  0.122902  0.377098  0.750000  1
  Ba  Ba6  1  0.750000  0.750000  0.750000  1
  Na  Na7  1  0.250000  0.250000  0.250000  1
  U  U8  1  0.492030  0.492030  0.492030  1
  U  U9  1  0.007970  0.007970  0.007970  1
  S  S10  1  0.202911  0.554911  0.418931  1
  S  S11  1  0.418931  0.202911  0.554911  1
  S  S12  1  0.554911  0.418931  0.202911  1
  S  S13  1  0.924723  0.061074  0.710596  1
  S  S14  1  0.710596  0.924723  0.061074  1
  S  S15  1  0.061074  0.710596  0.924723  1
  S  S16  1  0.789404  0.438926  0.575277  1
  S  S17  1  0.575277  0.789404  0.438926  1
  S  S18  1  0.438926  0.575277  0.789404  1
  S  S19  1  0.081069  0.945089  0.297089  1
  S  S20  1  0.297089  0.081069  0.945089  1
  S  S21  1  0.945089  0.297089  0.081069  1
