# generated using pymatgen
data_Th5Mg3(Ni4P3)4
_symmetry_space_group_name_H-M   'P 1'
_cell_length_a   12.38908000
_cell_length_b   12.38908136
_cell_length_c   3.89861600
_cell_angle_alpha   90.00000000
_cell_angle_beta   90.00000000
_cell_angle_gamma   120.00000171
_symmetry_Int_Tables_number   1
_chemical_formula_structural   Th5Mg3(Ni4P3)4
_chemical_formula_sum   'Th5 Mg3 Ni16 P12'
_cell_volume   518.22605846
_cell_formula_units_Z   1
loop_
 _symmetry_equiv_pos_site_id
 _symmetry_equiv_pos_as_xyz
  1  'x, y, z'
loop_
 _atom_site_type_symbol
 _atom_site_label
 _atom_site_symmetry_multiplicity
 _atom_site_fract_x
 _atom_site_fract_y
 _atom_site_fract_z
 _atom_site_occupancy
  Th  Th0  1  0.189074  0.189074  0.500000  1
  Th  Th1  1  0.810926  0.000000  0.500000  1
  Th  Th2  1  0.000000  0.810926  0.500000  1
  Th  Th3  1  0.333333  0.666667  0.000000  1
  Th  Th4  1  0.666667  0.333333  0.000000  1
  Mg  Mg5  1  0.569798  0.569798  0.000000  1
  Mg  Mg6  1  0.430202  0.000000  0.000000  1
  Mg  Mg7  1  0.000000  0.430202  0.000000  1
  Ni  Ni8  1  0.721305  0.721305  0.500000  1
  Ni  Ni9  1  0.278695  0.000000  0.500000  1
  Ni  Ni10  1  0.000000  0.278695  0.500000  1
  Ni  Ni11  1  0.187305  0.380528  0.000000  1
  Ni  Ni12  1  0.619472  0.806777  0.000000  1
  Ni  Ni13  1  0.193223  0.812695  0.000000  1
  Ni  Ni14  1  0.806777  0.619472  0.000000  1
  Ni  Ni15  1  0.812695  0.193223  0.000000  1
  Ni  Ni16  1  0.380528  0.187305  0.000000  1
  Ni  Ni17  1  0.364565  0.485133  0.500000  1
  Ni  Ni18  1  0.514867  0.879433  0.500000  1
  Ni  Ni19  1  0.120567  0.635435  0.500000  1
  Ni  Ni20  1  0.879433  0.514867  0.500000  1
  Ni  Ni21  1  0.635435  0.120567  0.500000  1
  Ni  Ni22  1  0.485133  0.364565  0.500000  1
  Ni  Ni23  1  0.000000  0.000000  0.000000  1
  P  P24  1  0.818678  0.818678  0.000000  1
  P  P25  1  0.181322  0.000000  0.000000  1
  P  P26  1  0.000000  0.181322  0.000000  1
  P  P27  1  0.170499  0.471834  0.500000  1
  P  P28  1  0.528166  0.698664  0.500000  1
  P  P29  1  0.301336  0.829501  0.500000  1
  P  P30  1  0.698664  0.528166  0.500000  1
  P  P31  1  0.829501  0.301336  0.500000  1
  P  P32  1  0.471834  0.170499  0.500000  1
  P  P33  1  0.367953  0.367953  0.000000  1
  P  P34  1  0.632047  0.000000  0.000000  1
  P  P35  1  0.000000  0.632047  0.000000  1
