# generated using pymatgen
data_TmCoP3Ir4
_symmetry_space_group_name_H-M   'P 1'
_cell_length_a   3.91157600
_cell_length_b   10.72890200
_cell_length_c   12.37125100
_cell_angle_alpha   90.00000000
_cell_angle_beta   90.00000000
_cell_angle_gamma   90.00000000
_symmetry_Int_Tables_number   1
_chemical_formula_structural   TmCoP3Ir4
_chemical_formula_sum   'Tm4 Co4 P12 Ir16'
_cell_volume   519.18324621
_cell_formula_units_Z   4
loop_
 _symmetry_equiv_pos_site_id
 _symmetry_equiv_pos_as_xyz
  1  'x, y, z'
loop_
 _atom_site_type_symbol
 _atom_site_label
 _atom_site_symmetry_multiplicity
 _atom_site_fract_x
 _atom_site_fract_y
 _atom_site_fract_z
 _atom_site_occupancy
  Tm  Tm0  1  0.250000  0.585641  0.709819  1
  Tm  Tm1  1  0.250000  0.914359  0.209819  1
  Tm  Tm2  1  0.750000  0.414359  0.290181  1
  Tm  Tm3  1  0.750000  0.085641  0.790181  1
  Co  Co4  1  0.250000  0.461561  0.933856  1
  Co  Co5  1  0.250000  0.038439  0.433856  1
  Co  Co6  1  0.750000  0.538439  0.066144  1
  Co  Co7  1  0.750000  0.961561  0.566144  1
  P  P8  1  0.250000  0.426017  0.105757  1
  P  P9  1  0.250000  0.073983  0.605757  1
  P  P10  1  0.750000  0.573983  0.894243  1
  P  P11  1  0.750000  0.926017  0.394243  1
  P  P12  1  0.250000  0.270558  0.871447  1
  P  P13  1  0.250000  0.229442  0.371447  1
  P  P14  1  0.750000  0.729442  0.128553  1
  P  P15  1  0.750000  0.770558  0.628553  1
  P  P16  1  0.250000  0.594207  0.384550  1
  P  P17  1  0.250000  0.905793  0.884550  1
  P  P18  1  0.750000  0.405793  0.615450  1
  P  P19  1  0.750000  0.094207  0.115450  1
  Ir  Ir20  1  0.250000  0.721428  0.981196  1
  Ir  Ir21  1  0.250000  0.778572  0.481196  1
  Ir  Ir22  1  0.750000  0.278572  0.018804  1
  Ir  Ir23  1  0.750000  0.221428  0.518804  1
  Ir  Ir24  1  0.250000  0.407780  0.477234  1
  Ir  Ir25  1  0.250000  0.092220  0.977234  1
  Ir  Ir26  1  0.750000  0.592220  0.522766  1
  Ir  Ir27  1  0.750000  0.907780  0.022766  1
  Ir  Ir28  1  0.250000  0.232948  0.180361  1
  Ir  Ir29  1  0.250000  0.267052  0.680361  1
  Ir  Ir30  1  0.750000  0.767052  0.819639  1
  Ir  Ir31  1  0.750000  0.732948  0.319639  1
  Ir  Ir32  1  0.250000  0.887277  0.699313  1
  Ir  Ir33  1  0.250000  0.612723  0.199313  1
  Ir  Ir34  1  0.750000  0.112723  0.300687  1
  Ir  Ir35  1  0.750000  0.387277  0.800687  1
