# generated using pymatgen
data_Tm(ZnAu2)2
_symmetry_space_group_name_H-M   'P 1'
_cell_length_a   5.59831579
_cell_length_b   5.59831522
_cell_length_c   5.59831558
_cell_angle_alpha   102.96171707
_cell_angle_beta   102.96170954
_cell_angle_gamma   123.46313764
_symmetry_Int_Tables_number   1
_chemical_formula_structural   Tm(ZnAu2)2
_chemical_formula_sum   'Tm1 Zn2 Au4'
_cell_volume   128.91706667
_cell_formula_units_Z   1
loop_
 _symmetry_equiv_pos_site_id
 _symmetry_equiv_pos_as_xyz
  1  'x, y, z'
loop_
 _atom_site_type_symbol
 _atom_site_label
 _atom_site_symmetry_multiplicity
 _atom_site_fract_x
 _atom_site_fract_y
 _atom_site_fract_z
 _atom_site_occupancy
  Tm  Tm0  1  0.000000  0.000000  0.000000  1
  Zn  Zn1  1  0.250000  0.750000  0.500000  1
  Zn  Zn2  1  0.750000  0.250000  0.500000  1
  Au  Au3  1  0.299250  0.299250  0.598500  1
  Au  Au4  1  0.700750  0.700750  0.401500  1
  Au  Au5  1  0.700750  0.299250  0.000000  1
  Au  Au6  1  0.299250  0.700750  0.000000  1
