# generated using pymatgen
data_Lu8Tc2B24IrRu
_symmetry_space_group_name_H-M   'P 1'
_cell_length_a   3.60773900
_cell_length_b   9.03403412
_cell_length_c   11.40565754
_cell_angle_alpha   89.79946665
_cell_angle_beta   90.00000000
_cell_angle_gamma   90.00000000
_symmetry_Int_Tables_number   1
_chemical_formula_structural   Lu8Tc2B24IrRu
_chemical_formula_sum   'Lu8 Tc2 B24 Ir1 Ru1'
_cell_volume   371.73590063
_cell_formula_units_Z   1
loop_
 _symmetry_equiv_pos_site_id
 _symmetry_equiv_pos_as_xyz
  1  'x, y, z'
loop_
 _atom_site_type_symbol
 _atom_site_label
 _atom_site_symmetry_multiplicity
 _atom_site_fract_x
 _atom_site_fract_y
 _atom_site_fract_z
 _atom_site_occupancy
  Lu  Lu0  1  0.000000  0.325874  0.418681  1
  Lu  Lu1  1  0.000000  0.676100  0.584692  1
  Lu  Lu2  1  0.000000  0.816014  0.085906  1
  Lu  Lu3  1  0.000000  0.181366  0.909561  1
  Lu  Lu4  1  0.000000  0.940450  0.373654  1
  Lu  Lu5  1  0.000000  0.057232  0.627964  1
  Lu  Lu6  1  0.000000  0.445985  0.128479  1
  Lu  Lu7  1  0.000000  0.555936  0.871081  1
  Tc  Tc8  1  0.000000  0.638162  0.319626  1
  Tc  Tc9  1  0.000000  0.361746  0.679914  1
  B  B10  1  0.500000  0.552736  0.433493  1
  B  B11  1  0.500000  0.447263  0.566622  1
  B  B12  1  0.500000  0.053957  0.065080  1
  B  B13  1  0.500000  0.946210  0.934234  1
  B  B14  1  0.500000  0.749179  0.419705  1
  B  B15  1  0.500000  0.250723  0.580384  1
  B  B16  1  0.500000  0.250470  0.078637  1
  B  B17  1  0.500000  0.750428  0.920059  1
  B  B18  1  0.500000  0.792549  0.264503  1
  B  B19  1  0.500000  0.207446  0.735083  1
  B  B20  1  0.500000  0.291723  0.234969  1
  B  B21  1  0.500000  0.708940  0.765507  1
  B  B22  1  0.500000  0.630772  0.183814  1
  B  B23  1  0.500000  0.369200  0.815724  1
  B  B24  1  0.500000  0.130529  0.317068  1
  B  B25  1  0.500000  0.869874  0.684749  1
  B  B26  1  0.500000  0.981108  0.212517  1
  B  B27  1  0.500000  0.018485  0.787957  1
  B  B28  1  0.500000  0.481002  0.287355  1
  B  B29  1  0.500000  0.519171  0.712713  1
  B  B30  1  0.500000  0.604118  0.028392  1
  B  B31  1  0.500000  0.395188  0.971588  1
  B  B32  1  0.500000  0.104130  0.470853  1
  B  B33  1  0.500000  0.896008  0.529033  1
  Ir  Ir34  1  0.000000  0.137060  0.178508  1
  Ru  Ru35  1  0.000000  0.862864  0.821894  1
