# generated using pymatgen
data_Y7BI12
_symmetry_space_group_name_H-M   'P 1'
_cell_length_a   9.64969042
_cell_length_b   9.64969107
_cell_length_c   9.64969061
_cell_angle_alpha   107.74978506
_cell_angle_beta   107.74978608
_cell_angle_gamma   107.74978145
_symmetry_Int_Tables_number   1
_chemical_formula_structural   Y7BI12
_chemical_formula_sum   'Y7 B1 I12'
_cell_volume   732.47311851
_cell_formula_units_Z   1
loop_
 _symmetry_equiv_pos_site_id
 _symmetry_equiv_pos_as_xyz
  1  'x, y, z'
loop_
 _atom_site_type_symbol
 _atom_site_label
 _atom_site_symmetry_multiplicity
 _atom_site_fract_x
 _atom_site_fract_y
 _atom_site_fract_z
 _atom_site_occupancy
  Y  Y0  1  0.706979  0.966626  0.899875  1
  Y  Y1  1  0.966626  0.899875  0.706979  1
  Y  Y2  1  0.500000  0.500000  0.500000  1
  Y  Y3  1  0.100125  0.293021  0.033374  1
  Y  Y4  1  0.293021  0.033374  0.100125  1
  Y  Y5  1  0.899875  0.706979  0.966626  1
  Y  Y6  1  0.033374  0.100125  0.293021  1
  B  B7  1  0.000000  0.000000  0.000000  1
  I  I8  1  0.074811  0.225910  0.685971  1
  I  I9  1  0.389057  0.152672  0.469336  1
  I  I10  1  0.610943  0.847328  0.530664  1
  I  I11  1  0.225910  0.685971  0.074811  1
  I  I12  1  0.774090  0.314029  0.925189  1
  I  I13  1  0.685971  0.074811  0.225910  1
  I  I14  1  0.530664  0.610943  0.847328  1
  I  I15  1  0.847328  0.530664  0.610943  1
  I  I16  1  0.925189  0.774090  0.314029  1
  I  I17  1  0.314029  0.925189  0.774090  1
  I  I18  1  0.469336  0.389057  0.152672  1
  I  I19  1  0.152672  0.469336  0.389057  1
