# generated using pymatgen
data_Zr4TiSnRh10
_symmetry_space_group_name_H-M   'P 1'
_cell_length_a   4.19541000
_cell_length_b   5.63790049
_cell_length_c   11.06764904
_cell_angle_alpha   90.52997266
_cell_angle_beta   90.00000000
_cell_angle_gamma   90.00000000
_symmetry_Int_Tables_number   1
_chemical_formula_structural   Zr4TiSnRh10
_chemical_formula_sum   'Zr4 Ti1 Sn1 Rh10'
_cell_volume   261.77526956
_cell_formula_units_Z   1
loop_
 _symmetry_equiv_pos_site_id
 _symmetry_equiv_pos_as_xyz
  1  'x, y, z'
loop_
 _atom_site_type_symbol
 _atom_site_label
 _atom_site_symmetry_multiplicity
 _atom_site_fract_x
 _atom_site_fract_y
 _atom_site_fract_z
 _atom_site_occupancy
  Zr  Zr0  1  0.500000  0.325964  0.144289  1
  Zr  Zr1  1  0.500000  0.674036  0.855711  1
  Zr  Zr2  1  0.500000  0.831946  0.358300  1
  Zr  Zr3  1  0.500000  0.168054  0.641700  1
  Ti  Ti4  1  0.000000  0.500000  0.500000  1
  Sn  Sn5  1  0.000000  0.000000  0.000000  1
  Rh  Rh6  1  0.000000  0.000000  0.500000  1
  Rh  Rh7  1  0.000000  0.500000  0.000000  1
  Rh  Rh8  1  0.000000  0.077123  0.249078  1
  Rh  Rh9  1  0.000000  0.922877  0.750922  1
  Rh  Rh10  1  0.000000  0.577301  0.259655  1
  Rh  Rh11  1  0.000000  0.422699  0.740345  1
  Rh  Rh12  1  0.500000  0.319264  0.397046  1
  Rh  Rh13  1  0.500000  0.680736  0.602954  1
  Rh  Rh14  1  0.500000  0.802834  0.114281  1
  Rh  Rh15  1  0.500000  0.197166  0.885719  1
