# generated using pymatgen
data_KPa2PO8
_symmetry_space_group_name_H-M   'P 1'
_cell_length_a   9.19064063
_cell_length_b   9.19064172
_cell_length_c   9.19064087
_cell_angle_alpha   104.22355889
_cell_angle_beta   104.22356170
_cell_angle_gamma   104.22355198
_symmetry_Int_Tables_number   1
_chemical_formula_structural   KPa2PO8
_chemical_formula_sum   'K3 Pa6 P3 O24'
_cell_volume   689.66160534
_cell_formula_units_Z   3
loop_
 _symmetry_equiv_pos_site_id
 _symmetry_equiv_pos_as_xyz
  1  'x, y, z'
loop_
 _atom_site_type_symbol
 _atom_site_label
 _atom_site_symmetry_multiplicity
 _atom_site_fract_x
 _atom_site_fract_y
 _atom_site_fract_z
 _atom_site_occupancy
  K  K0  1  0.432131  0.183460  0.635064  1
  K  K1  1  0.183460  0.635064  0.432131  1
  K  K2  1  0.635064  0.432131  0.183460  1
  Pa  Pa3  1  0.640476  0.830830  0.961779  1
  Pa  Pa4  1  0.961779  0.640476  0.830830  1
  Pa  Pa5  1  0.027664  0.164099  0.350493  1
  Pa  Pa6  1  0.830830  0.961779  0.640476  1
  Pa  Pa7  1  0.350493  0.027664  0.164099  1
  Pa  Pa8  1  0.164099  0.350493  0.027664  1
  P  P9  1  0.274155  0.495830  0.725372  1
  P  P10  1  0.725372  0.274155  0.495830  1
  P  P11  1  0.495830  0.725372  0.274155  1
  O  O12  1  0.028529  0.498587  0.974141  1
  O  O13  1  0.148563  0.843799  0.999141  1
  O  O14  1  0.293932  0.418157  0.857830  1
  O  O15  1  0.781343  0.682991  0.930432  1
  O  O16  1  0.999141  0.148563  0.843799  1
  O  O17  1  0.135470  0.565682  0.710810  1
  O  O18  1  0.428224  0.631508  0.758808  1
  O  O19  1  0.237281  0.365895  0.564199  1
  O  O20  1  0.682991  0.930432  0.781343  1
  O  O21  1  0.710810  0.135470  0.565682  1
  O  O22  1  0.758808  0.428224  0.631508  1
  O  O23  1  0.930432  0.781343  0.682991  1
  O  O24  1  0.974141  0.028529  0.498587  1
  O  O25  1  0.218450  0.071042  0.320450  1
  O  O26  1  0.564199  0.237281  0.365895  1
  O  O27  1  0.857830  0.293932  0.418157  1
  O  O28  1  0.071042  0.320450  0.218450  1
  O  O29  1  0.631508  0.758808  0.428224  1
  O  O30  1  0.365895  0.564199  0.237281  1
  O  O31  1  0.418157  0.857830  0.293932  1
  O  O32  1  0.320450  0.218450  0.071042  1
  O  O33  1  0.565682  0.710810  0.135470  1
  O  O34  1  0.843799  0.999141  0.148563  1
  O  O35  1  0.498587  0.974141  0.028529  1
