# generated using pymatgen
data_RbBa4Fe6(Co2P5)2
_symmetry_space_group_name_H-M   'P 1'
_cell_length_a   8.72196632
_cell_length_b   8.71964693
_cell_length_c   8.71949382
_cell_angle_alpha   121.98756355
_cell_angle_beta   121.98605730
_cell_angle_gamma   86.59754070
_symmetry_Int_Tables_number   1
_chemical_formula_structural   RbBa4Fe6(Co2P5)2
_chemical_formula_sum   'Rb1 Ba4 Fe6 Co4 P10'
_cell_volume   453.93318979
_cell_formula_units_Z   1
loop_
 _symmetry_equiv_pos_site_id
 _symmetry_equiv_pos_as_xyz
  1  'x, y, z'
loop_
 _atom_site_type_symbol
 _atom_site_label
 _atom_site_symmetry_multiplicity
 _atom_site_fract_x
 _atom_site_fract_y
 _atom_site_fract_z
 _atom_site_occupancy
  Rb  Rb0  1  0.000288  0.000067  0.000101  1
  Ba  Ba1  1  0.392290  0.802387  0.195036  1
  Ba  Ba2  1  0.802469  0.607611  0.410135  1
  Ba  Ba3  1  0.197508  0.392165  0.589845  1
  Ba  Ba4  1  0.607590  0.197706  0.804969  1
  Fe  Fe5  1  0.549521  0.849363  0.899837  1
  Fe  Fe6  1  0.650185  0.548587  0.699345  1
  Fe  Fe7  1  0.050293  0.349997  0.899784  1
  Fe  Fe8  1  0.450110  0.151659  0.101251  1
  Fe  Fe9  1  0.850659  0.949816  0.301012  1
  Fe  Fe10  1  0.248913  0.749957  0.498715  1
  Co  Co11  1  0.949268  0.649536  0.099453  1
  Co  Co12  1  0.349789  0.450590  0.299704  1
  Co  Co13  1  0.750231  0.249569  0.499983  1
  Co  Co14  1  0.150934  0.050925  0.700908  1
  P  P15  1  0.939693  0.538573  0.799325  1
  P  P16  1  0.340533  0.340635  0.000306  1
  P  P17  1  0.737969  0.137986  0.197613  1
  P  P18  1  0.140099  0.939775  0.400943  1
  P  P19  1  0.539287  0.740649  0.601700  1
  P  P20  1  0.658106  0.660767  0.998991  1
  P  P21  1  0.060193  0.461456  0.200400  1
  P  P22  1  0.461149  0.260892  0.401084  1
  P  P23  1  0.860097  0.060096  0.599054  1
  P  P24  1  0.262828  0.859236  0.800506  1
