# generated using pymatgen
data_RbLa(NbBr3)6
_symmetry_space_group_name_H-M   'P 1'
_cell_length_a   10.92050001
_cell_length_b   10.92049893
_cell_length_c   10.92049960
_cell_angle_alpha   55.34885644
_cell_angle_beta   55.34885884
_cell_angle_gamma   55.34885531
_symmetry_Int_Tables_number   1
_chemical_formula_structural   RbLa(NbBr3)6
_chemical_formula_sum   'Rb1 La1 Nb6 Br18'
_cell_volume   821.38676296
_cell_formula_units_Z   1
loop_
 _symmetry_equiv_pos_site_id
 _symmetry_equiv_pos_as_xyz
  1  'x, y, z'
loop_
 _atom_site_type_symbol
 _atom_site_label
 _atom_site_symmetry_multiplicity
 _atom_site_fract_x
 _atom_site_fract_y
 _atom_site_fract_z
 _atom_site_occupancy
  Rb  Rb0  1  0.221233  0.221233  0.221233  1
  La  La1  1  0.498452  0.498452  0.498452  1
  Nb  Nb2  1  0.809293  0.140753  0.919189  1
  Nb  Nb3  1  0.919189  0.809293  0.140753  1
  Nb  Nb4  1  0.140753  0.919189  0.809293  1
  Nb  Nb5  1  0.191725  0.859575  0.080258  1
  Nb  Nb6  1  0.080258  0.191725  0.859575  1
  Nb  Nb7  1  0.859575  0.080258  0.191725  1
  Br  Br8  1  0.863229  0.407215  0.730613  1
  Br  Br9  1  0.730613  0.863229  0.407215  1
  Br  Br10  1  0.407215  0.730613  0.863229  1
  Br  Br11  1  0.136319  0.592717  0.271697  1
  Br  Br12  1  0.271697  0.136319  0.592717  1
  Br  Br13  1  0.592717  0.271697  0.136319  1
  Br  Br14  1  0.532814  0.335863  0.816007  1
  Br  Br15  1  0.816007  0.532814  0.335863  1
  Br  Br16  1  0.335863  0.816007  0.532814  1
  Br  Br17  1  0.462455  0.666221  0.186889  1
  Br  Br18  1  0.186889  0.462455  0.666221  1
  Br  Br19  1  0.666221  0.186889  0.462455  1
  Br  Br20  1  0.667484  0.936670  0.072226  1
  Br  Br21  1  0.072226  0.667484  0.936670  1
  Br  Br22  1  0.936670  0.072226  0.667484  1
  Br  Br23  1  0.334855  0.062229  0.925159  1
  Br  Br24  1  0.925159  0.334855  0.062229  1
  Br  Br25  1  0.062229  0.925159  0.334855  1
