# generated using pymatgen
data_Ho3Tm3Co16(P6Ru)2
_symmetry_space_group_name_H-M   'P 1'
_cell_length_a   3.68625200
_cell_length_b   10.47079421
_cell_length_c   12.18812241
_cell_angle_alpha   89.94486356
_cell_angle_beta   90.00000001
_cell_angle_gamma   90.00003196
_symmetry_Int_Tables_number   1
_chemical_formula_structural   Ho3Tm3Co16(P6Ru)2
_chemical_formula_sum   'Ho3 Tm3 Co16 P12 Ru2'
_cell_volume   470.43676165
_cell_formula_units_Z   1
loop_
 _symmetry_equiv_pos_site_id
 _symmetry_equiv_pos_as_xyz
  1  'x, y, z'
loop_
 _atom_site_type_symbol
 _atom_site_label
 _atom_site_symmetry_multiplicity
 _atom_site_fract_x
 _atom_site_fract_y
 _atom_site_fract_z
 _atom_site_occupancy
  Ho  Ho0  1  0.999999  0.499833  0.525272  1
  Ho  Ho1  1  0.499999  0.000239  0.475256  1
  Ho  Ho2  1  0.499999  0.817474  0.206740  1
  Tm  Tm3  1  0.500000  0.182690  0.206886  1
  Tm  Tm4  1  0.999999  0.682492  0.793210  1
  Tm  Tm5  1  0.000001  0.317426  0.792888  1
  Co  Co6  1  0.500000  0.499859  0.704324  1
  Co  Co7  1  0.000001  0.000630  0.295856  1
  Co  Co8  1  0.000000  0.499700  0.985730  1
  Co  Co9  1  0.499998  0.000313  0.013648  1
  Co  Co10  1  0.499999  0.332242  0.990011  1
  Co  Co11  1  0.500000  0.667365  0.989753  1
  Co  Co12  1  0.999999  0.167981  0.009649  1
  Co  Co13  1  0.999999  0.832431  0.009246  1
  Co  Co14  1  0.500001  0.297218  0.431202  1
  Co  Co15  1  0.500000  0.702775  0.431693  1
  Co  Co16  1  0.000001  0.202876  0.568984  1
  Co  Co17  1  0.000000  0.797218  0.569354  1
  Co  Co18  1  0.500000  0.878462  0.707974  1
  Co  Co19  1  0.500001  0.121587  0.707762  1
  Co  Co20  1  0.000000  0.620918  0.292661  1
  Co  Co21  1  0.000002  0.378232  0.292129  1
  P  P22  1  0.500000  0.499817  0.880988  1
  P  P23  1  0.999998  0.000564  0.118461  1
  P  P24  1  0.500000  0.500043  0.350937  1
  P  P25  1  0.000000  0.000023  0.649215  1
  P  P26  1  0.500001  0.311967  0.616974  1
  P  P27  1  0.500000  0.687909  0.617276  1
  P  P28  1  0.000000  0.188116  0.383122  1
  P  P29  1  0.000000  0.812025  0.383885  1
  P  P30  1  0.500000  0.846014  0.892604  1
  P  P31  1  0.500000  0.154154  0.892352  1
  P  P32  1  0.000000  0.653401  0.106825  1
  P  P33  1  0.000000  0.345999  0.107355  1
  Ru  Ru34  1  0.500001  0.499778  0.159354  1
  Ru  Ru35  1  0.000001  0.000229  0.840424  1
