# generated using pymatgen
data_Pr4AgRhAu2
_symmetry_space_group_name_H-M   'P 1'
_cell_length_a   4.79675100
_cell_length_b   5.87200713
_cell_length_c   7.54815549
_cell_angle_alpha   88.43650277
_cell_angle_beta   90.00000000
_cell_angle_gamma   90.00000000
_symmetry_Int_Tables_number   1
_chemical_formula_structural   Pr4AgRhAu2
_chemical_formula_sum   'Pr4 Ag1 Rh1 Au2'
_cell_volume   212.52639193
_cell_formula_units_Z   1
loop_
 _symmetry_equiv_pos_site_id
 _symmetry_equiv_pos_as_xyz
  1  'x, y, z'
loop_
 _atom_site_type_symbol
 _atom_site_label
 _atom_site_symmetry_multiplicity
 _atom_site_fract_x
 _atom_site_fract_y
 _atom_site_fract_z
 _atom_site_occupancy
  Pr  Pr0  1  0.250000  0.363660  0.675768  1
  Pr  Pr1  1  0.250000  0.139040  0.194377  1
  Pr  Pr2  1  0.750000  0.650270  0.329451  1
  Pr  Pr3  1  0.750000  0.859096  0.800546  1
  Ag  Ag4  1  0.250000  0.644914  0.037609  1
  Rh  Rh5  1  0.250000  0.836588  0.540636  1
  Au  Au6  1  0.750000  0.150089  0.457828  1
  Au  Au7  1  0.750000  0.356340  0.963786  1
