# generated using pymatgen
data_Yb3Th(OsC2)2
_symmetry_space_group_name_H-M   'P 1'
_cell_length_a   5.14292300
_cell_length_b   6.42130424
_cell_length_c   10.44649390
_cell_angle_alpha   89.45997083
_cell_angle_beta   90.00000000
_cell_angle_gamma   90.00000000
_symmetry_Int_Tables_number   1
_chemical_formula_structural   Yb3Th(OsC2)2
_chemical_formula_sum   'Yb6 Th2 Os4 C8'
_cell_volume   344.97254558
_cell_formula_units_Z   2
loop_
 _symmetry_equiv_pos_site_id
 _symmetry_equiv_pos_as_xyz
  1  'x, y, z'
loop_
 _atom_site_type_symbol
 _atom_site_label
 _atom_site_symmetry_multiplicity
 _atom_site_fract_x
 _atom_site_fract_y
 _atom_site_fract_z
 _atom_site_occupancy
  Yb  Yb0  1  0.750000  0.799323  0.052151  1
  Yb  Yb1  1  0.250000  0.200677  0.947849  1
  Yb  Yb2  1  0.250000  0.530015  0.217672  1
  Yb  Yb3  1  0.750000  0.469985  0.782328  1
  Yb  Yb4  1  0.750000  0.976253  0.746621  1
  Yb  Yb5  1  0.250000  0.023747  0.253379  1
  Th  Th6  1  0.250000  0.708436  0.553154  1
  Th  Th7  1  0.750000  0.291564  0.446846  1
  Os  Os8  1  0.250000  0.733321  0.859756  1
  Os  Os9  1  0.750000  0.266679  0.140244  1
  Os  Os10  1  0.750000  0.765848  0.347424  1
  Os  Os11  1  0.250000  0.234152  0.652576  1
  C  C12  1  0.250000  0.478090  0.757127  1
  C  C13  1  0.750000  0.521910  0.242873  1
  C  C14  1  0.750000  0.027036  0.254736  1
  C  C15  1  0.250000  0.972964  0.745264  1
  C  C16  1  0.250000  0.797747  0.032516  1
  C  C17  1  0.750000  0.202253  0.967484  1
  C  C18  1  0.750000  0.695865  0.531847  1
  C  C19  1  0.250000  0.304135  0.468153  1
