# generated using pymatgen
data_Li8UTa7N16
_symmetry_space_group_name_H-M   'P 1'
_cell_length_a   18.97539118
_cell_length_b   4.20916602
_cell_length_c   4.21050406
_cell_angle_alpha   89.99957627
_cell_angle_beta   89.98342126
_cell_angle_gamma   89.99142757
_symmetry_Int_Tables_number   1
_chemical_formula_structural   Li8UTa7N16
_chemical_formula_sum   'Li8 U1 Ta7 N16'
_cell_volume   336.29534944
_cell_formula_units_Z   1
loop_
 _symmetry_equiv_pos_site_id
 _symmetry_equiv_pos_as_xyz
  1  'x, y, z'
loop_
 _atom_site_type_symbol
 _atom_site_label
 _atom_site_symmetry_multiplicity
 _atom_site_fract_x
 _atom_site_fract_y
 _atom_site_fract_z
 _atom_site_occupancy
  Li  Li0  1  0.173134  0.999477  0.749002  1
  Li  Li1  1  0.817683  0.000448  0.250737  1
  Li  Li2  1  0.291573  0.999396  0.248982  1
  Li  Li3  1  0.701946  0.000636  0.750780  1
  Li  Li4  1  0.057177  0.499737  0.749671  1
  Li  Li5  1  0.937514  0.500466  0.250367  1
  Li  Li6  1  0.437542  0.499325  0.250389  1
  Li  Li7  1  0.583399  0.500569  0.750690  1
  U  U8  1  0.437500  0.999415  0.750440  1
  Ta  Ta9  1  0.574101  0.001109  0.250689  1
  Ta  Ta10  1  0.058520  0.998943  0.248867  1
  Ta  Ta11  1  0.937614  0.000916  0.750360  1
  Ta  Ta12  1  0.300799  0.499123  0.747835  1
  Ta  Ta13  1  0.694547  0.500863  0.251828  1
  Ta  Ta14  1  0.180650  0.498650  0.248337  1
  Ta  Ta15  1  0.816354  0.500907  0.752120  1
  N  N16  1  0.319535  0.999490  0.748626  1
  N  N17  1  0.682842  0.000515  0.250869  1
  N  N18  1  0.170673  0.999587  0.249293  1
  N  N19  1  0.826079  0.000490  0.750377  1
  N  N20  1  0.416194  0.499320  0.750042  1
  N  N21  1  0.583483  0.500366  0.250569  1
  N  N22  1  0.069948  0.499762  0.249739  1
  N  N23  1  0.926916  0.500262  0.749679  1
  N  N24  1  0.048932  0.999669  0.749839  1
  N  N25  1  0.948107  0.000307  0.249637  1
  N  N26  1  0.458734  0.999623  0.250510  1
  N  N27  1  0.555442  0.000552  0.750564  1
  N  N28  1  0.192177  0.499390  0.749324  1
  N  N29  1  0.805071  0.500543  0.250110  1
  N  N30  1  0.291457  0.499526  0.249257  1
  N  N31  1  0.704355  0.500619  0.750468  1
