# generated using pymatgen
data_Ti3Ir5
_symmetry_space_group_name_H-M   'P 1'
_cell_length_a   4.03984900
_cell_length_b   5.45928900
_cell_length_c   10.80598800
_cell_angle_alpha   90.00000000
_cell_angle_beta   90.00000000
_cell_angle_gamma   90.00000000
_symmetry_Int_Tables_number   1
_chemical_formula_structural   Ti3Ir5
_chemical_formula_sum   'Ti6 Ir10'
_cell_volume   238.32285820
_cell_formula_units_Z   2
loop_
 _symmetry_equiv_pos_site_id
 _symmetry_equiv_pos_as_xyz
  1  'x, y, z'
loop_
 _atom_site_type_symbol
 _atom_site_label
 _atom_site_symmetry_multiplicity
 _atom_site_fract_x
 _atom_site_fract_y
 _atom_site_fract_z
 _atom_site_occupancy
  Ti  Ti0  1  0.000000  0.000000  0.000000  1
  Ti  Ti1  1  0.000000  0.500000  0.500000  1
  Ti  Ti2  1  0.500000  0.318601  0.141165  1
  Ti  Ti3  1  0.500000  0.681399  0.858835  1
  Ti  Ti4  1  0.500000  0.818601  0.358835  1
  Ti  Ti5  1  0.500000  0.181399  0.641165  1
  Ir  Ir6  1  0.000000  0.000000  0.500000  1
  Ir  Ir7  1  0.000000  0.500000  0.000000  1
  Ir  Ir8  1  0.000000  0.059184  0.245737  1
  Ir  Ir9  1  0.000000  0.940816  0.754263  1
  Ir  Ir10  1  0.000000  0.559184  0.254263  1
  Ir  Ir11  1  0.000000  0.440816  0.745737  1
  Ir  Ir12  1  0.500000  0.300893  0.387854  1
  Ir  Ir13  1  0.500000  0.699107  0.612146  1
  Ir  Ir14  1  0.500000  0.800893  0.112146  1
  Ir  Ir15  1  0.500000  0.199107  0.887854  1
