# generated using pymatgen
data_Li5CoNi8As7
_symmetry_space_group_name_H-M   'P 1'
_cell_length_a   9.42275672
_cell_length_b   9.38997330
_cell_length_c   3.77588000
_cell_angle_alpha   90.00000000
_cell_angle_beta   90.00000000
_cell_angle_gamma   119.92698937
_symmetry_Int_Tables_number   1
_chemical_formula_structural   Li5CoNi8As7
_chemical_formula_sum   'Li5 Co1 Ni8 As7'
_cell_volume   289.54108207
_cell_formula_units_Z   1
loop_
 _symmetry_equiv_pos_site_id
 _symmetry_equiv_pos_as_xyz
  1  'x, y, z'
loop_
 _atom_site_type_symbol
 _atom_site_label
 _atom_site_symmetry_multiplicity
 _atom_site_fract_x
 _atom_site_fract_y
 _atom_site_fract_z
 _atom_site_occupancy
  Li  Li0  1  0.766784  0.549048  0.500000  1
  Li  Li1  1  0.452124  0.218642  0.500000  1
  Li  Li2  1  0.782537  0.232741  0.500000  1
  Li  Li3  1  0.333114  0.665426  0.000000  1
  Li  Li4  1  0.000679  0.002074  0.500000  1
  Co  Co5  1  0.276015  0.373828  0.500000  1
  Ni  Ni6  1  0.624411  0.900979  0.500000  1
  Ni  Ni7  1  0.098734  0.724610  0.500000  1
  Ni  Ni8  1  0.497998  0.453173  0.000000  1
  Ni  Ni9  1  0.546401  0.043002  0.000000  1
  Ni  Ni10  1  0.958066  0.504116  0.000000  1
  Ni  Ni11  1  0.712975  0.760555  0.000000  1
  Ni  Ni12  1  0.238245  0.953281  0.000000  1
  Ni  Ni13  1  0.045604  0.285718  0.000000  1
  As  As14  1  0.961385  0.756877  0.000000  1
  As  As15  1  0.244170  0.209175  0.000000  1
  As  As16  1  0.793897  0.037874  0.000000  1
  As  As17  1  0.668642  0.333996  0.000000  1
  As  As18  1  0.533314  0.617731  0.500000  1
  As  As19  1  0.377832  0.915416  0.500000  1
  As  As20  1  0.087074  0.461736  0.500000  1
