# generated using pymatgen
data_Sm4Sn4Bi2Rh7
_symmetry_space_group_name_H-M   'P 1'
_cell_length_a   7.74456310
_cell_length_b   7.75694799
_cell_length_c   7.74456497
_cell_angle_alpha   109.42790347
_cell_angle_beta   109.49323986
_cell_angle_gamma   109.42788850
_symmetry_Int_Tables_number   1
_chemical_formula_structural   Sm4Sn4Bi2Rh7
_chemical_formula_sum   'Sm4 Sn4 Bi2 Rh7'
_cell_volume   358.43360256
_cell_formula_units_Z   1
loop_
 _symmetry_equiv_pos_site_id
 _symmetry_equiv_pos_as_xyz
  1  'x, y, z'
loop_
 _atom_site_type_symbol
 _atom_site_label
 _atom_site_symmetry_multiplicity
 _atom_site_fract_x
 _atom_site_fract_y
 _atom_site_fract_z
 _atom_site_occupancy
  Sm  Sm0  1  0.496916  0.993831  0.996916  1
  Sm  Sm1  1  0.997291  0.502535  0.997291  1
  Sm  Sm2  1  0.996916  0.993831  0.496916  1
  Sm  Sm3  1  0.505246  0.502535  0.505246  1
  Sn  Sn4  1  0.318520  0.996832  0.318520  1
  Sn  Sn5  1  0.998173  0.681107  0.682934  1
  Sn  Sn6  1  0.682934  0.681107  0.998173  1
  Sn  Sn7  1  0.678311  0.996832  0.678311  1
  Bi  Bi8  1  0.998687  0.315192  0.316505  1
  Bi  Bi9  1  0.316505  0.315192  0.998687  1
  Rh  Rh10  1  0.255200  0.510401  0.755200  1
  Rh  Rh11  1  0.504821  0.252672  0.747851  1
  Rh  Rh12  1  0.747851  0.252672  0.504821  1
  Rh  Rh13  1  0.505493  0.755736  0.250244  1
  Rh  Rh14  1  0.991692  0.983384  0.991692  1
  Rh  Rh15  1  0.250244  0.755736  0.505493  1
  Rh  Rh16  1  0.755200  0.510401  0.255200  1
