# generated using pymatgen
data_Ho4Er8Ga2TcNi3
_symmetry_space_group_name_H-M   'P 1'
_cell_length_a   8.28124745
_cell_length_b   8.28124844
_cell_length_c   8.28124858
_cell_angle_alpha   112.91906484
_cell_angle_beta   109.62694669
_cell_angle_gamma   105.94264082
_symmetry_Int_Tables_number   1
_chemical_formula_structural   Ho4Er8Ga2TcNi3
_chemical_formula_sum   'Ho4 Er8 Ga2 Tc1 Ni3'
_cell_volume   435.56686148
_cell_formula_units_Z   1
loop_
 _symmetry_equiv_pos_site_id
 _symmetry_equiv_pos_as_xyz
  1  'x, y, z'
loop_
 _atom_site_type_symbol
 _atom_site_label
 _atom_site_symmetry_multiplicity
 _atom_site_fract_x
 _atom_site_fract_y
 _atom_site_fract_z
 _atom_site_occupancy
  Ho  Ho0  1  0.055124  0.748747  0.306378  1
  Ho  Ho1  1  0.963891  0.267844  0.696047  1
  Ho  Ho2  1  0.557631  0.251253  0.306378  1
  Ho  Ho3  1  0.428203  0.732156  0.696047  1
  Er  Er4  1  0.675310  0.862235  0.193841  1
  Er  Er5  1  0.331607  0.518531  0.193841  1
  Er  Er6  1  0.331607  0.137765  0.813076  1
  Er  Er7  1  0.675310  0.481469  0.813076  1
  Er  Er8  1  0.173940  0.220962  0.394902  1
  Er  Er9  1  0.814375  0.219483  0.033858  1
  Er  Er10  1  0.173940  0.779038  0.952978  1
  Er  Er11  1  0.814375  0.780517  0.594890  1
  Ga  Ga12  1  0.982679  0.500000  0.482679  1
  Ga  Ga13  1  0.506772  0.000000  0.506772  1
  Tc  Tc14  1  0.674489  0.500000  0.174489  1
  Ni  Ni15  1  0.347865  0.500000  0.847865  1
  Ni  Ni16  1  0.877461  0.881020  0.996440  1
  Ni  Ni17  1  0.115421  0.118980  0.996440  1
