# generated using pymatgen
data_Tm(AlB14)2
_symmetry_space_group_name_H-M   'P 1'
_cell_length_a   7.20501155
_cell_length_b   7.20501164
_cell_length_c   5.82829507
_cell_angle_alpha   66.36822798
_cell_angle_beta   66.36823119
_cell_angle_gamma   92.20345281
_symmetry_Int_Tables_number   1
_chemical_formula_structural   Tm(AlB14)2
_chemical_formula_sum   'Tm1 Al2 B28'
_cell_volume   246.69142058
_cell_formula_units_Z   1
loop_
 _symmetry_equiv_pos_site_id
 _symmetry_equiv_pos_as_xyz
  1  'x, y, z'
loop_
 _atom_site_type_symbol
 _atom_site_label
 _atom_site_symmetry_multiplicity
 _atom_site_fract_x
 _atom_site_fract_y
 _atom_site_fract_z
 _atom_site_occupancy
  Tm  Tm0  1  0.890324  0.890324  0.355756  1
  Al  Al1  1  0.498352  0.498352  0.504896  1
  Al  Al2  1  0.156587  0.156587  0.501990  1
  B  B3  1  0.416884  0.736458  0.171722  1
  B  B4  1  0.584587  0.258904  0.833722  1
  B  B5  1  0.258904  0.584587  0.833722  1
  B  B6  1  0.736458  0.416884  0.171722  1
  B  B7  1  0.694192  0.860319  0.973633  1
  B  B8  1  0.305069  0.135245  0.035073  1
  B  B9  1  0.135245  0.305069  0.035073  1
  B  B10  1  0.860319  0.694192  0.973633  1
  B  B11  1  0.534307  0.872636  0.299350  1
  B  B12  1  0.469562  0.124427  0.205059  1
  B  B13  1  0.124427  0.469562  0.205059  1
  B  B14  1  0.872636  0.534307  0.299350  1
  B  B15  1  0.462429  0.121807  0.711753  1
  B  B16  1  0.532589  0.870498  0.800665  1
  B  B17  1  0.870498  0.532589  0.800665  1
  B  B18  1  0.121807  0.462429  0.711753  1
  B  B19  1  0.723801  0.099544  0.999958  1
  B  B20  1  0.278457  0.893880  0.325650  1
  B  B21  1  0.893880  0.278457  0.325650  1
  B  B22  1  0.099544  0.723801  0.999958  1
  B  B23  1  0.275942  0.896199  0.009152  1
  B  B24  1  0.720899  0.100210  0.684534  1
  B  B25  1  0.100210  0.720899  0.684534  1
  B  B26  1  0.896199  0.275942  0.009152  1
  B  B27  1  0.271664  0.472918  0.379411  1
  B  B28  1  0.717624  0.523685  0.638997  1
  B  B29  1  0.523685  0.717624  0.638997  1
  B  B30  1  0.472918  0.271664  0.379411  1
