# generated using pymatgen
data_Ho16Mg2CdInIr4
_symmetry_space_group_name_H-M   'P 1'
_cell_length_a   9.63212180
_cell_length_b   9.63182512
_cell_length_c   9.67144700
_cell_angle_alpha   59.86382484
_cell_angle_beta   59.86484932
_cell_angle_gamma   59.74782788
_symmetry_Int_Tables_number   1
_chemical_formula_structural   Ho16Mg2CdInIr4
_chemical_formula_sum   'Ho16 Mg2 Cd1 In1 Ir4'
_cell_volume   631.94939679
_cell_formula_units_Z   1
loop_
 _symmetry_equiv_pos_site_id
 _symmetry_equiv_pos_as_xyz
  1  'x, y, z'
loop_
 _atom_site_type_symbol
 _atom_site_label
 _atom_site_symmetry_multiplicity
 _atom_site_fract_x
 _atom_site_fract_y
 _atom_site_fract_z
 _atom_site_occupancy
  Ho  Ho0  1  0.598489  0.598438  0.599118  1
  Ho  Ho1  1  0.598489  0.598438  0.203955  1
  Ho  Ho2  1  0.597467  0.206550  0.597992  1
  Ho  Ho3  1  0.205604  0.597546  0.598426  1
  Ho  Ho4  1  0.060148  0.438690  0.440123  1
  Ho  Ho5  1  0.437752  0.061686  0.062051  1
  Ho  Ho6  1  0.437752  0.061686  0.438512  1
  Ho  Ho7  1  0.060148  0.438690  0.061038  1
  Ho  Ho8  1  0.440947  0.440065  0.059494  1
  Ho  Ho9  1  0.062809  0.063210  0.436990  1
  Ho  Ho10  1  0.189900  0.811916  0.812934  1
  Ho  Ho11  1  0.812778  0.188545  0.186133  1
  Ho  Ho12  1  0.812778  0.188545  0.812544  1
  Ho  Ho13  1  0.189900  0.811916  0.185249  1
  Ho  Ho14  1  0.813482  0.812443  0.187038  1
  Ho  Ho15  1  0.189720  0.185852  0.812214  1
  Mg  Mg16  1  0.827218  0.828011  0.829884  1
  Mg  Mg17  1  0.827218  0.828011  0.514888  1
  Cd  Cd18  1  0.505471  0.832434  0.831046  1
  In  In19  1  0.831145  0.505375  0.831740  1
  Ir  Ir20  1  0.391753  0.392253  0.390813  1
  Ir  Ir21  1  0.391753  0.392253  0.825182  1
  Ir  Ir22  1  0.392532  0.824637  0.391416  1
  Ir  Ir23  1  0.824749  0.392812  0.391221  1
