# generated using pymatgen
data_Y16In4TcNi3
_symmetry_space_group_name_H-M   'P 1'
_cell_length_a   9.71626476
_cell_length_b   9.71312255
_cell_length_c   9.71472570
_cell_angle_alpha   59.71658883
_cell_angle_beta   59.72422230
_cell_angle_gamma   59.72061466
_symmetry_Int_Tables_number   1
_chemical_formula_structural   Y16In4TcNi3
_chemical_formula_sum   'Y16 In4 Tc1 Ni3'
_cell_volume   644.18084929
_cell_formula_units_Z   1
loop_
 _symmetry_equiv_pos_site_id
 _symmetry_equiv_pos_as_xyz
  1  'x, y, z'
loop_
 _atom_site_type_symbol
 _atom_site_label
 _atom_site_symmetry_multiplicity
 _atom_site_fract_x
 _atom_site_fract_y
 _atom_site_fract_z
 _atom_site_occupancy
  Y  Y0  1  0.597589  0.597828  0.597663  1
  Y  Y1  1  0.599990  0.600267  0.204873  1
  Y  Y2  1  0.600102  0.204771  0.600181  1
  Y  Y3  1  0.204912  0.600225  0.600019  1
  Y  Y4  1  0.060516  0.438923  0.438928  1
  Y  Y5  1  0.438925  0.059771  0.059979  1
  Y  Y6  1  0.438889  0.060418  0.438888  1
  Y  Y7  1  0.059880  0.438966  0.059794  1
  Y  Y8  1  0.438916  0.438909  0.060484  1
  Y  Y9  1  0.060010  0.059714  0.438940  1
  Y  Y10  1  0.186423  0.813576  0.813574  1
  Y  Y11  1  0.804083  0.191379  0.191388  1
  Y  Y12  1  0.813586  0.186402  0.813586  1
  Y  Y13  1  0.191392  0.804086  0.191389  1
  Y  Y14  1  0.813578  0.813578  0.186417  1
  Y  Y15  1  0.191390  0.191378  0.804087  1
  In  In16  1  0.833120  0.833125  0.833122  1
  In  In17  1  0.831235  0.831258  0.502282  1
  In  In18  1  0.831235  0.502302  0.831254  1
  In  In19  1  0.502301  0.831245  0.831240  1
  Tc  Tc20  1  0.392123  0.392141  0.392130  1
  Ni  Ni21  1  0.391613  0.391620  0.826521  1
  Ni  Ni22  1  0.391621  0.826488  0.391626  1
  Ni  Ni23  1  0.826568  0.391625  0.391630  1
