# generated using pymatgen
data_Nd17Tm3Si15Ir
_symmetry_space_group_name_H-M   'P 1'
_cell_length_a   7.89517066
_cell_length_b   7.85130553
_cell_length_c   15.14800500
_cell_angle_alpha   90.25989074
_cell_angle_beta   89.82539471
_cell_angle_gamma   90.17610928
_symmetry_Int_Tables_number   1
_chemical_formula_structural   Nd17Tm3Si15Ir
_chemical_formula_sum   'Nd17 Tm3 Si15 Ir1'
_cell_volume   938.96698455
_cell_formula_units_Z   1
loop_
 _symmetry_equiv_pos_site_id
 _symmetry_equiv_pos_as_xyz
  1  'x, y, z'
loop_
 _atom_site_type_symbol
 _atom_site_label
 _atom_site_symmetry_multiplicity
 _atom_site_fract_x
 _atom_site_fract_y
 _atom_site_fract_z
 _atom_site_occupancy
  Nd  Nd0  1  0.695650  0.688552  0.501154  1
  Nd  Nd1  1  0.374214  0.010919  0.448454  1
  Nd  Nd2  1  0.488298  0.879296  0.699354  1
  Nd  Nd3  1  0.511075  0.123872  0.197155  1
  Nd  Nd4  1  0.876638  0.487634  0.300102  1
  Nd  Nd5  1  0.125131  0.502925  0.799596  1
  Nd  Nd6  1  0.624691  0.989188  0.948059  1
  Nd  Nd7  1  0.004751  0.374770  0.553449  1
  Nd  Nd8  1  0.988531  0.625052  0.051688  1
  Nd  Nd9  1  0.134317  0.984717  0.873380  1
  Nd  Nd10  1  0.518533  0.631405  0.125876  1
  Nd  Nd11  1  0.471612  0.362845  0.630242  1
  Nd  Nd12  1  0.628041  0.516300  0.874352  1
  Nd  Nd13  1  0.373393  0.481894  0.371993  1
  Nd  Nd14  1  0.874262  0.022314  0.376851  1
  Nd  Nd15  1  0.981184  0.126189  0.122932  1
  Nd  Nd16  1  0.026501  0.881480  0.624992  1
  Tm  Tm17  1  0.309201  0.308834  0.999589  1
  Tm  Tm18  1  0.188506  0.810160  0.249942  1
  Tm  Tm19  1  0.823429  0.189232  0.749110  1
  Si  Si20  1  0.330316  0.689605  0.952872  1
  Si  Si21  1  0.663795  0.304277  0.453510  1
  Si  Si22  1  0.692337  0.331052  0.047666  1
  Si  Si23  1  0.307474  0.670000  0.546116  1
  Si  Si24  1  0.810890  0.830148  0.204456  1
  Si  Si25  1  0.170734  0.191406  0.294837  1
  Si  Si26  1  0.830468  0.807697  0.797904  1
  Si  Si27  1  0.286806  0.923751  0.062079  1
  Si  Si28  1  0.574853  0.787977  0.309914  1
  Si  Si29  1  0.428330  0.208524  0.815554  1
  Si  Si30  1  0.782164  0.578009  0.691154  1
  Si  Si31  1  0.213425  0.424469  0.185981  1
  Si  Si32  1  0.706011  0.075399  0.562283  1
  Si  Si33  1  0.921277  0.284872  0.938798  1
  Si  Si34  1  0.083168  0.717765  0.436214  1
  Ir  Ir35  1  0.179999  0.177472  0.702394  1
