# generated using pymatgen
data_YHo2FeB7
_symmetry_space_group_name_H-M   'P 1'
_cell_length_a   7.99130821
_cell_length_b   7.99130769
_cell_length_c   9.27322100
_cell_angle_alpha   90.00000000
_cell_angle_beta   90.00000000
_cell_angle_gamma   155.36902309
_symmetry_Int_Tables_number   1
_chemical_formula_structural   YHo2FeB7
_chemical_formula_sum   'Y2 Ho4 Fe2 B14'
_cell_volume   246.81139097
_cell_formula_units_Z   2
loop_
 _symmetry_equiv_pos_site_id
 _symmetry_equiv_pos_as_xyz
  1  'x, y, z'
loop_
 _atom_site_type_symbol
 _atom_site_label
 _atom_site_symmetry_multiplicity
 _atom_site_fract_x
 _atom_site_fract_y
 _atom_site_fract_z
 _atom_site_occupancy
  Y  Y0  1  0.243517  0.756483  0.250000  1
  Y  Y1  1  0.756483  0.243517  0.750000  1
  Ho  Ho2  1  0.895061  0.104939  0.440036  1
  Ho  Ho3  1  0.104939  0.895061  0.559964  1
  Ho  Ho4  1  0.895061  0.104939  0.059964  1
  Ho  Ho5  1  0.104939  0.895061  0.940036  1
  Fe  Fe6  1  0.054084  0.945916  0.250000  1
  Fe  Fe7  1  0.945916  0.054084  0.750000  1
  B  B8  1  0.727570  0.272430  0.466971  1
  B  B9  1  0.272430  0.727570  0.533029  1
  B  B10  1  0.727570  0.272430  0.033029  1
  B  B11  1  0.272430  0.727570  0.966971  1
  B  B12  1  0.629872  0.370128  0.152783  1
  B  B13  1  0.370128  0.629872  0.847217  1
  B  B14  1  0.629872  0.370128  0.347217  1
  B  B15  1  0.370128  0.629872  0.652783  1
  B  B16  1  0.521544  0.478456  0.098446  1
  B  B17  1  0.478456  0.521544  0.901554  1
  B  B18  1  0.521544  0.478456  0.401554  1
  B  B19  1  0.478456  0.521544  0.598446  1
  B  B20  1  0.459189  0.540811  0.250000  1
  B  B21  1  0.540811  0.459189  0.750000  1
