# generated using pymatgen
data_NaLa5NdOsBr12
_symmetry_space_group_name_H-M   'P 1'
_cell_length_a   9.72655323
_cell_length_b   9.68570869
_cell_length_c   9.71681316
_cell_angle_alpha   107.28017046
_cell_angle_beta   107.53093222
_cell_angle_gamma   106.89407185
_symmetry_Int_Tables_number   1
_chemical_formula_structural   NaLa5NdOsBr12
_chemical_formula_sum   'Na1 La5 Nd1 Os1 Br12'
_cell_volume   757.39988075
_cell_formula_units_Z   1
loop_
 _symmetry_equiv_pos_site_id
 _symmetry_equiv_pos_as_xyz
  1  'x, y, z'
loop_
 _atom_site_type_symbol
 _atom_site_label
 _atom_site_symmetry_multiplicity
 _atom_site_fract_x
 _atom_site_fract_y
 _atom_site_fract_z
 _atom_site_occupancy
  Na  Na0  1  0.500466  0.499666  0.500639  1
  La  La1  1  0.113001  0.322267  0.030765  1
  La  La2  1  0.319352  0.030081  0.114033  1
  La  La3  1  0.031441  0.113582  0.320265  1
  La  La4  1  0.968252  0.883693  0.678715  1
  La  La5  1  0.680817  0.970774  0.885831  1
  Nd  Nd6  1  0.887405  0.683388  0.969210  1
  Os  Os7  1  0.000808  0.002780  0.999601  1
  Br  Br8  1  0.211035  0.682789  0.069688  1
  Br  Br9  1  0.454790  0.371896  0.159028  1
  Br  Br10  1  0.683933  0.071459  0.216870  1
  Br  Br11  1  0.927533  0.780612  0.310997  1
  Br  Br12  1  0.159472  0.455968  0.374435  1
  Br  Br13  1  0.372978  0.158299  0.456836  1
  Br  Br14  1  0.626641  0.839709  0.542635  1
  Br  Br15  1  0.841814  0.543658  0.632387  1
  Br  Br16  1  0.070442  0.214477  0.682513  1
  Br  Br17  1  0.315861  0.927482  0.782843  1
  Br  Br18  1  0.550492  0.628619  0.844201  1
  Br  Br19  1  0.783464  0.318806  0.928511  1
