# generated using pymatgen
data_K8V8As7P(O4F)8
_symmetry_space_group_name_H-M   'P 1'
_cell_length_a   6.49820000
_cell_length_b   10.83800200
_cell_length_c   13.04120400
_cell_angle_alpha   90.00000000
_cell_angle_beta   90.00000000
_cell_angle_gamma   90.00000000
_symmetry_Int_Tables_number   1
_chemical_formula_structural   K8V8As7P(O4F)8
_chemical_formula_sum   'K8 V8 As7 P1 O32 F8'
_cell_volume   918.45945465
_cell_formula_units_Z   1
loop_
 _symmetry_equiv_pos_site_id
 _symmetry_equiv_pos_as_xyz
  1  'x, y, z'
loop_
 _atom_site_type_symbol
 _atom_site_label
 _atom_site_symmetry_multiplicity
 _atom_site_fract_x
 _atom_site_fract_y
 _atom_site_fract_z
 _atom_site_occupancy
  K  K0  1  0.228294  0.800160  0.619846  1
  K  K1  1  0.729406  0.302224  0.881632  1
  K  K2  1  0.267667  0.803915  0.125358  1
  K  K3  1  0.769662  0.297247  0.377367  1
  K  K4  1  0.694017  0.059409  0.108924  1
  K  K5  1  0.312313  0.562193  0.894999  1
  K  K6  1  0.814393  0.060049  0.602646  1
  K  K7  1  0.187140  0.558964  0.393636  1
  V  V8  1  0.497416  0.002549  0.385325  1
  V  V9  1  0.501303  0.502742  0.611549  1
  V  V10  1  0.000613  0.003263  0.888841  1
  V  V11  1  0.999328  0.503227  0.111839  1
  V  V12  1  0.246882  0.249101  0.248992  1
  V  V13  1  0.748398  0.752713  0.752311  1
  V  V14  1  0.249568  0.251920  0.747900  1
  V  V15  1  0.755214  0.755180  0.253291  1
  As  As16  1  0.318688  0.251813  0.500598  1
  As  As17  1  0.680961  0.751988  0.498343  1
  As  As18  1  0.182785  0.251756  0.001254  1
  As  As19  1  0.817608  0.753177  0.999618  1
  As  As20  1  0.503664  0.504126  0.183706  1
  As  As21  1  0.496993  0.004478  0.816965  1
  As  As22  1  0.997020  0.503997  0.683009  1
  P  P23  1  0.999963  0.004842  0.316972  1
  O  O24  1  0.494925  0.135099  0.489156  1
  O  O25  1  0.502745  0.636856  0.508478  1
  O  O26  1  0.003203  0.137262  0.992574  1
  O  O27  1  0.992596  0.636118  0.007378  1
  O  O28  1  0.477099  0.377921  0.504869  1
  O  O29  1  0.523212  0.879118  0.492476  1
  O  O30  1  0.032140  0.381451  0.002871  1
  O  O31  1  0.973861  0.880465  0.997432  1
  O  O32  1  0.164275  0.274168  0.396143  1
  O  O33  1  0.832828  0.772529  0.604156  1
  O  O34  1  0.337377  0.267444  0.896011  1
  O  O35  1  0.666742  0.772833  0.105998  1
  O  O36  1  0.157008  0.230489  0.602264  1
  O  O37  1  0.845366  0.728742  0.398232  1
  O  O38  1  0.341126  0.229050  0.104048  1
  O  O39  1  0.654174  0.734330  0.898160  1
  O  O40  1  0.301931  0.539484  0.105044  1
  O  O41  1  0.698079  0.037145  0.896474  1
  O  O42  1  0.198617  0.536630  0.603857  1
  O  O43  1  0.811489  0.029313  0.386862  1
  O  O44  1  0.698929  0.473701  0.100257  1
  O  O45  1  0.300743  0.975593  0.899795  1
  O  O46  1  0.801612  0.475621  0.599718  1
  O  O47  1  0.187965  0.982771  0.386312  1
  O  O48  1  0.539549  0.626225  0.266547  1
  O  O49  1  0.469099  0.126914  0.733330  1
  O  O50  1  0.967914  0.627283  0.765662  1
  O  O51  1  0.031558  0.117831  0.243951  1
  O  O52  1  0.453978  0.384000  0.266031  1
  O  O53  1  0.539416  0.884211  0.733474  1
  O  O54  1  0.040164  0.383618  0.766227  1
  O  O55  1  0.959141  0.893380  0.244090  1
  F  F56  1  0.524976  0.880461  0.272207  1
  F  F57  1  0.471468  0.382069  0.727460  1
  F  F58  1  0.971482  0.881739  0.773467  1
  F  F59  1  0.023058  0.377975  0.225142  1
  F  F60  1  0.481646  0.130927  0.275272  1
  F  F61  1  0.524126  0.628456  0.724906  1
  F  F62  1  0.023693  0.128378  0.775149  1
  F  F63  1  0.981395  0.632049  0.223597  1
