# generated using pymatgen
data_Pr3ErAl22Ga2Pt9
_symmetry_space_group_name_H-M   'P 1'
_cell_length_a   7.53781381
_cell_length_b   7.55973754
_cell_length_c   13.36652137
_cell_angle_alpha   84.79609154
_cell_angle_beta   100.61028803
_cell_angle_gamma   119.62541833
_symmetry_Int_Tables_number   1
_chemical_formula_structural   Pr3ErAl22Ga2Pt9
_chemical_formula_sum   'Pr3 Er1 Al22 Ga2 Pt9'
_cell_volume   650.78628199
_cell_formula_units_Z   1
loop_
 _symmetry_equiv_pos_site_id
 _symmetry_equiv_pos_as_xyz
  1  'x, y, z'
loop_
 _atom_site_type_symbol
 _atom_site_label
 _atom_site_symmetry_multiplicity
 _atom_site_fract_x
 _atom_site_fract_y
 _atom_site_fract_z
 _atom_site_occupancy
  Pr  Pr0  1  0.734845  0.998252  0.191364  1
  Pr  Pr1  1  0.264978  0.002296  0.808163  1
  Pr  Pr2  1  0.062209  0.671684  0.191401  1
  Er  Er3  1  0.936281  0.327790  0.806068  1
  Al  Al4  1  0.979023  0.663682  0.944244  1
  Al  Al5  1  0.020379  0.334353  0.051307  1
  Al  Al6  1  0.395032  0.660475  0.815919  1
  Al  Al7  1  0.601055  0.334781  0.183970  1
  Al  Al8  1  0.880881  0.663598  0.668226  1
  Al  Al9  1  0.120025  0.334842  0.334235  1
  Al  Al10  1  0.608585  0.461394  0.814942  1
  Al  Al11  1  0.395417  0.539140  0.184559  1
  Al  Al12  1  0.230671  0.341430  0.667658  1
  Al  Al13  1  0.768745  0.658518  0.335275  1
  Al  Al14  1  0.854550  0.333047  0.558646  1
  Al  Al15  1  0.186443  0.999774  0.558644  1
  Al  Al16  1  0.813656  0.000607  0.442475  1
  Al  Al17  1  0.352630  0.003344  0.052875  1
  Al  Al18  1  0.649119  0.999555  0.944780  1
  Al  Al19  1  0.556932  0.994391  0.668064  1
  Al  Al20  1  0.445769  0.006923  0.334410  1
  Al  Al21  1  0.521649  0.668062  0.560127  1
  Al  Al22  1  0.479135  0.331910  0.441551  1
  Al  Al23  1  0.679541  0.664549  0.043992  1
  Al  Al24  1  0.316620  0.335053  0.952044  1
  Al  Al25  1  0.145661  0.666186  0.443517  1
  Ga  Ga26  1  0.797207  0.864382  0.814433  1
  Ga  Ga27  1  0.201000  0.139275  0.185279  1
  Pt  Pt28  1  0.328905  0.670964  0.999232  1
  Pt  Pt29  1  0.547971  0.327631  0.636249  1
  Pt  Pt30  1  0.453010  0.671523  0.365535  1
  Pt  Pt31  1  0.886446  0.007561  0.635838  1
  Pt  Pt32  1  0.115210  0.993790  0.366160  1
  Pt  Pt33  1  0.670663  0.329416  0.998264  1
  Pt  Pt34  1  0.206396  0.665897  0.638042  1
  Pt  Pt35  1  0.793152  0.333583  0.363832  1
  Pt  Pt36  1  0.000210  0.000344  0.998681  1
