# generated using pymatgen
data_TbYSc3Si4
_symmetry_space_group_name_H-M   'P 1'
_cell_length_a   7.11643903
_cell_length_b   7.40135400
_cell_length_c   14.02589605
_cell_angle_alpha   89.99976966
_cell_angle_beta   89.98986632
_cell_angle_gamma   90.00360717
_symmetry_Int_Tables_number   1
_chemical_formula_structural   TbYSc3Si4
_chemical_formula_sum   'Tb4 Y4 Sc12 Si16'
_cell_volume   738.76194868
_cell_formula_units_Z   4
loop_
 _symmetry_equiv_pos_site_id
 _symmetry_equiv_pos_as_xyz
  1  'x, y, z'
loop_
 _atom_site_type_symbol
 _atom_site_label
 _atom_site_symmetry_multiplicity
 _atom_site_fract_x
 _atom_site_fract_y
 _atom_site_fract_z
 _atom_site_occupancy
  Tb  Tb0  1  0.512145  0.325072  0.097044  1
  Tb  Tb1  1  0.012112  0.175011  0.403004  1
  Tb  Tb2  1  0.512163  0.325243  0.402837  1
  Tb  Tb3  1  0.487817  0.675021  0.597290  1
  Y  Y4  1  0.011984  0.175003  0.096863  1
  Y  Y5  1  0.988016  0.824709  0.903002  1
  Y  Y6  1  0.487990  0.675030  0.902818  1
  Y  Y7  1  0.988025  0.824924  0.597089  1
  Sc  Sc8  1  0.160431  0.501766  0.750093  1
  Sc  Sc9  1  0.839363  0.498005  0.249891  1
  Sc  Sc10  1  0.339584  0.001898  0.249896  1
  Sc  Sc11  1  0.660269  0.997977  0.750072  1
  Sc  Sc12  1  0.330743  0.176624  0.625360  1
  Sc  Sc13  1  0.669351  0.823353  0.374736  1
  Sc  Sc14  1  0.169086  0.676676  0.374622  1
  Sc  Sc15  1  0.669295  0.823297  0.125241  1
  Sc  Sc16  1  0.830891  0.323472  0.625386  1
  Sc  Sc17  1  0.330701  0.176665  0.874863  1
  Sc  Sc18  1  0.830940  0.323299  0.874646  1
  Sc  Sc19  1  0.169049  0.676762  0.125290  1
  Si  Si20  1  0.033331  0.117809  0.750084  1
  Si  Si21  1  0.966393  0.882311  0.249883  1
  Si  Si22  1  0.466266  0.618126  0.249910  1
  Si  Si23  1  0.533459  0.381780  0.750127  1
  Si  Si24  1  0.285407  0.874396  0.750098  1
  Si  Si25  1  0.714694  0.125349  0.249826  1
  Si  Si26  1  0.214452  0.374787  0.249892  1
  Si  Si27  1  0.785593  0.625546  0.750160  1
  Si  Si28  1  0.157040  0.464533  0.539616  1
  Si  Si29  1  0.843002  0.535710  0.460638  1
  Si  Si30  1  0.343012  0.964497  0.460641  1
  Si  Si31  1  0.842888  0.535547  0.039449  1
  Si  Si32  1  0.657180  0.035670  0.539550  1
  Si  Si33  1  0.157281  0.464347  0.960357  1
  Si  Si34  1  0.657288  0.035511  0.960345  1
  Si  Si35  1  0.342758  0.964272  0.039380  1
