# generated using pymatgen
data_Yb5YU2O12
_symmetry_space_group_name_H-M   'P 1'
_cell_length_a   6.72068437
_cell_length_b   6.70905019
_cell_length_c   6.70910643
_cell_angle_alpha   91.82563320
_cell_angle_beta   91.32818215
_cell_angle_gamma   91.61280257
_symmetry_Int_Tables_number   1
_chemical_formula_structural   Yb5YU2O12
_chemical_formula_sum   'Yb5 Y1 U2 O12'
_cell_volume   302.14854736
_cell_formula_units_Z   1
loop_
 _symmetry_equiv_pos_site_id
 _symmetry_equiv_pos_as_xyz
  1  'x, y, z'
loop_
 _atom_site_type_symbol
 _atom_site_label
 _atom_site_symmetry_multiplicity
 _atom_site_fract_x
 _atom_site_fract_y
 _atom_site_fract_z
 _atom_site_occupancy
  Yb  Yb0  1  0.748980  0.939313  0.441905  1
  Yb  Yb1  1  0.554740  0.249627  0.062201  1
  Yb  Yb2  1  0.251589  0.058635  0.555831  1
  Yb  Yb3  1  0.063177  0.559634  0.251662  1
  Yb  Yb4  1  0.443410  0.749041  0.939887  1
  Y  Y5  1  0.937451  0.441384  0.748823  1
  U  U6  1  0.999397  0.999559  0.000713  1
  U  U7  1  0.498420  0.500524  0.499000  1
  O  O8  1  0.295211  0.063354  0.921287  1
  O  O9  1  0.064984  0.919576  0.296537  1
  O  O10  1  0.919426  0.304798  0.061581  1
  O  O11  1  0.703255  0.935510  0.079424  1
  O  O12  1  0.933760  0.089116  0.700137  1
  O  O13  1  0.079332  0.693495  0.928080  1
  O  O14  1  0.194895  0.408108  0.542275  1
  O  O15  1  0.410272  0.539201  0.201441  1
  O  O16  1  0.461339  0.796909  0.589640  1
  O  O17  1  0.596233  0.459692  0.799647  1
  O  O18  1  0.805688  0.589540  0.468921  1
  O  O19  1  0.538441  0.202985  0.411009  1
