# generated using pymatgen
data_Ti10CoSn6Ge
_symmetry_space_group_name_H-M   'P 1'
_cell_length_a   8.23893300
_cell_length_b   8.23893338
_cell_length_c   5.53386600
_cell_angle_alpha   90.00000000
_cell_angle_beta   90.00000000
_cell_angle_gamma   119.99999448
_symmetry_Int_Tables_number   1
_chemical_formula_structural   Ti10CoSn6Ge
_chemical_formula_sum   'Ti10 Co1 Sn6 Ge1'
_cell_volume   325.31287858
_cell_formula_units_Z   1
loop_
 _symmetry_equiv_pos_site_id
 _symmetry_equiv_pos_as_xyz
  1  'x, y, z'
loop_
 _atom_site_type_symbol
 _atom_site_label
 _atom_site_symmetry_multiplicity
 _atom_site_fract_x
 _atom_site_fract_y
 _atom_site_fract_z
 _atom_site_occupancy
  Ti  Ti0  1  0.255453  0.000000  0.761395  1
  Ti  Ti1  1  0.744547  0.000000  0.238605  1
  Ti  Ti2  1  0.000000  0.255453  0.761395  1
  Ti  Ti3  1  0.000000  0.744547  0.238605  1
  Ti  Ti4  1  0.744547  0.744547  0.761395  1
  Ti  Ti5  1  0.255453  0.255453  0.238605  1
  Ti  Ti6  1  0.333333  0.666667  0.500000  1
  Ti  Ti7  1  0.666667  0.333333  0.500000  1
  Ti  Ti8  1  0.666667  0.333333  0.000000  1
  Ti  Ti9  1  0.333333  0.666667  0.000000  1
  Co  Co10  1  0.000000  0.000000  0.000000  1
  Sn  Sn11  1  0.607315  0.000000  0.748017  1
  Sn  Sn12  1  0.392685  0.000000  0.251983  1
  Sn  Sn13  1  0.000000  0.607315  0.748017  1
  Sn  Sn14  1  0.000000  0.392685  0.251983  1
  Sn  Sn15  1  0.392685  0.392685  0.748017  1
  Sn  Sn16  1  0.607315  0.607315  0.251983  1
  Ge  Ge17  1  0.000000  0.000000  0.500000  1
