# generated using pymatgen
data_TbHo2ThMgRu
_symmetry_space_group_name_H-M   'P 1'
_cell_length_a   9.74735297
_cell_length_b   9.74401598
_cell_length_c   9.74401557
_cell_angle_alpha   60.02265741
_cell_angle_beta   59.98866686
_cell_angle_gamma   59.98866558
_symmetry_Int_Tables_number   1
_chemical_formula_structural   TbHo2ThMgRu
_chemical_formula_sum   'Tb4 Ho8 Th4 Mg4 Ru4'
_cell_volume   654.40636851
_cell_formula_units_Z   4
loop_
 _symmetry_equiv_pos_site_id
 _symmetry_equiv_pos_as_xyz
  1  'x, y, z'
loop_
 _atom_site_type_symbol
 _atom_site_label
 _atom_site_symmetry_multiplicity
 _atom_site_fract_x
 _atom_site_fract_y
 _atom_site_fract_z
 _atom_site_occupancy
  Tb  Tb0  1  0.814290  0.185710  0.814290  1
  Tb  Tb1  1  0.185710  0.814290  0.185710  1
  Tb  Tb2  1  0.814290  0.814290  0.185710  1
  Tb  Tb3  1  0.185710  0.185710  0.814290  1
  Ho  Ho4  1  0.063730  0.436270  0.436270  1
  Ho  Ho5  1  0.436270  0.063730  0.063730  1
  Ho  Ho6  1  0.436436  0.063564  0.436436  1
  Ho  Ho7  1  0.063564  0.436436  0.063564  1
  Ho  Ho8  1  0.436436  0.436436  0.063564  1
  Ho  Ho9  1  0.063564  0.063564  0.436436  1
  Ho  Ho10  1  0.186176  0.813824  0.813824  1
  Ho  Ho11  1  0.813824  0.186176  0.186176  1
  Th  Th12  1  0.596182  0.596244  0.596244  1
  Th  Th13  1  0.596244  0.596182  0.211333  1
  Th  Th14  1  0.596244  0.211333  0.596182  1
  Th  Th15  1  0.211333  0.596244  0.596244  1
  Mg  Mg16  1  0.830226  0.829843  0.829843  1
  Mg  Mg17  1  0.829843  0.830226  0.510089  1
  Mg  Mg18  1  0.829843  0.510089  0.830226  1
  Mg  Mg19  1  0.510089  0.829843  0.829843  1
  Ru  Ru20  1  0.393736  0.392945  0.392945  1
  Ru  Ru21  1  0.392945  0.393736  0.820374  1
  Ru  Ru22  1  0.392945  0.820374  0.393736  1
  Ru  Ru23  1  0.820374  0.392945  0.392945  1
