# generated using pymatgen
data_Tb16MgIn3IrPd3
_symmetry_space_group_name_H-M   'P 1'
_cell_length_a   9.73519213
_cell_length_b   9.75205338
_cell_length_c   9.73519134
_cell_angle_alpha   60.43032643
_cell_angle_beta   60.32930232
_cell_angle_gamma   60.43032236
_symmetry_Int_Tables_number   1
_chemical_formula_structural   Tb16MgIn3IrPd3
_chemical_formula_sum   'Tb16 Mg1 In3 Ir1 Pd3'
_cell_volume   659.39792829
_cell_formula_units_Z   1
loop_
 _symmetry_equiv_pos_site_id
 _symmetry_equiv_pos_as_xyz
  1  'x, y, z'
loop_
 _atom_site_type_symbol
 _atom_site_label
 _atom_site_symmetry_multiplicity
 _atom_site_fract_x
 _atom_site_fract_y
 _atom_site_fract_z
 _atom_site_occupancy
  Tb  Tb0  1  0.102972  0.689673  0.102972  1
  Tb  Tb1  1  0.941093  0.942462  0.558899  1
  Tb  Tb2  1  0.940880  0.555398  0.940880  1
  Tb  Tb3  1  0.315025  0.686835  0.315025  1
  Tb  Tb4  1  0.939551  0.557148  0.565738  1
  Tb  Tb5  1  0.312331  0.317602  0.686119  1
  Tb  Tb6  1  0.097322  0.104003  0.097322  1
  Tb  Tb7  1  0.565738  0.557148  0.939551  1
  Tb  Tb8  1  0.098509  0.105117  0.697259  1
  Tb  Tb9  1  0.687339  0.315944  0.687339  1
  Tb  Tb10  1  0.685317  0.687546  0.313219  1
  Tb  Tb11  1  0.686119  0.317602  0.312331  1
  Tb  Tb12  1  0.313219  0.687546  0.685317  1
  Tb  Tb13  1  0.560520  0.940749  0.560520  1
  Tb  Tb14  1  0.697259  0.105117  0.098509  1
  Tb  Tb15  1  0.558899  0.942462  0.941093  1
  Mg  Mg16  1  0.327599  0.326467  0.327599  1
  In  In17  1  0.003562  0.331373  0.333294  1
  In  In18  1  0.332100  0.004457  0.332100  1
  In  In19  1  0.333294  0.331373  0.003562  1
  Ir  Ir20  1  0.892061  0.321785  0.892061  1
  Pd  Pd21  1  0.895166  0.891539  0.895166  1
  Pd  Pd22  1  0.893696  0.890326  0.320429  1
  Pd  Pd23  1  0.320429  0.890326  0.893696  1
