# generated using pymatgen
data_Er13Lu7Pb16
_symmetry_space_group_name_H-M   'P 1'
_cell_length_a   8.13103728
_cell_length_b   8.18872666
_cell_length_c   15.47173004
_cell_angle_alpha   89.99992152
_cell_angle_beta   90.01849008
_cell_angle_gamma   90.03411534
_symmetry_Int_Tables_number   1
_chemical_formula_structural   Er13Lu7Pb16
_chemical_formula_sum   'Er13 Lu7 Pb16'
_cell_volume   1030.15151585
_cell_formula_units_Z   1
loop_
 _symmetry_equiv_pos_site_id
 _symmetry_equiv_pos_as_xyz
  1  'x, y, z'
loop_
 _atom_site_type_symbol
 _atom_site_label
 _atom_site_symmetry_multiplicity
 _atom_site_fract_x
 _atom_site_fract_y
 _atom_site_fract_z
 _atom_site_occupancy
  Er  Er0  1  0.122410  0.341831  0.121512  1
  Er  Er1  1  0.622162  0.158475  0.121654  1
  Er  Er2  1  0.122212  0.342022  0.378487  1
  Er  Er3  1  0.377703  0.842100  0.621479  1
  Er  Er4  1  0.877972  0.657994  0.878486  1
  Er  Er5  1  0.539164  0.324083  0.900167  1
  Er  Er6  1  0.039604  0.176115  0.599751  1
  Er  Er7  1  0.460758  0.676267  0.400253  1
  Er  Er8  1  0.960588  0.824199  0.099844  1
  Er  Er9  1  0.461069  0.676180  0.099508  1
  Er  Er10  1  0.960788  0.824145  0.400514  1
  Er  Er11  1  0.539100  0.324089  0.599512  1
  Er  Er12  1  0.039183  0.175350  0.899929  1
  Lu  Lu13  1  0.377074  0.842087  0.878194  1
  Lu  Lu14  1  0.877079  0.657646  0.621621  1
  Lu  Lu15  1  0.622750  0.157552  0.378501  1
  Lu  Lu16  1  0.208798  0.504918  0.750139  1
  Lu  Lu17  1  0.708868  0.995352  0.749881  1
  Lu  Lu18  1  0.791029  0.495464  0.250281  1
  Lu  Lu19  1  0.291430  0.004648  0.249995  1
  Pb  Pb20  1  0.281032  0.031911  0.042578  1
  Pb  Pb21  1  0.780415  0.466965  0.457306  1
  Pb  Pb22  1  0.720093  0.966959  0.542838  1
  Pb  Pb23  1  0.219816  0.532816  0.957321  1
  Pb  Pb24  1  0.718156  0.966839  0.956924  1
  Pb  Pb25  1  0.218445  0.532926  0.543322  1
  Pb  Pb26  1  0.281542  0.032821  0.456544  1
  Pb  Pb27  1  0.780409  0.467636  0.043023  1
  Pb  Pb28  1  0.571124  0.627031  0.750114  1
  Pb  Pb29  1  0.070915  0.872880  0.749740  1
  Pb  Pb30  1  0.429304  0.373483  0.250480  1
  Pb  Pb31  1  0.928446  0.126498  0.250146  1
  Pb  Pb32  1  0.350480  0.155752  0.750059  1
  Pb  Pb33  1  0.850416  0.344352  0.749752  1
  Pb  Pb34  1  0.649931  0.844571  0.250110  1
  Pb  Pb35  1  0.149735  0.656042  0.250036  1
