# generated using pymatgen
data_Zr8TaTi11Si16
_symmetry_space_group_name_H-M   'P 1'
_cell_length_a   6.85375338
_cell_length_b   6.85375350
_cell_length_c   12.55908400
_cell_angle_alpha   89.96064473
_cell_angle_beta   90.03935553
_cell_angle_gamma   90.03409327
_symmetry_Int_Tables_number   1
_chemical_formula_structural   Zr8TaTi11Si16
_chemical_formula_sum   'Zr8 Ta1 Ti11 Si16'
_cell_volume   589.94922749
_cell_formula_units_Z   1
loop_
 _symmetry_equiv_pos_site_id
 _symmetry_equiv_pos_as_xyz
  1  'x, y, z'
loop_
 _atom_site_type_symbol
 _atom_site_label
 _atom_site_symmetry_multiplicity
 _atom_site_fract_x
 _atom_site_fract_y
 _atom_site_fract_z
 _atom_site_occupancy
  Zr  Zr0  1  0.344208  0.999111  0.467518  1
  Zr  Zr1  1  0.501197  0.843390  0.717108  1
  Zr  Zr2  1  0.498209  0.156119  0.217615  1
  Zr  Zr3  1  0.843390  0.501197  0.282892  1
  Zr  Zr4  1  0.156119  0.498209  0.782385  1
  Zr  Zr5  1  0.655752  0.001074  0.967934  1
  Zr  Zr6  1  0.999111  0.344208  0.532482  1
  Zr  Zr7  1  0.001074  0.655752  0.032066  1
  Ta  Ta8  1  0.328633  0.328633  0.000000  1
  Ti  Ti9  1  0.170929  0.829579  0.250340  1
  Ti  Ti10  1  0.829579  0.170929  0.749660  1
  Ti  Ti11  1  0.671346  0.671346  0.500000  1
  Ti  Ti12  1  0.153654  0.004811  0.873405  1
  Ti  Ti13  1  0.495627  0.652287  0.123128  1
  Ti  Ti14  1  0.503905  0.347522  0.622762  1
  Ti  Ti15  1  0.652287  0.495627  0.876872  1
  Ti  Ti16  1  0.347522  0.503905  0.377238  1
  Ti  Ti17  1  0.847064  0.995824  0.373414  1
  Ti  Ti18  1  0.004811  0.153654  0.126595  1
  Ti  Ti19  1  0.995824  0.847064  0.626586  1
  Si  Si20  1  0.205267  0.134618  0.677552  1
  Si  Si21  1  0.365314  0.706876  0.927076  1
  Si  Si22  1  0.634915  0.294133  0.427775  1
  Si  Si23  1  0.706876  0.365314  0.072924  1
  Si  Si24  1  0.294133  0.634915  0.572225  1
  Si  Si25  1  0.794842  0.865303  0.178092  1
  Si  Si26  1  0.134618  0.205267  0.322448  1
  Si  Si27  1  0.865303  0.794842  0.821908  1
  Si  Si28  1  0.292321  0.952385  0.064495  1
  Si  Si29  1  0.545987  0.793063  0.313941  1
  Si  Si30  1  0.455503  0.205782  0.811892  1
  Si  Si31  1  0.793063  0.545987  0.686059  1
  Si  Si32  1  0.205782  0.455503  0.188108  1
  Si  Si33  1  0.707353  0.046096  0.563763  1
  Si  Si34  1  0.952385  0.292321  0.935505  1
  Si  Si35  1  0.046096  0.707353  0.436237  1
