# generated using pymatgen
data_Er8Ti8Nb3Si16Au
_symmetry_space_group_name_H-M   'P 1'
_cell_length_a   7.05380193
_cell_length_b   7.05380312
_cell_length_c   12.87115645
_cell_angle_alpha   90.18167171
_cell_angle_beta   89.81832915
_cell_angle_gamma   89.61568809
_symmetry_Int_Tables_number   1
_chemical_formula_structural   Er8Ti8Nb3Si16Au
_chemical_formula_sum   'Er8 Ti8 Nb3 Si16 Au1'
_cell_volume   640.39804621
_cell_formula_units_Z   1
loop_
 _symmetry_equiv_pos_site_id
 _symmetry_equiv_pos_as_xyz
  1  'x, y, z'
loop_
 _atom_site_type_symbol
 _atom_site_label
 _atom_site_symmetry_multiplicity
 _atom_site_fract_x
 _atom_site_fract_y
 _atom_site_fract_z
 _atom_site_occupancy
  Er  Er0  1  0.342086  0.000334  0.467177  1
  Er  Er1  1  0.498197  0.841678  0.717436  1
  Er  Er2  1  0.500919  0.156940  0.215093  1
  Er  Er3  1  0.841678  0.498197  0.282564  1
  Er  Er4  1  0.156940  0.500919  0.784907  1
  Er  Er5  1  0.656534  0.001706  0.968450  1
  Er  Er6  1  0.000334  0.342086  0.532823  1
  Er  Er7  1  0.001706  0.656534  0.031550  1
  Ti  Ti8  1  0.147128  0.007117  0.876081  1
  Ti  Ti9  1  0.494819  0.651931  0.123452  1
  Ti  Ti10  1  0.507889  0.351207  0.625437  1
  Ti  Ti11  1  0.651931  0.494819  0.876548  1
  Ti  Ti12  1  0.351207  0.507889  0.374563  1
  Ti  Ti13  1  0.849279  0.990923  0.373552  1
  Ti  Ti14  1  0.007117  0.147128  0.123919  1
  Ti  Ti15  1  0.990923  0.849279  0.626448  1
  Nb  Nb16  1  0.174286  0.825855  0.249104  1
  Nb  Nb17  1  0.825855  0.174286  0.750896  1
  Nb  Nb18  1  0.672446  0.672446  0.500000  1
  Si  Si19  1  0.203251  0.132991  0.683237  1
  Si  Si20  1  0.373326  0.719121  0.928088  1
  Si  Si21  1  0.631563  0.293564  0.432486  1
  Si  Si22  1  0.719121  0.373326  0.071912  1
  Si  Si23  1  0.293564  0.631563  0.567514  1
  Si  Si24  1  0.796869  0.865946  0.181901  1
  Si  Si25  1  0.132991  0.203251  0.316763  1
  Si  Si26  1  0.865946  0.796869  0.818099  1
  Si  Si27  1  0.288065  0.939943  0.063473  1
  Si  Si28  1  0.547895  0.792665  0.313053  1
  Si  Si29  1  0.451718  0.207987  0.810509  1
  Si  Si30  1  0.792665  0.547895  0.686947  1
  Si  Si31  1  0.207987  0.451718  0.189491  1
  Si  Si32  1  0.707755  0.047835  0.562989  1
  Si  Si33  1  0.939943  0.288065  0.936527  1
  Si  Si34  1  0.047835  0.707755  0.437011  1
  Au  Au35  1  0.328237  0.328237  0.000000  1
