# generated using pymatgen
data_Dy2Er3IrRu
_symmetry_space_group_name_H-M   'P 1'
_cell_length_a   6.36907361
_cell_length_b   7.24626633
_cell_length_c   8.44999167
_cell_angle_alpha   96.78470410
_cell_angle_beta   112.13984659
_cell_angle_gamma   90.00000082
_symmetry_Int_Tables_number   1
_chemical_formula_structural   Dy2Er3IrRu
_chemical_formula_sum   'Dy4 Er6 Ir2 Ru2'
_cell_volume   358.27911270
_cell_formula_units_Z   2
loop_
 _symmetry_equiv_pos_site_id
 _symmetry_equiv_pos_as_xyz
  1  'x, y, z'
loop_
 _atom_site_type_symbol
 _atom_site_label
 _atom_site_symmetry_multiplicity
 _atom_site_fract_x
 _atom_site_fract_y
 _atom_site_fract_z
 _atom_site_occupancy
  Dy  Dy0  1  0.790161  0.581998  0.813016  1
  Dy  Dy1  1  0.977146  0.918002  0.186984  1
  Dy  Dy2  1  0.211519  0.415504  0.185756  1
  Dy  Dy3  1  0.025763  0.084496  0.814244  1
  Er  Er4  1  0.207888  0.682811  0.563616  1
  Er  Er5  1  0.644271  0.817189  0.436384  1
  Er  Er6  1  0.791517  0.315394  0.437742  1
  Er  Er7  1  0.353776  0.184606  0.562258  1
  Er  Er8  1  0.424064  0.750000  0.000000  1
  Er  Er9  1  0.575453  0.250000  0.000000  1
  Ir  Ir10  1  0.601128  0.924296  0.777881  1
  Ir  Ir11  1  0.823245  0.575704  0.222119  1
  Ru  Ru12  1  0.397476  0.073883  0.220883  1
  Ru  Ru13  1  0.176594  0.426117  0.779117  1
