# generated using pymatgen
data_ThScCrB6
_symmetry_space_group_name_H-M   'P 1'
_cell_length_a   3.58082900
_cell_length_b   9.09869500
_cell_length_c   11.55780400
_cell_angle_alpha   90.00000000
_cell_angle_beta   90.00000000
_cell_angle_gamma   90.00000000
_symmetry_Int_Tables_number   1
_chemical_formula_structural   ThScCrB6
_chemical_formula_sum   'Th4 Sc4 Cr4 B24'
_cell_volume   376.56332022
_cell_formula_units_Z   4
loop_
 _symmetry_equiv_pos_site_id
 _symmetry_equiv_pos_as_xyz
  1  'x, y, z'
loop_
 _atom_site_type_symbol
 _atom_site_label
 _atom_site_symmetry_multiplicity
 _atom_site_fract_x
 _atom_site_fract_y
 _atom_site_fract_z
 _atom_site_occupancy
  Th  Th0  1  0.000000  0.821344  0.085248  1
  Th  Th1  1  0.000000  0.178656  0.914752  1
  Th  Th2  1  0.000000  0.321344  0.414752  1
  Th  Th3  1  0.000000  0.678656  0.585248  1
  Sc  Sc4  1  0.000000  0.444358  0.129231  1
  Sc  Sc5  1  0.000000  0.555642  0.870769  1
  Sc  Sc6  1  0.000000  0.944358  0.370769  1
  Sc  Sc7  1  0.000000  0.055642  0.629231  1
  Cr  Cr8  1  0.000000  0.141853  0.182788  1
  Cr  Cr9  1  0.000000  0.858147  0.817212  1
  Cr  Cr10  1  0.000000  0.641853  0.317212  1
  Cr  Cr11  1  0.000000  0.358147  0.682788  1
  B  B12  1  0.500000  0.057513  0.071992  1
  B  B13  1  0.500000  0.942487  0.928008  1
  B  B14  1  0.500000  0.557513  0.428008  1
  B  B15  1  0.500000  0.442487  0.571992  1
  B  B16  1  0.500000  0.254196  0.085145  1
  B  B17  1  0.500000  0.745804  0.914855  1
  B  B18  1  0.500000  0.754196  0.414855  1
  B  B19  1  0.500000  0.245804  0.585145  1
  B  B20  1  0.500000  0.293641  0.233521  1
  B  B21  1  0.500000  0.706359  0.766479  1
  B  B22  1  0.500000  0.793641  0.266479  1
  B  B23  1  0.500000  0.206359  0.733521  1
  B  B24  1  0.500000  0.127927  0.315217  1
  B  B25  1  0.500000  0.872073  0.684783  1
  B  B26  1  0.500000  0.627927  0.184783  1
  B  B27  1  0.500000  0.372073  0.815217  1
  B  B28  1  0.500000  0.484117  0.284330  1
  B  B29  1  0.500000  0.515883  0.715670  1
  B  B30  1  0.500000  0.984117  0.215670  1
  B  B31  1  0.500000  0.015883  0.784330  1
  B  B32  1  0.500000  0.095048  0.474346  1
  B  B33  1  0.500000  0.904952  0.525654  1
  B  B34  1  0.500000  0.595048  0.025654  1
  B  B35  1  0.500000  0.404952  0.974346  1
