# generated using pymatgen
data_Sc10(In3Co)3
_symmetry_space_group_name_H-M   'P 1'
_cell_length_a   3.36524300
_cell_length_b   7.72243248
_cell_length_c   17.56780650
_cell_angle_alpha   90.45034181
_cell_angle_beta   90.00000000
_cell_angle_gamma   90.00000000
_symmetry_Int_Tables_number   1
_chemical_formula_structural   Sc10(In3Co)3
_chemical_formula_sum   'Sc10 In9 Co3'
_cell_volume   456.53562572
_cell_formula_units_Z   1
loop_
 _symmetry_equiv_pos_site_id
 _symmetry_equiv_pos_as_xyz
  1  'x, y, z'
loop_
 _atom_site_type_symbol
 _atom_site_label
 _atom_site_symmetry_multiplicity
 _atom_site_fract_x
 _atom_site_fract_y
 _atom_site_fract_z
 _atom_site_occupancy
  Sc  Sc0  1  0.500000  0.499745  0.501611  1
  Sc  Sc1  1  0.500000  0.999620  0.997628  1
  Sc  Sc2  1  0.500000  0.863906  0.432212  1
  Sc  Sc3  1  0.500000  0.119678  0.593511  1
  Sc  Sc4  1  0.500000  0.622423  0.906908  1
  Sc  Sc5  1  0.500000  0.377380  0.084958  1
  Sc  Sc6  1  0.500000  0.289539  0.270904  1
  Sc  Sc7  1  0.500000  0.757516  0.723618  1
  Sc  Sc8  1  0.500000  0.260025  0.778620  1
  Sc  Sc9  1  0.500000  0.707074  0.210624  1
  In  In10  1  0.000000  0.200705  0.438059  1
  In  In11  1  0.000000  0.793390  0.576175  1
  In  In12  1  0.000000  0.301576  0.931818  1
  In  In13  1  0.000000  0.697913  0.061339  1
  In  In14  1  0.000000  0.572529  0.351755  1
  In  In15  1  0.000000  0.430575  0.652101  1
  In  In16  1  0.000000  0.933596  0.848547  1
  In  In17  1  0.000000  0.076737  0.145006  1
  In  In18  1  0.000000  0.962881  0.302666  1
  Co  Co19  1  0.000000  0.036915  0.696292  1
  Co  Co20  1  0.000000  0.533870  0.805625  1
  Co  Co21  1  0.000000  0.462407  0.190022  1
