# generated using pymatgen
data_Mg2Cd2P7N12
_symmetry_space_group_name_H-M   'P 1'
_cell_length_a   7.32369361
_cell_length_b   7.37443188
_cell_length_c   7.32369428
_cell_angle_alpha   109.79439970
_cell_angle_beta   108.54297099
_cell_angle_gamma   109.79440152
_symmetry_Int_Tables_number   1
_chemical_formula_structural   Mg2Cd2P7N12
_chemical_formula_sum   'Mg2 Cd2 P7 N12'
_cell_volume   305.50413253
_cell_formula_units_Z   1
loop_
 _symmetry_equiv_pos_site_id
 _symmetry_equiv_pos_as_xyz
  1  'x, y, z'
loop_
 _atom_site_type_symbol
 _atom_site_label
 _atom_site_symmetry_multiplicity
 _atom_site_fract_x
 _atom_site_fract_y
 _atom_site_fract_z
 _atom_site_occupancy
  Mg  Mg0  1  0.625226  0.000000  0.996729  1
  Mg  Mg1  1  0.996729  0.000000  0.625226  1
  Cd  Cd2  1  0.002779  0.681991  0.002779  1
  Cd  Cd3  1  0.320788  0.318009  0.320788  1
  P  P4  1  0.253238  0.750210  0.504780  1
  P  P5  1  0.754570  0.249790  0.503028  1
  P  P6  1  0.753882  0.500000  0.253882  1
  P  P7  1  0.253882  0.500000  0.753882  1
  P  P8  1  0.504780  0.750210  0.253238  1
  P  P9  1  0.503028  0.249790  0.754570  1
  P  P10  1  0.982551  0.000000  0.982551  1
  N  N11  1  0.716792  0.280140  0.282948  1
  N  N12  1  0.288258  0.715846  0.288258  1
  N  N13  1  0.295284  0.574869  0.577645  1
  N  N14  1  0.577645  0.574869  0.295284  1
  N  N15  1  0.436652  0.719860  0.002808  1
  N  N16  1  0.002808  0.719860  0.436652  1
  N  N17  1  0.572412  0.284154  0.572412  1
  N  N18  1  0.725527  0.000000  0.427026  1
  N  N19  1  0.427026  0.000000  0.725527  1
  N  N20  1  0.720415  0.425131  0.002777  1
  N  N21  1  0.282948  0.280140  0.716792  1
  N  N22  1  0.002777  0.425131  0.720415  1
