# generated using pymatgen
data_Er2Fe2CoP7Ru9
_symmetry_space_group_name_H-M   'P 1'
_cell_length_a   9.25845007
_cell_length_b   9.31254611
_cell_length_c   3.83526700
_cell_angle_alpha   90.00000000
_cell_angle_beta   90.00000000
_cell_angle_gamma   119.97517097
_symmetry_Int_Tables_number   1
_chemical_formula_structural   Er2Fe2CoP7Ru9
_chemical_formula_sum   'Er2 Fe2 Co1 P7 Ru9'
_cell_volume   286.44520961
_cell_formula_units_Z   1
loop_
 _symmetry_equiv_pos_site_id
 _symmetry_equiv_pos_as_xyz
  1  'x, y, z'
loop_
 _atom_site_type_symbol
 _atom_site_label
 _atom_site_symmetry_multiplicity
 _atom_site_fract_x
 _atom_site_fract_y
 _atom_site_fract_z
 _atom_site_occupancy
  Er  Er0  1  0.000870  0.999051  0.000000  1
  Er  Er1  1  0.332792  0.666022  0.500000  1
  Fe  Fe2  1  0.776004  0.601239  0.000000  1
  Fe  Fe3  1  0.398033  0.174726  0.000000  1
  Co  Co4  1  0.826200  0.224464  0.000000  1
  P  P5  1  0.081868  0.444222  0.000000  1
  P  P6  1  0.557191  0.638942  0.000000  1
  P  P7  1  0.361669  0.919986  0.000000  1
  P  P8  1  0.782244  0.049935  0.500000  1
  P  P9  1  0.947665  0.730295  0.500000  1
  P  P10  1  0.269055  0.216138  0.500000  1
  P  P11  1  0.666499  0.334713  0.000000  1
  Ru  Ru12  1  0.088430  0.693656  0.000000  1
  Ru  Ru13  1  0.305727  0.394964  0.000000  1
  Ru  Ru14  1  0.605443  0.911993  0.000000  1
  Ru  Ru15  1  0.051314  0.279178  0.500000  1
  Ru  Ru16  1  0.719070  0.771429  0.500000  1
  Ru  Ru17  1  0.227954  0.947347  0.500000  1
  Ru  Ru18  1  0.871599  0.451214  0.500000  1
  Ru  Ru19  1  0.549808  0.420191  0.500000  1
  Ru  Ru20  1  0.580565  0.130297  0.500000  1
