# generated using pymatgen
data_CeYEr(RhPb)3
_symmetry_space_group_name_H-M   'P 1'
_cell_length_a   7.71230519
_cell_length_b   7.77920179
_cell_length_c   3.89432600
_cell_angle_alpha   90.00000000
_cell_angle_beta   90.00000000
_cell_angle_gamma   120.32458333
_symmetry_Int_Tables_number   1
_chemical_formula_structural   CeYEr(RhPb)3
_chemical_formula_sum   'Ce1 Y1 Er1 Rh3 Pb3'
_cell_volume   201.67516148
_cell_formula_units_Z   1
loop_
 _symmetry_equiv_pos_site_id
 _symmetry_equiv_pos_as_xyz
  1  'x, y, z'
loop_
 _atom_site_type_symbol
 _atom_site_label
 _atom_site_symmetry_multiplicity
 _atom_site_fract_x
 _atom_site_fract_y
 _atom_site_fract_z
 _atom_site_occupancy
  Ce  Ce0  1  0.999818  0.588847  0.500000  1
  Y  Y1  1  0.596359  0.000840  0.500000  1
  Er  Er2  1  0.403906  0.404453  0.500000  1
  Rh  Rh3  1  0.002132  0.994743  0.500000  1
  Rh  Rh4  1  0.681065  0.348905  0.000000  1
  Rh  Rh5  1  0.316519  0.661993  0.000000  1
  Pb  Pb6  1  0.727708  0.737011  0.000000  1
  Pb  Pb7  1  0.272475  0.008723  0.000000  1
  Pb  Pb8  1  0.000018  0.254482  0.000000  1
