# generated using pymatgen
data_Li3TmCo16(TcP3)4
_symmetry_space_group_name_H-M   'P 1'
_cell_length_a   3.62415900
_cell_length_b   10.19984273
_cell_length_c   11.70141534
_cell_angle_alpha   89.89007981
_cell_angle_beta   90.00000000
_cell_angle_gamma   90.00000000
_symmetry_Int_Tables_number   1
_chemical_formula_structural   Li3TmCo16(TcP3)4
_chemical_formula_sum   'Li3 Tm1 Co16 Tc4 P12'
_cell_volume   432.55198966
_cell_formula_units_Z   1
loop_
 _symmetry_equiv_pos_site_id
 _symmetry_equiv_pos_as_xyz
  1  'x, y, z'
loop_
 _atom_site_type_symbol
 _atom_site_label
 _atom_site_symmetry_multiplicity
 _atom_site_fract_x
 _atom_site_fract_y
 _atom_site_fract_z
 _atom_site_occupancy
  Li  Li0  1  0.250000  0.580389  0.703202  1
  Li  Li1  1  0.250000  0.918382  0.202574  1
  Li  Li2  1  0.750000  0.419285  0.297325  1
  Tm  Tm3  1  0.750000  0.083951  0.794347  1
  Co  Co4  1  0.250000  0.407017  0.488257  1
  Co  Co5  1  0.250000  0.093040  0.987745  1
  Co  Co6  1  0.750000  0.590779  0.512837  1
  Co  Co7  1  0.750000  0.908085  0.013586  1
  Co  Co8  1  0.250000  0.219090  0.176769  1
  Co  Co9  1  0.250000  0.279014  0.677635  1
  Co  Co10  1  0.750000  0.781109  0.822373  1
  Co  Co11  1  0.750000  0.718565  0.323710  1
  Co  Co12  1  0.250000  0.884375  0.698872  1
  Co  Co13  1  0.250000  0.615869  0.202046  1
  Co  Co14  1  0.750000  0.116560  0.298700  1
  Co  Co15  1  0.750000  0.386611  0.799223  1
  Co  Co16  1  0.250000  0.466956  0.934983  1
  Co  Co17  1  0.250000  0.034280  0.430304  1
  Co  Co18  1  0.750000  0.536069  0.067645  1
  Co  Co19  1  0.750000  0.961667  0.564061  1
  Tc  Tc20  1  0.250000  0.709257  0.989369  1
  Tc  Tc21  1  0.250000  0.788376  0.487737  1
  Tc  Tc22  1  0.750000  0.290291  0.014440  1
  Tc  Tc23  1  0.750000  0.209780  0.513217  1
  P  P24  1  0.250000  0.420636  0.122088  1
  P  P25  1  0.250000  0.079538  0.612600  1
  P  P26  1  0.750000  0.581455  0.880096  1
  P  P27  1  0.750000  0.919325  0.376863  1
  P  P28  1  0.250000  0.269552  0.866699  1
  P  P29  1  0.250000  0.239374  0.363047  1
  P  P30  1  0.750000  0.738879  0.137745  1
  P  P31  1  0.750000  0.758411  0.635427  1
  P  P32  1  0.250000  0.590895  0.388678  1
  P  P33  1  0.250000  0.903582  0.890526  1
  P  P34  1  0.750000  0.408250  0.612203  1
  P  P35  1  0.750000  0.091306  0.113072  1
