# generated using pymatgen
data_DyHo19(Ir3Os)3
_symmetry_space_group_name_H-M   'P 1'
_cell_length_a   10.82876901
_cell_length_b   10.83072701
_cell_length_c   6.39793600
_cell_angle_alpha   89.99819096
_cell_angle_beta   90.00335189
_cell_angle_gamma   89.99605324
_symmetry_Int_Tables_number   1
_chemical_formula_structural   DyHo19(Ir3Os)3
_chemical_formula_sum   'Dy1 Ho19 Ir9 Os3'
_cell_volume   750.37194628
_cell_formula_units_Z   1
loop_
 _symmetry_equiv_pos_site_id
 _symmetry_equiv_pos_as_xyz
  1  'x, y, z'
loop_
 _atom_site_type_symbol
 _atom_site_label
 _atom_site_symmetry_multiplicity
 _atom_site_fract_x
 _atom_site_fract_y
 _atom_site_fract_z
 _atom_site_occupancy
  Dy  Dy0  1  0.087321  0.292484  0.120041  1
  Ho  Ho1  1  0.294169  0.086540  0.377958  1
  Ho  Ho2  1  0.294117  0.913589  0.877976  1
  Ho  Ho3  1  0.705860  0.086404  0.877947  1
  Ho  Ho4  1  0.705866  0.913406  0.377923  1
  Ho  Ho5  1  0.586430  0.794136  0.877936  1
  Ho  Ho6  1  0.586586  0.205864  0.377894  1
  Ho  Ho7  1  0.413419  0.794123  0.377907  1
  Ho  Ho8  1  0.413617  0.205857  0.877924  1
  Ho  Ho9  1  0.207710  0.412867  0.623622  1
  Ho  Ho10  1  0.207379  0.587355  0.119827  1
  Ho  Ho11  1  0.792583  0.412784  0.119827  1
  Ho  Ho12  1  0.792322  0.587187  0.623614  1
  Ho  Ho13  1  0.912723  0.707332  0.119878  1
  Ho  Ho14  1  0.912752  0.292346  0.623588  1
  Ho  Ho15  1  0.087185  0.707668  0.623579  1
  Ho  Ho16  1  0.999990  0.999987  0.499746  1
  Ho  Ho17  1  0.999955  0.999907  0.999933  1
  Ho  Ho18  1  0.500003  0.500018  0.999933  1
  Ho  Ho19  1  0.500011  0.500001  0.499728  1
  Ir  Ir20  1  0.848152  0.152922  0.250401  1
  Ir  Ir21  1  0.848083  0.847146  0.749817  1
  Ir  Ir22  1  0.151968  0.152762  0.749481  1
  Ir  Ir23  1  0.151737  0.847005  0.250335  1
  Ir  Ir24  1  0.652826  0.348080  0.749845  1
  Ir  Ir25  1  0.652959  0.651759  0.250405  1
  Ir  Ir26  1  0.347216  0.348264  0.250511  1
  Ir  Ir27  1  0.347174  0.651928  0.749840  1
  Ir  Ir28  1  0.999937  0.500130  0.377450  1
  Os  Os29  1  0.500007  0.999999  0.124776  1
  Os  Os30  1  0.499992  0.999992  0.624515  1
  Os  Os31  1  0.999953  0.500158  0.875840  1
