# generated using pymatgen
data_Tm7Sn23Ru6
_symmetry_space_group_name_H-M   'P 1'
_cell_length_a   9.83356500
_cell_length_b   9.83356566
_cell_length_c   10.02524800
_cell_angle_alpha   90.00000000
_cell_angle_beta   90.00000000
_cell_angle_gamma   120.00000786
_symmetry_Int_Tables_number   1
_chemical_formula_structural   Tm7Sn23Ru6
_chemical_formula_sum   'Tm7 Sn23 Ru6'
_cell_volume   839.55226388
_cell_formula_units_Z   1
loop_
 _symmetry_equiv_pos_site_id
 _symmetry_equiv_pos_as_xyz
  1  'x, y, z'
loop_
 _atom_site_type_symbol
 _atom_site_label
 _atom_site_symmetry_multiplicity
 _atom_site_fract_x
 _atom_site_fract_y
 _atom_site_fract_z
 _atom_site_occupancy
  Tm  Tm0  1  0.485849  0.514151  0.302467  1
  Tm  Tm1  1  0.514151  0.485849  0.697533  1
  Tm  Tm2  1  0.485849  0.971699  0.302467  1
  Tm  Tm3  1  0.514151  0.028301  0.697533  1
  Tm  Tm4  1  0.028301  0.514151  0.302467  1
  Tm  Tm5  1  0.971699  0.485849  0.697533  1
  Tm  Tm6  1  0.000000  0.000000  0.000000  1
  Sn  Sn7  1  0.118969  0.881031  0.274242  1
  Sn  Sn8  1  0.881031  0.118969  0.725758  1
  Sn  Sn9  1  0.118969  0.237939  0.274242  1
  Sn  Sn10  1  0.881031  0.762061  0.725758  1
  Sn  Sn11  1  0.762061  0.881031  0.274242  1
  Sn  Sn12  1  0.237939  0.118969  0.725758  1
  Sn  Sn13  1  0.779618  0.220382  0.464010  1
  Sn  Sn14  1  0.220382  0.779618  0.535990  1
  Sn  Sn15  1  0.779618  0.559237  0.464010  1
  Sn  Sn16  1  0.220382  0.440763  0.535990  1
  Sn  Sn17  1  0.440763  0.220382  0.464010  1
  Sn  Sn18  1  0.559237  0.779618  0.535990  1
  Sn  Sn19  1  0.349186  0.000000  0.000000  1
  Sn  Sn20  1  0.650814  0.000000  0.000000  1
  Sn  Sn21  1  0.000000  0.349186  0.000000  1
  Sn  Sn22  1  0.000000  0.650814  0.000000  1
  Sn  Sn23  1  0.650814  0.650814  0.000000  1
  Sn  Sn24  1  0.349186  0.349186  0.000000  1
  Sn  Sn25  1  0.333333  0.666667  0.131356  1
  Sn  Sn26  1  0.666667  0.333333  0.868644  1
  Sn  Sn27  1  0.333333  0.666667  0.823340  1
  Sn  Sn28  1  0.666667  0.333333  0.176660  1
  Sn  Sn29  1  0.000000  0.000000  0.500000  1
  Ru  Ru30  1  0.829542  0.170458  0.202765  1
  Ru  Ru31  1  0.170458  0.829542  0.797235  1
  Ru  Ru32  1  0.829542  0.659084  0.202765  1
  Ru  Ru33  1  0.170458  0.340916  0.797235  1
  Ru  Ru34  1  0.340916  0.170458  0.202765  1
  Ru  Ru35  1  0.659084  0.829542  0.797235  1
