# generated using pymatgen
data_Ce4NdPd15
_symmetry_space_group_name_H-M   'P 1'
_cell_length_a   4.18146500
_cell_length_b   4.18146500
_cell_length_c   20.86944000
_cell_angle_alpha   90.00000000
_cell_angle_beta   90.00000000
_cell_angle_gamma   90.00000000
_symmetry_Int_Tables_number   1
_chemical_formula_structural   Ce4NdPd15
_chemical_formula_sum   'Ce4 Nd1 Pd15'
_cell_volume   364.89484463
_cell_formula_units_Z   1
loop_
 _symmetry_equiv_pos_site_id
 _symmetry_equiv_pos_as_xyz
  1  'x, y, z'
loop_
 _atom_site_type_symbol
 _atom_site_label
 _atom_site_symmetry_multiplicity
 _atom_site_fract_x
 _atom_site_fract_y
 _atom_site_fract_z
 _atom_site_occupancy
  Ce  Ce0  1  0.000000  0.000000  0.199757  1
  Ce  Ce1  1  0.000000  0.000000  0.400078  1
  Ce  Ce2  1  0.000000  0.000000  0.599922  1
  Ce  Ce3  1  0.000000  0.000000  0.800243  1
  Nd  Nd4  1  0.000000  0.000000  0.000000  1
  Pd  Pd5  1  0.500000  0.500000  0.000000  1
  Pd  Pd6  1  0.500000  0.500000  0.201315  1
  Pd  Pd7  1  0.500000  0.500000  0.400227  1
  Pd  Pd8  1  0.500000  0.500000  0.599773  1
  Pd  Pd9  1  0.500000  0.500000  0.798685  1
  Pd  Pd10  1  0.500000  0.000000  0.103257  1
  Pd  Pd11  1  0.500000  0.000000  0.300449  1
  Pd  Pd12  1  0.500000  0.000000  0.500000  1
  Pd  Pd13  1  0.500000  0.000000  0.699551  1
  Pd  Pd14  1  0.500000  0.000000  0.896743  1
  Pd  Pd15  1  0.000000  0.500000  0.103257  1
  Pd  Pd16  1  0.000000  0.500000  0.300449  1
  Pd  Pd17  1  0.000000  0.500000  0.500000  1
  Pd  Pd18  1  0.000000  0.500000  0.699551  1
  Pd  Pd19  1  0.000000  0.500000  0.896743  1
