# generated using pymatgen
data_Y4Er5Lu11Bi12
_symmetry_space_group_name_H-M   'P 1'
_cell_length_a   8.15963400
_cell_length_b   9.40408621
_cell_length_c   11.89088700
_cell_angle_alpha   89.99629567
_cell_angle_beta   89.95985604
_cell_angle_gamma   89.98837873
_symmetry_Int_Tables_number   1
_chemical_formula_structural   Y4Er5Lu11Bi12
_chemical_formula_sum   'Y4 Er5 Lu11 Bi12'
_cell_volume   912.43390871
_cell_formula_units_Z   1
loop_
 _symmetry_equiv_pos_site_id
 _symmetry_equiv_pos_as_xyz
  1  'x, y, z'
loop_
 _atom_site_type_symbol
 _atom_site_label
 _atom_site_symmetry_multiplicity
 _atom_site_fract_x
 _atom_site_fract_y
 _atom_site_fract_z
 _atom_site_occupancy
  Y  Y0  1  0.313348  0.249964  0.217691  1
  Y  Y1  1  0.813280  0.250009  0.282391  1
  Y  Y2  1  0.686594  0.750086  0.782341  1
  Y  Y3  1  0.186929  0.749854  0.717584  1
  Er  Er4  1  0.352717  0.750354  0.217937  1
  Er  Er5  1  0.853394  0.750589  0.282417  1
  Er  Er6  1  0.647246  0.250372  0.782237  1
  Er  Er7  1  0.147055  0.250233  0.717766  1
  Er  Er8  1  0.691176  0.565276  0.059486  1
  Lu  Lu9  1  0.191676  0.933297  0.440518  1
  Lu  Lu10  1  0.308071  0.066739  0.940237  1
  Lu  Lu11  1  0.808403  0.433195  0.559518  1
  Lu  Lu12  1  0.308663  0.433235  0.940495  1
  Lu  Lu13  1  0.808239  0.066798  0.559432  1
  Lu  Lu14  1  0.691526  0.932979  0.059588  1
  Lu  Lu15  1  0.191648  0.566835  0.440485  1
  Lu  Lu16  1  0.477866  0.250186  0.489611  1
  Lu  Lu17  1  0.978042  0.250092  0.010398  1
  Lu  Lu18  1  0.522163  0.750082  0.510438  1
  Lu  Lu19  1  0.022632  0.750256  0.989498  1
  Bi  Bi20  1  0.402165  0.750421  0.958058  1
  Bi  Bi21  1  0.902409  0.749962  0.541950  1
  Bi  Bi22  1  0.597110  0.247899  0.041577  1
  Bi  Bi23  1  0.097672  0.250037  0.458155  1
  Bi  Bi24  1  0.565492  0.995439  0.327245  1
  Bi  Bi25  1  0.065796  0.504815  0.173047  1
  Bi  Bi26  1  0.434320  0.495340  0.672827  1
  Bi  Bi27  1  0.934553  0.004797  0.826964  1
  Bi  Bi28  1  0.434451  0.004865  0.672921  1
  Bi  Bi29  1  0.934377  0.495534  0.826947  1
  Bi  Bi30  1  0.565429  0.504888  0.327214  1
  Bi  Bi31  1  0.065552  0.995572  0.173023  1
