# generated using pymatgen
data_Nd4DyIrPt2
_symmetry_space_group_name_H-M   'P 1'
_cell_length_a   11.38900500
_cell_length_b   11.38900500
_cell_length_c   6.49408300
_cell_angle_alpha   90.00000000
_cell_angle_beta   90.00000000
_cell_angle_gamma   90.00000000
_symmetry_Int_Tables_number   1
_chemical_formula_structural   Nd4DyIrPt2
_chemical_formula_sum   'Nd16 Dy4 Ir4 Pt8'
_cell_volume   842.34383606
_cell_formula_units_Z   4
loop_
 _symmetry_equiv_pos_site_id
 _symmetry_equiv_pos_as_xyz
  1  'x, y, z'
loop_
 _atom_site_type_symbol
 _atom_site_label
 _atom_site_symmetry_multiplicity
 _atom_site_fract_x
 _atom_site_fract_y
 _atom_site_fract_z
 _atom_site_occupancy
  Nd  Nd0  1  0.292756  0.087814  0.374667  1
  Nd  Nd1  1  0.292756  0.912186  0.874667  1
  Nd  Nd2  1  0.707244  0.087814  0.874667  1
  Nd  Nd3  1  0.707244  0.912186  0.374667  1
  Nd  Nd4  1  0.587814  0.792756  0.874667  1
  Nd  Nd5  1  0.587814  0.207244  0.374667  1
  Nd  Nd6  1  0.412186  0.792756  0.374667  1
  Nd  Nd7  1  0.412186  0.207244  0.874667  1
  Nd  Nd8  1  0.207244  0.412186  0.625333  1
  Nd  Nd9  1  0.207244  0.587814  0.125333  1
  Nd  Nd10  1  0.792756  0.412186  0.125333  1
  Nd  Nd11  1  0.792756  0.587814  0.625333  1
  Nd  Nd12  1  0.912186  0.707244  0.125333  1
  Nd  Nd13  1  0.912186  0.292756  0.625333  1
  Nd  Nd14  1  0.087814  0.707244  0.625333  1
  Nd  Nd15  1  0.087814  0.292756  0.125333  1
  Dy  Dy16  1  0.000000  0.000000  0.500000  1
  Dy  Dy17  1  0.000000  0.000000  0.000000  1
  Dy  Dy18  1  0.500000  0.500000  0.000000  1
  Dy  Dy19  1  0.500000  0.500000  0.500000  1
  Ir  Ir20  1  0.500000  0.000000  0.115694  1
  Ir  Ir21  1  0.500000  0.000000  0.615694  1
  Ir  Ir22  1  0.000000  0.500000  0.884306  1
  Ir  Ir23  1  0.000000  0.500000  0.384306  1
  Pt  Pt24  1  0.851325  0.148675  0.250000  1
  Pt  Pt25  1  0.851325  0.851325  0.750000  1
  Pt  Pt26  1  0.148675  0.148675  0.750000  1
  Pt  Pt27  1  0.148675  0.851325  0.250000  1
  Pt  Pt28  1  0.648675  0.351325  0.750000  1
  Pt  Pt29  1  0.648675  0.648675  0.250000  1
  Pt  Pt30  1  0.351325  0.351325  0.250000  1
  Pt  Pt31  1  0.351325  0.648675  0.750000  1
