# generated using pymatgen
data_ZnF4
_symmetry_space_group_name_H-M   'P 1'
_cell_length_a   3.09599977
_cell_length_b   3.10223387
_cell_length_c   8.31192175
_cell_angle_alpha   87.55395730
_cell_angle_beta   81.11530783
_cell_angle_gamma   63.39092073
_symmetry_Int_Tables_number   1
_chemical_formula_structural   ZnF4
_chemical_formula_sum   'Zn1 F4'
_cell_volume   70.48826888
_cell_formula_units_Z   1
loop_
 _symmetry_equiv_pos_site_id
 _symmetry_equiv_pos_as_xyz
  1  'x, y, z'
loop_
 _atom_site_type_symbol
 _atom_site_label
 _atom_site_symmetry_multiplicity
 _atom_site_fract_x
 _atom_site_fract_y
 _atom_site_fract_z
 _atom_site_occupancy
  Zn  Zn0  1  0.671809  0.094221  0.171812  1
  F  F1  1  0.282383  0.769168  0.292424  1
  F  F2  1  0.463770  0.089316  0.758106  1
  F  F3  1  0.701690  0.915106  0.596503  1
  F  F4  1  0.060930  0.417964  0.050626  1
