# generated using pymatgen
data_Dy16Al4Ru3Rh
_symmetry_space_group_name_H-M   'P 1'
_cell_length_a   9.51133411
_cell_length_b   9.48234398
_cell_length_c   9.51133500
_cell_angle_alpha   59.89881492
_cell_angle_beta   60.00000040
_cell_angle_gamma   59.89881277
_symmetry_Int_Tables_number   1
_chemical_formula_structural   Dy16Al4Ru3Rh
_chemical_formula_sum   'Dy16 Al4 Ru3 Rh1'
_cell_volume   605.64440166
_cell_formula_units_Z   1
loop_
 _symmetry_equiv_pos_site_id
 _symmetry_equiv_pos_as_xyz
  1  'x, y, z'
loop_
 _atom_site_type_symbol
 _atom_site_label
 _atom_site_symmetry_multiplicity
 _atom_site_fract_x
 _atom_site_fract_y
 _atom_site_fract_z
 _atom_site_occupancy
  Dy  Dy0  1  0.692952  0.307846  0.306250  1
  Dy  Dy1  1  0.694733  0.690899  0.307184  1
  Dy  Dy2  1  0.307184  0.690899  0.307184  1
  Dy  Dy3  1  0.936071  0.939026  0.562451  1
  Dy  Dy4  1  0.147173  0.148134  0.557519  1
  Dy  Dy5  1  0.562451  0.939026  0.562451  1
  Dy  Dy6  1  0.147173  0.148134  0.147173  1
  Dy  Dy7  1  0.306250  0.307846  0.692952  1
  Dy  Dy8  1  0.938305  0.562191  0.561199  1
  Dy  Dy9  1  0.561199  0.562191  0.938305  1
  Dy  Dy10  1  0.562451  0.939026  0.936071  1
  Dy  Dy11  1  0.938305  0.562191  0.938305  1
  Dy  Dy12  1  0.147851  0.556446  0.147851  1
  Dy  Dy13  1  0.307184  0.690899  0.694733  1
  Dy  Dy14  1  0.692952  0.307846  0.692952  1
  Dy  Dy15  1  0.557519  0.148134  0.147173  1
  Al  Al16  1  0.923042  0.923260  0.230655  1
  Al  Al17  1  0.230655  0.923260  0.923042  1
  Al  Al18  1  0.923063  0.230809  0.923063  1
  Al  Al19  1  0.923042  0.923260  0.923042  1
  Ru  Ru20  1  0.358634  0.357407  0.358634  1
  Ru  Ru21  1  0.925326  0.357407  0.358634  1
  Ru  Ru22  1  0.358634  0.357407  0.925326  1
  Rh  Rh23  1  0.357849  0.926454  0.357849  1
