# generated using pymatgen
data_Tb3DyAl17GaIr6
_symmetry_space_group_name_H-M   'P 1'
_cell_length_a   7.55685536
_cell_length_b   7.55604916
_cell_length_c   9.51219800
_cell_angle_alpha   90.00000000
_cell_angle_beta   90.00000000
_cell_angle_gamma   119.40410175
_symmetry_Int_Tables_number   1
_chemical_formula_structural   Tb3DyAl17GaIr6
_chemical_formula_sum   'Tb3 Dy1 Al17 Ga1 Ir6'
_cell_volume   473.17740480
_cell_formula_units_Z   1
loop_
 _symmetry_equiv_pos_site_id
 _symmetry_equiv_pos_as_xyz
  1  'x, y, z'
loop_
 _atom_site_type_symbol
 _atom_site_label
 _atom_site_symmetry_multiplicity
 _atom_site_fract_x
 _atom_site_fract_y
 _atom_site_fract_z
 _atom_site_occupancy
  Tb  Tb0  1  0.006123  0.326268  0.750000  1
  Tb  Tb1  1  0.671633  0.994632  0.250000  1
  Tb  Tb2  1  0.326279  0.006093  0.750000  1
  Dy  Dy3  1  0.994637  0.671689  0.250000  1
  Al  Al4  1  0.130263  0.130086  0.250000  1
  Al  Al5  1  0.001400  0.335800  0.074136  1
  Al  Al6  1  0.998670  0.664460  0.927099  1
  Al  Al7  1  0.998670  0.664460  0.572901  1
  Al  Al8  1  0.335471  0.001255  0.425883  1
  Al  Al9  1  0.001400  0.335800  0.425864  1
  Al  Al10  1  0.664458  0.998648  0.573172  1
  Al  Al11  1  0.664458  0.998648  0.926828  1
  Al  Al12  1  0.335471  0.001255  0.074117  1
  Al  Al13  1  0.334051  0.334041  0.550134  1
  Al  Al14  1  0.666667  0.666536  0.447525  1
  Al  Al15  1  0.666667  0.666536  0.052475  1
  Al  Al16  1  0.334051  0.334041  0.949866  1
  Al  Al17  1  0.339153  0.548288  0.250000  1
  Al  Al18  1  0.661368  0.451317  0.750000  1
  Al  Al19  1  0.548524  0.339706  0.250000  1
  Al  Al20  1  0.451243  0.661240  0.750000  1
  Ga  Ga21  1  0.866522  0.866436  0.750000  1
  Ir  Ir22  1  0.672290  0.328889  0.999789  1
  Ir  Ir23  1  0.328786  0.672238  0.999779  1
  Ir  Ir24  1  0.328786  0.672238  0.500221  1
  Ir  Ir25  1  0.672290  0.328889  0.500211  1
  Ir  Ir26  1  0.000334  0.000255  0.002401  1
  Ir  Ir27  1  0.000334  0.000255  0.497599  1
