# generated using pymatgen
data_ThAl10FeRh
_symmetry_space_group_name_H-M   'P 1'
_cell_length_a   6.84529110
_cell_length_b   6.84529091
_cell_length_c   9.14852912
_cell_angle_alpha   90.11308608
_cell_angle_beta   90.11308744
_cell_angle_gamma   97.41864001
_symmetry_Int_Tables_number   1
_chemical_formula_structural   ThAl10FeRh
_chemical_formula_sum   'Th2 Al20 Fe2 Rh2'
_cell_volume   425.09155147
_cell_formula_units_Z   2
loop_
 _symmetry_equiv_pos_site_id
 _symmetry_equiv_pos_as_xyz
  1  'x, y, z'
loop_
 _atom_site_type_symbol
 _atom_site_label
 _atom_site_symmetry_multiplicity
 _atom_site_fract_x
 _atom_site_fract_y
 _atom_site_fract_z
 _atom_site_occupancy
  Th  Th0  1  0.876221  0.123779  0.750000  1
  Th  Th1  1  0.123779  0.876221  0.250000  1
  Al  Al2  1  0.518615  0.774897  0.744883  1
  Al  Al3  1  0.481385  0.225103  0.255117  1
  Al  Al4  1  0.594584  0.862715  0.253118  1
  Al  Al5  1  0.778825  0.772246  0.002408  1
  Al  Al6  1  0.163055  0.845167  0.601554  1
  Al  Al7  1  0.221175  0.227754  0.997592  1
  Al  Al8  1  0.137285  0.405416  0.246882  1
  Al  Al9  1  0.626348  0.380769  0.949931  1
  Al  Al10  1  0.845167  0.163055  0.101554  1
  Al  Al11  1  0.380769  0.626348  0.449931  1
  Al  Al12  1  0.154833  0.836945  0.898446  1
  Al  Al13  1  0.225103  0.481385  0.755117  1
  Al  Al14  1  0.373652  0.619231  0.050069  1
  Al  Al15  1  0.836945  0.154833  0.398446  1
  Al  Al16  1  0.619231  0.373652  0.550069  1
  Al  Al17  1  0.405416  0.137285  0.746882  1
  Al  Al18  1  0.774897  0.518615  0.244883  1
  Al  Al19  1  0.772246  0.778825  0.502408  1
  Al  Al20  1  0.227754  0.221175  0.497592  1
  Al  Al21  1  0.862715  0.594584  0.753118  1
  Fe  Fe22  1  0.000000  0.500000  0.000000  1
  Fe  Fe23  1  0.500000  0.000000  0.500000  1
  Rh  Rh24  1  0.000000  0.500000  0.500000  1
  Rh  Rh25  1  0.500000  0.000000  0.000000  1
