# generated using pymatgen
data_Ba6Li2InAg21
_symmetry_space_group_name_H-M   'P 1'
_cell_length_a   10.03966200
_cell_length_b   10.03966121
_cell_length_c   8.37390100
_cell_angle_alpha   90.00000000
_cell_angle_beta   90.00000000
_cell_angle_gamma   119.99999602
_symmetry_Int_Tables_number   1
_chemical_formula_structural   Ba6Li2InAg21
_chemical_formula_sum   'Ba6 Li2 In1 Ag21'
_cell_volume   730.96506426
_cell_formula_units_Z   1
loop_
 _symmetry_equiv_pos_site_id
 _symmetry_equiv_pos_as_xyz
  1  'x, y, z'
loop_
 _atom_site_type_symbol
 _atom_site_label
 _atom_site_symmetry_multiplicity
 _atom_site_fract_x
 _atom_site_fract_y
 _atom_site_fract_z
 _atom_site_occupancy
  Ba  Ba0  1  0.526519  0.053039  0.249031  1
  Ba  Ba1  1  0.478355  0.956709  0.752134  1
  Ba  Ba2  1  0.946961  0.473481  0.249031  1
  Ba  Ba3  1  0.043291  0.521645  0.752134  1
  Ba  Ba4  1  0.526519  0.473481  0.249031  1
  Ba  Ba5  1  0.478355  0.521645  0.752134  1
  Li  Li6  1  0.000000  0.000000  0.001222  1
  Li  Li7  1  0.000000  0.000000  0.500301  1
  In  In8  1  0.333333  0.666667  0.425935  1
  Ag  Ag9  1  0.165548  0.331095  0.067099  1
  Ag  Ag10  1  0.835494  0.670988  0.935598  1
  Ag  Ag11  1  0.668905  0.834452  0.067099  1
  Ag  Ag12  1  0.834809  0.669618  0.565116  1
  Ag  Ag13  1  0.329012  0.164506  0.935598  1
  Ag  Ag14  1  0.167337  0.334673  0.431748  1
  Ag  Ag15  1  0.165548  0.834452  0.067099  1
  Ag  Ag16  1  0.330382  0.165191  0.565116  1
  Ag  Ag17  1  0.835494  0.164506  0.935598  1
  Ag  Ag18  1  0.665327  0.832663  0.431748  1
  Ag  Ag19  1  0.834809  0.165191  0.565116  1
  Ag  Ag20  1  0.167337  0.832663  0.431748  1
  Ag  Ag21  1  0.899709  0.799418  0.251490  1
  Ag  Ag22  1  0.100621  0.201241  0.749338  1
  Ag  Ag23  1  0.200582  0.100291  0.251490  1
  Ag  Ag24  1  0.798759  0.899379  0.749338  1
  Ag  Ag25  1  0.899709  0.100291  0.251490  1
  Ag  Ag26  1  0.100621  0.899379  0.749338  1
  Ag  Ag27  1  0.333333  0.666667  0.070688  1
  Ag  Ag28  1  0.666667  0.333333  0.928598  1
  Ag  Ag29  1  0.666667  0.333333  0.568595  1
