# generated using pymatgen
data_Zr7Sc(InNi2)4
_symmetry_space_group_name_H-M   'P 1'
_cell_length_a   7.27125711
_cell_length_b   7.27125711
_cell_length_c   6.68379100
_cell_angle_alpha   90.00000000
_cell_angle_beta   90.00000000
_cell_angle_gamma   90.02017219
_symmetry_Int_Tables_number   1
_chemical_formula_structural   Zr7Sc(InNi2)4
_chemical_formula_sum   'Zr7 Sc1 In4 Ni8'
_cell_volume   353.37989513
_cell_formula_units_Z   1
loop_
 _symmetry_equiv_pos_site_id
 _symmetry_equiv_pos_as_xyz
  1  'x, y, z'
loop_
 _atom_site_type_symbol
 _atom_site_label
 _atom_site_symmetry_multiplicity
 _atom_site_fract_x
 _atom_site_fract_y
 _atom_site_fract_z
 _atom_site_occupancy
  Zr  Zr0  1  0.825655  0.825181  0.000000  1
  Zr  Zr1  1  0.673955  0.326045  0.500000  1
  Zr  Zr2  1  0.162288  0.162508  0.500000  1
  Zr  Zr3  1  0.174819  0.174345  0.000000  1
  Zr  Zr4  1  0.837492  0.837712  0.500000  1
  Zr  Zr5  1  0.661158  0.338842  0.000000  1
  Zr  Zr6  1  0.325678  0.674322  0.500000  1
  Sc  Sc7  1  0.337618  0.662382  0.000000  1
  In  In8  1  0.499594  0.999066  0.749528  1
  In  In9  1  0.499594  0.999066  0.250472  1
  In  In10  1  0.000934  0.500406  0.250472  1
  In  In11  1  0.000934  0.500406  0.749528  1
  Ni  Ni12  1  0.123985  0.876015  0.233974  1
  Ni  Ni13  1  0.123985  0.876015  0.766026  1
  Ni  Ni14  1  0.625258  0.624436  0.732863  1
  Ni  Ni15  1  0.875333  0.124667  0.766524  1
  Ni  Ni16  1  0.375564  0.374742  0.267137  1
  Ni  Ni17  1  0.625258  0.624436  0.267137  1
  Ni  Ni18  1  0.875333  0.124667  0.233476  1
  Ni  Ni19  1  0.375564  0.374742  0.732863  1
