# generated using pymatgen
data_LiHoHf2(NiSb)4
_symmetry_space_group_name_H-M   'P 1'
_cell_length_a   6.14753696
_cell_length_b   6.14753742
_cell_length_c   7.51485185
_cell_angle_alpha   65.85633836
_cell_angle_beta   65.85634259
_cell_angle_gamma   89.99999784
_symmetry_Int_Tables_number   1
_chemical_formula_structural   LiHoHf2(NiSb)4
_chemical_formula_sum   'Li1 Ho1 Hf2 Ni4 Sb4'
_cell_volume   231.66622135
_cell_formula_units_Z   1
loop_
 _symmetry_equiv_pos_site_id
 _symmetry_equiv_pos_as_xyz
  1  'x, y, z'
loop_
 _atom_site_type_symbol
 _atom_site_label
 _atom_site_symmetry_multiplicity
 _atom_site_fract_x
 _atom_site_fract_y
 _atom_site_fract_z
 _atom_site_occupancy
  Li  Li0  1  0.000000  0.000000  0.000000  1
  Ho  Ho1  1  0.250001  0.750001  0.500000  1
  Hf  Hf2  1  0.500000  0.500000  0.000000  1
  Hf  Hf3  1  0.750001  0.249999  0.500000  1
  Ni  Ni4  1  0.125719  0.141240  0.250894  1
  Ni  Ni5  1  0.623386  0.607864  0.250894  1
  Ni  Ni6  1  0.858761  0.376614  0.749104  1
  Ni  Ni7  1  0.392133  0.874281  0.749106  1
  Sb  Sb8  1  0.500709  0.000709  0.998584  1
  Sb  Sb9  1  0.756661  0.756661  0.486680  1
  Sb  Sb10  1  0.243339  0.243339  0.513321  1
  Sb  Sb11  1  0.999294  0.499293  0.001414  1
