# generated using pymatgen
data_YEr5Al7Cu16
_symmetry_space_group_name_H-M   'P 1'
_cell_length_a   8.68955463
_cell_length_b   8.68796585
_cell_length_c   8.69221342
_cell_angle_alpha   60.01303468
_cell_angle_beta   60.01873710
_cell_angle_gamma   60.04770100
_symmetry_Int_Tables_number   1
_chemical_formula_structural   YEr5Al7Cu16
_chemical_formula_sum   'Y1 Er5 Al7 Cu16'
_cell_volume   464.29246630
_cell_formula_units_Z   1
loop_
 _symmetry_equiv_pos_site_id
 _symmetry_equiv_pos_as_xyz
  1  'x, y, z'
loop_
 _atom_site_type_symbol
 _atom_site_label
 _atom_site_symmetry_multiplicity
 _atom_site_fract_x
 _atom_site_fract_y
 _atom_site_fract_z
 _atom_site_occupancy
  Y  Y0  1  0.710792  0.710651  0.289331  1
  Er  Er1  1  0.287774  0.711907  0.287987  1
  Er  Er2  1  0.711593  0.287952  0.288275  1
  Er  Er3  1  0.288775  0.288792  0.711273  1
  Er  Er4  1  0.711874  0.287783  0.712157  1
  Er  Er5  1  0.288019  0.711728  0.711915  1
  Al  Al6  1  0.999547  0.999479  0.000747  1
  Al  Al7  1  0.000062  0.999999  0.500214  1
  Al  Al8  1  0.499539  0.000235  0.500407  1
  Al  Al9  1  0.000237  0.499475  0.500459  1
  Al  Al10  1  0.500087  0.499984  0.999838  1
  Al  Al11  1  0.999984  0.499526  0.999858  1
  Al  Al12  1  0.499357  0.000207  0.999815  1
  Cu  Cu13  1  0.879122  0.879506  0.365135  1
  Cu  Cu14  1  0.879260  0.362842  0.878762  1
  Cu  Cu15  1  0.363248  0.879448  0.878339  1
  Cu  Cu16  1  0.879000  0.879382  0.876903  1
  Cu  Cu17  1  0.121969  0.121105  0.636692  1
  Cu  Cu18  1  0.123304  0.635815  0.119742  1
  Cu  Cu19  1  0.635545  0.122992  0.120422  1
  Cu  Cu20  1  0.120555  0.121479  0.121765  1
  Cu  Cu21  1  0.672467  0.672662  0.980765  1
  Cu  Cu22  1  0.672652  0.981539  0.672958  1
  Cu  Cu23  1  0.982161  0.672405  0.672643  1
  Cu  Cu24  1  0.673006  0.672536  0.673662  1
  Cu  Cu25  1  0.327247  0.327401  0.018038  1
  Cu  Cu26  1  0.326578  0.019239  0.327179  1
  Cu  Cu27  1  0.019160  0.326316  0.327601  1
  Cu  Cu28  1  0.327088  0.327616  0.327121  1
