# generated using pymatgen
data_Dy6Er4In8Pt3Au
_symmetry_space_group_name_H-M   'P 1'
_cell_length_a   3.62988000
_cell_length_b   8.17208589
_cell_length_c   18.25772113
_cell_angle_alpha   90.01996418
_cell_angle_beta   90.00000000
_cell_angle_gamma   90.00000000
_symmetry_Int_Tables_number   1
_chemical_formula_structural   Dy6Er4In8Pt3Au
_chemical_formula_sum   'Dy6 Er4 In8 Pt3 Au1'
_cell_volume   541.59136701
_cell_formula_units_Z   1
loop_
 _symmetry_equiv_pos_site_id
 _symmetry_equiv_pos_as_xyz
  1  'x, y, z'
loop_
 _atom_site_type_symbol
 _atom_site_label
 _atom_site_symmetry_multiplicity
 _atom_site_fract_x
 _atom_site_fract_y
 _atom_site_fract_z
 _atom_site_occupancy
  Dy  Dy0  1  0.000000  0.252238  0.216959  1
  Dy  Dy1  1  0.000000  0.755800  0.779946  1
  Dy  Dy2  1  0.000000  0.256261  0.720628  1
  Dy  Dy3  1  0.000000  0.731252  0.279396  1
  Dy  Dy4  1  0.000000  0.999378  0.999131  1
  Dy  Dy5  1  0.000000  0.499110  0.500556  1
  Er  Er6  1  0.000000  0.120314  0.419678  1
  Er  Er7  1  0.000000  0.884006  0.586252  1
  Er  Er8  1  0.000000  0.384252  0.914329  1
  Er  Er9  1  0.000000  0.616227  0.083771  1
  In  In10  1  0.500000  0.421748  0.352486  1
  In  In11  1  0.500000  0.576595  0.648624  1
  In  In12  1  0.500000  0.076760  0.851529  1
  In  In13  1  0.500000  0.921810  0.147448  1
  In  In14  1  0.500000  0.292769  0.065157  1
  In  In15  1  0.500000  0.706898  0.933200  1
  In  In16  1  0.500000  0.207564  0.567505  1
  In  In17  1  0.500000  0.792382  0.434415  1
  Pt  Pt18  1  0.500000  0.974029  0.696408  1
  Pt  Pt19  1  0.500000  0.474236  0.803933  1
  Pt  Pt20  1  0.500000  0.527665  0.195645  1
  Au  Au21  1  0.500000  0.028706  0.303004  1
