# generated using pymatgen
data_Pr4Al5Br2
_symmetry_space_group_name_H-M   'P 1'
_cell_length_a   11.75561429
_cell_length_b   11.75561359
_cell_length_c   4.30747000
_cell_angle_alpha   90.00000000
_cell_angle_beta   90.00000000
_cell_angle_gamma   93.58679426
_symmetry_Int_Tables_number   1
_chemical_formula_structural   Pr4Al5Br2
_chemical_formula_sum   'Pr8 Al10 Br4'
_cell_volume   594.10245913
_cell_formula_units_Z   2
loop_
 _symmetry_equiv_pos_site_id
 _symmetry_equiv_pos_as_xyz
  1  'x, y, z'
loop_
 _atom_site_type_symbol
 _atom_site_label
 _atom_site_symmetry_multiplicity
 _atom_site_fract_x
 _atom_site_fract_y
 _atom_site_fract_z
 _atom_site_occupancy
  Pr  Pr0  1  0.734272  0.734272  0.000000  1
  Pr  Pr1  1  0.038957  0.675236  0.500000  1
  Pr  Pr2  1  0.363470  0.636530  0.000000  1
  Pr  Pr3  1  0.961043  0.324764  0.500000  1
  Pr  Pr4  1  0.265728  0.265728  0.000000  1
  Pr  Pr5  1  0.636530  0.363470  0.000000  1
  Pr  Pr6  1  0.675236  0.038957  0.500000  1
  Pr  Pr7  1  0.324764  0.961043  0.500000  1
  Al  Al8  1  0.579523  0.579523  0.500000  1
  Al  Al9  1  0.420477  0.420477  0.500000  1
  Al  Al10  1  0.216375  0.480089  0.500000  1
  Al  Al11  1  0.783625  0.519911  0.500000  1
  Al  Al12  1  0.528343  0.897526  0.000000  1
  Al  Al13  1  0.519911  0.783625  0.500000  1
  Al  Al14  1  0.471657  0.102474  0.000000  1
  Al  Al15  1  0.102474  0.471657  0.000000  1
  Al  Al16  1  0.480089  0.216375  0.500000  1
  Al  Al17  1  0.897526  0.528343  0.000000  1
  Br  Br18  1  0.877476  0.877476  0.500000  1
  Br  Br19  1  0.172578  0.827422  0.000000  1
  Br  Br20  1  0.122524  0.122524  0.500000  1
  Br  Br21  1  0.827422  0.172578  0.000000  1
