# generated using pymatgen
data_Ho2Ga4CoCu
_symmetry_space_group_name_H-M   'P 1'
_cell_length_a   5.46810438
_cell_length_b   5.46810515
_cell_length_c   6.64302600
_cell_angle_alpha   90.00000000
_cell_angle_beta   90.00000000
_cell_angle_gamma   135.25886128
_symmetry_Int_Tables_number   1
_chemical_formula_structural   Ho2Ga4CoCu
_chemical_formula_sum   'Ho2 Ga4 Co1 Cu1'
_cell_volume   139.81494025
_cell_formula_units_Z   1
loop_
 _symmetry_equiv_pos_site_id
 _symmetry_equiv_pos_as_xyz
  1  'x, y, z'
loop_
 _atom_site_type_symbol
 _atom_site_label
 _atom_site_symmetry_multiplicity
 _atom_site_fract_x
 _atom_site_fract_y
 _atom_site_fract_z
 _atom_site_occupancy
  Ho  Ho0  1  0.576961  0.423039  0.250000  1
  Ho  Ho1  1  0.425469  0.574531  0.750000  1
  Ga  Ga2  1  0.860834  0.139166  0.050814  1
  Ga  Ga3  1  0.137893  0.862107  0.943030  1
  Ga  Ga4  1  0.137893  0.862107  0.556970  1
  Ga  Ga5  1  0.860834  0.139166  0.449186  1
  Co  Co6  1  0.708805  0.291195  0.750000  1
  Cu  Cu7  1  0.291310  0.708690  0.250000  1
