# generated using pymatgen
data_Pr8YTm11Si16
_symmetry_space_group_name_H-M   'P 1'
_cell_length_a   7.46744730
_cell_length_b   7.76004650
_cell_length_c   14.74395864
_cell_angle_alpha   89.97078273
_cell_angle_beta   90.06214765
_cell_angle_gamma   90.06498851
_symmetry_Int_Tables_number   1
_chemical_formula_structural   Pr8YTm11Si16
_chemical_formula_sum   'Pr8 Y1 Tm11 Si16'
_cell_volume   854.37789395
_cell_formula_units_Z   1
loop_
 _symmetry_equiv_pos_site_id
 _symmetry_equiv_pos_as_xyz
  1  'x, y, z'
loop_
 _atom_site_type_symbol
 _atom_site_label
 _atom_site_symmetry_multiplicity
 _atom_site_fract_x
 _atom_site_fract_y
 _atom_site_fract_z
 _atom_site_occupancy
  Pr  Pr0  1  0.019411  0.177029  0.402101  1
  Pr  Pr1  1  0.519760  0.323002  0.402010  1
  Pr  Pr2  1  0.480462  0.676959  0.902311  1
  Pr  Pr3  1  0.480496  0.677161  0.597713  1
  Pr  Pr4  1  0.980174  0.822838  0.597704  1
  Pr  Pr5  1  0.980359  0.822909  0.902290  1
  Pr  Pr6  1  0.519564  0.322994  0.097765  1
  Pr  Pr7  1  0.019580  0.176968  0.097741  1
  Y  Y8  1  0.323215  0.178228  0.623097  1
  Tm  Tm9  1  0.676654  0.821936  0.376413  1
  Tm  Tm10  1  0.655433  0.990424  0.750217  1
  Tm  Tm11  1  0.176628  0.678041  0.376460  1
  Tm  Tm12  1  0.823350  0.322052  0.876552  1
  Tm  Tm13  1  0.823432  0.322266  0.623500  1
  Tm  Tm14  1  0.845032  0.490700  0.250016  1
  Tm  Tm15  1  0.345117  0.009313  0.250004  1
  Tm  Tm16  1  0.323422  0.177981  0.876739  1
  Tm  Tm17  1  0.176610  0.677971  0.123526  1
  Tm  Tm18  1  0.676595  0.822023  0.123549  1
  Tm  Tm19  1  0.154687  0.509958  0.750245  1
  Si  Si20  1  0.275224  0.878860  0.750495  1
  Si  Si21  1  0.471073  0.616024  0.249965  1
  Si  Si22  1  0.027622  0.115702  0.750580  1
  Si  Si23  1  0.530127  0.385032  0.750611  1
  Si  Si24  1  0.146203  0.469093  0.539274  1
  Si  Si25  1  0.971035  0.883997  0.249989  1
  Si  Si26  1  0.724429  0.120112  0.249988  1
  Si  Si27  1  0.852674  0.532169  0.039745  1
  Si  Si28  1  0.352649  0.967798  0.039695  1
  Si  Si29  1  0.147388  0.467816  0.960276  1
  Si  Si30  1  0.648567  0.031470  0.539292  1
  Si  Si31  1  0.353042  0.966837  0.459550  1
  Si  Si32  1  0.852778  0.532270  0.460276  1
  Si  Si33  1  0.775401  0.619970  0.750030  1
  Si  Si34  1  0.224495  0.379911  0.249990  1
  Si  Si35  1  0.647309  0.032189  0.960292  1
