# generated using pymatgen
data_Hf7Co16TcP12
_symmetry_space_group_name_H-M   'P 1'
_cell_length_a   12.00296969
_cell_length_b   12.00296937
_cell_length_c   3.64585400
_cell_angle_alpha   90.00000000
_cell_angle_beta   90.00000000
_cell_angle_gamma   120.10125805
_symmetry_Int_Tables_number   1
_chemical_formula_structural   Hf7Co16TcP12
_chemical_formula_sum   'Hf7 Co16 Tc1 P12'
_cell_volume   454.42611108
_cell_formula_units_Z   1
loop_
 _symmetry_equiv_pos_site_id
 _symmetry_equiv_pos_as_xyz
  1  'x, y, z'
loop_
 _atom_site_type_symbol
 _atom_site_label
 _atom_site_symmetry_multiplicity
 _atom_site_fract_x
 _atom_site_fract_y
 _atom_site_fract_z
 _atom_site_occupancy
  Hf  Hf0  1  0.819676  0.819676  0.500000  1
  Hf  Hf1  1  0.998730  0.174406  0.500000  1
  Hf  Hf2  1  0.555937  0.999943  0.000000  1
  Hf  Hf3  1  0.334202  0.666573  0.000000  1
  Hf  Hf4  1  0.666573  0.334202  0.000000  1
  Hf  Hf5  1  0.999943  0.555937  0.000000  1
  Hf  Hf6  1  0.174406  0.998730  0.500000  1
  Co  Co7  1  0.626709  0.817566  0.000000  1
  Co  Co8  1  0.373143  0.197901  0.000000  1
  Co  Co9  1  0.000313  0.721940  0.500000  1
  Co  Co10  1  0.281120  0.281120  0.500000  1
  Co  Co11  1  0.874361  0.355297  0.500000  1
  Co  Co12  1  0.721940  0.000313  0.500000  1
  Co  Co13  1  0.817566  0.626709  0.000000  1
  Co  Co14  1  0.179366  0.808233  0.000000  1
  Co  Co15  1  0.355297  0.874361  0.500000  1
  Co  Co16  1  0.130648  0.482128  0.500000  1
  Co  Co17  1  0.641880  0.514924  0.500000  1
  Co  Co18  1  0.000803  0.000803  0.000000  1
  Co  Co19  1  0.514924  0.641880  0.500000  1
  Co  Co20  1  0.482128  0.130648  0.500000  1
  Co  Co21  1  0.197901  0.373143  0.000000  1
  Co  Co22  1  0.808233  0.179366  0.000000  1
  Tc  Tc23  1  0.448924  0.448924  0.000000  1
  P  P24  1  0.004179  0.347118  0.000000  1
  P  P25  1  0.825567  0.516527  0.500000  1
  P  P26  1  0.690723  0.174112  0.500000  1
  P  P27  1  0.176487  0.176487  0.000000  1
  P  P28  1  0.642278  0.642278  0.000000  1
  P  P29  1  0.823991  0.997717  0.000000  1
  P  P30  1  0.516527  0.825567  0.500000  1
  P  P31  1  0.174112  0.690723  0.500000  1
  P  P32  1  0.347118  0.004179  0.000000  1
  P  P33  1  0.480677  0.315903  0.500000  1
  P  P34  1  0.997717  0.823991  0.000000  1
  P  P35  1  0.315903  0.480677  0.500000  1
