# generated using pymatgen
data_Ta3Ga2CuN
_symmetry_space_group_name_H-M   'P 1'
_cell_length_a   8.21918611
_cell_length_b   8.21918752
_cell_length_c   8.21918700
_cell_angle_alpha   60.00000613
_cell_angle_beta   60.00000044
_cell_angle_gamma   60.00000366
_symmetry_Int_Tables_number   1
_chemical_formula_structural   Ta3Ga2CuN
_chemical_formula_sum   'Ta12 Ga8 Cu4 N4'
_cell_volume   392.61926049
_cell_formula_units_Z   4
loop_
 _symmetry_equiv_pos_site_id
 _symmetry_equiv_pos_as_xyz
  1  'x, y, z'
loop_
 _atom_site_type_symbol
 _atom_site_label
 _atom_site_symmetry_multiplicity
 _atom_site_fract_x
 _atom_site_fract_y
 _atom_site_fract_z
 _atom_site_occupancy
  Ta  Ta0  1  0.563198  0.936802  0.563198  1
  Ta  Ta1  1  0.313198  0.686802  0.686802  1
  Ta  Ta2  1  0.686802  0.313198  0.313198  1
  Ta  Ta3  1  0.313198  0.686802  0.313198  1
  Ta  Ta4  1  0.686802  0.686802  0.313198  1
  Ta  Ta5  1  0.313198  0.313198  0.686802  1
  Ta  Ta6  1  0.563198  0.563198  0.936802  1
  Ta  Ta7  1  0.936802  0.563198  0.563198  1
  Ta  Ta8  1  0.563198  0.936802  0.936802  1
  Ta  Ta9  1  0.936802  0.936802  0.563198  1
  Ta  Ta10  1  0.686802  0.313198  0.686802  1
  Ta  Ta11  1  0.936802  0.563198  0.936802  1
  Ga  Ga12  1  0.914499  0.914499  0.914499  1
  Ga  Ga13  1  0.993495  0.335501  0.335501  1
  Ga  Ga14  1  0.335501  0.993495  0.335501  1
  Ga  Ga15  1  0.335501  0.335501  0.993495  1
  Ga  Ga16  1  0.914499  0.256505  0.914499  1
  Ga  Ga17  1  0.914499  0.914499  0.256505  1
  Ga  Ga18  1  0.256505  0.914499  0.914499  1
  Ga  Ga19  1  0.335501  0.335501  0.335501  1
  Cu  Cu20  1  0.125000  0.125000  0.125000  1
  Cu  Cu21  1  0.625000  0.125000  0.125000  1
  Cu  Cu22  1  0.125000  0.625000  0.125000  1
  Cu  Cu23  1  0.125000  0.125000  0.625000  1
  N  N24  1  0.625000  0.625000  0.625000  1
  N  N25  1  0.125000  0.625000  0.625000  1
  N  N26  1  0.625000  0.125000  0.625000  1
  N  N27  1  0.625000  0.625000  0.125000  1
