# generated using pymatgen
data_Tc12AgCl25
_symmetry_space_group_name_H-M   'P 1'
_cell_length_a   9.38321271
_cell_length_b   10.71520241
_cell_length_c   11.12368868
_cell_angle_alpha   83.15894535
_cell_angle_beta   80.43991351
_cell_angle_gamma   91.51198886
_symmetry_Int_Tables_number   1
_chemical_formula_structural   Tc12AgCl25
_chemical_formula_sum   'Tc12 Ag1 Cl25'
_cell_volume   1093.80664274
_cell_formula_units_Z   1
loop_
 _symmetry_equiv_pos_site_id
 _symmetry_equiv_pos_as_xyz
  1  'x, y, z'
loop_
 _atom_site_type_symbol
 _atom_site_label
 _atom_site_symmetry_multiplicity
 _atom_site_fract_x
 _atom_site_fract_y
 _atom_site_fract_z
 _atom_site_occupancy
  Tc  Tc0  1  0.809923  0.248754  0.110000  1
  Tc  Tc1  1  0.190077  0.751246  0.890000  1
  Tc  Tc2  1  0.733059  0.112301  0.271483  1
  Tc  Tc3  1  0.266941  0.887699  0.728517  1
  Tc  Tc4  1  0.058344  0.270867  0.196091  1
  Tc  Tc5  1  0.941656  0.729133  0.803909  1
  Tc  Tc6  1  0.847413  0.426825  0.252144  1
  Tc  Tc7  1  0.152587  0.573175  0.747856  1
  Tc  Tc8  1  0.768228  0.290862  0.416041  1
  Tc  Tc9  1  0.231772  0.709138  0.583959  1
  Tc  Tc10  1  0.979470  0.134087  0.360061  1
  Tc  Tc11  1  0.020530  0.865913  0.639939  1
  Ag  Ag12  1  0.500000  0.000000  0.000000  1
  Cl  Cl13  1  0.912375  0.961571  0.262063  1
  Cl  Cl14  1  0.087625  0.038429  0.737937  1
  Cl  Cl15  1  0.972562  0.270552  0.513682  1
  Cl  Cl16  1  0.027438  0.729448  0.486318  1
  Cl  Cl17  1  0.650418  0.413403  0.143644  1
  Cl  Cl18  1  0.349582  0.586597  0.856356  1
  Cl  Cl19  1  0.089363  0.457782  0.284457  1
  Cl  Cl20  1  0.910637  0.542218  0.715543  1
  Cl  Cl21  1  0.000000  0.500000  0.000000  1
  Cl  Cl22  1  0.566437  0.965819  0.220627  1
  Cl  Cl23  1  0.433563  0.034181  0.779373  1
  Cl  Cl24  1  0.182008  0.029074  0.425175  1
  Cl  Cl25  1  0.817992  0.970926  0.574825  1
  Cl  Cl26  1  0.542653  0.215177  0.379494  1
  Cl  Cl27  1  0.457347  0.784823  0.620506  1
  Cl  Cl28  1  0.027717  0.159514  0.030240  1
  Cl  Cl29  1  0.972283  0.840486  0.969760  1
  Cl  Cl30  1  0.791750  0.630051  0.289667  1
  Cl  Cl31  1  0.208250  0.369949  0.710333  1
  Cl  Cl32  1  0.699116  0.193428  0.945458  1
  Cl  Cl33  1  0.300884  0.806572  0.054542  1
  Cl  Cl34  1  0.307132  0.267787  0.133501  1
  Cl  Cl35  1  0.692868  0.732213  0.866499  1
  Cl  Cl36  1  0.651440  0.390835  0.574560  1
  Cl  Cl37  1  0.348560  0.609165  0.425440  1
