# generated using pymatgen
data_CeFe4MoP3
_symmetry_space_group_name_H-M   'P 1'
_cell_length_a   3.73254000
_cell_length_b   10.57052200
_cell_length_c   11.97240000
_cell_angle_alpha   90.00000000
_cell_angle_beta   90.00000000
_cell_angle_gamma   90.00000000
_symmetry_Int_Tables_number   1
_chemical_formula_structural   CeFe4MoP3
_chemical_formula_sum   'Ce4 Fe16 Mo4 P12'
_cell_volume   472.36979910
_cell_formula_units_Z   4
loop_
 _symmetry_equiv_pos_site_id
 _symmetry_equiv_pos_as_xyz
  1  'x, y, z'
loop_
 _atom_site_type_symbol
 _atom_site_label
 _atom_site_symmetry_multiplicity
 _atom_site_fract_x
 _atom_site_fract_y
 _atom_site_fract_z
 _atom_site_occupancy
  Ce  Ce0  1  0.250000  0.581700  0.704381  1
  Ce  Ce1  1  0.250000  0.918300  0.204381  1
  Ce  Ce2  1  0.750000  0.418300  0.295619  1
  Ce  Ce3  1  0.750000  0.081700  0.795619  1
  Fe  Fe4  1  0.250000  0.405271  0.487816  1
  Fe  Fe5  1  0.250000  0.094729  0.987816  1
  Fe  Fe6  1  0.750000  0.594729  0.512184  1
  Fe  Fe7  1  0.750000  0.905271  0.012184  1
  Fe  Fe8  1  0.250000  0.217541  0.174532  1
  Fe  Fe9  1  0.250000  0.282459  0.674532  1
  Fe  Fe10  1  0.750000  0.782459  0.825468  1
  Fe  Fe11  1  0.750000  0.717541  0.325468  1
  Fe  Fe12  1  0.250000  0.879370  0.703062  1
  Fe  Fe13  1  0.250000  0.620630  0.203062  1
  Fe  Fe14  1  0.750000  0.120630  0.296938  1
  Fe  Fe15  1  0.750000  0.379370  0.796938  1
  Fe  Fe16  1  0.250000  0.465039  0.932279  1
  Fe  Fe17  1  0.250000  0.034961  0.432279  1
  Fe  Fe18  1  0.750000  0.534961  0.067721  1
  Fe  Fe19  1  0.750000  0.965039  0.567721  1
  Mo  Mo20  1  0.250000  0.703108  0.989768  1
  Mo  Mo21  1  0.250000  0.796892  0.489768  1
  Mo  Mo22  1  0.750000  0.296892  0.010232  1
  Mo  Mo23  1  0.750000  0.203108  0.510232  1
  P  P24  1  0.250000  0.424648  0.112256  1
  P  P25  1  0.250000  0.075352  0.612256  1
  P  P26  1  0.750000  0.575352  0.887744  1
  P  P27  1  0.750000  0.924648  0.387744  1
  P  P28  1  0.250000  0.271444  0.865143  1
  P  P29  1  0.250000  0.228556  0.365143  1
  P  P30  1  0.750000  0.728556  0.134857  1
  P  P31  1  0.750000  0.771444  0.634857  1
  P  P32  1  0.250000  0.596530  0.395332  1
  P  P33  1  0.250000  0.903470  0.895332  1
  P  P34  1  0.750000  0.403470  0.604668  1
  P  P35  1  0.750000  0.096530  0.104668  1
