# generated using pymatgen
data_Nd3Dy3(AlC3)2
_symmetry_space_group_name_H-M   'P 1'
_cell_length_a   3.65443700
_cell_length_b   7.24682503
_cell_length_c   10.12111705
_cell_angle_alpha   90.78858434
_cell_angle_beta   90.00000000
_cell_angle_gamma   90.00000000
_symmetry_Int_Tables_number   1
_chemical_formula_structural   Nd3Dy3(AlC3)2
_chemical_formula_sum   'Nd3 Dy3 Al2 C6'
_cell_volume   268.01281903
_cell_formula_units_Z   1
loop_
 _symmetry_equiv_pos_site_id
 _symmetry_equiv_pos_as_xyz
  1  'x, y, z'
loop_
 _atom_site_type_symbol
 _atom_site_label
 _atom_site_symmetry_multiplicity
 _atom_site_fract_x
 _atom_site_fract_y
 _atom_site_fract_z
 _atom_site_occupancy
  Nd  Nd0  1  0.500000  0.988557  0.193075  1
  Nd  Nd1  1  0.500000  0.010163  0.807330  1
  Nd  Nd2  1  0.000000  0.251165  0.536711  1
  Dy  Dy3  1  0.500000  0.509205  0.203913  1
  Dy  Dy4  1  0.500000  0.491145  0.797777  1
  Dy  Dy5  1  0.000000  0.749114  0.453484  1
  Al  Al6  1  0.000000  0.719810  0.010325  1
  Al  Al7  1  0.000000  0.279857  0.992113  1
  C  C8  1  0.500000  0.519748  0.566163  1
  C  C9  1  0.500000  0.502947  0.436108  1
  C  C10  1  0.500000  0.982140  0.565261  1
  C  C11  1  0.500000  0.996201  0.435300  1
  C  C12  1  0.000000  0.738401  0.210140  1
  C  C13  1  0.000000  0.261545  0.792301  1
