# generated using pymatgen
data_Nb4Si4IrRu3
_symmetry_space_group_name_H-M   'P 1'
_cell_length_a   3.84712000
_cell_length_b   6.41506506
_cell_length_c   7.30933376
_cell_angle_alpha   90.14391441
_cell_angle_beta   90.00000000
_cell_angle_gamma   90.00000000
_symmetry_Int_Tables_number   1
_chemical_formula_structural   Nb4Si4IrRu3
_chemical_formula_sum   'Nb4 Si4 Ir1 Ru3'
_cell_volume   180.39031698
_cell_formula_units_Z   1
loop_
 _symmetry_equiv_pos_site_id
 _symmetry_equiv_pos_as_xyz
  1  'x, y, z'
loop_
 _atom_site_type_symbol
 _atom_site_label
 _atom_site_symmetry_multiplicity
 _atom_site_fract_x
 _atom_site_fract_y
 _atom_site_fract_z
 _atom_site_occupancy
  Nb  Nb0  1  0.750000  0.522437  0.820202  1
  Nb  Nb1  1  0.250000  0.975616  0.322076  1
  Nb  Nb2  1  0.750000  0.019854  0.678653  1
  Nb  Nb3  1  0.250000  0.480082  0.179733  1
  Si  Si4  1  0.250000  0.227851  0.874913  1
  Si  Si5  1  0.250000  0.724891  0.623931  1
  Si  Si6  1  0.750000  0.772254  0.121976  1
  Si  Si7  1  0.750000  0.273286  0.378792  1
  Ir  Ir8  1  0.750000  0.150852  0.062705  1
  Ru  Ru9  1  0.250000  0.852975  0.938220  1
  Ru  Ru10  1  0.250000  0.349927  0.561764  1
  Ru  Ru11  1  0.750000  0.649974  0.437035  1
