# generated using pymatgen
data_Sc4Al6RuRh
_symmetry_space_group_name_H-M   'P 1'
_cell_length_a   5.32667400
_cell_length_b   5.32667450
_cell_length_c   8.51049900
_cell_angle_alpha   90.00000000
_cell_angle_beta   90.00000000
_cell_angle_gamma   120.00000932
_symmetry_Int_Tables_number   1
_chemical_formula_structural   Sc4Al6RuRh
_chemical_formula_sum   'Sc4 Al6 Ru1 Rh1'
_cell_volume   209.12111839
_cell_formula_units_Z   1
loop_
 _symmetry_equiv_pos_site_id
 _symmetry_equiv_pos_as_xyz
  1  'x, y, z'
loop_
 _atom_site_type_symbol
 _atom_site_label
 _atom_site_symmetry_multiplicity
 _atom_site_fract_x
 _atom_site_fract_y
 _atom_site_fract_z
 _atom_site_occupancy
  Sc  Sc0  1  0.333333  0.666667  0.057370  1
  Sc  Sc1  1  0.666667  0.333333  0.554327  1
  Sc  Sc2  1  0.333333  0.666667  0.445673  1
  Sc  Sc3  1  0.666667  0.333333  0.942630  1
  Al  Al4  1  0.834277  0.668553  0.250339  1
  Al  Al5  1  0.165723  0.834277  0.749661  1
  Al  Al6  1  0.668553  0.834277  0.749661  1
  Al  Al7  1  0.331447  0.165723  0.250339  1
  Al  Al8  1  0.834277  0.165723  0.250339  1
  Al  Al9  1  0.165723  0.331447  0.749661  1
  Ru  Ru10  1  0.000000  0.000000  0.000000  1
  Rh  Rh11  1  0.000000  0.000000  0.500000  1
