# generated using pymatgen
data_Ta4Mn5Si2Os
_symmetry_space_group_name_H-M   'P 1'
_cell_length_a   4.94523703
_cell_length_b   4.91103934
_cell_length_c   7.90186500
_cell_angle_alpha   90.00000000
_cell_angle_beta   90.00000000
_cell_angle_gamma   119.77153171
_symmetry_Int_Tables_number   1
_chemical_formula_structural   Ta4Mn5Si2Os
_chemical_formula_sum   'Ta4 Mn5 Si2 Os1'
_cell_volume   166.57736898
_cell_formula_units_Z   1
loop_
 _symmetry_equiv_pos_site_id
 _symmetry_equiv_pos_as_xyz
  1  'x, y, z'
loop_
 _atom_site_type_symbol
 _atom_site_label
 _atom_site_symmetry_multiplicity
 _atom_site_fract_x
 _atom_site_fract_y
 _atom_site_fract_z
 _atom_site_occupancy
  Ta  Ta0  1  0.332469  0.666235  0.939926  1
  Ta  Ta1  1  0.667434  0.333716  0.065229  1
  Ta  Ta2  1  0.667434  0.333716  0.434771  1
  Ta  Ta3  1  0.332469  0.666235  0.560074  1
  Mn  Mn4  1  0.172902  0.829730  0.250000  1
  Mn  Mn5  1  0.172902  0.343171  0.250000  1
  Mn  Mn6  1  0.656002  0.828000  0.250000  1
  Mn  Mn7  1  0.835619  0.172760  0.750000  1
  Mn  Mn8  1  0.835619  0.662861  0.750000  1
  Si  Si9  1  0.991926  0.995963  0.494066  1
  Si  Si10  1  0.991926  0.995963  0.005934  1
  Os  Os11  1  0.343293  0.171647  0.750000  1
