# generated using pymatgen
data_Be10CuRh
_symmetry_space_group_name_H-M   'P 1'
_cell_length_a   4.20211100
_cell_length_b   4.20211222
_cell_length_c   6.76291400
_cell_angle_alpha   90.00000000
_cell_angle_beta   90.00000000
_cell_angle_gamma   119.99999824
_symmetry_Int_Tables_number   1
_chemical_formula_structural   Be10CuRh
_chemical_formula_sum   'Be10 Cu1 Rh1'
_cell_volume   103.41884214
_cell_formula_units_Z   1
loop_
 _symmetry_equiv_pos_site_id
 _symmetry_equiv_pos_as_xyz
  1  'x, y, z'
loop_
 _atom_site_type_symbol
 _atom_site_label
 _atom_site_symmetry_multiplicity
 _atom_site_fract_x
 _atom_site_fract_y
 _atom_site_fract_z
 _atom_site_occupancy
  Be  Be0  1  0.337626  0.168814  0.053661  1
  Be  Be1  1  0.831188  0.168814  0.053661  1
  Be  Be2  1  0.831187  0.662374  0.053661  1
  Be  Be3  1  0.000000  0.000000  0.298805  1
  Be  Be4  1  0.666667  0.333333  0.369874  1
  Be  Be5  1  0.167455  0.334911  0.550667  1
  Be  Be6  1  0.167454  0.832547  0.550667  1
  Be  Be7  1  0.665091  0.832547  0.550667  1
  Be  Be8  1  0.000000  0.000000  0.801191  1
  Be  Be9  1  0.333333  0.666666  0.854901  1
  Cu  Cu10  1  0.333333  0.666666  0.243870  1
  Rh  Rh11  1  0.666667  0.333333  0.746509  1
