# generated using pymatgen
data_Tb(Cu2P)2
_symmetry_space_group_name_H-M   'P 1'
_cell_length_a   7.25845300
_cell_length_b   7.25845300
_cell_length_c   3.78649300
_cell_angle_alpha   90.00000000
_cell_angle_beta   90.00000000
_cell_angle_gamma   90.00000000
_symmetry_Int_Tables_number   1
_chemical_formula_structural   Tb(Cu2P)2
_chemical_formula_sum   'Tb2 Cu8 P4'
_cell_volume   199.49191364
_cell_formula_units_Z   2
loop_
 _symmetry_equiv_pos_site_id
 _symmetry_equiv_pos_as_xyz
  1  'x, y, z'
loop_
 _atom_site_type_symbol
 _atom_site_label
 _atom_site_symmetry_multiplicity
 _atom_site_fract_x
 _atom_site_fract_y
 _atom_site_fract_z
 _atom_site_occupancy
  Tb  Tb0  1  0.000000  0.000000  0.500000  1
  Tb  Tb1  1  0.500000  0.500000  0.000000  1
  Cu  Cu2  1  0.083862  0.335219  0.000000  1
  Cu  Cu3  1  0.835219  0.416138  0.500000  1
  Cu  Cu4  1  0.164781  0.583862  0.500000  1
  Cu  Cu5  1  0.916138  0.664781  0.000000  1
  Cu  Cu6  1  0.416138  0.835219  0.500000  1
  Cu  Cu7  1  0.583862  0.164781  0.500000  1
  Cu  Cu8  1  0.335219  0.083862  0.000000  1
  Cu  Cu9  1  0.664781  0.916138  0.000000  1
  P  P10  1  0.786432  0.213568  0.000000  1
  P  P11  1  0.713568  0.713568  0.500000  1
  P  P12  1  0.286432  0.286432  0.500000  1
  P  P13  1  0.213568  0.786432  0.000000  1
