# generated using pymatgen
data_Tb8Er12Si15Tc
_symmetry_space_group_name_H-M   'P 1'
_cell_length_a   7.34637328
_cell_length_b   7.73148996
_cell_length_c   14.49316800
_cell_angle_alpha   90.00000000
_cell_angle_beta   90.00000000
_cell_angle_gamma   90.12238357
_symmetry_Int_Tables_number   1
_chemical_formula_structural   Tb8Er12Si15Tc
_chemical_formula_sum   'Tb8 Er12 Si15 Tc1'
_cell_volume   823.18703849
_cell_formula_units_Z   1
loop_
 _symmetry_equiv_pos_site_id
 _symmetry_equiv_pos_as_xyz
  1  'x, y, z'
loop_
 _atom_site_type_symbol
 _atom_site_label
 _atom_site_symmetry_multiplicity
 _atom_site_fract_x
 _atom_site_fract_y
 _atom_site_fract_z
 _atom_site_occupancy
  Tb  Tb0  1  0.022956  0.184171  0.097506  1
  Tb  Tb1  1  0.981684  0.827294  0.904928  1
  Tb  Tb2  1  0.479200  0.680881  0.903937  1
  Tb  Tb3  1  0.981684  0.827294  0.595072  1
  Tb  Tb4  1  0.521449  0.318429  0.097001  1
  Tb  Tb5  1  0.022956  0.184171  0.402494  1
  Tb  Tb6  1  0.521449  0.318429  0.402999  1
  Tb  Tb7  1  0.479200  0.680881  0.596063  1
  Er  Er8  1  0.150619  0.512892  0.750000  1
  Er  Er9  1  0.845197  0.487674  0.250000  1
  Er  Er10  1  0.345467  0.013776  0.250000  1
  Er  Er11  1  0.662002  0.987766  0.750000  1
  Er  Er12  1  0.309005  0.173947  0.627027  1
  Er  Er13  1  0.679857  0.824027  0.375628  1
  Er  Er14  1  0.179129  0.679505  0.375406  1
  Er  Er15  1  0.679857  0.824027  0.124372  1
  Er  Er16  1  0.831962  0.314697  0.625347  1
  Er  Er17  1  0.309005  0.173947  0.872973  1
  Er  Er18  1  0.831962  0.314697  0.874653  1
  Er  Er19  1  0.179129  0.679505  0.124594  1
  Si  Si20  1  0.974711  0.893698  0.250000  1
  Si  Si21  1  0.477129  0.607445  0.250000  1
  Si  Si22  1  0.524198  0.395363  0.750000  1
  Si  Si23  1  0.274152  0.866427  0.750000  1
  Si  Si24  1  0.724952  0.130362  0.250000  1
  Si  Si25  1  0.227053  0.370445  0.250000  1
  Si  Si26  1  0.764740  0.623933  0.750000  1
  Si  Si27  1  0.154369  0.473915  0.538230  1
  Si  Si28  1  0.850046  0.531621  0.461409  1
  Si  Si29  1  0.348664  0.969611  0.460401  1
  Si  Si30  1  0.850046  0.531621  0.038591  1
  Si  Si31  1  0.645611  0.030116  0.538556  1
  Si  Si32  1  0.154369  0.473915  0.961770  1
  Si  Si33  1  0.645611  0.030116  0.961444  1
  Si  Si34  1  0.348664  0.969611  0.039599  1
  Tc  Tc35  1  0.021911  0.093790  0.750000  1
