# generated using pymatgen
data_Er2Th(Co3P2)3
_symmetry_space_group_name_H-M   'P 1'
_cell_length_a   3.73517000
_cell_length_b   10.55962100
_cell_length_c   12.22697500
_cell_angle_alpha   90.00000000
_cell_angle_beta   90.00000000
_cell_angle_gamma   90.00000000
_symmetry_Int_Tables_number   1
_chemical_formula_structural   Er2Th(Co3P2)3
_chemical_formula_sum   'Er4 Th2 Co18 P12'
_cell_volume   482.25609816
_cell_formula_units_Z   2
loop_
 _symmetry_equiv_pos_site_id
 _symmetry_equiv_pos_as_xyz
  1  'x, y, z'
loop_
 _atom_site_type_symbol
 _atom_site_label
 _atom_site_symmetry_multiplicity
 _atom_site_fract_x
 _atom_site_fract_y
 _atom_site_fract_z
 _atom_site_occupancy
  Er  Er0  1  0.500000  0.816178  0.203693  1
  Er  Er1  1  0.500000  0.183822  0.203693  1
  Er  Er2  1  0.000000  0.683822  0.796307  1
  Er  Er3  1  0.000000  0.316178  0.796307  1
  Th  Th4  1  0.000000  0.500000  0.524879  1
  Th  Th5  1  0.500000  0.000000  0.475121  1
  Co  Co6  1  0.500000  0.500000  0.155867  1
  Co  Co7  1  0.000000  0.000000  0.844133  1
  Co  Co8  1  0.500000  0.500000  0.703911  1
  Co  Co9  1  0.000000  0.000000  0.296089  1
  Co  Co10  1  0.000000  0.500000  0.985962  1
  Co  Co11  1  0.500000  0.000000  0.014038  1
  Co  Co12  1  0.500000  0.333496  0.994693  1
  Co  Co13  1  0.500000  0.666504  0.994693  1
  Co  Co14  1  0.000000  0.166504  0.005307  1
  Co  Co15  1  0.000000  0.833496  0.005307  1
  Co  Co16  1  0.500000  0.298894  0.429088  1
  Co  Co17  1  0.500000  0.701106  0.429088  1
  Co  Co18  1  0.000000  0.201106  0.570912  1
  Co  Co19  1  0.000000  0.798894  0.570912  1
  Co  Co20  1  0.500000  0.879860  0.713674  1
  Co  Co21  1  0.500000  0.120140  0.713674  1
  Co  Co22  1  0.000000  0.620140  0.286326  1
  Co  Co23  1  0.000000  0.379860  0.286326  1
  P  P24  1  0.500000  0.500000  0.882299  1
  P  P25  1  0.000000  0.000000  0.117701  1
  P  P26  1  0.500000  0.500000  0.338299  1
  P  P27  1  0.000000  0.000000  0.661701  1
  P  P28  1  0.500000  0.305877  0.619366  1
  P  P29  1  0.500000  0.694123  0.619366  1
  P  P30  1  0.000000  0.194123  0.380634  1
  P  P31  1  0.000000  0.805877  0.380634  1
  P  P32  1  0.500000  0.846321  0.894865  1
  P  P33  1  0.500000  0.153679  0.894865  1
  P  P34  1  0.000000  0.653679  0.105135  1
  P  P35  1  0.000000  0.346321  0.105135  1
