# generated using pymatgen
data_Ca10IrAu5
_symmetry_space_group_name_H-M   'P 1'
_cell_length_a   9.08353353
_cell_length_b   9.08353325
_cell_length_c   9.05085164
_cell_angle_alpha   128.32761824
_cell_angle_beta   128.32762047
_cell_angle_gamma   76.35814720
_symmetry_Int_Tables_number   1
_chemical_formula_structural   Ca10IrAu5
_chemical_formula_sum   'Ca10 Ir1 Au5'
_cell_volume   445.95292877
_cell_formula_units_Z   1
loop_
 _symmetry_equiv_pos_site_id
 _symmetry_equiv_pos_as_xyz
  1  'x, y, z'
loop_
 _atom_site_type_symbol
 _atom_site_label
 _atom_site_symmetry_multiplicity
 _atom_site_fract_x
 _atom_site_fract_y
 _atom_site_fract_z
 _atom_site_occupancy
  Ca  Ca0  1  0.458642  0.958642  0.141362  1
  Ca  Ca1  1  0.182720  0.682720  0.141362  1
  Ca  Ca2  1  0.528059  0.028059  0.840083  1
  Ca  Ca3  1  0.029334  0.200530  0.511492  1
  Ca  Ca4  1  0.700530  0.529334  0.511492  1
  Ca  Ca5  1  0.982159  0.810962  0.511492  1
  Ca  Ca6  1  0.003651  0.992097  0.995748  1
  Ca  Ca7  1  0.492097  0.503651  0.995748  1
  Ca  Ca8  1  0.812024  0.312024  0.840083  1
  Ca  Ca9  1  0.310962  0.482159  0.511492  1
  Ir  Ir10  1  0.125309  0.625309  0.750616  1
  Au  Au11  1  0.630122  0.870867  0.500989  1
  Au  Au12  1  0.370867  0.130122  0.500989  1
  Au  Au13  1  0.872070  0.372070  0.244141  1
  Au  Au14  1  0.750728  0.750728  0.001455  1
  Au  Au15  1  0.250728  0.250728  0.001455  1
