# generated using pymatgen
data_YNb2B2Ru5
_symmetry_space_group_name_H-M   'P 1'
_cell_length_a   9.57543657
_cell_length_b   9.57543670
_cell_length_c   3.09727100
_cell_angle_alpha   90.00000000
_cell_angle_beta   90.00000000
_cell_angle_gamma   89.25842078
_symmetry_Int_Tables_number   1
_chemical_formula_structural   YNb2B2Ru5
_chemical_formula_sum   'Y2 Nb4 B4 Ru10'
_cell_volume   283.96185311
_cell_formula_units_Z   2
loop_
 _symmetry_equiv_pos_site_id
 _symmetry_equiv_pos_as_xyz
  1  'x, y, z'
loop_
 _atom_site_type_symbol
 _atom_site_label
 _atom_site_symmetry_multiplicity
 _atom_site_fract_x
 _atom_site_fract_y
 _atom_site_fract_z
 _atom_site_occupancy
  Y  Y0  1  0.176345  0.176345  0.000000  1
  Y  Y1  1  0.823655  0.823655  0.000000  1
  Nb  Nb2  1  0.500000  0.000000  0.000000  1
  Nb  Nb3  1  0.000000  0.500000  0.000000  1
  Nb  Nb4  1  0.675496  0.324504  0.000000  1
  Nb  Nb5  1  0.324504  0.675496  0.000000  1
  B  B6  1  0.379471  0.379471  0.000000  1
  B  B7  1  0.620529  0.620529  0.000000  1
  B  B8  1  0.878821  0.121179  0.000000  1
  B  B9  1  0.121179  0.878821  0.000000  1
  Ru  Ru10  1  0.500000  0.500000  0.500000  1
  Ru  Ru11  1  0.000000  0.000000  0.500000  1
  Ru  Ru12  1  0.440789  0.223325  0.500000  1
  Ru  Ru13  1  0.559211  0.776675  0.500000  1
  Ru  Ru14  1  0.917884  0.285084  0.500000  1
  Ru  Ru15  1  0.082116  0.714916  0.500000  1
  Ru  Ru16  1  0.714916  0.082116  0.500000  1
  Ru  Ru17  1  0.285084  0.917884  0.500000  1
  Ru  Ru18  1  0.776675  0.559211  0.500000  1
  Ru  Ru19  1  0.223325  0.440789  0.500000  1
