# generated using pymatgen
data_Y12ZnCdSi4
_symmetry_space_group_name_H-M   'P 1'
_cell_length_a   8.51786142
_cell_length_b   8.51786251
_cell_length_c   8.51786300
_cell_angle_alpha   111.68139514
_cell_angle_beta   112.02154806
_cell_angle_gamma   104.80913074
_symmetry_Int_Tables_number   1
_chemical_formula_structural   Y12ZnCdSi4
_chemical_formula_sum   'Y12 Zn1 Cd1 Si4'
_cell_volume   473.39874470
_cell_formula_units_Z   1
loop_
 _symmetry_equiv_pos_site_id
 _symmetry_equiv_pos_as_xyz
  1  'x, y, z'
loop_
 _atom_site_type_symbol
 _atom_site_label
 _atom_site_symmetry_multiplicity
 _atom_site_fract_x
 _atom_site_fract_y
 _atom_site_fract_z
 _atom_site_occupancy
  Y  Y0  1  0.435663  0.239657  0.196005  1
  Y  Y1  1  0.564337  0.760343  0.803995  1
  Y  Y2  1  0.043651  0.239657  0.803995  1
  Y  Y3  1  0.956349  0.760343  0.196005  1
  Y  Y4  1  0.179866  0.270854  0.450720  1
  Y  Y5  1  0.820134  0.729146  0.549280  1
  Y  Y6  1  0.179866  0.729146  0.909013  1
  Y  Y7  1  0.820134  0.270854  0.090987  1
  Y  Y8  1  0.320512  0.620072  0.299561  1
  Y  Y9  1  0.679488  0.379928  0.700439  1
  Y  Y10  1  0.320512  0.020952  0.700439  1
  Y  Y11  1  0.679488  0.979048  0.299561  1
  Zn  Zn12  1  0.000000  0.000000  0.000000  1
  Cd  Cd13  1  0.500000  0.500000  0.000000  1
  Si  Si14  1  0.359549  0.000000  0.359549  1
  Si  Si15  1  0.640451  0.000000  0.640451  1
  Si  Si16  1  0.116295  0.616295  0.500000  1
  Si  Si17  1  0.883705  0.383705  0.500000  1
