# generated using pymatgen
data_Tm16Sc4(SiSb3)3
_symmetry_space_group_name_H-M   'P 1'
_cell_length_a   7.81045072
_cell_length_b   8.93588200
_cell_length_c   11.57687985
_cell_angle_alpha   90.00000000
_cell_angle_beta   89.87465769
_cell_angle_gamma   90.00000000
_symmetry_Int_Tables_number   1
_chemical_formula_structural   Tm16Sc4(SiSb3)3
_chemical_formula_sum   'Tm16 Sc4 Si3 Sb9'
_cell_volume   807.98632146
_cell_formula_units_Z   1
loop_
 _symmetry_equiv_pos_site_id
 _symmetry_equiv_pos_as_xyz
  1  'x, y, z'
loop_
 _atom_site_type_symbol
 _atom_site_label
 _atom_site_symmetry_multiplicity
 _atom_site_fract_x
 _atom_site_fract_y
 _atom_site_fract_z
 _atom_site_occupancy
  Tm  Tm0  1  0.812172  0.946642  0.063164  1
  Tm  Tm1  1  0.307082  0.044362  0.432234  1
  Tm  Tm2  1  0.184415  0.447828  0.938823  1
  Tm  Tm3  1  0.690642  0.564601  0.565253  1
  Tm  Tm4  1  0.184415  0.052172  0.938823  1
  Tm  Tm5  1  0.690642  0.935399  0.565253  1
  Tm  Tm6  1  0.812172  0.553358  0.063164  1
  Tm  Tm7  1  0.307082  0.455638  0.432234  1
  Tm  Tm8  1  0.167711  0.750000  0.214781  1
  Tm  Tm9  1  0.677718  0.250000  0.270575  1
  Tm  Tm10  1  0.834145  0.250000  0.785483  1
  Tm  Tm11  1  0.332839  0.750000  0.717478  1
  Tm  Tm12  1  0.640762  0.750000  0.292624  1
  Tm  Tm13  1  0.141673  0.250000  0.208063  1
  Tm  Tm14  1  0.344877  0.250000  0.714406  1
  Tm  Tm15  1  0.858279  0.750000  0.794581  1
  Sc  Sc16  1  0.537089  0.250000  0.996223  1
  Sc  Sc17  1  0.041964  0.750000  0.502501  1
  Sc  Sc18  1  0.460061  0.750000  0.001708  1
  Sc  Sc19  1  0.973665  0.250000  0.497263  1
  Si  Si20  1  0.905528  0.250000  0.025450  1
  Si  Si21  1  0.412951  0.750000  0.479895  1
  Si  Si22  1  0.091160  0.750000  0.977577  1
  Sb  Sb23  1  0.933157  0.988080  0.330383  1
  Sb  Sb24  1  0.433567  0.010733  0.168677  1
  Sb  Sb25  1  0.065937  0.491036  0.670124  1
  Sb  Sb26  1  0.565673  0.510013  0.830207  1
  Sb  Sb27  1  0.065937  0.008964  0.670124  1
  Sb  Sb28  1  0.565673  0.989987  0.830207  1
  Sb  Sb29  1  0.933157  0.511920  0.330383  1
  Sb  Sb30  1  0.433567  0.489267  0.168677  1
  Sb  Sb31  1  0.594282  0.250000  0.523659  1
