# generated using pymatgen
data_Er2Tm2Ga18(IrRh)3
_symmetry_space_group_name_H-M   'P 1'
_cell_length_a   7.56137686
_cell_length_b   7.56144469
_cell_length_c   9.47086303
_cell_angle_alpha   89.96226902
_cell_angle_beta   89.97923294
_cell_angle_gamma   119.93020191
_symmetry_Int_Tables_number   1
_chemical_formula_structural   Er2Tm2Ga18(IrRh)3
_chemical_formula_sum   'Er2 Tm2 Ga18 Ir3 Rh3'
_cell_volume   469.27848385
_cell_formula_units_Z   1
loop_
 _symmetry_equiv_pos_site_id
 _symmetry_equiv_pos_as_xyz
  1  'x, y, z'
loop_
 _atom_site_type_symbol
 _atom_site_label
 _atom_site_symmetry_multiplicity
 _atom_site_fract_x
 _atom_site_fract_y
 _atom_site_fract_z
 _atom_site_occupancy
  Er  Er0  1  0.997172  0.667974  0.248140  1
  Er  Er1  1  0.002828  0.332026  0.751860  1
  Tm  Tm2  1  0.668027  0.997197  0.248111  1
  Tm  Tm3  1  0.331973  0.002803  0.751889  1
  Ga  Ga4  1  0.125734  0.125767  0.250897  1
  Ga  Ga5  1  0.874266  0.874233  0.749103  1
  Ga  Ga6  1  0.999232  0.333907  0.080970  1
  Ga  Ga7  1  0.000768  0.666093  0.919030  1
  Ga  Ga8  1  0.000974  0.666071  0.580406  1
  Ga  Ga9  1  0.334182  0.999174  0.419709  1
  Ga  Ga10  1  0.999026  0.333929  0.419594  1
  Ga  Ga11  1  0.665818  0.000826  0.580291  1
  Ga  Ga12  1  0.665892  0.000624  0.919151  1
  Ga  Ga13  1  0.334108  0.999376  0.080849  1
  Ga  Ga14  1  0.332282  0.332090  0.565310  1
  Ga  Ga15  1  0.667718  0.667910  0.434690  1
  Ga  Ga16  1  0.667071  0.667315  0.065148  1
  Ga  Ga17  1  0.332929  0.332685  0.934852  1
  Ga  Ga18  1  0.338731  0.547506  0.250829  1
  Ga  Ga19  1  0.661269  0.452494  0.749171  1
  Ga  Ga20  1  0.547319  0.338450  0.250834  1
  Ga  Ga21  1  0.452681  0.661550  0.749166  1
  Ir  Ir22  1  0.671929  0.328140  0.000031  1
  Ir  Ir23  1  0.328071  0.671860  0.999969  1
  Ir  Ir24  1  0.000000  0.000000  0.000000  1
  Rh  Rh25  1  0.328408  0.671600  0.500013  1
  Rh  Rh26  1  0.671592  0.328400  0.499987  1
  Rh  Rh27  1  0.000000  0.000000  0.500000  1
