# generated using pymatgen
data_Sc20CdGa5Ni2
_symmetry_space_group_name_H-M   'P 1'
_cell_length_a   8.94322255
_cell_length_b   8.98624695
_cell_length_c   8.66062700
_cell_angle_alpha   90.00000000
_cell_angle_beta   90.00000000
_cell_angle_gamma   120.15925777
_symmetry_Int_Tables_number   1
_chemical_formula_structural   Sc20CdGa5Ni2
_chemical_formula_sum   'Sc20 Cd1 Ga5 Ni2'
_cell_volume   601.80135972
_cell_formula_units_Z   1
loop_
 _symmetry_equiv_pos_site_id
 _symmetry_equiv_pos_as_xyz
  1  'x, y, z'
loop_
 _atom_site_type_symbol
 _atom_site_label
 _atom_site_symmetry_multiplicity
 _atom_site_fract_x
 _atom_site_fract_y
 _atom_site_fract_z
 _atom_site_occupancy
  Sc  Sc0  1  0.003719  0.001860  0.484012  1
  Sc  Sc1  1  0.003719  0.001860  0.015988  1
  Sc  Sc2  1  0.542108  0.457255  0.250000  1
  Sc  Sc3  1  0.542108  0.084851  0.250000  1
  Sc  Sc4  1  0.917675  0.458837  0.250000  1
  Sc  Sc5  1  0.453945  0.537920  0.750000  1
  Sc  Sc6  1  0.453945  0.916026  0.750000  1
  Sc  Sc7  1  0.082882  0.541441  0.750000  1
  Sc  Sc8  1  0.207548  0.792904  0.440064  1
  Sc  Sc9  1  0.207548  0.414645  0.440064  1
  Sc  Sc10  1  0.582573  0.791287  0.434627  1
  Sc  Sc11  1  0.792738  0.208403  0.558398  1
  Sc  Sc12  1  0.792738  0.584334  0.558398  1
  Sc  Sc13  1  0.415145  0.207572  0.561176  1
  Sc  Sc14  1  0.792738  0.208403  0.941602  1
  Sc  Sc15  1  0.792738  0.584334  0.941602  1
  Sc  Sc16  1  0.415145  0.207572  0.938824  1
  Sc  Sc17  1  0.207548  0.792904  0.059936  1
  Sc  Sc18  1  0.207548  0.414645  0.059936  1
  Sc  Sc19  1  0.582573  0.791287  0.065373  1
  Cd  Cd20  1  0.773310  0.886654  0.750000  1
  Ga  Ga21  1  0.873298  0.126415  0.250000  1
  Ga  Ga22  1  0.873298  0.746884  0.250000  1
  Ga  Ga23  1  0.254123  0.127062  0.250000  1
  Ga  Ga24  1  0.116328  0.879032  0.750000  1
  Ga  Ga25  1  0.116328  0.237295  0.750000  1
  Ni  Ni26  1  0.328991  0.664496  0.250000  1
  Ni  Ni27  1  0.667645  0.333822  0.750000  1
