# generated using pymatgen
data_Er8B24Ir3Rh
_symmetry_space_group_name_H-M   'P 1'
_cell_length_a   3.62510300
_cell_length_b   9.14210791
_cell_length_c   11.47862909
_cell_angle_alpha   90.02973680
_cell_angle_beta   90.00000000
_cell_angle_gamma   90.00000000
_symmetry_Int_Tables_number   1
_chemical_formula_structural   Er8B24Ir3Rh
_chemical_formula_sum   'Er8 B24 Ir3 Rh1'
_cell_volume   380.41414611
_cell_formula_units_Z   1
loop_
 _symmetry_equiv_pos_site_id
 _symmetry_equiv_pos_as_xyz
  1  'x, y, z'
loop_
 _atom_site_type_symbol
 _atom_site_label
 _atom_site_symmetry_multiplicity
 _atom_site_fract_x
 _atom_site_fract_y
 _atom_site_fract_z
 _atom_site_occupancy
  Er  Er0  1  0.500000  0.322784  0.412865  1
  Er  Er1  1  0.500000  0.677516  0.586138  1
  Er  Er2  1  0.500000  0.178409  0.913307  1
  Er  Er3  1  0.500000  0.821597  0.087672  1
  Er  Er4  1  0.500000  0.445005  0.126263  1
  Er  Er5  1  0.500000  0.555727  0.874744  1
  Er  Er6  1  0.500000  0.055535  0.625137  1
  Er  Er7  1  0.500000  0.943257  0.374077  1
  B  B8  1  0.000000  0.110270  0.469573  1
  B  B9  1  0.000000  0.889330  0.530041  1
  B  B10  1  0.000000  0.389918  0.970060  1
  B  B11  1  0.000000  0.610507  0.030242  1
  B  B12  1  0.000000  0.132275  0.315544  1
  B  B13  1  0.000000  0.867521  0.683931  1
  B  B14  1  0.000000  0.367756  0.816110  1
  B  B15  1  0.000000  0.632796  0.184202  1
  B  B16  1  0.000000  0.053498  0.066141  1
  B  B17  1  0.000000  0.946761  0.933888  1
  B  B18  1  0.000000  0.446429  0.566011  1
  B  B19  1  0.000000  0.553145  0.434121  1
  B  B20  1  0.000000  0.481932  0.287452  1
  B  B21  1  0.000000  0.517928  0.713164  1
  B  B22  1  0.000000  0.018200  0.786994  1
  B  B23  1  0.000000  0.981784  0.212911  1
  B  B24  1  0.000000  0.249926  0.079245  1
  B  B25  1  0.000000  0.750423  0.920907  1
  B  B26  1  0.000000  0.250599  0.578899  1
  B  B27  1  0.000000  0.748982  0.420686  1
  B  B28  1  0.000000  0.293866  0.234867  1
  B  B29  1  0.000000  0.706412  0.765089  1
  B  B30  1  0.000000  0.206290  0.734686  1
  B  B31  1  0.000000  0.793788  0.264662  1
  Ir  Ir32  1  0.500000  0.138570  0.178285  1
  Ir  Ir33  1  0.500000  0.861930  0.821373  1
  Ir  Ir34  1  0.500000  0.360888  0.679697  1
  Rh  Rh35  1  0.500000  0.638443  0.321014  1
