# generated using pymatgen
data_Ba6VMo2H27
_symmetry_space_group_name_H-M   'P 1'
_cell_length_a   9.51807800
_cell_length_b   9.51807734
_cell_length_c   5.40146600
_cell_angle_alpha   90.00000000
_cell_angle_beta   90.00000000
_cell_angle_gamma   120.00000926
_symmetry_Int_Tables_number   1
_chemical_formula_structural   Ba6VMo2H27
_chemical_formula_sum   'Ba6 V1 Mo2 H27'
_cell_volume   423.78026347
_cell_formula_units_Z   1
loop_
 _symmetry_equiv_pos_site_id
 _symmetry_equiv_pos_as_xyz
  1  'x, y, z'
loop_
 _atom_site_type_symbol
 _atom_site_label
 _atom_site_symmetry_multiplicity
 _atom_site_fract_x
 _atom_site_fract_y
 _atom_site_fract_z
 _atom_site_occupancy
  Ba  Ba0  1  0.000000  0.259988  0.500000  1
  Ba  Ba1  1  0.740012  0.740012  0.500000  1
  Ba  Ba2  1  0.259988  0.000000  0.500000  1
  Ba  Ba3  1  0.000000  0.609997  0.000000  1
  Ba  Ba4  1  0.390003  0.390003  0.000000  1
  Ba  Ba5  1  0.609997  0.000000  0.000000  1
  V  V6  1  0.000000  0.000000  0.000000  1
  Mo  Mo7  1  0.666667  0.333333  0.500000  1
  Mo  Mo8  1  0.333333  0.666667  0.500000  1
  H  H9  1  0.782972  0.311052  0.743211  1
  H  H10  1  0.688948  0.471918  0.743211  1
  H  H11  1  0.528082  0.217028  0.743211  1
  H  H12  1  0.217028  0.528082  0.256789  1
  H  H13  1  0.528082  0.217028  0.256789  1
  H  H14  1  0.782972  0.311052  0.256789  1
  H  H15  1  0.688948  0.471918  0.256789  1
  H  H16  1  0.311052  0.782972  0.743211  1
  H  H17  1  0.471918  0.688948  0.743211  1
  H  H18  1  0.186610  0.000000  0.000000  1
  H  H19  1  0.813390  0.813390  0.000000  1
  H  H20  1  0.000000  0.186610  0.000000  1
  H  H21  1  0.864888  0.000000  0.224388  1
  H  H22  1  0.135112  0.135112  0.775612  1
  H  H23  1  0.000000  0.864888  0.775612  1
  H  H24  1  0.000000  0.864888  0.224388  1
  H  H25  1  0.135112  0.135112  0.224388  1
  H  H26  1  0.864888  0.000000  0.775612  1
  H  H27  1  0.135153  0.636792  0.500000  1
  H  H28  1  0.501640  0.864847  0.500000  1
  H  H29  1  0.363208  0.498360  0.500000  1
  H  H30  1  0.498360  0.363208  0.500000  1
  H  H31  1  0.864847  0.501640  0.500000  1
  H  H32  1  0.636792  0.135153  0.500000  1
  H  H33  1  0.217028  0.528082  0.743211  1
  H  H34  1  0.311052  0.782972  0.256789  1
  H  H35  1  0.471918  0.688948  0.256789  1
