# generated using pymatgen
data_Lu4U2(TcRu)3
_symmetry_space_group_name_H-M   'P 1'
_cell_length_a   5.74005800
_cell_length_b   5.74005969
_cell_length_c   8.08085300
_cell_angle_alpha   90.00000000
_cell_angle_beta   90.00000000
_cell_angle_gamma   119.99999025
_symmetry_Int_Tables_number   1
_chemical_formula_structural   Lu4U2(TcRu)3
_chemical_formula_sum   'Lu4 U2 Tc3 Ru3'
_cell_volume   230.57943478
_cell_formula_units_Z   1
loop_
 _symmetry_equiv_pos_site_id
 _symmetry_equiv_pos_as_xyz
  1  'x, y, z'
loop_
 _atom_site_type_symbol
 _atom_site_label
 _atom_site_symmetry_multiplicity
 _atom_site_fract_x
 _atom_site_fract_y
 _atom_site_fract_z
 _atom_site_occupancy
  Lu  Lu0  1  0.333333  0.666667  0.438513  1
  Lu  Lu1  1  0.666667  0.333333  0.555211  1
  Lu  Lu2  1  0.666667  0.333333  0.944789  1
  Lu  Lu3  1  0.333333  0.666667  0.061487  1
  U  U4  1  0.000000  0.000000  0.498666  1
  U  U5  1  0.000000  0.000000  0.001334  1
  Tc  Tc6  1  0.164328  0.835672  0.750000  1
  Tc  Tc7  1  0.164328  0.328657  0.750000  1
  Tc  Tc8  1  0.671343  0.835672  0.750000  1
  Ru  Ru9  1  0.832542  0.167458  0.250000  1
  Ru  Ru10  1  0.832542  0.665083  0.250000  1
  Ru  Ru11  1  0.334917  0.167458  0.250000  1
