# generated using pymatgen
data_TbDy3Tm4(B6Ir)4
_symmetry_space_group_name_H-M   'P 1'
_cell_length_a   3.62763800
_cell_length_b   9.14155600
_cell_length_c   11.50275000
_cell_angle_alpha   89.99968945
_cell_angle_beta   90.00000000
_cell_angle_gamma   90.00000000
_symmetry_Int_Tables_number   1
_chemical_formula_structural   TbDy3Tm4(B6Ir)4
_chemical_formula_sum   'Tb1 Dy3 Tm4 B24 Ir4'
_cell_volume   381.45713936
_cell_formula_units_Z   1
loop_
 _symmetry_equiv_pos_site_id
 _symmetry_equiv_pos_as_xyz
  1  'x, y, z'
loop_
 _atom_site_type_symbol
 _atom_site_label
 _atom_site_symmetry_multiplicity
 _atom_site_fract_x
 _atom_site_fract_y
 _atom_site_fract_z
 _atom_site_occupancy
  Tb  Tb0  1  0.000000  0.321742  0.413341  1
  Dy  Dy1  1  0.000000  0.678371  0.586646  1
  Dy  Dy2  1  0.000000  0.821576  0.086575  1
  Dy  Dy3  1  0.000000  0.178386  0.913379  1
  Tm  Tm4  1  0.000000  0.943961  0.374345  1
  Tm  Tm5  1  0.000000  0.055956  0.625763  1
  Tm  Tm6  1  0.000000  0.443986  0.125577  1
  Tm  Tm7  1  0.000000  0.556037  0.874409  1
  B  B8  1  0.500000  0.554150  0.433570  1
  B  B9  1  0.500000  0.446274  0.566679  1
  B  B10  1  0.500000  0.053835  0.066274  1
  B  B11  1  0.500000  0.946117  0.933604  1
  B  B12  1  0.500000  0.750578  0.420116  1
  B  B13  1  0.500000  0.249377  0.580233  1
  B  B14  1  0.500000  0.250514  0.079809  1
  B  B15  1  0.500000  0.749452  0.920081  1
  B  B16  1  0.500000  0.793230  0.265070  1
  B  B17  1  0.500000  0.206742  0.735023  1
  B  B18  1  0.500000  0.293055  0.234584  1
  B  B19  1  0.500000  0.706808  0.765179  1
  B  B20  1  0.500000  0.631318  0.183530  1
  B  B21  1  0.500000  0.368755  0.816431  1
  B  B22  1  0.500000  0.131067  0.316202  1
  B  B23  1  0.500000  0.868714  0.683680  1
  B  B24  1  0.500000  0.981652  0.213378  1
  B  B25  1  0.500000  0.018219  0.786630  1
  B  B26  1  0.500000  0.482022  0.286362  1
  B  B27  1  0.500000  0.518357  0.713504  1
  B  B28  1  0.500000  0.607174  0.029093  1
  B  B29  1  0.500000  0.392904  0.970847  1
  B  B30  1  0.500000  0.106634  0.471024  1
  B  B31  1  0.500000  0.893004  0.529122  1
  Ir  Ir32  1  0.000000  0.639058  0.320161  1
  Ir  Ir33  1  0.000000  0.361268  0.679937  1
  Ir  Ir34  1  0.000000  0.138389  0.179407  1
  Ir  Ir35  1  0.000000  0.861317  0.820435  1
