# generated using pymatgen
data_Ca2V3Co9As7
_symmetry_space_group_name_H-M   'P 1'
_cell_length_a   3.76932400
_cell_length_b   9.45041658
_cell_length_c   9.45041800
_cell_angle_alpha   119.99999798
_cell_angle_beta   90.00000000
_cell_angle_gamma   90.00000000
_symmetry_Int_Tables_number   1
_chemical_formula_structural   Ca2V3Co9As7
_chemical_formula_sum   'Ca2 V3 Co9 As7'
_cell_volume   291.53861162
_cell_formula_units_Z   1
loop_
 _symmetry_equiv_pos_site_id
 _symmetry_equiv_pos_as_xyz
  1  'x, y, z'
loop_
 _atom_site_type_symbol
 _atom_site_label
 _atom_site_symmetry_multiplicity
 _atom_site_fract_x
 _atom_site_fract_y
 _atom_site_fract_z
 _atom_site_occupancy
  Ca  Ca0  1  0.000000  0.666667  0.333333  1
  Ca  Ca1  1  0.500000  0.333333  0.666667  1
  V  V2  1  0.500000  0.784217  0.899363  1
  V  V3  1  0.500000  0.115146  0.215783  1
  V  V4  1  0.500000  0.100637  0.884854  1
  Co  Co5  1  0.000000  0.571824  0.944314  1
  Co  Co6  1  0.000000  0.372490  0.428176  1
  Co  Co7  1  0.000000  0.055686  0.627510  1
  Co  Co8  1  0.000000  0.879887  0.156755  1
  Co  Co9  1  0.000000  0.276868  0.120113  1
  Co  Co10  1  0.000000  0.843245  0.723132  1
  Co  Co11  1  0.500000  0.951872  0.382588  1
  Co  Co12  1  0.500000  0.430716  0.048128  1
  Co  Co13  1  0.500000  0.617412  0.569284  1
  As  As14  1  0.000000  0.000000  0.000000  1
  As  As15  1  0.500000  0.708010  0.118128  1
  As  As16  1  0.500000  0.410118  0.291990  1
  As  As17  1  0.500000  0.881872  0.589882  1
  As  As18  1  0.000000  0.586249  0.702364  1
  As  As19  1  0.000000  0.116115  0.413751  1
  As  As20  1  0.000000  0.297636  0.883885  1
