# generated using pymatgen
data_Tm5Hf(Be2Ir5)2
_symmetry_space_group_name_H-M   'P 1'
_cell_length_a   9.76364100
_cell_length_b   9.76364100
_cell_length_c   3.29858200
_cell_angle_alpha   90.00000000
_cell_angle_beta   90.00000000
_cell_angle_gamma   90.00000000
_symmetry_Int_Tables_number   1
_chemical_formula_structural   Tm5Hf(Be2Ir5)2
_chemical_formula_sum   'Tm5 Hf1 Be4 Ir10'
_cell_volume   314.44948633
_cell_formula_units_Z   1
loop_
 _symmetry_equiv_pos_site_id
 _symmetry_equiv_pos_as_xyz
  1  'x, y, z'
loop_
 _atom_site_type_symbol
 _atom_site_label
 _atom_site_symmetry_multiplicity
 _atom_site_fract_x
 _atom_site_fract_y
 _atom_site_fract_z
 _atom_site_occupancy
  Tm  Tm0  1  0.175972  0.675711  0.000000  1
  Tm  Tm1  1  0.324289  0.175972  0.000000  1
  Tm  Tm2  1  0.824028  0.324289  0.000000  1
  Tm  Tm3  1  0.500000  0.500000  0.000000  1
  Tm  Tm4  1  0.675711  0.824028  0.000000  1
  Hf  Hf5  1  0.000000  0.000000  0.000000  1
  Be  Be6  1  0.379625  0.879180  0.000000  1
  Be  Be7  1  0.120820  0.379625  0.000000  1
  Be  Be8  1  0.879180  0.620375  0.000000  1
  Be  Be9  1  0.620375  0.120820  0.000000  1
  Ir  Ir10  1  0.216383  0.932263  0.500000  1
  Ir  Ir11  1  0.932263  0.783617  0.500000  1
  Ir  Ir12  1  0.427509  0.722455  0.500000  1
  Ir  Ir13  1  0.572491  0.277545  0.500000  1
  Ir  Ir14  1  0.722455  0.572491  0.500000  1
  Ir  Ir15  1  0.277545  0.427509  0.500000  1
  Ir  Ir16  1  0.067737  0.216383  0.500000  1
  Ir  Ir17  1  0.000000  0.500000  0.500000  1
  Ir  Ir18  1  0.500000  0.000000  0.500000  1
  Ir  Ir19  1  0.783617  0.067737  0.500000  1
