# generated using pymatgen
data_K8MnFe3S4(O4F3)4
_symmetry_space_group_name_H-M   'P 1'
_cell_length_a   7.45957000
_cell_length_b   8.53063300
_cell_length_c   10.98786500
_cell_angle_alpha   90.00000000
_cell_angle_beta   90.00000000
_cell_angle_gamma   90.00000000
_symmetry_Int_Tables_number   1
_chemical_formula_structural   K8MnFe3S4(O4F3)4
_chemical_formula_sum   'K8 Mn1 Fe3 S4 O16 F12'
_cell_volume   699.21118513
_cell_formula_units_Z   1
loop_
 _symmetry_equiv_pos_site_id
 _symmetry_equiv_pos_as_xyz
  1  'x, y, z'
loop_
 _atom_site_type_symbol
 _atom_site_label
 _atom_site_symmetry_multiplicity
 _atom_site_fract_x
 _atom_site_fract_y
 _atom_site_fract_z
 _atom_site_occupancy
  K  K0  1  0.811804  0.666887  0.193894  1
  K  K1  1  0.811812  0.168043  0.304721  1
  K  K2  1  0.318246  0.834539  0.305695  1
  K  K3  1  0.685397  0.668263  0.806286  1
  K  K4  1  0.681754  0.165461  0.694305  1
  K  K5  1  0.314603  0.331737  0.193714  1
  K  K6  1  0.188196  0.333113  0.806106  1
  K  K7  1  0.188188  0.831957  0.695279  1
  Mn  Mn8  1  0.000000  0.000000  0.000000  1
  Fe  Fe9  1  0.500000  0.500000  0.500000  1
  Fe  Fe10  1  0.500000  0.000000  0.000000  1
  Fe  Fe11  1  0.000000  0.500000  0.500000  1
  S  S12  1  0.249399  0.190063  0.499696  1
  S  S13  1  0.754814  0.307503  0.998834  1
  S  S14  1  0.750601  0.809937  0.500304  1
  S  S15  1  0.245186  0.692497  0.001166  1
  O  O16  1  0.331104  0.096135  0.596660  1
  O  O17  1  0.838209  0.402341  0.903244  1
  O  O18  1  0.167613  0.096873  0.402312  1
  O  O19  1  0.673908  0.399474  0.097196  1
  O  O20  1  0.668896  0.903865  0.403340  1
  O  O21  1  0.161791  0.597659  0.096756  1
  O  O22  1  0.832387  0.903127  0.597688  1
  O  O23  1  0.326092  0.600526  0.902804  1
  O  O24  1  0.390762  0.295398  0.441760  1
  O  O25  1  0.895684  0.201238  0.058497  1
  O  O26  1  0.108508  0.295162  0.558268  1
  O  O27  1  0.615658  0.203000  0.939678  1
  O  O28  1  0.104316  0.798762  0.941503  1
  O  O29  1  0.891492  0.704838  0.441732  1
  O  O30  1  0.609238  0.704602  0.558240  1
  O  O31  1  0.384342  0.797000  0.060322  1
  F  F32  1  0.475529  0.939925  0.832229  1
  F  F33  1  0.978284  0.560486  0.666559  1
  F  F34  1  0.022480  0.941105  0.163230  1
  F  F35  1  0.522223  0.560067  0.333125  1
  F  F36  1  0.736398  0.888904  0.001845  1
  F  F37  1  0.250305  0.601326  0.499975  1
  F  F38  1  0.263602  0.111096  0.998155  1
  F  F39  1  0.749695  0.398674  0.500025  1
  F  F40  1  0.977520  0.058895  0.836770  1
  F  F41  1  0.524471  0.060075  0.167771  1
  F  F42  1  0.021716  0.439514  0.333441  1
  F  F43  1  0.477777  0.439933  0.666875  1
