# generated using pymatgen
data_Tm20Si3Bi8Sb
_symmetry_space_group_name_H-M   'P 1'
_cell_length_a   8.00268323
_cell_length_b   9.14047500
_cell_length_c   11.88474818
_cell_angle_alpha   90.00000000
_cell_angle_beta   89.89836582
_cell_angle_gamma   90.00000000
_symmetry_Int_Tables_number   1
_chemical_formula_structural   Tm20Si3Bi8Sb
_chemical_formula_sum   'Tm20 Si3 Bi8 Sb1'
_cell_volume   869.34806684
_cell_formula_units_Z   1
loop_
 _symmetry_equiv_pos_site_id
 _symmetry_equiv_pos_as_xyz
  1  'x, y, z'
loop_
 _atom_site_type_symbol
 _atom_site_label
 _atom_site_symmetry_multiplicity
 _atom_site_fract_x
 _atom_site_fract_y
 _atom_site_fract_z
 _atom_site_occupancy
  Tm  Tm0  1  0.819475  0.943898  0.061596  1
  Tm  Tm1  1  0.314367  0.045697  0.433589  1
  Tm  Tm2  1  0.176883  0.444821  0.940317  1
  Tm  Tm3  1  0.683297  0.567210  0.563507  1
  Tm  Tm4  1  0.176883  0.055179  0.940317  1
  Tm  Tm5  1  0.683297  0.932790  0.563507  1
  Tm  Tm6  1  0.819475  0.556102  0.061596  1
  Tm  Tm7  1  0.314367  0.454303  0.433589  1
  Tm  Tm8  1  0.536622  0.250000  0.996792  1
  Tm  Tm9  1  0.042425  0.750000  0.501653  1
  Tm  Tm10  1  0.459862  0.750000  0.001030  1
  Tm  Tm11  1  0.974230  0.250000  0.497130  1
  Tm  Tm12  1  0.163570  0.750000  0.211196  1
  Tm  Tm13  1  0.675718  0.250000  0.273605  1
  Tm  Tm14  1  0.838246  0.250000  0.789619  1
  Tm  Tm15  1  0.336949  0.750000  0.713579  1
  Tm  Tm16  1  0.637343  0.750000  0.294873  1
  Tm  Tm17  1  0.138064  0.250000  0.206286  1
  Tm  Tm18  1  0.347479  0.250000  0.713956  1
  Tm  Tm19  1  0.861446  0.750000  0.796046  1
  Si  Si20  1  0.906711  0.250000  0.025415  1
  Si  Si21  1  0.414300  0.750000  0.480376  1
  Si  Si22  1  0.089438  0.750000  0.978008  1
  Bi  Bi23  1  0.931288  0.987946  0.326067  1
  Bi  Bi24  1  0.431614  0.010715  0.173349  1
  Bi  Bi25  1  0.067544  0.491171  0.674720  1
  Bi  Bi26  1  0.567896  0.509888  0.825200  1
  Bi  Bi27  1  0.067544  0.008829  0.674720  1
  Bi  Bi28  1  0.567896  0.990112  0.825200  1
  Bi  Bi29  1  0.931288  0.512054  0.326067  1
  Bi  Bi30  1  0.431614  0.489285  0.173349  1
  Sb  Sb31  1  0.592868  0.250000  0.523746  1
