# generated using pymatgen
data_LaNd11Si(PBr4)3
_symmetry_space_group_name_H-M   'P 1'
_cell_length_a   10.32553734
_cell_length_b   10.32553815
_cell_length_c   10.32439928
_cell_angle_alpha   109.39823007
_cell_angle_beta   109.39823192
_cell_angle_gamma   109.43829583
_symmetry_Int_Tables_number   1
_chemical_formula_structural   LaNd11Si(PBr4)3
_chemical_formula_sum   'La1 Nd11 Si1 P3 Br12'
_cell_volume   849.22622906
_cell_formula_units_Z   1
loop_
 _symmetry_equiv_pos_site_id
 _symmetry_equiv_pos_as_xyz
  1  'x, y, z'
loop_
 _atom_site_type_symbol
 _atom_site_label
 _atom_site_symmetry_multiplicity
 _atom_site_fract_x
 _atom_site_fract_y
 _atom_site_fract_z
 _atom_site_occupancy
  La  La0  1  0.237649  0.262351  0.750000  1
  Nd  Nd1  1  0.474587  0.490108  0.236595  1
  Nd  Nd2  1  0.749359  0.235238  0.264031  1
  Nd  Nd3  1  0.749569  0.014408  0.485126  1
  Nd  Nd4  1  0.235765  0.474795  0.489165  1
  Nd  Nd5  1  0.264762  0.750641  0.235969  1
  Nd  Nd6  1  0.025205  0.264235  0.010835  1
  Nd  Nd7  1  0.009892  0.025413  0.263405  1
  Nd  Nd8  1  0.485592  0.750431  0.014874  1
  Nd  Nd9  1  0.489982  0.236306  0.474605  1
  Nd  Nd10  1  0.014068  0.485932  0.750000  1
  Nd  Nd11  1  0.263694  0.010018  0.025395  1
  Si  Si12  1  0.250038  0.249962  0.250000  1
  P  P13  1  0.500263  0.999737  0.250000  1
  P  P14  1  0.998731  0.250105  0.499539  1
  P  P15  1  0.249895  0.501269  0.000461  1
  Br  Br16  1  0.249961  0.755824  0.744549  1
  Br  Br17  1  0.512935  0.508394  0.756341  1
  Br  Br18  1  0.989116  0.743568  0.993966  1
  Br  Br19  1  0.744176  0.250039  0.755451  1
  Br  Br20  1  0.991606  0.987065  0.743659  1
  Br  Br21  1  0.249880  0.992471  0.503983  1
  Br  Br22  1  0.756432  0.510884  0.506034  1
  Br  Br23  1  0.507529  0.250120  0.996017  1
  Br  Br24  1  0.755515  0.744485  0.250000  1
  Br  Br25  1  0.743555  0.993965  0.989069  1
  Br  Br26  1  0.994208  0.505792  0.250000  1
  Br  Br27  1  0.506035  0.756445  0.510931  1
