# generated using pymatgen
data_Rb2ZnSiTe4
_symmetry_space_group_name_H-M   'P 1'
_cell_length_a   14.46887512
_cell_length_b   12.88353918
_cell_length_c   8.08427200
_cell_angle_alpha   83.93955955
_cell_angle_beta   62.30752479
_cell_angle_gamma   33.75292464
_symmetry_Int_Tables_number   1
_chemical_formula_structural   Rb2ZnSiTe4
_chemical_formula_sum   'Rb4 Zn2 Si2 Te8'
_cell_volume   608.75274877
_cell_formula_units_Z   2
loop_
 _symmetry_equiv_pos_site_id
 _symmetry_equiv_pos_as_xyz
  1  'x, y, z'
loop_
 _atom_site_type_symbol
 _atom_site_label
 _atom_site_symmetry_multiplicity
 _atom_site_fract_x
 _atom_site_fract_y
 _atom_site_fract_z
 _atom_site_occupancy
  Rb  Rb0  1  0.684172  0.684172  0.315828  1
  Rb  Rb1  1  0.315828  0.315828  0.684172  1
  Rb  Rb2  1  0.565828  0.565828  0.934172  1
  Rb  Rb3  1  0.934172  0.934172  0.565828  1
  Zn  Zn4  1  0.000000  0.000000  0.000000  1
  Zn  Zn5  1  0.250000  0.250000  0.250000  1
  Si  Si6  1  0.500000  0.500000  0.500000  1
  Si  Si7  1  0.750000  0.750000  0.750000  1
  Te  Te8  1  0.364493  0.019169  0.943233  1
  Te  Te9  1  0.673105  0.943233  0.019169  1
  Te  Te10  1  0.943233  0.673105  0.364493  1
  Te  Te11  1  0.019169  0.364493  0.673105  1
  Te  Te12  1  0.885507  0.230831  0.306767  1
  Te  Te13  1  0.576895  0.306767  0.230831  1
  Te  Te14  1  0.306767  0.576895  0.885507  1
  Te  Te15  1  0.230831  0.885507  0.576895  1
