# generated using pymatgen
data_Zr2AgHgF11
_symmetry_space_group_name_H-M   'P 1'
_cell_length_a   6.08018315
_cell_length_b   6.08018291
_cell_length_c   8.02105786
_cell_angle_alpha   69.88169911
_cell_angle_beta   69.88170190
_cell_angle_gamma   73.48482881
_symmetry_Int_Tables_number   1
_chemical_formula_structural   Zr2AgHgF11
_chemical_formula_sum   'Zr2 Ag1 Hg1 F11'
_cell_volume   256.77248871
_cell_formula_units_Z   1
loop_
 _symmetry_equiv_pos_site_id
 _symmetry_equiv_pos_as_xyz
  1  'x, y, z'
loop_
 _atom_site_type_symbol
 _atom_site_label
 _atom_site_symmetry_multiplicity
 _atom_site_fract_x
 _atom_site_fract_y
 _atom_site_fract_z
 _atom_site_occupancy
  Zr  Zr0  1  0.503595  0.503595  0.766700  1
  Zr  Zr1  1  0.496405  0.496405  0.233300  1
  Ag  Ag2  1  0.000000  0.000000  0.000000  1
  Hg  Hg3  1  0.000000  0.000000  0.500000  1
  F  F4  1  0.205099  0.760413  0.302030  1
  F  F5  1  0.239587  0.794901  0.697970  1
  F  F6  1  0.794901  0.239587  0.697970  1
  F  F7  1  0.760413  0.205099  0.302030  1
  F  F8  1  0.500000  0.500000  0.500000  1
  F  F9  1  0.660192  0.339808  0.000000  1
  F  F10  1  0.339808  0.660192  0.000000  1
  F  F11  1  0.735398  0.735398  0.658499  1
  F  F12  1  0.264602  0.264602  0.341501  1
  F  F13  1  0.722723  0.722723  0.113135  1
  F  F14  1  0.277277  0.277277  0.886865  1
