# generated using pymatgen
data_Dy4Ga24PdPt8
_symmetry_space_group_name_H-M   'P 1'
_cell_length_a   7.49418122
_cell_length_b   7.56735968
_cell_length_c   13.35327600
_cell_angle_alpha   84.78018192
_cell_angle_beta   79.53675335
_cell_angle_gamma   60.23943406
_symmetry_Int_Tables_number   1
_chemical_formula_structural   Dy4Ga24PdPt8
_chemical_formula_sum   'Dy4 Ga24 Pd1 Pt8'
_cell_volume   646.46833001
_cell_formula_units_Z   1
loop_
 _symmetry_equiv_pos_site_id
 _symmetry_equiv_pos_as_xyz
  1  'x, y, z'
loop_
 _atom_site_type_symbol
 _atom_site_label
 _atom_site_symmetry_multiplicity
 _atom_site_fract_x
 _atom_site_fract_y
 _atom_site_fract_z
 _atom_site_occupancy
  Dy  Dy0  1  0.393265  0.168826  0.810968  1
  Dy  Dy1  1  0.606735  0.831174  0.189032  1
  Dy  Dy2  1  0.732565  0.497553  0.811245  1
  Dy  Dy3  1  0.267435  0.502447  0.188755  1
  Ga  Ga4  1  0.686475  0.832833  0.938574  1
  Ga  Ga5  1  0.313525  0.167167  0.061426  1
  Ga  Ga6  1  0.145933  0.832805  0.559089  1
  Ga  Ga7  1  0.854067  0.167195  0.440911  1
  Ga  Ga8  1  0.478187  0.167030  0.556077  1
  Ga  Ga9  1  0.521813  0.832970  0.443923  1
  Ga  Ga10  1  0.220594  0.165366  0.323496  1
  Ga  Ga11  1  0.779406  0.834634  0.676504  1
  Ga  Ga12  1  0.437091  0.503904  0.675667  1
  Ga  Ga13  1  0.562909  0.496096  0.324333  1
  Ga  Ga14  1  0.106547  0.163626  0.675037  1
  Ga  Ga15  1  0.893453  0.836374  0.324963  1
  Ga  Ga16  1  0.356513  0.498146  0.938713  1
  Ga  Ga17  1  0.643487  0.501854  0.061287  1
  Ga  Ga18  1  0.019858  0.170595  0.943336  1
  Ga  Ga19  1  0.980142  0.829405  0.056664  1
  Ga  Ga20  1  0.186976  0.499057  0.443072  1
  Ga  Ga21  1  0.813024  0.500943  0.556928  1
  Ga  Ga22  1  0.734851  0.163685  0.182009  1
  Ga  Ga23  1  0.265149  0.836315  0.817991  1
  Ga  Ga24  1  0.060726  0.630081  0.817618  1
  Ga  Ga25  1  0.939274  0.369919  0.182382  1
  Ga  Ga26  1  0.856278  0.039766  0.817098  1
  Ga  Ga27  1  0.143722  0.960234  0.182902  1
  Pd  Pd28  1  0.000000  0.500000  0.000000  1
  Pt  Pt29  1  0.117703  0.495860  0.638780  1
  Pt  Pt30  1  0.882297  0.504140  0.361220  1
  Pt  Pt31  1  0.659701  0.170078  0.999307  1
  Pt  Pt32  1  0.340299  0.829922  0.000693  1
  Pt  Pt33  1  0.540671  0.166485  0.360200  1
  Pt  Pt34  1  0.459329  0.833515  0.639800  1
  Pt  Pt35  1  0.779284  0.172431  0.637216  1
  Pt  Pt36  1  0.220716  0.827569  0.362784  1
