# generated using pymatgen
data_Nd2BePd14
_symmetry_space_group_name_H-M   'P 1'
_cell_length_a   8.93903800
_cell_length_b   8.93903800
_cell_length_c   7.11027900
_cell_angle_alpha   90.00000000
_cell_angle_beta   90.00000000
_cell_angle_gamma   90.00000000
_symmetry_Int_Tables_number   1
_chemical_formula_structural   Nd2BePd14
_chemical_formula_sum   'Nd4 Be2 Pd28'
_cell_volume   568.15680048
_cell_formula_units_Z   2
loop_
 _symmetry_equiv_pos_site_id
 _symmetry_equiv_pos_as_xyz
  1  'x, y, z'
loop_
 _atom_site_type_symbol
 _atom_site_label
 _atom_site_symmetry_multiplicity
 _atom_site_fract_x
 _atom_site_fract_y
 _atom_site_fract_z
 _atom_site_occupancy
  Nd  Nd0  1  0.500000  0.000000  0.934581  1
  Nd  Nd1  1  0.000000  0.500000  0.065419  1
  Nd  Nd2  1  0.000000  0.000000  0.500000  1
  Nd  Nd3  1  0.500000  0.500000  0.500000  1
  Be  Be4  1  0.500000  0.000000  0.451202  1
  Be  Be5  1  0.000000  0.500000  0.548798  1
  Pd  Pd6  1  0.335733  0.835733  0.611929  1
  Pd  Pd7  1  0.335733  0.164267  0.611929  1
  Pd  Pd8  1  0.664267  0.835733  0.611929  1
  Pd  Pd9  1  0.664267  0.164267  0.611929  1
  Pd  Pd10  1  0.164267  0.664267  0.388071  1
  Pd  Pd11  1  0.164267  0.335733  0.388071  1
  Pd  Pd12  1  0.835733  0.664267  0.388071  1
  Pd  Pd13  1  0.835733  0.335733  0.388071  1
  Pd  Pd14  1  0.500000  0.772868  0.262174  1
  Pd  Pd15  1  0.500000  0.227132  0.262174  1
  Pd  Pd16  1  0.272868  0.000000  0.262174  1
  Pd  Pd17  1  0.727132  0.000000  0.262174  1
  Pd  Pd18  1  0.000000  0.727132  0.737826  1
  Pd  Pd19  1  0.000000  0.272868  0.737826  1
  Pd  Pd20  1  0.227132  0.500000  0.737826  1
  Pd  Pd21  1  0.772868  0.500000  0.737826  1
  Pd  Pd22  1  0.500000  0.348312  0.854966  1
  Pd  Pd23  1  0.500000  0.651688  0.854966  1
  Pd  Pd24  1  0.848312  0.000000  0.854966  1
  Pd  Pd25  1  0.151688  0.000000  0.854966  1
  Pd  Pd26  1  0.000000  0.151688  0.145034  1
  Pd  Pd27  1  0.000000  0.848312  0.145034  1
  Pd  Pd28  1  0.651688  0.500000  0.145034  1
  Pd  Pd29  1  0.348312  0.500000  0.145034  1
  Pd  Pd30  1  0.250000  0.750000  0.000000  1
  Pd  Pd31  1  0.250000  0.250000  0.000000  1
  Pd  Pd32  1  0.750000  0.750000  0.000000  1
  Pd  Pd33  1  0.750000  0.250000  0.000000  1
