# generated using pymatgen
data_CuIrRhS8
_symmetry_space_group_name_H-M   'P 1'
_cell_length_a   5.78049908
_cell_length_b   5.69887440
_cell_length_c   5.69210524
_cell_angle_alpha   90.12142703
_cell_angle_beta   91.03706158
_cell_angle_gamma   91.88480525
_symmetry_Int_Tables_number   1
_chemical_formula_structural   CuIrRhS8
_chemical_formula_sum   'Cu1 Ir1 Rh1 S8'
_cell_volume   187.37841801
_cell_formula_units_Z   1
loop_
 _symmetry_equiv_pos_site_id
 _symmetry_equiv_pos_as_xyz
  1  'x, y, z'
loop_
 _atom_site_type_symbol
 _atom_site_label
 _atom_site_symmetry_multiplicity
 _atom_site_fract_x
 _atom_site_fract_y
 _atom_site_fract_z
 _atom_site_occupancy
  Cu  Cu0  1  0.000000  0.500000  0.500000  1
  Ir  Ir1  1  0.500000  0.500000  0.000000  1
  Rh  Rh2  1  0.500000  0.000000  0.500000  1
  S  S3  1  0.395106  0.888050  0.104218  1
  S  S4  1  0.103374  0.395779  0.898014  1
  S  S5  1  0.893823  0.098417  0.396721  1
  S  S6  1  0.604894  0.111950  0.895782  1
  S  S7  1  0.896626  0.604221  0.101986  1
  S  S8  1  0.106177  0.901583  0.603279  1
  S  S9  1  0.600301  0.614381  0.614189  1
  S  S10  1  0.399699  0.385619  0.385811  1
