# generated using pymatgen
data_Tb3Dy2Er3(CdPt)2
_symmetry_space_group_name_H-M   'P 1'
_cell_length_a   9.67868468
_cell_length_b   9.67868356
_cell_length_c   9.67868500
_cell_angle_alpha   59.99999850
_cell_angle_beta   60.00000231
_cell_angle_gamma   60.00000168
_symmetry_Int_Tables_number   1
_chemical_formula_structural   Tb3Dy2Er3(CdPt)2
_chemical_formula_sum   'Tb6 Dy4 Er6 Cd4 Pt4'
_cell_volume   641.11213630
_cell_formula_units_Z   2
loop_
 _symmetry_equiv_pos_site_id
 _symmetry_equiv_pos_as_xyz
  1  'x, y, z'
loop_
 _atom_site_type_symbol
 _atom_site_label
 _atom_site_symmetry_multiplicity
 _atom_site_fract_x
 _atom_site_fract_y
 _atom_site_fract_z
 _atom_site_occupancy
  Tb  Tb0  1  0.935729  0.564271  0.564271  1
  Tb  Tb1  1  0.564271  0.935729  0.935729  1
  Tb  Tb2  1  0.564271  0.935729  0.564271  1
  Tb  Tb3  1  0.935729  0.564271  0.935729  1
  Tb  Tb4  1  0.564271  0.564271  0.935729  1
  Tb  Tb5  1  0.935729  0.935729  0.564271  1
  Dy  Dy6  1  0.352097  0.352097  0.352097  1
  Dy  Dy7  1  0.352097  0.352097  0.943709  1
  Dy  Dy8  1  0.352097  0.943709  0.352097  1
  Dy  Dy9  1  0.943709  0.352097  0.352097  1
  Er  Er10  1  0.811312  0.188688  0.188688  1
  Er  Er11  1  0.188688  0.811312  0.811312  1
  Er  Er12  1  0.188688  0.811312  0.188688  1
  Er  Er13  1  0.811312  0.188688  0.811312  1
  Er  Er14  1  0.188688  0.188688  0.811312  1
  Er  Er15  1  0.811312  0.811312  0.188688  1
  Cd  Cd16  1  0.581535  0.581535  0.581535  1
  Cd  Cd17  1  0.581535  0.581535  0.255393  1
  Cd  Cd18  1  0.581535  0.255393  0.581535  1
  Cd  Cd19  1  0.255393  0.581535  0.581535  1
  Pt  Pt20  1  0.142691  0.142691  0.142691  1
  Pt  Pt21  1  0.142691  0.142691  0.571926  1
  Pt  Pt22  1  0.142691  0.571926  0.142691  1
  Pt  Pt23  1  0.571926  0.142691  0.142691  1
