# generated using pymatgen
data_K4CeUCl12
_symmetry_space_group_name_H-M   'P 1'
_cell_length_a   7.90074430
_cell_length_b   7.37368232
_cell_length_c   12.69136900
_cell_angle_alpha   54.88836542
_cell_angle_beta   90.13613368
_cell_angle_gamma   90.48404688
_symmetry_Int_Tables_number   1
_chemical_formula_structural   K4CeUCl12
_chemical_formula_sum   'K4 Ce1 U1 Cl12'
_cell_volume   604.80335664
_cell_formula_units_Z   1
loop_
 _symmetry_equiv_pos_site_id
 _symmetry_equiv_pos_as_xyz
  1  'x, y, z'
loop_
 _atom_site_type_symbol
 _atom_site_label
 _atom_site_symmetry_multiplicity
 _atom_site_fract_x
 _atom_site_fract_y
 _atom_site_fract_z
 _atom_site_occupancy
  K  K0  1  0.584743  0.723684  0.257409  1
  K  K1  1  0.084273  0.269330  0.256112  1
  K  K2  1  0.415257  0.276316  0.742591  1
  K  K3  1  0.915727  0.730670  0.743888  1
  Ce  Ce4  1  0.500000  0.000000  0.500000  1
  U  U5  1  0.000000  0.000000  0.000000  1
  Cl  Cl6  1  0.979887  0.857711  0.238144  1
  Cl  Cl7  1  0.474079  0.145238  0.252251  1
  Cl  Cl8  1  0.020113  0.142289  0.761856  1
  Cl  Cl9  1  0.525921  0.854762  0.747749  1
  Cl  Cl10  1  0.678540  0.646261  0.555417  1
  Cl  Cl11  1  0.173096  0.341308  0.948612  1
  Cl  Cl12  1  0.321460  0.353739  0.444583  1
  Cl  Cl13  1  0.826904  0.658692  0.051388  1
  Cl  Cl14  1  0.720353  0.216110  0.953492  1
  Cl  Cl15  1  0.207903  0.773470  0.551681  1
  Cl  Cl16  1  0.279647  0.783890  0.046508  1
  Cl  Cl17  1  0.792097  0.226530  0.448319  1
