# generated using pymatgen
data_Er2Tm10TcRu3
_symmetry_space_group_name_H-M   'P 1'
_cell_length_a   6.23502100
_cell_length_b   7.29429033
_cell_length_c   8.98898600
_cell_angle_alpha   90.00000000
_cell_angle_beta   90.00000000
_cell_angle_gamma   89.98342299
_symmetry_Int_Tables_number   1
_chemical_formula_structural   Er2Tm10TcRu3
_chemical_formula_sum   'Er2 Tm10 Tc1 Ru3'
_cell_volume   408.81954627
_cell_formula_units_Z   1
loop_
 _symmetry_equiv_pos_site_id
 _symmetry_equiv_pos_as_xyz
  1  'x, y, z'
loop_
 _atom_site_type_symbol
 _atom_site_label
 _atom_site_symmetry_multiplicity
 _atom_site_fract_x
 _atom_site_fract_y
 _atom_site_fract_z
 _atom_site_occupancy
  Er  Er0  1  0.367872  0.958459  0.750000  1
  Er  Er1  1  0.131833  0.458516  0.750000  1
  Tm  Tm2  1  0.631218  0.039878  0.250000  1
  Tm  Tm3  1  0.873211  0.541693  0.250000  1
  Tm  Tm4  1  0.166702  0.176222  0.064478  1
  Tm  Tm5  1  0.832655  0.823448  0.936917  1
  Tm  Tm6  1  0.664987  0.324831  0.938072  1
  Tm  Tm7  1  0.832655  0.823448  0.563083  1
  Tm  Tm8  1  0.332518  0.676004  0.064019  1
  Tm  Tm9  1  0.166702  0.176222  0.435522  1
  Tm  Tm10  1  0.332518  0.676004  0.435981  1
  Tm  Tm11  1  0.664987  0.324831  0.561928  1
  Tc  Tc12  1  0.464031  0.384278  0.250000  1
  Ru  Ru13  1  0.539725  0.617295  0.750000  1
  Ru  Ru14  1  0.961315  0.115442  0.750000  1
  Ru  Ru15  1  0.037071  0.883430  0.250000  1
