# generated using pymatgen
data_Mg2Cr2Ni9P7W
_symmetry_space_group_name_H-M   'P 1'
_cell_length_a   3.56716400
_cell_length_b   9.14043134
_cell_length_c   9.09924286
_cell_angle_alpha   119.88338232
_cell_angle_beta   90.00000000
_cell_angle_gamma   90.00000000
_symmetry_Int_Tables_number   1
_chemical_formula_structural   Mg2Cr2Ni9P7W
_chemical_formula_sum   'Mg2 Cr2 Ni9 P7 W1'
_cell_volume   257.23780999
_cell_formula_units_Z   1
loop_
 _symmetry_equiv_pos_site_id
 _symmetry_equiv_pos_as_xyz
  1  'x, y, z'
loop_
 _atom_site_type_symbol
 _atom_site_label
 _atom_site_symmetry_multiplicity
 _atom_site_fract_x
 _atom_site_fract_y
 _atom_site_fract_z
 _atom_site_occupancy
  Mg  Mg0  1  0.000000  0.663883  0.330601  1
  Mg  Mg1  1  0.500000  0.334608  0.663402  1
  Cr  Cr2  1  0.500000  0.778428  0.899374  1
  Cr  Cr3  1  0.500000  0.122180  0.221228  1
  Ni  Ni4  1  0.000000  0.559761  0.931903  1
  Ni  Ni5  1  0.000000  0.373368  0.443797  1
  Ni  Ni6  1  0.000000  0.069338  0.626570  1
  Ni  Ni7  1  0.500000  0.939921  0.381517  1
  Ni  Ni8  1  0.500000  0.447443  0.066845  1
  Ni  Ni9  1  0.500000  0.616979  0.557264  1
  Ni  Ni10  1  0.000000  0.873693  0.156835  1
  Ni  Ni11  1  0.000000  0.282476  0.128963  1
  Ni  Ni12  1  0.000000  0.841420  0.714265  1
  P  P13  1  0.500000  0.708302  0.115543  1
  P  P14  1  0.500000  0.407929  0.295268  1
  P  P15  1  0.500000  0.878517  0.584349  1
  P  P16  1  0.000000  0.995866  0.002364  1
  P  P17  1  0.000000  0.592488  0.709013  1
  P  P18  1  0.000000  0.116966  0.407454  1
  P  P19  1  0.000000  0.297868  0.883599  1
  W  W20  1  0.500000  0.098565  0.879847  1
