# generated using pymatgen
data_Ho8Er7Tm5Pt16
_symmetry_space_group_name_H-M   'P 1'
_cell_length_a   7.42450200
_cell_length_b   7.51895701
_cell_length_c   14.63221802
_cell_angle_alpha   89.99422607
_cell_angle_beta   90.00057520
_cell_angle_gamma   89.99606614
_symmetry_Int_Tables_number   1
_chemical_formula_structural   Ho8Er7Tm5Pt16
_chemical_formula_sum   'Ho8 Er7 Tm5 Pt16'
_cell_volume   816.83641580
_cell_formula_units_Z   1
loop_
 _symmetry_equiv_pos_site_id
 _symmetry_equiv_pos_as_xyz
  1  'x, y, z'
loop_
 _atom_site_type_symbol
 _atom_site_label
 _atom_site_symmetry_multiplicity
 _atom_site_fract_x
 _atom_site_fract_y
 _atom_site_fract_z
 _atom_site_occupancy
  Ho  Ho0  1  0.501082  0.679607  0.592696  1
  Ho  Ho1  1  0.001146  0.820309  0.907298  1
  Ho  Ho2  1  0.498844  0.320316  0.092683  1
  Ho  Ho3  1  0.998899  0.179735  0.407375  1
  Ho  Ho4  1  0.498833  0.320320  0.407333  1
  Ho  Ho5  1  0.998871  0.179701  0.092681  1
  Ho  Ho6  1  0.501143  0.679699  0.907313  1
  Ho  Ho7  1  0.001195  0.820289  0.592686  1
  Er  Er8  1  0.656848  0.167755  0.622580  1
  Er  Er9  1  0.156858  0.332287  0.877384  1
  Er  Er10  1  0.343147  0.832283  0.122579  1
  Er  Er11  1  0.843183  0.667686  0.377440  1
  Er  Er12  1  0.343147  0.832284  0.377443  1
  Er  Er13  1  0.843152  0.667714  0.122585  1
  Er  Er14  1  0.656847  0.167731  0.877393  1
  Tm  Tm15  1  0.156831  0.332298  0.622622  1
  Tm  Tm16  1  0.819304  0.511272  0.749955  1
  Tm  Tm17  1  0.319149  0.988740  0.749955  1
  Tm  Tm18  1  0.180789  0.488653  0.250005  1
  Tm  Tm19  1  0.680793  0.011342  0.250008  1
  Pt  Pt20  1  0.683277  0.966824  0.458335  1
  Pt  Pt21  1  0.183275  0.533174  0.041666  1
  Pt  Pt22  1  0.316716  0.033180  0.958337  1
  Pt  Pt23  1  0.816778  0.466788  0.541684  1
  Pt  Pt24  1  0.316626  0.033273  0.541698  1
  Pt  Pt25  1  0.816711  0.466818  0.958334  1
  Pt  Pt26  1  0.683274  0.966819  0.041668  1
  Pt  Pt27  1  0.183300  0.533128  0.458371  1
  Pt  Pt28  1  0.454315  0.386620  0.749977  1
  Pt  Pt29  1  0.954410  0.113417  0.749977  1
  Pt  Pt30  1  0.545623  0.613350  0.249991  1
  Pt  Pt31  1  0.045636  0.886649  0.249992  1
  Pt  Pt32  1  0.682750  0.856580  0.750002  1
  Pt  Pt33  1  0.182718  0.643368  0.749974  1
  Pt  Pt34  1  0.317262  0.143429  0.249990  1
  Pt  Pt35  1  0.817270  0.356559  0.249991  1
