# generated using pymatgen
data_Tb8Lu11ScSi15Hg
_symmetry_space_group_name_H-M   'P 1'
_cell_length_a   7.31569042
_cell_length_b   7.60629478
_cell_length_c   14.45968601
_cell_angle_alpha   90.02280184
_cell_angle_beta   89.55767419
_cell_angle_gamma   90.14045744
_symmetry_Int_Tables_number   1
_chemical_formula_structural   Tb8Lu11ScSi15Hg
_chemical_formula_sum   'Tb8 Lu11 Sc1 Si15 Hg1'
_cell_volume   804.58708212
_cell_formula_units_Z   1
loop_
 _symmetry_equiv_pos_site_id
 _symmetry_equiv_pos_as_xyz
  1  'x, y, z'
loop_
 _atom_site_type_symbol
 _atom_site_label
 _atom_site_symmetry_multiplicity
 _atom_site_fract_x
 _atom_site_fract_y
 _atom_site_fract_z
 _atom_site_occupancy
  Tb  Tb0  1  0.015067  0.176298  0.098536  1
  Tb  Tb1  1  0.985696  0.824157  0.905563  1
  Tb  Tb2  1  0.483733  0.679574  0.903691  1
  Tb  Tb3  1  0.987192  0.830331  0.598856  1
  Tb  Tb4  1  0.514036  0.321070  0.096848  1
  Tb  Tb5  1  0.009892  0.172372  0.396843  1
  Tb  Tb6  1  0.512964  0.319962  0.397715  1
  Tb  Tb7  1  0.493055  0.685316  0.600160  1
  Lu  Lu8  1  0.163279  0.508006  0.753561  1
  Lu  Lu9  1  0.837744  0.493299  0.249565  1
  Lu  Lu10  1  0.335793  0.004795  0.247923  1
  Lu  Lu11  1  0.666512  0.991228  0.751850  1
  Lu  Lu12  1  0.339560  0.169764  0.626467  1
  Lu  Lu13  1  0.664605  0.823476  0.374179  1
  Lu  Lu14  1  0.167673  0.677623  0.371707  1
  Lu  Lu15  1  0.669506  0.822802  0.122231  1
  Lu  Lu16  1  0.827548  0.325481  0.624450  1
  Lu  Lu17  1  0.329331  0.177561  0.879041  1
  Lu  Lu18  1  0.827947  0.322334  0.878691  1
  Sc  Sc19  1  0.170097  0.677273  0.125532  1
  Si  Si20  1  0.037352  0.116288  0.752625  1
  Si  Si21  1  0.964198  0.885060  0.246703  1
  Si  Si22  1  0.463645  0.610350  0.245449  1
  Si  Si23  1  0.534481  0.391476  0.752337  1
  Si  Si24  1  0.281379  0.874094  0.752605  1
  Si  Si25  1  0.715824  0.127023  0.246848  1
  Si  Si26  1  0.216662  0.371645  0.246407  1
  Si  Si27  1  0.784849  0.628170  0.753176  1
  Si  Si28  1  0.832311  0.534552  0.458383  1
  Si  Si29  1  0.336067  0.965382  0.458882  1
  Si  Si30  1  0.850944  0.533792  0.040590  1
  Si  Si31  1  0.662987  0.035528  0.537565  1
  Si  Si32  1  0.156154  0.468992  0.965631  1
  Si  Si33  1  0.656533  0.031413  0.960426  1
  Si  Si34  1  0.336161  0.961582  0.040508  1
  Hg  Hg35  1  0.169225  0.461932  0.538454  1
