# generated using pymatgen
data_Nb8V2Si5Ge
_symmetry_space_group_name_H-M   'P 1'
_cell_length_a   7.54308888
_cell_length_b   7.54308837
_cell_length_c   7.54308828
_cell_angle_alpha   128.94952035
_cell_angle_beta   128.94951557
_cell_angle_gamma   75.09181677
_symmetry_Int_Tables_number   1
_chemical_formula_structural   Nb8V2Si5Ge
_chemical_formula_sum   'Nb8 V2 Si5 Ge1'
_cell_volume   252.74205031
_cell_formula_units_Z   1
loop_
 _symmetry_equiv_pos_site_id
 _symmetry_equiv_pos_as_xyz
  1  'x, y, z'
loop_
 _atom_site_type_symbol
 _atom_site_label
 _atom_site_symmetry_multiplicity
 _atom_site_fract_x
 _atom_site_fract_y
 _atom_site_fract_z
 _atom_site_occupancy
  Nb  Nb0  1  0.021119  0.516243  0.833369  1
  Nb  Nb1  1  0.682873  0.187749  0.166631  1
  Nb  Nb2  1  0.516243  0.682873  0.495124  1
  Nb  Nb3  1  0.187749  0.021119  0.504876  1
  Nb  Nb4  1  0.983757  0.478881  0.166631  1
  Nb  Nb5  1  0.312251  0.817127  0.833369  1
  Nb  Nb6  1  0.478881  0.312251  0.495124  1
  Nb  Nb7  1  0.817127  0.983757  0.504876  1
  V  V8  1  0.001179  0.001179  0.000000  1
  V  V9  1  0.498821  0.498821  0.000000  1
  Si  Si10  1  0.250000  0.250000  0.000000  1
  Si  Si11  1  0.632200  0.132200  0.764399  1
  Si  Si12  1  0.367800  0.867800  0.235601  1
  Si  Si13  1  0.132200  0.367800  0.500000  1
  Si  Si14  1  0.867800  0.632200  0.500000  1
  Ge  Ge15  1  0.750000  0.750000  0.000000  1
