# generated using pymatgen
data_Ho5Tc4(P4Ir5)3
_symmetry_space_group_name_H-M   'P 1'
_cell_length_a   12.69612659
_cell_length_b   12.59408929
_cell_length_c   3.97715100
_cell_angle_alpha   90.00000000
_cell_angle_beta   90.00000000
_cell_angle_gamma   119.84119574
_symmetry_Int_Tables_number   1
_chemical_formula_structural   Ho5Tc4(P4Ir5)3
_chemical_formula_sum   'Ho5 Tc4 P12 Ir15'
_cell_volume   551.61169795
_cell_formula_units_Z   1
loop_
 _symmetry_equiv_pos_site_id
 _symmetry_equiv_pos_as_xyz
  1  'x, y, z'
loop_
 _atom_site_type_symbol
 _atom_site_label
 _atom_site_symmetry_multiplicity
 _atom_site_fract_x
 _atom_site_fract_y
 _atom_site_fract_z
 _atom_site_occupancy
  Ho  Ho0  1  0.332343  0.664326  0.000000  1
  Ho  Ho1  1  0.666639  0.333317  0.000000  1
  Ho  Ho2  1  0.817589  0.001982  0.500000  1
  Ho  Ho3  1  0.001187  0.816962  0.500000  1
  Ho  Ho4  1  0.185919  0.187441  0.500000  1
  Tc  Tc5  1  0.454353  0.998840  0.000000  1
  Tc  Tc6  1  0.994315  0.452031  0.000000  1
  Tc  Tc7  1  0.549443  0.544026  0.000000  1
  Tc  Tc8  1  0.177628  0.378983  0.000000  1
  P  P9  1  0.177899  0.002092  0.000000  1
  P  P10  1  0.004546  0.183081  0.000000  1
  P  P11  1  0.823632  0.825231  0.000000  1
  P  P12  1  0.171756  0.479754  0.500000  1
  P  P13  1  0.516798  0.684424  0.500000  1
  P  P14  1  0.312925  0.827589  0.500000  1
  P  P15  1  0.684774  0.516212  0.500000  1
  P  P16  1  0.829236  0.314608  0.500000  1
  P  P17  1  0.483796  0.168015  0.500000  1
  P  P18  1  0.637650  0.998992  0.000000  1
  P  P19  1  0.000758  0.638503  0.000000  1
  P  P20  1  0.358210  0.364207  0.000000  1
  Ir  Ir21  1  0.363834  0.490199  0.500000  1
  Ir  Ir22  1  0.508010  0.866095  0.500000  1
  Ir  Ir23  1  0.130597  0.638493  0.500000  1
  Ir  Ir24  1  0.866181  0.510186  0.500000  1
  Ir  Ir25  1  0.640179  0.130595  0.500000  1
  Ir  Ir26  1  0.493099  0.356662  0.500000  1
  Ir  Ir27  1  0.626312  0.805412  0.000000  1
  Ir  Ir28  1  0.194597  0.820384  0.000000  1
  Ir  Ir29  1  0.809145  0.630066  0.000000  1
  Ir  Ir30  1  0.816244  0.191982  0.000000  1
  Ir  Ir31  1  0.373672  0.180008  0.000000  1
  Ir  Ir32  1  0.289509  0.999637  0.500000  1
  Ir  Ir33  1  0.994332  0.286241  0.500000  1
  Ir  Ir34  1  0.712194  0.712283  0.500000  1
  Ir  Ir35  1  0.000701  0.001144  0.000000  1
