# generated using pymatgen
data_Tb18SiBi9O10
_symmetry_space_group_name_H-M   'P 1'
_cell_length_a   10.02033800
_cell_length_b   10.02033800
_cell_length_c   9.00833300
_cell_angle_alpha   90.00000000
_cell_angle_beta   90.00000000
_cell_angle_gamma   90.00000000
_symmetry_Int_Tables_number   1
_chemical_formula_structural   Tb18SiBi9O10
_chemical_formula_sum   'Tb18 Si1 Bi9 O10'
_cell_volume   904.50125569
_cell_formula_units_Z   1
loop_
 _symmetry_equiv_pos_site_id
 _symmetry_equiv_pos_as_xyz
  1  'x, y, z'
loop_
 _atom_site_type_symbol
 _atom_site_label
 _atom_site_symmetry_multiplicity
 _atom_site_fract_x
 _atom_site_fract_y
 _atom_site_fract_z
 _atom_site_occupancy
  Tb  Tb0  1  0.205782  0.894864  0.336612  1
  Tb  Tb1  1  0.500000  0.000000  0.678476  1
  Tb  Tb2  1  0.273120  0.600427  0.662691  1
  Tb  Tb3  1  0.726880  0.399573  0.662691  1
  Tb  Tb4  1  0.726624  0.916859  0.999536  1
  Tb  Tb5  1  0.394864  0.294218  0.336612  1
  Tb  Tb6  1  0.100427  0.226880  0.662691  1
  Tb  Tb7  1  0.605136  0.705782  0.336612  1
  Tb  Tb8  1  0.000000  0.500000  0.337508  1
  Tb  Tb9  1  0.899573  0.773120  0.662691  1
  Tb  Tb10  1  0.273376  0.083141  0.999536  1
  Tb  Tb11  1  0.776749  0.583087  0.998480  1
  Tb  Tb12  1  0.223251  0.416913  0.998480  1
  Tb  Tb13  1  0.794218  0.105136  0.336612  1
  Tb  Tb14  1  0.583141  0.226624  0.999536  1
  Tb  Tb15  1  0.916913  0.276749  0.998480  1
  Tb  Tb16  1  0.083087  0.723251  0.998480  1
  Tb  Tb17  1  0.416859  0.773376  0.999536  1
  Si  Si18  1  0.000000  0.500000  0.680699  1
  Bi  Bi19  1  0.590222  0.691263  0.696034  1
  Bi  Bi20  1  0.904386  0.806342  0.302428  1
  Bi  Bi21  1  0.693658  0.404386  0.302428  1
  Bi  Bi22  1  0.191263  0.909778  0.696034  1
  Bi  Bi23  1  0.808737  0.090222  0.696034  1
  Bi  Bi24  1  0.306342  0.595614  0.302428  1
  Bi  Bi25  1  0.409778  0.308737  0.696034  1
  Bi  Bi26  1  0.095614  0.193658  0.302428  1
  Bi  Bi27  1  0.500000  0.000000  0.319497  1
  O  O28  1  0.225976  0.879149  0.085065  1
  O  O29  1  0.726238  0.380858  0.914563  1
  O  O30  1  0.500000  0.000000  0.935256  1
  O  O31  1  0.620851  0.725976  0.085065  1
  O  O32  1  0.000000  0.500000  0.066924  1
  O  O33  1  0.880858  0.773762  0.914563  1
  O  O34  1  0.119142  0.226238  0.914563  1
  O  O35  1  0.379149  0.274024  0.085065  1
  O  O36  1  0.774024  0.120851  0.085065  1
  O  O37  1  0.273762  0.619142  0.914563  1
