# generated using pymatgen
data_Ba6Nd(TcO6)2
_symmetry_space_group_name_H-M   'P 1'
_cell_length_a   9.43350637
_cell_length_b   9.43350577
_cell_length_c   7.55305800
_cell_angle_alpha   68.04712703
_cell_angle_beta   68.04713504
_cell_angle_gamma   36.84667897
_symmetry_Int_Tables_number   1
_chemical_formula_structural   Ba6Nd(TcO6)2
_chemical_formula_sum   'Ba6 Nd1 Tc2 O12'
_cell_volume   370.46340077
_cell_formula_units_Z   1
loop_
 _symmetry_equiv_pos_site_id
 _symmetry_equiv_pos_as_xyz
  1  'x, y, z'
loop_
 _atom_site_type_symbol
 _atom_site_label
 _atom_site_symmetry_multiplicity
 _atom_site_fract_x
 _atom_site_fract_y
 _atom_site_fract_z
 _atom_site_occupancy
  Ba  Ba0  1  0.216174  0.216174  0.709779  1
  Ba  Ba1  1  0.877701  0.877701  0.712093  1
  Ba  Ba2  1  0.551836  0.551836  0.703873  1
  Ba  Ba3  1  0.783826  0.783826  0.290221  1
  Ba  Ba4  1  0.448164  0.448164  0.296127  1
  Ba  Ba5  1  0.122299  0.122299  0.287907  1
  Nd  Nd6  1  0.000000  0.000000  0.000000  1
  Tc  Tc7  1  0.670690  0.670690  0.002477  1
  Tc  Tc8  1  0.329310  0.329310  0.997523  1
  O  O9  1  0.280862  0.280862  0.297583  1
  O  O10  1  0.936435  0.936435  0.340436  1
  O  O11  1  0.622443  0.622443  0.300519  1
  O  O12  1  0.719138  0.719138  0.702417  1
  O  O13  1  0.377557  0.377557  0.699481  1
  O  O14  1  0.063565  0.063565  0.659564  1
  O  O15  1  0.000000  0.500000  0.000000  1
  O  O16  1  0.636791  0.180035  0.997187  1
  O  O17  1  0.363209  0.819965  0.002813  1
  O  O18  1  0.500000  0.000000  0.000000  1
  O  O19  1  0.180035  0.636791  0.997187  1
  O  O20  1  0.819965  0.363209  0.002813  1
