# generated using pymatgen
data_Er7Tm(HfIr3)2
_symmetry_space_group_name_H-M   'P 1'
_cell_length_a   10.75498600
_cell_length_b   10.75274600
_cell_length_c   6.21259800
_cell_angle_alpha   90.00295692
_cell_angle_beta   90.00029675
_cell_angle_gamma   89.99854014
_symmetry_Int_Tables_number   1
_chemical_formula_structural   Er7Tm(HfIr3)2
_chemical_formula_sum   'Er14 Tm2 Hf4 Ir12'
_cell_volume   718.45982577
_cell_formula_units_Z   2
loop_
 _symmetry_equiv_pos_site_id
 _symmetry_equiv_pos_as_xyz
  1  'x, y, z'
loop_
 _atom_site_type_symbol
 _atom_site_label
 _atom_site_symmetry_multiplicity
 _atom_site_fract_x
 _atom_site_fract_y
 _atom_site_fract_z
 _atom_site_occupancy
  Er  Er0  1  0.289639  0.086283  0.374002  1
  Er  Er1  1  0.289621  0.913695  0.873985  1
  Er  Er2  1  0.710319  0.086206  0.874065  1
  Er  Er3  1  0.710309  0.913806  0.374086  1
  Er  Er4  1  0.586207  0.789692  0.874058  1
  Er  Er5  1  0.586233  0.210318  0.374065  1
  Er  Er6  1  0.413762  0.789689  0.374133  1
  Er  Er7  1  0.413772  0.210321  0.874122  1
  Er  Er8  1  0.210223  0.413854  0.625890  1
  Er  Er9  1  0.210233  0.586144  0.125887  1
  Er  Er10  1  0.789773  0.413773  0.125937  1
  Er  Er11  1  0.789798  0.586235  0.625933  1
  Er  Er12  1  0.913883  0.710295  0.125882  1
  Er  Er13  1  0.913862  0.289715  0.625860  1
  Tm  Tm14  1  0.086054  0.710234  0.625782  1
  Tm  Tm15  1  0.086061  0.289773  0.125800  1
  Hf  Hf16  1  0.000091  0.999886  0.500086  1
  Hf  Hf17  1  0.000085  0.000097  0.000088  1
  Hf  Hf18  1  0.500004  0.499996  0.000027  1
  Hf  Hf19  1  0.499994  0.499992  0.500043  1
  Ir  Ir20  1  0.855488  0.144698  0.249911  1
  Ir  Ir21  1  0.855500  0.855304  0.749901  1
  Ir  Ir22  1  0.144561  0.144773  0.750241  1
  Ir  Ir23  1  0.144564  0.855241  0.250288  1
  Ir  Ir24  1  0.644626  0.355363  0.750014  1
  Ir  Ir25  1  0.644621  0.644618  0.250006  1
  Ir  Ir26  1  0.355217  0.355323  0.249907  1
  Ir  Ir27  1  0.355217  0.644670  0.749925  1
  Ir  Ir28  1  0.500003  0.000009  0.122601  1
  Ir  Ir29  1  0.499999  0.000000  0.622613  1
  Ir  Ir30  1  0.000132  0.499985  0.877439  1
  Ir  Ir31  1  0.000148  0.500010  0.377423  1
