# generated using pymatgen
data_CsRb3TmUBr12
_symmetry_space_group_name_H-M   'P 1'
_cell_length_a   7.87197199
_cell_length_b   7.85304538
_cell_length_c   11.81675100
_cell_angle_alpha   90.00000000
_cell_angle_beta   90.00000000
_cell_angle_gamma   90.10305969
_symmetry_Int_Tables_number   1
_chemical_formula_structural   CsRb3TmUBr12
_chemical_formula_sum   'Cs1 Rb3 Tm1 U1 Br12'
_cell_volume   730.49799568
_cell_formula_units_Z   1
loop_
 _symmetry_equiv_pos_site_id
 _symmetry_equiv_pos_as_xyz
  1  'x, y, z'
loop_
 _atom_site_type_symbol
 _atom_site_label
 _atom_site_symmetry_multiplicity
 _atom_site_fract_x
 _atom_site_fract_y
 _atom_site_fract_z
 _atom_site_occupancy
  Cs  Cs0  1  0.500000  0.000000  0.785377  1
  Rb  Rb1  1  0.500000  0.000000  0.196001  1
  Rb  Rb2  1  0.000000  0.500000  0.198984  1
  Rb  Rb3  1  0.000000  0.500000  0.808133  1
  Tm  Tm4  1  0.000000  0.000000  0.003847  1
  U  U5  1  0.500000  0.500000  0.498262  1
  Br  Br6  1  0.751049  0.248541  0.003398  1
  Br  Br7  1  0.248951  0.751459  0.003398  1
  Br  Br8  1  0.500000  0.500000  0.268508  1
  Br  Br9  1  0.307371  0.215991  0.497230  1
  Br  Br10  1  0.246371  0.251615  0.003355  1
  Br  Br11  1  0.783152  0.308489  0.499386  1
  Br  Br12  1  0.000000  0.000000  0.237296  1
  Br  Br13  1  0.692629  0.784009  0.497230  1
  Br  Br14  1  0.216848  0.691511  0.499386  1
  Br  Br15  1  0.500000  0.500000  0.728738  1
  Br  Br16  1  0.753629  0.748385  0.003355  1
  Br  Br17  1  0.000000  0.000000  0.768119  1
