# generated using pymatgen
data_LiNb8FeSe16
_symmetry_space_group_name_H-M   'P 1'
_cell_length_a   6.97376201
_cell_length_b   6.97400925
_cell_length_c   12.93869200
_cell_angle_alpha   90.00197996
_cell_angle_beta   89.99650824
_cell_angle_gamma   119.99717666
_symmetry_Int_Tables_number   1
_chemical_formula_structural   LiNb8FeSe16
_chemical_formula_sum   'Li1 Nb8 Fe1 Se16'
_cell_volume   544.98305915
_cell_formula_units_Z   1
loop_
 _symmetry_equiv_pos_site_id
 _symmetry_equiv_pos_as_xyz
  1  'x, y, z'
loop_
 _atom_site_type_symbol
 _atom_site_label
 _atom_site_symmetry_multiplicity
 _atom_site_fract_x
 _atom_site_fract_y
 _atom_site_fract_z
 _atom_site_occupancy
  Li  Li0  1  0.000000  0.000000  0.500000  1
  Nb  Nb1  1  0.999953  0.999993  0.238316  1
  Nb  Nb2  1  0.000047  0.000007  0.761684  1
  Nb  Nb3  1  0.507211  0.014379  0.235614  1
  Nb  Nb4  1  0.985606  0.492778  0.235625  1
  Nb  Nb5  1  0.507193  0.492800  0.235637  1
  Nb  Nb6  1  0.492789  0.985621  0.764386  1
  Nb  Nb7  1  0.014394  0.507222  0.764375  1
  Nb  Nb8  1  0.492807  0.507200  0.764363  1
  Fe  Fe9  1  0.000000  0.000000  0.000000  1
  Se  Se10  1  0.333354  0.666661  0.897327  1
  Se  Se11  1  0.666646  0.333339  0.102673  1
  Se  Se12  1  0.666680  0.333308  0.370163  1
  Se  Se13  1  0.333320  0.666692  0.629837  1
  Se  Se14  1  0.168875  0.831143  0.365185  1
  Se  Se15  1  0.168866  0.337706  0.365205  1
  Se  Se16  1  0.662280  0.831138  0.365199  1
  Se  Se17  1  0.831125  0.168857  0.634815  1
  Se  Se18  1  0.831134  0.662294  0.634795  1
  Se  Se19  1  0.337720  0.168862  0.634801  1
  Se  Se20  1  0.834881  0.165163  0.891384  1
  Se  Se21  1  0.834877  0.669736  0.891381  1
  Se  Se22  1  0.330337  0.165176  0.891392  1
  Se  Se23  1  0.165119  0.834837  0.108616  1
  Se  Se24  1  0.165123  0.330264  0.108619  1
  Se  Se25  1  0.669663  0.834824  0.108608  1
