# generated using pymatgen
data_Tc5Ge10Ir
_symmetry_space_group_name_H-M   'P 1'
_cell_length_a   5.91465500
_cell_length_b   5.91465500
_cell_length_c   14.24621800
_cell_angle_alpha   90.00000000
_cell_angle_beta   90.00000000
_cell_angle_gamma   90.00000000
_symmetry_Int_Tables_number   1
_chemical_formula_structural   Tc5Ge10Ir
_chemical_formula_sum   'Tc10 Ge20 Ir2'
_cell_volume   498.37749246
_cell_formula_units_Z   2
loop_
 _symmetry_equiv_pos_site_id
 _symmetry_equiv_pos_as_xyz
  1  'x, y, z'
loop_
 _atom_site_type_symbol
 _atom_site_label
 _atom_site_symmetry_multiplicity
 _atom_site_fract_x
 _atom_site_fract_y
 _atom_site_fract_z
 _atom_site_occupancy
  Tc  Tc0  1  0.000000  0.000000  0.000000  1
  Tc  Tc1  1  0.500000  0.500000  0.500000  1
  Tc  Tc2  1  0.500000  0.000000  0.086199  1
  Tc  Tc3  1  0.000000  0.500000  0.913801  1
  Tc  Tc4  1  0.000000  0.500000  0.586200  1
  Tc  Tc5  1  0.500000  0.000000  0.413800  1
  Tc  Tc6  1  0.000000  0.000000  0.326450  1
  Tc  Tc7  1  0.000000  0.000000  0.673550  1
  Tc  Tc8  1  0.500000  0.500000  0.826451  1
  Tc  Tc9  1  0.500000  0.500000  0.173549  1
  Ge  Ge10  1  0.662487  0.162479  0.249999  1
  Ge  Ge11  1  0.837521  0.662487  0.750001  1
  Ge  Ge12  1  0.337513  0.837521  0.249999  1
  Ge  Ge13  1  0.162479  0.337513  0.750001  1
  Ge  Ge14  1  0.153254  0.188271  0.153222  1
  Ge  Ge15  1  0.811729  0.153254  0.846778  1
  Ge  Ge16  1  0.846746  0.811729  0.153222  1
  Ge  Ge17  1  0.188271  0.846746  0.846778  1
  Ge  Ge18  1  0.346739  0.688264  0.653223  1
  Ge  Ge19  1  0.688264  0.653261  0.346777  1
  Ge  Ge20  1  0.653261  0.311736  0.653223  1
  Ge  Ge21  1  0.311736  0.346739  0.346777  1
  Ge  Ge22  1  0.348311  0.235426  0.949727  1
  Ge  Ge23  1  0.764574  0.348311  0.050273  1
  Ge  Ge24  1  0.651689  0.764574  0.949727  1
  Ge  Ge25  1  0.235426  0.651689  0.050273  1
  Ge  Ge26  1  0.151693  0.735421  0.449727  1
  Ge  Ge27  1  0.735421  0.848307  0.550273  1
  Ge  Ge28  1  0.848307  0.264579  0.449727  1
  Ge  Ge29  1  0.264579  0.151693  0.550273  1
  Ir  Ir30  1  0.500000  0.000000  0.750000  1
  Ir  Ir31  1  0.000000  0.500000  0.250000  1
