# generated using pymatgen
data_Zr20ZnGa2Sb9
_symmetry_space_group_name_H-M   'P 1'
_cell_length_a   5.54902600
_cell_length_b   8.40175575
_cell_length_c   15.82059000
_cell_angle_alpha   90.00000000
_cell_angle_beta   90.00000000
_cell_angle_gamma   109.28274481
_symmetry_Int_Tables_number   1
_chemical_formula_structural   Zr20ZnGa2Sb9
_chemical_formula_sum   'Zr20 Zn1 Ga2 Sb9'
_cell_volume   696.20266051
_cell_formula_units_Z   1
loop_
 _symmetry_equiv_pos_site_id
 _symmetry_equiv_pos_as_xyz
  1  'x, y, z'
loop_
 _atom_site_type_symbol
 _atom_site_label
 _atom_site_symmetry_multiplicity
 _atom_site_fract_x
 _atom_site_fract_y
 _atom_site_fract_z
 _atom_site_occupancy
  Zr  Zr0  1  0.431199  0.861474  0.356134  1
  Zr  Zr1  1  0.923641  0.860352  0.852106  1
  Zr  Zr2  1  0.063289  0.139648  0.147894  1
  Zr  Zr3  1  0.569725  0.138526  0.643866  1
  Zr  Zr4  1  0.652651  0.294879  0.071058  1
  Zr  Zr5  1  0.144806  0.289284  0.567862  1
  Zr  Zr6  1  0.855522  0.710716  0.432138  1
  Zr  Zr7  1  0.357773  0.705121  0.928942  1
  Zr  Zr8  1  0.847349  0.705121  0.071058  1
  Zr  Zr9  1  0.355194  0.710716  0.567862  1
  Zr  Zr10  1  0.644478  0.289284  0.432138  1
  Zr  Zr11  1  0.142227  0.294879  0.928942  1
  Zr  Zr12  1  0.068801  0.138526  0.356134  1
  Zr  Zr13  1  0.576359  0.139648  0.852106  1
  Zr  Zr14  1  0.436711  0.860352  0.147894  1
  Zr  Zr15  1  0.930275  0.861474  0.643866  1
  Zr  Zr16  1  0.500767  0.500274  0.250314  1
  Zr  Zr17  1  0.000493  0.499726  0.749686  1
  Zr  Zr18  1  0.999233  0.499726  0.250314  1
  Zr  Zr19  1  0.499507  0.500274  0.749686  1
  Zn  Zn20  1  0.750000  0.000000  0.000000  1
  Ga  Ga21  1  0.750000  0.000000  0.500000  1
  Ga  Ga22  1  0.250000  0.000000  0.500000  1
  Sb  Sb23  1  0.915299  0.826697  0.251761  1
  Sb  Sb24  1  0.411398  0.826697  0.748239  1
  Sb  Sb25  1  0.584701  0.173303  0.251761  1
  Sb  Sb26  1  0.088602  0.173303  0.748239  1
  Sb  Sb27  1  0.250000  0.500000  0.086396  1
  Sb  Sb28  1  0.750000  0.500000  0.586258  1
  Sb  Sb29  1  0.250000  0.500000  0.413742  1
  Sb  Sb30  1  0.750000  0.500000  0.913604  1
  Sb  Sb31  1  0.250000  0.000000  0.000000  1
