# generated using pymatgen
data_Tb3In3AgRuAu
_symmetry_space_group_name_H-M   'P 1'
_cell_length_a   7.78169000
_cell_length_b   7.78168931
_cell_length_c   3.95574100
_cell_angle_alpha   90.00000000
_cell_angle_beta   90.00000000
_cell_angle_gamma   119.99999445
_symmetry_Int_Tables_number   1
_chemical_formula_structural   Tb3In3AgRuAu
_chemical_formula_sum   'Tb3 In3 Ag1 Ru1 Au1'
_cell_volume   207.44659819
_cell_formula_units_Z   1
loop_
 _symmetry_equiv_pos_site_id
 _symmetry_equiv_pos_as_xyz
  1  'x, y, z'
loop_
 _atom_site_type_symbol
 _atom_site_label
 _atom_site_symmetry_multiplicity
 _atom_site_fract_x
 _atom_site_fract_y
 _atom_site_fract_z
 _atom_site_occupancy
  Tb  Tb0  1  0.576898  0.974838  0.500000  1
  Tb  Tb1  1  0.397940  0.423102  0.500000  1
  Tb  Tb2  1  0.025162  0.602060  0.500000  1
  In  In3  1  0.734079  0.738189  0.000000  1
  In  In4  1  0.004110  0.265921  0.000000  1
  In  In5  1  0.261811  0.995890  0.000000  1
  Ag  Ag6  1  0.000000  0.000000  0.500000  1
  Ru  Ru7  1  0.333333  0.666667  0.000000  1
  Au  Au8  1  0.666667  0.333333  0.000000  1
