# generated using pymatgen
data_Er3Al3ZnGeIr
_symmetry_space_group_name_H-M   'P 1'
_cell_length_a   6.96248200
_cell_length_b   6.96248262
_cell_length_c   4.20154400
_cell_angle_alpha   90.00000000
_cell_angle_beta   90.00000000
_cell_angle_gamma   119.99999706
_symmetry_Int_Tables_number   1
_chemical_formula_structural   Er3Al3ZnGeIr
_chemical_formula_sum   'Er3 Al3 Zn1 Ge1 Ir1'
_cell_volume   176.38748582
_cell_formula_units_Z   1
loop_
 _symmetry_equiv_pos_site_id
 _symmetry_equiv_pos_as_xyz
  1  'x, y, z'
loop_
 _atom_site_type_symbol
 _atom_site_label
 _atom_site_symmetry_multiplicity
 _atom_site_fract_x
 _atom_site_fract_y
 _atom_site_fract_z
 _atom_site_occupancy
  Er  Er0  1  0.416688  0.000276  0.000000  1
  Er  Er1  1  0.999724  0.416412  0.000000  1
  Er  Er2  1  0.583587  0.583311  0.000000  1
  Al  Al3  1  0.772155  0.006670  0.499999  1
  Al  Al4  1  0.234515  0.227846  0.499999  1
  Al  Al5  1  0.993330  0.765485  0.499999  1
  Zn  Zn6  1  0.666666  0.333334  0.499999  1
  Ge  Ge7  1  0.333334  0.666667  0.499999  1
  Ir  Ir8  1  0.000000  0.000000  0.000000  1
