# generated using pymatgen
data_Sm10Si16P
_symmetry_space_group_name_H-M   'P 1'
_cell_length_a   11.21609940
_cell_length_b   11.23329979
_cell_length_c   11.21612485
_cell_angle_alpha   144.74547073
_cell_angle_beta   135.77061903
_cell_angle_gamma   57.75224175
_symmetry_Int_Tables_number   1
_chemical_formula_structural   Sm10Si16P
_chemical_formula_sum   'Sm10 Si16 P1'
_cell_volume   564.28772949
_cell_formula_units_Z   1
loop_
 _symmetry_equiv_pos_site_id
 _symmetry_equiv_pos_as_xyz
  1  'x, y, z'
loop_
 _atom_site_type_symbol
 _atom_site_label
 _atom_site_symmetry_multiplicity
 _atom_site_fract_x
 _atom_site_fract_y
 _atom_site_fract_z
 _atom_site_occupancy
  Sm  Sm0  1  0.754782  0.761431  0.515437  1
  Sm  Sm1  1  0.453909  0.961843  0.014788  1
  Sm  Sm2  1  0.848235  0.367372  0.014577  1
  Sm  Sm3  1  0.947055  0.961841  0.507933  1
  Sm  Sm4  1  0.152704  0.167465  0.519446  1
  Sm  Sm5  1  0.352796  0.367369  0.519134  1
  Sm  Sm6  1  0.245992  0.761430  0.006650  1
  Sm  Sm7  1  0.551300  0.564512  0.516481  1
  Sm  Sm8  1  0.048032  0.564510  0.013210  1
  Sm  Sm9  1  0.648019  0.167461  0.014757  1
  Si  Si10  1  0.199269  0.587786  0.388516  1
  Si  Si11  1  0.000831  0.085436  0.084605  1
  Si  Si12  1  0.699697  0.293618  0.593918  1
  Si  Si13  1  0.802164  0.196625  0.394463  1
  Si  Si14  1  0.897363  0.505107  0.607747  1
  Si  Si15  1  0.413382  0.862156  0.448773  1
  Si  Si16  1  0.104153  0.710765  0.606609  1
  Si  Si17  1  0.300103  0.896901  0.596799  1
  Si  Si18  1  0.584693  0.038410  0.453718  1
  Si  Si19  1  0.000981  0.432210  0.431229  1
  Si  Si20  1  0.885421  0.841642  0.956220  1
  Si  Si21  1  0.399823  0.500344  0.100517  1
  Si  Si22  1  0.117331  0.072500  0.955169  1
  Si  Si23  1  0.288374  0.241905  0.953530  1
  Si  Si24  1  0.499994  0.396952  0.896958  1
  Si  Si25  1  0.598079  0.703214  0.105138  1
  P  P26  1  0.705518  0.650695  0.945176  1
