# generated using pymatgen
data_Ga6SiPt3
_symmetry_space_group_name_H-M   'P 1'
_cell_length_a   7.77601160
_cell_length_b   7.62955175
_cell_length_c   7.62955115
_cell_angle_alpha   109.07908779
_cell_angle_beta   109.86055850
_cell_angle_gamma   109.86056269
_symmetry_Int_Tables_number   1
_chemical_formula_structural   Ga6SiPt3
_chemical_formula_sum   'Ga12 Si2 Pt6'
_cell_volume   346.75574239
_cell_formula_units_Z   2
loop_
 _symmetry_equiv_pos_site_id
 _symmetry_equiv_pos_as_xyz
  1  'x, y, z'
loop_
 _atom_site_type_symbol
 _atom_site_label
 _atom_site_symmetry_multiplicity
 _atom_site_fract_x
 _atom_site_fract_y
 _atom_site_fract_z
 _atom_site_occupancy
  Ga  Ga0  1  0.008412  0.334154  0.000000  1
  Ga  Ga1  1  0.991588  0.665846  0.000000  1
  Ga  Ga2  1  0.752969  0.505939  0.252969  1
  Ga  Ga3  1  0.500000  0.747031  0.252969  1
  Ga  Ga4  1  0.008412  0.000000  0.334154  1
  Ga  Ga5  1  0.325742  0.334154  0.334154  1
  Ga  Ga6  1  0.752969  0.252969  0.505939  1
  Ga  Ga7  1  0.247031  0.747031  0.494061  1
  Ga  Ga8  1  0.991588  0.000000  0.665846  1
  Ga  Ga9  1  0.674258  0.665846  0.665846  1
  Ga  Ga10  1  0.500000  0.252969  0.747031  1
  Ga  Ga11  1  0.247031  0.494061  0.747031  1
  Si  Si12  1  0.339144  0.000000  0.000000  1
  Si  Si13  1  0.660856  0.000000  0.000000  1
  Pt  Pt14  1  0.345899  0.327726  0.000000  1
  Pt  Pt15  1  0.654102  0.672275  0.000000  1
  Pt  Pt16  1  0.345899  0.000000  0.327726  1
  Pt  Pt17  1  0.981827  0.327726  0.327726  1
  Pt  Pt18  1  0.654102  0.000000  0.672275  1
  Pt  Pt19  1  0.018173  0.672275  0.672275  1
