# generated using pymatgen
data_TbHf3F15
_symmetry_space_group_name_H-M   'P 1'
_cell_length_a   7.34589775
_cell_length_b   7.34589723
_cell_length_c   7.34589625
_cell_angle_alpha   112.74516176
_cell_angle_beta   112.74515602
_cell_angle_gamma   112.74514749
_symmetry_Int_Tables_number   1
_chemical_formula_structural   TbHf3F15
_chemical_formula_sum   'Tb1 Hf3 F15'
_cell_volume   261.73054354
_cell_formula_units_Z   1
loop_
 _symmetry_equiv_pos_site_id
 _symmetry_equiv_pos_as_xyz
  1  'x, y, z'
loop_
 _atom_site_type_symbol
 _atom_site_label
 _atom_site_symmetry_multiplicity
 _atom_site_fract_x
 _atom_site_fract_y
 _atom_site_fract_z
 _atom_site_occupancy
  Tb  Tb0  1  0.996228  0.996228  0.996228  1
  Hf  Hf1  1  0.358352  0.786916  0.358352  1
  Hf  Hf2  1  0.358352  0.358352  0.786916  1
  Hf  Hf3  1  0.786916  0.358352  0.358352  1
  F  F4  1  0.649660  0.436507  0.106466  1
  F  F5  1  0.106466  0.649660  0.436507  1
  F  F6  1  0.106466  0.436507  0.649660  1
  F  F7  1  0.436507  0.106466  0.649660  1
  F  F8  1  0.436507  0.649660  0.106466  1
  F  F9  1  0.649660  0.106466  0.436507  1
  F  F10  1  0.101020  0.762695  0.101020  1
  F  F11  1  0.101020  0.101020  0.762694  1
  F  F12  1  0.762694  0.101020  0.101020  1
  F  F13  1  0.646996  0.867888  0.646996  1
  F  F14  1  0.646996  0.646996  0.867888  1
  F  F15  1  0.867888  0.646996  0.646996  1
  F  F16  1  0.179767  0.411668  0.179767  1
  F  F17  1  0.179767  0.179767  0.411668  1
  F  F18  1  0.411668  0.179767  0.179767  1
