# generated using pymatgen
data_Be8Cr3Ru
_symmetry_space_group_name_H-M   'P 1'
_cell_length_a   4.24112410
_cell_length_b   4.24112305
_cell_length_c   6.93715508
_cell_angle_alpha   89.99990206
_cell_angle_beta   90.00009538
_cell_angle_gamma   119.99981729
_symmetry_Int_Tables_number   1
_chemical_formula_structural   Be8Cr3Ru
_chemical_formula_sum   'Be8 Cr3 Ru1'
_cell_volume   108.06241950
_cell_formula_units_Z   1
loop_
 _symmetry_equiv_pos_site_id
 _symmetry_equiv_pos_as_xyz
  1  'x, y, z'
loop_
 _atom_site_type_symbol
 _atom_site_label
 _atom_site_symmetry_multiplicity
 _atom_site_fract_x
 _atom_site_fract_y
 _atom_site_fract_z
 _atom_site_occupancy
  Be  Be0  1  0.000001  0.999999  0.498502  1
  Be  Be1  1  0.000000  0.000000  0.999333  1
  Be  Be2  1  0.169980  0.339931  0.751353  1
  Be  Be3  1  0.169980  0.830020  0.751359  1
  Be  Be4  1  0.660069  0.830020  0.751353  1
  Be  Be5  1  0.830422  0.660875  0.248734  1
  Be  Be6  1  0.830420  0.169580  0.248729  1
  Be  Be7  1  0.339125  0.169578  0.248734  1
  Cr  Cr8  1  0.333332  0.666668  0.432200  1
  Cr  Cr9  1  0.333328  0.666672  0.064507  1
  Cr  Cr10  1  0.666672  0.333328  0.942754  1
  Ru  Ru11  1  0.666672  0.333328  0.562443  1
