# generated using pymatgen
data_NdTh3(PdBr6)4
_symmetry_space_group_name_H-M   'P 1'
_cell_length_a   8.51391413
_cell_length_b   10.44976656
_cell_length_c   14.55002300
_cell_angle_alpha   102.50114883
_cell_angle_beta   96.84086084
_cell_angle_gamma   113.21348034
_symmetry_Int_Tables_number   1
_chemical_formula_structural   NdTh3(PdBr6)4
_chemical_formula_sum   'Nd1 Th3 Pd4 Br24'
_cell_volume   1130.93905098
_cell_formula_units_Z   1
loop_
 _symmetry_equiv_pos_site_id
 _symmetry_equiv_pos_as_xyz
  1  'x, y, z'
loop_
 _atom_site_type_symbol
 _atom_site_label
 _atom_site_symmetry_multiplicity
 _atom_site_fract_x
 _atom_site_fract_y
 _atom_site_fract_z
 _atom_site_occupancy
  Nd  Nd0  1  0.017663  0.691034  0.130698  1
  Th  Th1  1  0.564334  0.896472  0.622293  1
  Th  Th2  1  0.431750  0.098484  0.375340  1
  Th  Th3  1  0.985531  0.314468  0.873137  1
  Pd  Pd4  1  0.296160  0.626429  0.763655  1
  Pd  Pd5  1  0.702072  0.373576  0.236471  1
  Pd  Pd6  1  0.500382  0.499949  0.499813  1
  Pd  Pd7  1  0.998494  0.999366  0.998531  1
  Br  Br8  1  0.605909  0.722179  0.755005  1
  Br  Br9  1  0.392068  0.277592  0.245840  1
  Br  Br10  1  0.289247  0.849139  0.738228  1
  Br  Br11  1  0.714288  0.152941  0.264627  1
  Br  Br12  1  0.985931  0.530118  0.769169  1
  Br  Br13  1  0.012384  0.469577  0.232202  1
  Br  Br14  1  0.303601  0.402467  0.787939  1
  Br  Br15  1  0.688761  0.592324  0.207165  1
  Br  Br16  1  0.698488  0.381790  0.510006  1
  Br  Br17  1  0.299904  0.616558  0.489150  1
  Br  Br18  1  0.750285  0.734706  0.522029  1
  Br  Br19  1  0.251776  0.266212  0.479001  1
  Br  Br20  1  0.789787  0.106286  0.973785  1
  Br  Br21  1  0.207864  0.895237  0.023526  1
  Br  Br22  1  0.773012  0.799247  0.034881  1
  Br  Br23  1  0.227511  0.202916  0.962781  1
  Br  Br24  1  0.627028  0.186924  0.738459  1
  Br  Br25  1  0.379952  0.814297  0.262570  1
  Br  Br26  1  0.941341  0.048381  0.722146  1
  Br  Br27  1  0.058310  0.953397  0.282326  1
  Br  Br28  1  0.719602  0.050995  0.485223  1
  Br  Br29  1  0.282642  0.950664  0.517880  1
  Br  Br30  1  0.767880  0.436860  0.966746  1
  Br  Br31  1  0.236044  0.559412  0.029379  1
