# generated using pymatgen
data_Tb3Yb2Sn3Cl
_symmetry_space_group_name_H-M   'P 1'
_cell_length_a   9.09728124
_cell_length_b   9.09366570
_cell_length_c   6.87510800
_cell_angle_alpha   90.00000000
_cell_angle_beta   90.00000000
_cell_angle_gamma   119.98684964
_symmetry_Int_Tables_number   1
_chemical_formula_structural   Tb3Yb2Sn3Cl
_chemical_formula_sum   'Tb6 Yb4 Sn6 Cl2'
_cell_volume   492.62709641
_cell_formula_units_Z   2
loop_
 _symmetry_equiv_pos_site_id
 _symmetry_equiv_pos_as_xyz
  1  'x, y, z'
loop_
 _atom_site_type_symbol
 _atom_site_label
 _atom_site_symmetry_multiplicity
 _atom_site_fract_x
 _atom_site_fract_y
 _atom_site_fract_z
 _atom_site_occupancy
  Tb  Tb0  1  0.669647  0.334823  0.000000  1
  Tb  Tb1  1  0.334131  0.667066  0.500000  1
  Tb  Tb2  1  0.669647  0.334823  0.500000  1
  Tb  Tb3  1  0.334131  0.667066  0.000000  1
  Tb  Tb4  1  0.256394  0.255413  0.750000  1
  Tb  Tb5  1  0.256394  0.000981  0.250000  1
  Yb  Yb6  1  0.745547  0.999639  0.750000  1
  Yb  Yb7  1  0.745547  0.745908  0.250000  1
  Yb  Yb8  1  0.999914  0.254229  0.250000  1
  Yb  Yb9  1  0.999914  0.745686  0.750000  1
  Sn  Sn10  1  0.600373  0.600549  0.750000  1
  Sn  Sn11  1  0.002565  0.607682  0.250000  1
  Sn  Sn12  1  0.600373  0.999823  0.250000  1
  Sn  Sn13  1  0.393016  0.001704  0.750000  1
  Sn  Sn14  1  0.002565  0.394882  0.750000  1
  Sn  Sn15  1  0.393016  0.391312  0.250000  1
  Cl  Cl16  1  0.998413  0.999207  0.500000  1
  Cl  Cl17  1  0.998413  0.999207  0.000000  1
