# generated using pymatgen
data_Nd8Si12OsPt3
_symmetry_space_group_name_H-M   'P 1'
_cell_length_a   8.25517000
_cell_length_b   8.25517092
_cell_length_c   8.53115000
_cell_angle_alpha   90.00000000
_cell_angle_beta   90.00000000
_cell_angle_gamma   119.99999630
_symmetry_Int_Tables_number   1
_chemical_formula_structural   Nd8Si12OsPt3
_chemical_formula_sum   'Nd8 Si12 Os1 Pt3'
_cell_volume   503.48938286
_cell_formula_units_Z   1
loop_
 _symmetry_equiv_pos_site_id
 _symmetry_equiv_pos_as_xyz
  1  'x, y, z'
loop_
 _atom_site_type_symbol
 _atom_site_label
 _atom_site_symmetry_multiplicity
 _atom_site_fract_x
 _atom_site_fract_y
 _atom_site_fract_z
 _atom_site_occupancy
  Nd  Nd0  1  0.000000  0.000000  0.749826  1
  Nd  Nd1  1  0.000000  0.000000  0.250206  1
  Nd  Nd2  1  0.497343  0.502657  0.754757  1
  Nd  Nd3  1  0.497343  0.994686  0.754757  1
  Nd  Nd4  1  0.005314  0.502657  0.754757  1
  Nd  Nd5  1  0.498335  0.501665  0.245140  1
  Nd  Nd6  1  0.003330  0.501665  0.245140  1
  Nd  Nd7  1  0.498335  0.996670  0.245140  1
  Si  Si8  1  0.834980  0.165020  0.999681  1
  Si  Si9  1  0.834980  0.669961  0.999681  1
  Si  Si10  1  0.330039  0.165020  0.999681  1
  Si  Si11  1  0.834259  0.165741  0.500467  1
  Si  Si12  1  0.834259  0.668518  0.500467  1
  Si  Si13  1  0.331482  0.165741  0.500467  1
  Si  Si14  1  0.165477  0.834523  0.499667  1
  Si  Si15  1  0.669045  0.834523  0.499667  1
  Si  Si16  1  0.165477  0.330955  0.499667  1
  Si  Si17  1  0.167457  0.832543  0.000321  1
  Si  Si18  1  0.665087  0.832543  0.000321  1
  Si  Si19  1  0.167457  0.334913  0.000321  1
  Os  Os20  1  0.333333  0.666667  0.001525  1
  Pt  Pt21  1  0.666667  0.333333  0.998547  1
  Pt  Pt22  1  0.666667  0.333333  0.501124  1
  Pt  Pt23  1  0.333333  0.666667  0.498669  1
