# generated using pymatgen
data_Y11Ho5(AlPd)4
_symmetry_space_group_name_H-M   'P 1'
_cell_length_a   9.60926783
_cell_length_b   9.61630599
_cell_length_c   9.61630556
_cell_angle_alpha   59.97474238
_cell_angle_beta   60.02420996
_cell_angle_gamma   60.02420832
_symmetry_Int_Tables_number   1
_chemical_formula_structural   Y11Ho5(AlPd)4
_chemical_formula_sum   'Y11 Ho5 Al4 Pd4'
_cell_volume   628.44549951
_cell_formula_units_Z   1
loop_
 _symmetry_equiv_pos_site_id
 _symmetry_equiv_pos_as_xyz
  1  'x, y, z'
loop_
 _atom_site_type_symbol
 _atom_site_label
 _atom_site_symmetry_multiplicity
 _atom_site_fract_x
 _atom_site_fract_y
 _atom_site_fract_z
 _atom_site_occupancy
  Y  Y0  1  0.193571  0.806429  0.806429  1
  Y  Y1  1  0.193035  0.806907  0.193552  1
  Y  Y2  1  0.806507  0.193552  0.806907  1
  Y  Y3  1  0.193035  0.193552  0.806907  1
  Y  Y4  1  0.806507  0.806907  0.193552  1
  Y  Y5  1  0.935161  0.564839  0.564839  1
  Y  Y6  1  0.564795  0.935205  0.935205  1
  Y  Y7  1  0.565197  0.935294  0.564346  1
  Y  Y8  1  0.935162  0.564346  0.935294  1
  Y  Y9  1  0.565197  0.564346  0.935294  1
  Y  Y10  1  0.935162  0.935294  0.564346  1
  Ho  Ho11  1  0.355930  0.355119  0.355119  1
  Ho  Ho12  1  0.355627  0.355318  0.933427  1
  Ho  Ho13  1  0.355627  0.933427  0.355318  1
  Ho  Ho14  1  0.933831  0.355119  0.355119  1
  Ho  Ho15  1  0.807009  0.192991  0.192991  1
  Al  Al16  1  0.577719  0.577917  0.577917  1
  Al  Al17  1  0.577619  0.577889  0.266875  1
  Al  Al18  1  0.577619  0.266875  0.577889  1
  Al  Al19  1  0.266449  0.577917  0.577917  1
  Pd  Pd20  1  0.144091  0.146015  0.146015  1
  Pd  Pd21  1  0.145635  0.145502  0.563228  1
  Pd  Pd22  1  0.145635  0.563228  0.145502  1
  Pd  Pd23  1  0.563880  0.146015  0.146015  1
