# generated using pymatgen
data_HfZr6Sc15Os8
_symmetry_space_group_name_H-M   'P 1'
_cell_length_a   9.47802928
_cell_length_b   9.47802903
_cell_length_c   9.47802843
_cell_angle_alpha   60.32549496
_cell_angle_beta   60.32549559
_cell_angle_gamma   60.32549458
_symmetry_Int_Tables_number   1
_chemical_formula_structural   HfZr6Sc15Os8
_chemical_formula_sum   'Hf1 Zr6 Sc15 Os8'
_cell_volume   606.49290871
_cell_formula_units_Z   1
loop_
 _symmetry_equiv_pos_site_id
 _symmetry_equiv_pos_as_xyz
  1  'x, y, z'
loop_
 _atom_site_type_symbol
 _atom_site_label
 _atom_site_symmetry_multiplicity
 _atom_site_fract_x
 _atom_site_fract_y
 _atom_site_fract_z
 _atom_site_occupancy
  Hf  Hf0  1  0.840834  0.840834  0.840834  1
  Zr  Zr1  1  0.529601  0.156622  0.156622  1
  Zr  Zr2  1  0.156622  0.156622  0.529601  1
  Zr  Zr3  1  0.156622  0.529601  0.156622  1
  Zr  Zr4  1  0.843618  0.843618  0.472390  1
  Zr  Zr5  1  0.843618  0.472390  0.843618  1
  Zr  Zr6  1  0.472390  0.843618  0.843618  1
  Sc  Sc7  1  0.156970  0.156970  0.156970  1
  Sc  Sc8  1  0.198392  0.801130  0.198392  1
  Sc  Sc9  1  0.197886  0.800754  0.800754  1
  Sc  Sc10  1  0.801130  0.198392  0.198392  1
  Sc  Sc11  1  0.800754  0.800754  0.197886  1
  Sc  Sc12  1  0.198392  0.198392  0.801130  1
  Sc  Sc13  1  0.800754  0.197886  0.800754  1
  Sc  Sc14  1  0.383037  0.383037  0.383037  1
  Sc  Sc15  1  0.150663  0.616775  0.616775  1
  Sc  Sc16  1  0.616775  0.150663  0.616775  1
  Sc  Sc17  1  0.616775  0.616775  0.150663  1
  Sc  Sc18  1  0.382113  0.851713  0.382113  1
  Sc  Sc19  1  0.382113  0.382113  0.851713  1
  Sc  Sc20  1  0.851713  0.382113  0.382113  1
  Sc  Sc21  1  0.616813  0.616813  0.616813  1
  Os  Os22  1  0.499904  0.499904  0.000923  1
  Os  Os23  1  0.998579  0.998579  0.504563  1
  Os  Os24  1  0.499904  0.000923  0.499904  1
  Os  Os25  1  0.000923  0.499904  0.499904  1
  Os  Os26  1  0.504563  0.998579  0.998579  1
  Os  Os27  1  0.998579  0.504563  0.998579  1
  Os  Os28  1  0.500444  0.500444  0.500444  1
  Os  Os29  1  0.999520  0.999520  0.999520  1
