# generated using pymatgen
data_La16TbNd3Pb16
_symmetry_space_group_name_H-M   'P 1'
_cell_length_a   8.59828800
_cell_length_b   8.70332712
_cell_length_c   16.55949400
_cell_angle_alpha   90.00000000
_cell_angle_beta   90.00000000
_cell_angle_gamma   90.00959831
_symmetry_Int_Tables_number   1
_chemical_formula_structural   La16TbNd3Pb16
_chemical_formula_sum   'La16 Tb1 Nd3 Pb16'
_cell_volume   1239.20840659
_cell_formula_units_Z   1
loop_
 _symmetry_equiv_pos_site_id
 _symmetry_equiv_pos_as_xyz
  1  'x, y, z'
loop_
 _atom_site_type_symbol
 _atom_site_label
 _atom_site_symmetry_multiplicity
 _atom_site_fract_x
 _atom_site_fract_y
 _atom_site_fract_z
 _atom_site_occupancy
  La  La0  1  0.376012  0.842891  0.881418  1
  La  La1  1  0.877060  0.656363  0.618610  1
  La  La2  1  0.623657  0.156576  0.381634  1
  La  La3  1  0.123557  0.343319  0.118311  1
  La  La4  1  0.623657  0.156576  0.118366  1
  La  La5  1  0.123557  0.343319  0.381689  1
  La  La6  1  0.376012  0.842891  0.618582  1
  La  La7  1  0.877060  0.656363  0.881390  1
  La  La8  1  0.532585  0.322445  0.899498  1
  La  La9  1  0.033433  0.178341  0.600381  1
  La  La10  1  0.466914  0.677839  0.399812  1
  La  La11  1  0.966893  0.822304  0.100222  1
  La  La12  1  0.466914  0.677839  0.100188  1
  La  La13  1  0.966893  0.822304  0.399778  1
  La  La14  1  0.532585  0.322445  0.600502  1
  La  La15  1  0.033433  0.178341  0.899619  1
  Tb  Tb16  1  0.210409  0.503275  0.750000  1
  Nd  Nd17  1  0.709373  0.997218  0.750000  1
  Nd  Nd18  1  0.790389  0.496787  0.250000  1
  Nd  Nd19  1  0.290702  0.002963  0.250000  1
  Pb  Pb20  1  0.281038  0.031107  0.045746  1
  Pb  Pb21  1  0.781048  0.468979  0.454199  1
  Pb  Pb22  1  0.718890  0.968951  0.545882  1
  Pb  Pb23  1  0.218852  0.530716  0.953445  1
  Pb  Pb24  1  0.718890  0.968951  0.954118  1
  Pb  Pb25  1  0.218852  0.530716  0.546555  1
  Pb  Pb26  1  0.281038  0.031107  0.454254  1
  Pb  Pb27  1  0.781048  0.468979  0.045801  1
  Pb  Pb28  1  0.570763  0.623644  0.750000  1
  Pb  Pb29  1  0.072087  0.874939  0.750000  1
  Pb  Pb30  1  0.427984  0.375904  0.250000  1
  Pb  Pb31  1  0.928131  0.124088  0.250000  1
  Pb  Pb32  1  0.341402  0.152841  0.750000  1
  Pb  Pb33  1  0.842254  0.348766  0.750000  1
  Pb  Pb34  1  0.658254  0.848512  0.250000  1
  Pb  Pb35  1  0.158373  0.651404  0.250000  1
