# generated using pymatgen
data_Er2FeCo8Mo3P7
_symmetry_space_group_name_H-M   'P 1'
_cell_length_a   9.03829727
_cell_length_b   9.06207977
_cell_length_c   3.70938200
_cell_angle_alpha   90.00000000
_cell_angle_beta   90.00000000
_cell_angle_gamma   119.90797068
_symmetry_Int_Tables_number   1
_chemical_formula_structural   Er2FeCo8Mo3P7
_chemical_formula_sum   'Er2 Fe1 Co8 Mo3 P7'
_cell_volume   263.35931867
_cell_formula_units_Z   1
loop_
 _symmetry_equiv_pos_site_id
 _symmetry_equiv_pos_as_xyz
  1  'x, y, z'
loop_
 _atom_site_type_symbol
 _atom_site_label
 _atom_site_symmetry_multiplicity
 _atom_site_fract_x
 _atom_site_fract_y
 _atom_site_fract_z
 _atom_site_occupancy
  Er  Er0  1  0.001804  0.000969  0.000000  1
  Er  Er1  1  0.333078  0.666901  0.500000  1
  Fe  Fe2  1  0.385745  0.172600  0.000000  1
  Co  Co3  1  0.098626  0.703159  0.000000  1
  Co  Co4  1  0.296912  0.396328  0.000000  1
  Co  Co5  1  0.604963  0.901058  0.000000  1
  Co  Co6  1  0.827481  0.212783  0.000000  1
  Co  Co7  1  0.787612  0.614803  0.000000  1
  Co  Co8  1  0.054091  0.282146  0.500000  1
  Co  Co9  1  0.718169  0.771898  0.500000  1
  Co  Co10  1  0.226731  0.944391  0.500000  1
  Mo  Mo11  1  0.886742  0.456866  0.500000  1
  Mo  Mo12  1  0.543809  0.431887  0.500000  1
  Mo  Mo13  1  0.568671  0.112234  0.500000  1
  P  P14  1  0.081783  0.446082  0.000000  1
  P  P15  1  0.554151  0.636246  0.000000  1
  P  P16  1  0.363739  0.919204  0.000000  1
  P  P17  1  0.787980  0.043523  0.500000  1
  P  P18  1  0.956163  0.743537  0.500000  1
  P  P19  1  0.256972  0.210867  0.500000  1
  P  P20  1  0.664781  0.332518  0.000000  1
