# generated using pymatgen
data_ThPaAs4
_symmetry_space_group_name_H-M   'P 1'
_cell_length_a   4.07326400
_cell_length_b   4.07326400
_cell_length_c   8.34425600
_cell_angle_alpha   90.00000000
_cell_angle_beta   90.00000000
_cell_angle_gamma   90.00000000
_symmetry_Int_Tables_number   1
_chemical_formula_structural   ThPaAs4
_chemical_formula_sum   'Th1 Pa1 As4'
_cell_volume   138.44355332
_cell_formula_units_Z   1
loop_
 _symmetry_equiv_pos_site_id
 _symmetry_equiv_pos_as_xyz
  1  'x, y, z'
loop_
 _atom_site_type_symbol
 _atom_site_label
 _atom_site_symmetry_multiplicity
 _atom_site_fract_x
 _atom_site_fract_y
 _atom_site_fract_z
 _atom_site_occupancy
  Th  Th0  1  0.000000  0.500000  0.279194  1
  Pa  Pa1  1  0.500000  0.000000  0.719545  1
  As  As2  1  0.000000  0.500000  0.648594  1
  As  As3  1  0.500000  0.000000  0.371054  1
  As  As4  1  0.500000  0.500000  0.990807  1
  As  As5  1  0.000000  0.000000  0.990807  1
