# generated using pymatgen
data_Pr7NdSc12Si15P
_symmetry_space_group_name_H-M   'P 1'
_cell_length_a   7.24002917
_cell_length_b   7.53836445
_cell_length_c   14.19584481
_cell_angle_alpha   90.03385990
_cell_angle_beta   90.01881590
_cell_angle_gamma   90.27065929
_symmetry_Int_Tables_number   1
_chemical_formula_structural   Pr7NdSc12Si15P
_chemical_formula_sum   'Pr7 Nd1 Sc12 Si15 P1'
_cell_volume   774.77169010
_cell_formula_units_Z   1
loop_
 _symmetry_equiv_pos_site_id
 _symmetry_equiv_pos_as_xyz
  1  'x, y, z'
loop_
 _atom_site_type_symbol
 _atom_site_label
 _atom_site_symmetry_multiplicity
 _atom_site_fract_x
 _atom_site_fract_y
 _atom_site_fract_z
 _atom_site_occupancy
  Pr  Pr0  1  0.511864  0.327497  0.402610  1
  Pr  Pr1  1  0.488483  0.673113  0.900735  1
  Pr  Pr2  1  0.488453  0.673062  0.599229  1
  Pr  Pr3  1  0.991978  0.829159  0.600748  1
  Pr  Pr4  1  0.991976  0.829158  0.899194  1
  Pr  Pr5  1  0.511805  0.327568  0.097386  1
  Pr  Pr6  1  0.011915  0.172273  0.097375  1
  Nd  Nd7  1  0.011975  0.172664  0.402371  1
  Sc  Sc8  1  0.327057  0.170723  0.627734  1
  Sc  Sc9  1  0.670580  0.824086  0.374756  1
  Sc  Sc10  1  0.657254  0.001327  0.750031  1
  Sc  Sc11  1  0.169666  0.676369  0.375201  1
  Sc  Sc12  1  0.828352  0.325720  0.874970  1
  Sc  Sc13  1  0.828407  0.325578  0.624851  1
  Sc  Sc14  1  0.840129  0.501308  0.250114  1
  Sc  Sc15  1  0.340812  0.998131  0.250056  1
  Sc  Sc16  1  0.327146  0.170680  0.872254  1
  Sc  Sc17  1  0.169770  0.676237  0.124884  1
  Sc  Sc18  1  0.670523  0.824054  0.125277  1
  Sc  Sc19  1  0.158184  0.496430  0.749969  1
  Si  Si20  1  0.465214  0.624896  0.250015  1
  Si  Si21  1  0.023547  0.135780  0.749996  1
  Si  Si22  1  0.532179  0.372393  0.750000  1
  Si  Si23  1  0.152445  0.462639  0.540365  1
  Si  Si24  1  0.966362  0.875151  0.250190  1
  Si  Si25  1  0.712113  0.116351  0.250258  1
  Si  Si26  1  0.848643  0.538327  0.038940  1
  Si  Si27  1  0.349229  0.963465  0.039276  1
  Si  Si28  1  0.152607  0.463105  0.959459  1
  Si  Si29  1  0.651428  0.035914  0.540571  1
  Si  Si30  1  0.348599  0.963755  0.460601  1
  Si  Si31  1  0.848808  0.537852  0.460970  1
  Si  Si32  1  0.790167  0.618311  0.750005  1
  Si  Si33  1  0.211438  0.383501  0.250228  1
  Si  Si34  1  0.651149  0.035812  0.959371  1
  P  P35  1  0.299750  0.877612  0.750010  1
