# generated using pymatgen
data_CeEr5RuO12
_symmetry_space_group_name_H-M   'P 1'
_cell_length_a   6.45259812
_cell_length_b   6.41725181
_cell_length_c   6.43092600
_cell_angle_alpha   98.47025344
_cell_angle_beta   98.94448332
_cell_angle_gamma   99.11790865
_symmetry_Int_Tables_number   1
_chemical_formula_structural   CeEr5RuO12
_chemical_formula_sum   'Ce1 Er5 Ru1 O12'
_cell_volume   255.66209398
_cell_formula_units_Z   1
loop_
 _symmetry_equiv_pos_site_id
 _symmetry_equiv_pos_as_xyz
  1  'x, y, z'
loop_
 _atom_site_type_symbol
 _atom_site_label
 _atom_site_symmetry_multiplicity
 _atom_site_fract_x
 _atom_site_fract_y
 _atom_site_fract_z
 _atom_site_occupancy
  Ce  Ce0  1  0.606355  0.306574  0.138701  1
  Er  Er1  1  0.143511  0.613647  0.310179  1
  Er  Er2  1  0.692413  0.858334  0.394001  1
  Er  Er3  1  0.299533  0.138723  0.608616  1
  Er  Er4  1  0.865039  0.391845  0.693856  1
  Er  Er5  1  0.385892  0.695273  0.855967  1
  Ru  Ru6  1  0.997208  0.996854  0.000771  1
  O  O7  1  0.697722  0.925668  0.043004  1
  O  O8  1  0.964428  0.302149  0.072536  1
  O  O9  1  0.434273  0.588030  0.176928  1
  O  O10  1  0.070716  0.958961  0.303537  1
  O  O11  1  0.823815  0.567185  0.410725  1
  O  O12  1  0.588136  0.181639  0.431032  1
  O  O13  1  0.412612  0.825378  0.564402  1
  O  O14  1  0.178567  0.435932  0.590971  1
  O  O15  1  0.927593  0.042924  0.697695  1
  O  O16  1  0.567894  0.410946  0.823781  1
  O  O17  1  0.041594  0.695495  0.931016  1
  O  O18  1  0.302700  0.064442  0.952282  1
