# generated using pymatgen
data_Tb19Th(Bi2Os)4
_symmetry_space_group_name_H-M   'P 1'
_cell_length_a   8.05595158
_cell_length_b   9.03616677
_cell_length_c   12.55885904
_cell_angle_alpha   90.09024634
_cell_angle_beta   89.95077507
_cell_angle_gamma   90.05249675
_symmetry_Int_Tables_number   1
_chemical_formula_structural   Tb19Th(Bi2Os)4
_chemical_formula_sum   'Tb19 Th1 Bi8 Os4'
_cell_volume   914.21930932
_cell_formula_units_Z   1
loop_
 _symmetry_equiv_pos_site_id
 _symmetry_equiv_pos_as_xyz
  1  'x, y, z'
loop_
 _atom_site_type_symbol
 _atom_site_label
 _atom_site_symmetry_multiplicity
 _atom_site_fract_x
 _atom_site_fract_y
 _atom_site_fract_z
 _atom_site_occupancy
  Tb  Tb0  1  0.841316  0.749785  0.793024  1
  Tb  Tb1  1  0.158047  0.250034  0.206937  1
  Tb  Tb2  1  0.339340  0.251617  0.708377  1
  Tb  Tb3  1  0.659204  0.750046  0.293014  1
  Tb  Tb4  1  0.373375  0.748883  0.695196  1
  Tb  Tb5  1  0.623704  0.252190  0.304732  1
  Tb  Tb6  1  0.876086  0.249469  0.805767  1
  Tb  Tb7  1  0.123922  0.749596  0.193861  1
  Tb  Tb8  1  0.946891  0.748983  0.503260  1
  Tb  Tb9  1  0.056993  0.249701  0.496960  1
  Tb  Tb10  1  0.441557  0.250033  0.996260  1
  Tb  Tb11  1  0.557361  0.750006  0.003970  1
  Tb  Tb12  1  0.318651  0.954630  0.432658  1
  Tb  Tb13  1  0.174483  0.957610  0.936615  1
  Tb  Tb14  1  0.325686  0.542919  0.436071  1
  Tb  Tb15  1  0.825417  0.042339  0.063932  1
  Tb  Tb16  1  0.676290  0.458072  0.564250  1
  Tb  Tb17  1  0.825596  0.457876  0.064085  1
  Tb  Tb18  1  0.174792  0.542157  0.936182  1
  Th  Th19  1  0.674186  0.041118  0.561362  1
  Bi  Bi20  1  0.569920  0.492049  0.827713  1
  Bi  Bi21  1  0.430585  0.508018  0.172270  1
  Bi  Bi22  1  0.068919  0.507495  0.672247  1
  Bi  Bi23  1  0.430828  0.992253  0.172221  1
  Bi  Bi24  1  0.930990  0.492143  0.327699  1
  Bi  Bi25  1  0.568461  0.007735  0.828647  1
  Bi  Bi26  1  0.929817  0.008182  0.326472  1
  Bi  Bi27  1  0.072911  0.990903  0.673393  1
  Os  Os28  1  0.577602  0.757311  0.513662  1
  Os  Os29  1  0.426879  0.246763  0.489788  1
  Os  Os30  1  0.075744  0.250127  0.988200  1
  Os  Os31  1  0.924448  0.749954  0.011174  1
