# generated using pymatgen
data_Sr2Eu2Cu(Si2Pt)5
_symmetry_space_group_name_H-M   'P 1'
_cell_length_a   8.37631597
_cell_length_b   8.38412210
_cell_length_c   8.38418568
_cell_angle_alpha   138.21481321
_cell_angle_beta   105.17550889
_cell_angle_gamma   89.58818203
_symmetry_Int_Tables_number   1
_chemical_formula_structural   Sr2Eu2Cu(Si2Pt)5
_chemical_formula_sum   'Sr2 Eu2 Cu1 Si10 Pt5'
_cell_volume   362.12030358
_cell_formula_units_Z   1
loop_
 _symmetry_equiv_pos_site_id
 _symmetry_equiv_pos_as_xyz
  1  'x, y, z'
loop_
 _atom_site_type_symbol
 _atom_site_label
 _atom_site_symmetry_multiplicity
 _atom_site_fract_x
 _atom_site_fract_y
 _atom_site_fract_z
 _atom_site_occupancy
  Sr  Sr0  1  0.108886  0.872454  0.237149  1
  Sr  Sr1  1  0.891116  0.128275  0.763579  1
  Eu  Eu2  1  0.636510  0.372592  0.264271  1
  Eu  Eu3  1  0.363485  0.627751  0.736067  1
  Cu  Cu4  1  0.499999  0.749626  0.249630  1
  Si  Si5  1  0.000001  0.748770  0.748772  1
  Si  Si6  1  0.000005  0.251134  0.251133  1
  Si  Si7  1  0.273471  0.022262  0.751212  1
  Si  Si8  1  0.726522  0.477736  0.748789  1
  Si  Si9  1  0.730093  0.981135  0.248800  1
  Si  Si10  1  0.269910  0.518712  0.251048  1
  Si  Si11  1  0.758949  0.615639  0.150891  1
  Si  Si12  1  0.241051  0.391929  0.856675  1
  Si  Si13  1  0.466912  0.110244  0.348539  1
  Si  Si14  1  0.533090  0.881640  0.643348  1
  Pt  Pt15  1  0.500003  0.249934  0.749930  1
  Pt  Pt16  1  0.023742  0.636448  0.389818  1
  Pt  Pt17  1  0.976254  0.366067  0.612696  1
  Pt  Pt18  1  0.248415  0.134649  0.111407  1
  Pt  Pt19  1  0.751589  0.863002  0.886247  1
