# generated using pymatgen
data_Nd6Al24Os3Rh5
_symmetry_space_group_name_H-M   'P 1'
_cell_length_a   8.87941800
_cell_length_b   8.92823947
_cell_length_c   9.67686184
_cell_angle_alpha   90.14967053
_cell_angle_beta   90.00000000
_cell_angle_gamma   119.81928478
_symmetry_Int_Tables_number   1
_chemical_formula_structural   Nd6Al24Os3Rh5
_chemical_formula_sum   'Nd6 Al24 Os3 Rh5'
_cell_volume   665.58191211
_cell_formula_units_Z   1
loop_
 _symmetry_equiv_pos_site_id
 _symmetry_equiv_pos_as_xyz
  1  'x, y, z'
loop_
 _atom_site_type_symbol
 _atom_site_label
 _atom_site_symmetry_multiplicity
 _atom_site_fract_x
 _atom_site_fract_y
 _atom_site_fract_z
 _atom_site_occupancy
  Nd  Nd0  1  0.190049  0.380098  0.250581  1
  Nd  Nd1  1  0.809951  0.619902  0.749419  1
  Nd  Nd2  1  0.618683  0.812116  0.250663  1
  Nd  Nd3  1  0.381317  0.187884  0.749337  1
  Nd  Nd4  1  0.193433  0.812116  0.250663  1
  Nd  Nd5  1  0.806567  0.187884  0.749337  1
  Al  Al6  1  0.333314  0.666629  0.021576  1
  Al  Al7  1  0.666686  0.333371  0.978424  1
  Al  Al8  1  0.665811  0.331620  0.521338  1
  Al  Al9  1  0.334189  0.668380  0.478662  1
  Al  Al10  1  0.163359  0.326717  0.575108  1
  Al  Al11  1  0.836641  0.673283  0.424892  1
  Al  Al12  1  0.671819  0.837357  0.574507  1
  Al  Al13  1  0.836691  0.673381  0.074983  1
  Al  Al14  1  0.328181  0.162643  0.425493  1
  Al  Al15  1  0.163309  0.326619  0.925017  1
  Al  Al16  1  0.165538  0.837357  0.574507  1
  Al  Al17  1  0.327615  0.165006  0.075510  1
  Al  Al18  1  0.834462  0.162643  0.425493  1
  Al  Al19  1  0.672385  0.834994  0.924490  1
  Al  Al20  1  0.837391  0.165006  0.075510  1
  Al  Al21  1  0.162609  0.834994  0.924490  1
  Al  Al22  1  0.563686  0.127372  0.250488  1
  Al  Al23  1  0.436314  0.872628  0.749512  1
  Al  Al24  1  0.874988  0.438252  0.249667  1
  Al  Al25  1  0.125012  0.561748  0.750333  1
  Al  Al26  1  0.563264  0.438252  0.249667  1
  Al  Al27  1  0.436736  0.561748  0.750333  1
  Al  Al28  1  0.000884  0.001768  0.250126  1
  Al  Al29  1  0.999116  0.998232  0.749874  1
  Os  Os30  1  0.500000  0.000000  0.500000  1
  Os  Os31  1  0.000000  0.000000  0.000000  1
  Os  Os32  1  0.000000  0.000000  0.500000  1
  Rh  Rh33  1  0.500000  0.000000  0.000000  1
  Rh  Rh34  1  0.000000  0.500000  0.000000  1
  Rh  Rh35  1  0.500000  0.500000  0.000000  1
  Rh  Rh36  1  0.000000  0.500000  0.500000  1
  Rh  Rh37  1  0.500000  0.500000  0.500000  1
