# generated using pymatgen
data_TbMg(NbSe2)6
_symmetry_space_group_name_H-M   'P 1'
_cell_length_a   6.09668400
_cell_length_b   6.09668381
_cell_length_c   14.14450100
_cell_angle_alpha   90.00000000
_cell_angle_beta   90.00000000
_cell_angle_gamma   120.00000105
_symmetry_Int_Tables_number   1
_chemical_formula_structural   TbMg(NbSe2)6
_chemical_formula_sum   'Tb1 Mg1 Nb6 Se12'
_cell_volume   455.30835005
_cell_formula_units_Z   1
loop_
 _symmetry_equiv_pos_site_id
 _symmetry_equiv_pos_as_xyz
  1  'x, y, z'
loop_
 _atom_site_type_symbol
 _atom_site_label
 _atom_site_symmetry_multiplicity
 _atom_site_fract_x
 _atom_site_fract_y
 _atom_site_fract_z
 _atom_site_occupancy
  Tb  Tb0  1  0.000000  0.000000  0.000000  1
  Mg  Mg1  1  0.000000  0.000000  0.500000  1
  Nb  Nb2  1  0.333333  0.666667  0.255236  1
  Nb  Nb3  1  0.000000  0.000000  0.252022  1
  Nb  Nb4  1  0.000000  0.000000  0.747978  1
  Nb  Nb5  1  0.333333  0.666667  0.744764  1
  Nb  Nb6  1  0.666667  0.333333  0.744764  1
  Nb  Nb7  1  0.666667  0.333333  0.255236  1
  Se  Se8  1  0.000000  0.665668  0.627754  1
  Se  Se9  1  0.000000  0.658057  0.864071  1
  Se  Se10  1  0.000000  0.341943  0.135929  1
  Se  Se11  1  0.000000  0.334332  0.372246  1
  Se  Se12  1  0.334332  0.334332  0.627754  1
  Se  Se13  1  0.341943  0.341943  0.864071  1
  Se  Se14  1  0.658057  0.658057  0.135929  1
  Se  Se15  1  0.665668  0.665668  0.372246  1
  Se  Se16  1  0.341943  0.000000  0.135929  1
  Se  Se17  1  0.334332  0.000000  0.372246  1
  Se  Se18  1  0.665668  0.000000  0.627754  1
  Se  Se19  1  0.658057  0.000000  0.864071  1
