# generated using pymatgen
data_Tb2Ho3Zr3(Co4As3)4
_symmetry_space_group_name_H-M   'P 1'
_cell_length_a   12.73704900
_cell_length_b   12.73704752
_cell_length_c   3.83613300
_cell_angle_alpha   90.00000000
_cell_angle_beta   90.00000000
_cell_angle_gamma   120.00000645
_symmetry_Int_Tables_number   1
_chemical_formula_structural   Tb2Ho3Zr3(Co4As3)4
_chemical_formula_sum   'Tb2 Ho3 Zr3 Co16 As12'
_cell_volume   538.96659410
_cell_formula_units_Z   1
loop_
 _symmetry_equiv_pos_site_id
 _symmetry_equiv_pos_as_xyz
  1  'x, y, z'
loop_
 _atom_site_type_symbol
 _atom_site_label
 _atom_site_symmetry_multiplicity
 _atom_site_fract_x
 _atom_site_fract_y
 _atom_site_fract_z
 _atom_site_occupancy
  Tb  Tb0  1  0.333333  0.666667  0.000000  1
  Tb  Tb1  1  0.666667  0.333333  0.000000  1
  Ho  Ho2  1  0.182742  0.182742  0.500000  1
  Ho  Ho3  1  0.817258  0.000000  0.500000  1
  Ho  Ho4  1  0.000000  0.817258  0.500000  1
  Zr  Zr5  1  0.560920  0.560920  0.000000  1
  Zr  Zr6  1  0.439080  0.000000  0.000000  1
  Zr  Zr7  1  0.000000  0.439080  0.000000  1
  Co  Co8  1  0.720550  0.720550  0.500000  1
  Co  Co9  1  0.279450  0.000000  0.500000  1
  Co  Co10  1  0.000000  0.279450  0.500000  1
  Co  Co11  1  0.177491  0.372973  0.000000  1
  Co  Co12  1  0.627027  0.804518  0.000000  1
  Co  Co13  1  0.195482  0.822509  0.000000  1
  Co  Co14  1  0.804518  0.627027  0.000000  1
  Co  Co15  1  0.822509  0.195482  0.000000  1
  Co  Co16  1  0.372973  0.177491  0.000000  1
  Co  Co17  1  0.357045  0.479245  0.500000  1
  Co  Co18  1  0.520755  0.877801  0.500000  1
  Co  Co19  1  0.122199  0.642955  0.500000  1
  Co  Co20  1  0.877801  0.520755  0.500000  1
  Co  Co21  1  0.642955  0.122199  0.500000  1
  Co  Co22  1  0.479245  0.357045  0.500000  1
  Co  Co23  1  0.000000  0.000000  0.000000  1
  As  As24  1  0.823173  0.823173  0.000000  1
  As  As25  1  0.176827  0.000000  0.000000  1
  As  As26  1  0.000000  0.176827  0.000000  1
  As  As27  1  0.173130  0.481109  0.500000  1
  As  As28  1  0.518891  0.692022  0.500000  1
  As  As29  1  0.307978  0.826870  0.500000  1
  As  As30  1  0.692022  0.518891  0.500000  1
  As  As31  1  0.826870  0.307978  0.500000  1
  As  As32  1  0.481109  0.173130  0.500000  1
  As  As33  1  0.351496  0.351496  0.000000  1
  As  As34  1  0.648504  0.000000  0.000000  1
  As  As35  1  0.000000  0.648504  0.000000  1
