# generated using pymatgen
data_YbPRh2
_symmetry_space_group_name_H-M   'P 1'
_cell_length_a   8.95652684
_cell_length_b   8.95652747
_cell_length_c   4.01581700
_cell_angle_alpha   90.00000000
_cell_angle_beta   90.00000000
_cell_angle_gamma   154.69676718
_symmetry_Int_Tables_number   1
_chemical_formula_structural   YbPRh2
_chemical_formula_sum   'Yb2 P2 Rh4'
_cell_volume   137.68820635
_cell_formula_units_Z   2
loop_
 _symmetry_equiv_pos_site_id
 _symmetry_equiv_pos_as_xyz
  1  'x, y, z'
loop_
 _atom_site_type_symbol
 _atom_site_label
 _atom_site_symmetry_multiplicity
 _atom_site_fract_x
 _atom_site_fract_y
 _atom_site_fract_z
 _atom_site_occupancy
  Yb  Yb0  1  0.096155  0.903845  0.750000  1
  Yb  Yb1  1  0.903845  0.096155  0.250000  1
  P  P2  1  0.325524  0.674476  0.750000  1
  P  P3  1  0.674476  0.325524  0.250000  1
  Rh  Rh4  1  0.546968  0.453032  0.250000  1
  Rh  Rh5  1  0.453032  0.546968  0.750000  1
  Rh  Rh6  1  0.250648  0.749352  0.250000  1
  Rh  Rh7  1  0.749352  0.250648  0.750000  1
