# generated using pymatgen
data_Tb3In3HgPt2
_symmetry_space_group_name_H-M   'P 1'
_cell_length_a   7.73781100
_cell_length_b   7.73781134
_cell_length_c   4.02017800
_cell_angle_alpha   90.00000000
_cell_angle_beta   90.00000000
_cell_angle_gamma   120.00000282
_symmetry_Int_Tables_number   1
_chemical_formula_structural   Tb3In3HgPt2
_chemical_formula_sum   'Tb3 In3 Hg1 Pt2'
_cell_volume   208.45492311
_cell_formula_units_Z   1
loop_
 _symmetry_equiv_pos_site_id
 _symmetry_equiv_pos_as_xyz
  1  'x, y, z'
loop_
 _atom_site_type_symbol
 _atom_site_label
 _atom_site_symmetry_multiplicity
 _atom_site_fract_x
 _atom_site_fract_y
 _atom_site_fract_z
 _atom_site_occupancy
  Tb  Tb0  1  0.392695  0.979946  0.000000  1
  Tb  Tb1  1  0.020054  0.412749  0.000000  1
  Tb  Tb2  1  0.587251  0.607305  0.000000  1
  In  In3  1  0.251658  0.253212  0.500000  1
  In  In4  1  0.001554  0.748342  0.500000  1
  In  In5  1  0.746788  0.998446  0.500000  1
  Hg  Hg6  1  0.666667  0.333333  0.500000  1
  Pt  Pt7  1  0.000000  0.000000  0.000000  1
  Pt  Pt8  1  0.333333  0.666667  0.500000  1
