# generated using pymatgen
data_Sm2FeAuO7
_symmetry_space_group_name_H-M   'P 1'
_cell_length_a   7.39350246
_cell_length_b   7.42404899
_cell_length_c   7.39349737
_cell_angle_alpha   59.86173610
_cell_angle_beta   59.62802773
_cell_angle_gamma   59.86171786
_symmetry_Int_Tables_number   1
_chemical_formula_structural   Sm2FeAuO7
_chemical_formula_sum   'Sm4 Fe2 Au2 O14'
_cell_volume   285.55150787
_cell_formula_units_Z   2
loop_
 _symmetry_equiv_pos_site_id
 _symmetry_equiv_pos_as_xyz
  1  'x, y, z'
loop_
 _atom_site_type_symbol
 _atom_site_label
 _atom_site_symmetry_multiplicity
 _atom_site_fract_x
 _atom_site_fract_y
 _atom_site_fract_z
 _atom_site_occupancy
  Sm  Sm0  1  0.500000  0.000000  0.500001  1
  Sm  Sm1  1  0.999999  0.499999  0.500001  1
  Sm  Sm2  1  0.500000  0.500001  0.000001  1
  Sm  Sm3  1  0.500001  0.500001  0.499999  1
  Fe  Fe4  1  0.000000  0.499999  0.000000  1
  Fe  Fe5  1  0.999999  0.000000  0.999998  1
  Au  Au6  1  0.499998  0.000003  0.000000  1
  Au  Au7  1  0.999999  0.000001  0.499998  1
  O  O8  1  0.622614  0.627378  0.622615  1
  O  O9  1  0.377387  0.372620  0.377388  1
  O  O10  1  0.336996  0.915925  0.911280  1
  O  O11  1  0.088739  0.664193  0.662995  1
  O  O12  1  0.917373  0.332634  0.917372  1
  O  O13  1  0.911282  0.915923  0.336997  1
  O  O14  1  0.337006  0.335808  0.911258  1
  O  O15  1  0.336442  0.913590  0.336441  1
  O  O16  1  0.911262  0.335808  0.337004  1
  O  O17  1  0.662996  0.664193  0.088740  1
  O  O18  1  0.088718  0.084076  0.663005  1
  O  O19  1  0.663002  0.084077  0.088720  1
  O  O20  1  0.663558  0.086412  0.663560  1
  O  O21  1  0.082629  0.667367  0.082627  1
