# generated using pymatgen
data_Sr4MgCo2O9
_symmetry_space_group_name_H-M   'P 1'
_cell_length_a   9.55299882
_cell_length_b   9.55850617
_cell_length_c   7.82332800
_cell_angle_alpha   90.00000000
_cell_angle_beta   89.97621322
_cell_angle_gamma   120.01906721
_symmetry_Int_Tables_number   1
_chemical_formula_structural   Sr4MgCo2O9
_chemical_formula_sum   'Sr12 Mg3 Co6 O27'
_cell_volume   618.54086136
_cell_formula_units_Z   3
loop_
 _symmetry_equiv_pos_site_id
 _symmetry_equiv_pos_as_xyz
  1  'x, y, z'
loop_
 _atom_site_type_symbol
 _atom_site_label
 _atom_site_symmetry_multiplicity
 _atom_site_fract_x
 _atom_site_fract_y
 _atom_site_fract_z
 _atom_site_occupancy
  Sr  Sr0  1  0.000374  0.329355  0.999711  1
  Sr  Sr1  1  0.327399  0.998903  0.998001  1
  Sr  Sr2  1  0.027053  0.692460  0.247237  1
  Sr  Sr3  1  0.307442  0.335095  0.246937  1
  Sr  Sr4  1  0.666383  0.972881  0.249223  1
  Sr  Sr5  1  0.361820  0.001045  0.498126  1
  Sr  Sr6  1  0.999786  0.359495  0.499807  1
  Sr  Sr7  1  0.638318  0.639608  0.502074  1
  Sr  Sr8  1  0.333731  0.306502  0.750997  1
  Sr  Sr9  1  0.692437  0.027464  0.753112  1
  Sr  Sr10  1  0.972875  0.665421  0.752517  1
  Sr  Sr11  1  0.672407  0.670894  0.002221  1
  Mg  Mg12  1  0.667203  0.333937  0.258017  1
  Mg  Mg13  1  0.000024  0.999852  0.499988  1
  Mg  Mg14  1  0.333014  0.666419  0.742045  1
  Co  Co15  1  0.333411  0.666686  0.076868  1
  Co  Co16  1  0.999956  0.999745  0.161476  1
  Co  Co17  1  0.333643  0.666901  0.403288  1
  Co  Co18  1  0.666390  0.333065  0.596746  1
  Co  Co19  1  0.999922  0.999661  0.838475  1
  Co  Co20  1  0.666447  0.333136  0.923145  1
  O  O21  1  0.000009  0.850504  0.999581  1
  O  O22  1  0.850301  0.000537  0.003869  1
  O  O23  1  0.681298  0.185016  0.058886  1
  O  O24  1  0.504609  0.319783  0.062645  1
  O  O25  1  0.814902  0.496078  0.066905  1
  O  O26  1  0.349782  0.828978  0.239082  1
  O  O27  1  0.479128  0.650621  0.245547  1
  O  O28  1  0.171662  0.521313  0.239920  1
  O  O29  1  0.163703  0.008695  0.298205  1
  O  O30  1  0.992734  0.155195  0.303868  1
  O  O31  1  0.845063  0.836790  0.306921  1
  O  O32  1  0.682809  0.183450  0.451425  1
  O  O33  1  0.816863  0.499010  0.459116  1
  O  O34  1  0.500845  0.317472  0.453910  1
  O  O35  1  0.499462  0.816739  0.547393  1
  O  O36  1  0.183369  0.682203  0.540499  1
  O  O37  1  0.317371  0.500750  0.547764  1
  O  O38  1  0.154833  0.991551  0.692632  1
  O  O39  1  0.007275  0.162447  0.696952  1
  O  O40  1  0.836270  0.844925  0.701349  1
  O  O41  1  0.828189  0.349478  0.758815  1
  O  O42  1  0.520657  0.171186  0.754791  1
  O  O43  1  0.650195  0.479022  0.761839  1
  O  O44  1  0.184860  0.680737  0.932892  1
  O  O45  1  0.495392  0.815134  0.938731  1
  O  O46  1  0.318633  0.503642  0.939947  1
  O  O47  1  0.149756  0.150209  0.996505  1
