# generated using pymatgen
data_LiAc3Cd2HgPd2
_symmetry_space_group_name_H-M   'P 1'
_cell_length_a   8.22712247
_cell_length_b   8.25296827
_cell_length_c   4.09025600
_cell_angle_alpha   90.00000000
_cell_angle_beta   90.00000000
_cell_angle_gamma   120.10398073
_symmetry_Int_Tables_number   1
_chemical_formula_structural   LiAc3Cd2HgPd2
_chemical_formula_sum   'Li1 Ac3 Cd2 Hg1 Pd2'
_cell_volume   240.26098928
_cell_formula_units_Z   1
loop_
 _symmetry_equiv_pos_site_id
 _symmetry_equiv_pos_as_xyz
  1  'x, y, z'
loop_
 _atom_site_type_symbol
 _atom_site_label
 _atom_site_symmetry_multiplicity
 _atom_site_fract_x
 _atom_site_fract_y
 _atom_site_fract_z
 _atom_site_occupancy
  Li  Li0  1  0.000000  0.002894  0.500000  1
  Ac  Ac1  1  0.415252  0.418241  0.500000  1
  Ac  Ac2  1  0.584748  0.002988  0.500000  1
  Ac  Ac3  1  0.000000  0.575315  0.500000  1
  Cd  Cd4  1  0.753818  0.750841  0.000000  1
  Cd  Cd5  1  0.246182  0.997023  0.000000  1
  Hg  Hg6  1  0.000000  0.244411  0.000000  1
  Pd  Pd7  1  0.661372  0.334829  0.000000  1
  Pd  Pd8  1  0.338628  0.673458  0.000000  1
