# generated using pymatgen
data_Ba3TmFeIrO9
_symmetry_space_group_name_H-M   'P 1'
_cell_length_a   5.96101200
_cell_length_b   5.96101215
_cell_length_c   14.73309500
_cell_angle_alpha   90.00000000
_cell_angle_beta   90.00000000
_cell_angle_gamma   119.99999916
_symmetry_Int_Tables_number   1
_chemical_formula_structural   Ba3TmFeIrO9
_chemical_formula_sum   'Ba6 Tm2 Fe2 Ir2 O18'
_cell_volume   453.38236952
_cell_formula_units_Z   2
loop_
 _symmetry_equiv_pos_site_id
 _symmetry_equiv_pos_as_xyz
  1  'x, y, z'
loop_
 _atom_site_type_symbol
 _atom_site_label
 _atom_site_symmetry_multiplicity
 _atom_site_fract_x
 _atom_site_fract_y
 _atom_site_fract_z
 _atom_site_occupancy
  Ba  Ba0  1  0.666667  0.333333  0.403467  1
  Ba  Ba1  1  0.333333  0.666667  0.593874  1
  Ba  Ba2  1  0.333333  0.666667  0.903467  1
  Ba  Ba3  1  0.666667  0.333333  0.093874  1
  Ba  Ba4  1  0.000000  0.000000  0.754423  1
  Ba  Ba5  1  0.000000  0.000000  0.254423  1
  Tm  Tm6  1  0.000000  0.000000  0.498032  1
  Tm  Tm7  1  0.000000  0.000000  0.998032  1
  Fe  Fe8  1  0.333333  0.666667  0.353476  1
  Fe  Fe9  1  0.666667  0.333333  0.853476  1
  Ir  Ir10  1  0.666667  0.333333  0.662962  1
  Ir  Ir11  1  0.333333  0.666667  0.162962  1
  O  O12  1  0.514881  0.029762  0.743340  1
  O  O13  1  0.514881  0.485119  0.743340  1
  O  O14  1  0.970238  0.485119  0.743340  1
  O  O15  1  0.485119  0.970238  0.243340  1
  O  O16  1  0.485119  0.514881  0.243340  1
  O  O17  1  0.029762  0.514881  0.243340  1
  O  O18  1  0.830831  0.661662  0.913503  1
  O  O19  1  0.830831  0.169169  0.913503  1
  O  O20  1  0.338338  0.169169  0.913503  1
  O  O21  1  0.176814  0.353628  0.087745  1
  O  O22  1  0.176814  0.823186  0.087745  1
  O  O23  1  0.646372  0.823186  0.087745  1
  O  O24  1  0.169169  0.338338  0.413503  1
  O  O25  1  0.169169  0.830831  0.413503  1
  O  O26  1  0.661662  0.830831  0.413503  1
  O  O27  1  0.823186  0.646372  0.587745  1
  O  O28  1  0.823186  0.176814  0.587745  1
  O  O29  1  0.353628  0.176814  0.587745  1
