# generated using pymatgen
data_Ba5Ir2Cl2O9
_symmetry_space_group_name_H-M   'P 1'
_cell_length_a   5.91041600
_cell_length_b   5.91041479
_cell_length_c   25.31148100
_cell_angle_alpha   90.00000000
_cell_angle_beta   90.00000000
_cell_angle_gamma   120.00000680
_symmetry_Int_Tables_number   1
_chemical_formula_structural   Ba5Ir2Cl2O9
_chemical_formula_sum   'Ba10 Ir4 Cl4 O18'
_cell_volume   765.74499773
_cell_formula_units_Z   2
loop_
 _symmetry_equiv_pos_site_id
 _symmetry_equiv_pos_as_xyz
  1  'x, y, z'
loop_
 _atom_site_type_symbol
 _atom_site_label
 _atom_site_symmetry_multiplicity
 _atom_site_fract_x
 _atom_site_fract_y
 _atom_site_fract_z
 _atom_site_occupancy
  Ba  Ba0  1  0.333333  0.666667  0.417766  1
  Ba  Ba1  1  0.333333  0.666667  0.082234  1
  Ba  Ba2  1  0.333333  0.666667  0.831321  1
  Ba  Ba3  1  0.666667  0.333333  0.582234  1
  Ba  Ba4  1  0.666667  0.333333  0.917766  1
  Ba  Ba5  1  0.666667  0.333333  0.331321  1
  Ba  Ba6  1  0.666667  0.333333  0.168679  1
  Ba  Ba7  1  0.333333  0.666667  0.250000  1
  Ba  Ba8  1  0.666667  0.333333  0.750000  1
  Ba  Ba9  1  0.333333  0.666667  0.668679  1
  Ir  Ir10  1  0.000000  0.000000  0.804052  1
  Ir  Ir11  1  0.000000  0.000000  0.304052  1
  Ir  Ir12  1  0.000000  0.000000  0.195948  1
  Ir  Ir13  1  0.000000  0.000000  0.695948  1
  Cl  Cl14  1  0.333333  0.666667  0.545188  1
  Cl  Cl15  1  0.333333  0.666667  0.954812  1
  Cl  Cl16  1  0.666667  0.333333  0.045188  1
  Cl  Cl17  1  0.666667  0.333333  0.454812  1
  O  O18  1  0.159746  0.319491  0.155129  1
  O  O19  1  0.692131  0.846065  0.750000  1
  O  O20  1  0.840254  0.680509  0.655129  1
  O  O21  1  0.846065  0.153935  0.250000  1
  O  O22  1  0.159746  0.840254  0.344871  1
  O  O23  1  0.159746  0.840254  0.155129  1
  O  O24  1  0.840254  0.159746  0.655129  1
  O  O25  1  0.319491  0.159746  0.655129  1
  O  O26  1  0.840254  0.159746  0.844871  1
  O  O27  1  0.846065  0.692131  0.250000  1
  O  O28  1  0.307869  0.153935  0.250000  1
  O  O29  1  0.319491  0.159746  0.844871  1
  O  O30  1  0.153935  0.307869  0.750000  1
  O  O31  1  0.840254  0.680509  0.844871  1
  O  O32  1  0.159746  0.319491  0.344871  1
  O  O33  1  0.680509  0.840254  0.155129  1
  O  O34  1  0.153935  0.846065  0.750000  1
  O  O35  1  0.680509  0.840254  0.344871  1
