# generated using pymatgen
data_DyY5P13Rh20
_symmetry_space_group_name_H-M   'P 1'
_cell_length_a   13.35388300
_cell_length_b   13.35329301
_cell_length_c   3.92727900
_cell_angle_alpha   89.99889539
_cell_angle_beta   90.00023256
_cell_angle_gamma   120.00183616
_symmetry_Int_Tables_number   1
_chemical_formula_structural   DyY5P13Rh20
_chemical_formula_sum   'Dy1 Y5 P13 Rh20'
_cell_volume   606.47136046
_cell_formula_units_Z   1
loop_
 _symmetry_equiv_pos_site_id
 _symmetry_equiv_pos_as_xyz
  1  'x, y, z'
loop_
 _atom_site_type_symbol
 _atom_site_label
 _atom_site_symmetry_multiplicity
 _atom_site_fract_x
 _atom_site_fract_y
 _atom_site_fract_z
 _atom_site_occupancy
  Dy  Dy0  1  0.812148  0.529510  0.751700  1
  Y  Y1  1  0.529496  0.717338  0.248305  1
  Y  Y2  1  0.282657  0.812154  0.248307  1
  Y  Y3  1  0.187838  0.470500  0.248306  1
  Y  Y4  1  0.470493  0.282656  0.751692  1
  Y  Y5  1  0.717344  0.187839  0.751693  1
  P  P6  1  0.526062  0.139300  0.250260  1
  P  P7  1  0.860695  0.386807  0.250266  1
  P  P8  1  0.613285  0.473952  0.250262  1
  P  P9  1  0.945188  0.714755  0.254630  1
  P  P10  1  0.285175  0.230407  0.254622  1
  P  P11  1  0.769591  0.054775  0.254625  1
  P  P12  1  0.386750  0.526067  0.749735  1
  P  P13  1  0.473930  0.860685  0.749736  1
  P  P14  1  0.139321  0.613244  0.749733  1
  P  P15  1  0.714815  0.769603  0.745378  1
  P  P16  1  0.230405  0.945225  0.745375  1
  P  P17  1  0.054782  0.285181  0.745375  1
  P  P18  1  0.000004  0.000008  0.000014  1
  Rh  Rh19  1  0.333337  0.666667  0.752126  1
  Rh  Rh20  1  0.921266  0.250290  0.254308  1
  Rh  Rh21  1  0.749737  0.670948  0.254315  1
  Rh  Rh22  1  0.329024  0.078731  0.254307  1
  Rh  Rh23  1  0.438665  0.022602  0.751560  1
  Rh  Rh24  1  0.977373  0.416067  0.751558  1
  Rh  Rh25  1  0.583965  0.561336  0.751566  1
  Rh  Rh26  1  0.666738  0.333433  0.247858  1
  Rh  Rh27  1  0.094397  0.186803  0.247170  1
  Rh  Rh28  1  0.813196  0.907581  0.247167  1
  Rh  Rh29  1  0.092406  0.905606  0.247167  1
  Rh  Rh30  1  0.022561  0.583928  0.248433  1
  Rh  Rh31  1  0.416068  0.438660  0.248443  1
  Rh  Rh32  1  0.561338  0.977398  0.248440  1
  Rh  Rh33  1  0.670981  0.921270  0.745691  1
  Rh  Rh34  1  0.078702  0.749689  0.745692  1
  Rh  Rh35  1  0.250293  0.329025  0.745694  1
  Rh  Rh36  1  0.905584  0.813161  0.752820  1
  Rh  Rh37  1  0.186797  0.092407  0.752832  1
  Rh  Rh38  1  0.907593  0.094394  0.752836  1
