# generated using pymatgen
data_Dy4ErBi2Ir
_symmetry_space_group_name_H-M   'P 1'
_cell_length_a   7.99311454
_cell_length_b   8.99821646
_cell_length_c   12.52357866
_cell_angle_alpha   90.03644409
_cell_angle_beta   89.90842309
_cell_angle_gamma   90.00416348
_symmetry_Int_Tables_number   1
_chemical_formula_structural   Dy4ErBi2Ir
_chemical_formula_sum   'Dy16 Er4 Bi8 Ir4'
_cell_volume   900.74171653
_cell_formula_units_Z   4
loop_
 _symmetry_equiv_pos_site_id
 _symmetry_equiv_pos_as_xyz
  1  'x, y, z'
loop_
 _atom_site_type_symbol
 _atom_site_label
 _atom_site_symmetry_multiplicity
 _atom_site_fract_x
 _atom_site_fract_y
 _atom_site_fract_z
 _atom_site_occupancy
  Dy  Dy0  1  0.661399  0.750242  0.706386  1
  Dy  Dy1  1  0.338733  0.249932  0.293725  1
  Dy  Dy2  1  0.161759  0.249776  0.793399  1
  Dy  Dy3  1  0.838018  0.750097  0.206733  1
  Dy  Dy4  1  0.125537  0.750208  0.808743  1
  Dy  Dy5  1  0.873480  0.249572  0.191292  1
  Dy  Dy6  1  0.626559  0.249815  0.690765  1
  Dy  Dy7  1  0.374353  0.750413  0.309316  1
  Dy  Dy8  1  0.553831  0.750655  0.998446  1
  Dy  Dy9  1  0.447463  0.249575  0.001537  1
  Dy  Dy10  1  0.053211  0.249429  0.501659  1
  Dy  Dy11  1  0.945394  0.750386  0.498265  1
  Dy  Dy12  1  0.824190  0.458383  0.932978  1
  Dy  Dy13  1  0.175588  0.541345  0.066757  1
  Dy  Dy14  1  0.324419  0.541195  0.566740  1
  Dy  Dy15  1  0.175443  0.958463  0.066976  1
  Er  Er16  1  0.673515  0.458688  0.433243  1
  Er  Er17  1  0.826828  0.041585  0.932921  1
  Er  Er18  1  0.673291  0.041483  0.432987  1
  Er  Er19  1  0.326976  0.958855  0.566730  1
  Bi  Bi20  1  0.935375  0.008204  0.673040  1
  Bi  Bi21  1  0.064733  0.991805  0.327127  1
  Bi  Bi22  1  0.434943  0.991813  0.826906  1
  Bi  Bi23  1  0.064876  0.508145  0.327237  1
  Bi  Bi24  1  0.565816  0.008517  0.173384  1
  Bi  Bi25  1  0.934273  0.491505  0.673011  1
  Bi  Bi26  1  0.566010  0.491537  0.173213  1
  Bi  Bi27  1  0.433881  0.508455  0.827026  1
  Ir  Ir28  1  0.928745  0.750459  0.991322  1
  Ir  Ir29  1  0.069768  0.249559  0.008416  1
  Ir  Ir30  1  0.430924  0.249472  0.508093  1
  Ir  Ir31  1  0.570669  0.750428  0.491626  1
