# generated using pymatgen
data_Nd3Th(Ga3Rh)6
_symmetry_space_group_name_H-M   'P 1'
_cell_length_a   7.66412913
_cell_length_b   7.66988317
_cell_length_c   9.60421300
_cell_angle_alpha   90.00000000
_cell_angle_beta   90.00000000
_cell_angle_gamma   119.46358585
_symmetry_Int_Tables_number   1
_chemical_formula_structural   Nd3Th(Ga3Rh)6
_chemical_formula_sum   'Nd3 Th1 Ga18 Rh6'
_cell_volume   491.54826446
_cell_formula_units_Z   1
loop_
 _symmetry_equiv_pos_site_id
 _symmetry_equiv_pos_as_xyz
  1  'x, y, z'
loop_
 _atom_site_type_symbol
 _atom_site_label
 _atom_site_symmetry_multiplicity
 _atom_site_fract_x
 _atom_site_fract_y
 _atom_site_fract_z
 _atom_site_occupancy
  Nd  Nd0  1  0.002918  0.329388  0.250000  1
  Nd  Nd1  1  0.671367  0.996187  0.750000  1
  Nd  Nd2  1  0.329264  0.002799  0.250000  1
  Th  Th3  1  0.996911  0.670929  0.750000  1
  Ga  Ga4  1  0.130425  0.130782  0.750000  1
  Ga  Ga5  1  0.871833  0.873066  0.250000  1
  Ga  Ga6  1  0.002266  0.332540  0.578271  1
  Ga  Ga7  1  0.997325  0.664072  0.417895  1
  Ga  Ga8  1  0.997325  0.664072  0.082105  1
  Ga  Ga9  1  0.339171  0.005188  0.921646  1
  Ga  Ga10  1  0.002266  0.332540  0.921729  1
  Ga  Ga11  1  0.664404  0.998570  0.079014  1
  Ga  Ga12  1  0.664404  0.998570  0.420986  1
  Ga  Ga13  1  0.339171  0.005188  0.578354  1
  Ga  Ga14  1  0.332366  0.332312  0.056760  1
  Ga  Ga15  1  0.664234  0.666848  0.946375  1
  Ga  Ga16  1  0.664234  0.666848  0.553625  1
  Ga  Ga17  1  0.332366  0.332312  0.443240  1
  Ga  Ga18  1  0.343045  0.548099  0.750000  1
  Ga  Ga19  1  0.657667  0.450897  0.250000  1
  Ga  Ga20  1  0.546542  0.340750  0.750000  1
  Ga  Ga21  1  0.451220  0.659368  0.250000  1
  Rh  Rh22  1  0.672907  0.331125  0.501387  1
  Rh  Rh23  1  0.326801  0.670767  0.501416  1
  Rh  Rh24  1  0.326801  0.670767  0.998584  1
  Rh  Rh25  1  0.672907  0.331125  0.998613  1
  Rh  Rh26  1  0.999931  0.997444  0.501855  1
  Rh  Rh27  1  0.999931  0.997444  0.998145  1
