# generated using pymatgen
data_Ca2CrFe3(PO4)4
_symmetry_space_group_name_H-M   'P 1'
_cell_length_a   5.06769515
_cell_length_b   9.05005349
_cell_length_c   15.25754575
_cell_angle_alpha   89.77669465
_cell_angle_beta   99.38894998
_cell_angle_gamma   106.14177558
_symmetry_Int_Tables_number   1
_chemical_formula_structural   Ca2CrFe3(PO4)4
_chemical_formula_sum   'Ca4 Cr2 Fe6 P8 O32'
_cell_volume   662.52939376
_cell_formula_units_Z   2
loop_
 _symmetry_equiv_pos_site_id
 _symmetry_equiv_pos_as_xyz
  1  'x, y, z'
loop_
 _atom_site_type_symbol
 _atom_site_label
 _atom_site_symmetry_multiplicity
 _atom_site_fract_x
 _atom_site_fract_y
 _atom_site_fract_z
 _atom_site_occupancy
  Ca  Ca0  1  0.664465  0.832696  0.140551  1
  Ca  Ca1  1  0.185521  0.669948  0.356093  1
  Ca  Ca2  1  0.815311  0.331135  0.642537  1
  Ca  Ca3  1  0.338534  0.168213  0.857951  1
  Cr  Cr4  1  0.496961  0.500705  0.999290  1
  Cr  Cr5  1  0.123845  0.769863  0.962287  1
  Fe  Fe6  1  0.846327  0.225267  0.040068  1
  Fe  Fe7  1  0.906297  0.249643  0.249699  1
  Fe  Fe8  1  0.082610  0.273490  0.459593  1
  Fe  Fe9  1  0.499448  0.998383  0.500058  1
  Fe  Fe10  1  0.916024  0.725127  0.539179  1
  Fe  Fe11  1  0.091321  0.751121  0.750526  1
  P  P12  1  0.306726  0.078093  0.112285  1
  P  P13  1  0.081434  0.566401  0.131614  1
  P  P14  1  0.883188  0.932901  0.367382  1
  P  P15  1  0.615928  0.419976  0.388015  1
  P  P16  1  0.382694  0.579130  0.610897  1
  P  P17  1  0.117826  0.066389  0.632236  1
  P  P18  1  0.915554  0.433193  0.867191  1
  P  P19  1  0.699044  0.923860  0.891399  1
  O  O20  1  0.400638  0.198835  0.042013  1
  O  O21  1  0.243372  0.608583  0.050380  1
  O  O22  1  0.264594  0.912611  0.073120  1
  O  O23  1  0.801794  0.607431  0.105882  1
  O  O24  1  0.018334  0.086300  0.133828  1
  O  O25  1  0.024393  0.389449  0.142450  1
  O  O26  1  0.529723  0.097736  0.196000  1
  O  O27  1  0.266739  0.660273  0.212705  1
  O  O28  1  0.890167  0.838955  0.285277  1
  O  O29  1  0.739172  0.403330  0.304133  1
  O  O30  1  0.989084  0.110279  0.356230  1
  O  O31  1  0.300520  0.415587  0.366317  1
  O  O32  1  0.588071  0.892362  0.393670  1
  O  O33  1  0.781377  0.583555  0.429684  1
  O  O34  1  0.085777  0.890499  0.446604  1
  O  O35  1  0.652194  0.294689  0.456331  1
  O  O36  1  0.347656  0.705321  0.542852  1
  O  O37  1  0.913221  0.106868  0.553142  1
  O  O38  1  0.218317  0.415726  0.568400  1
  O  O39  1  0.412381  0.107296  0.605705  1
  O  O40  1  0.698465  0.583723  0.631872  1
  O  O41  1  0.016427  0.888567  0.644588  1
  O  O42  1  0.256667  0.594321  0.694082  1
  O  O43  1  0.109923  0.160271  0.714189  1
  O  O44  1  0.732515  0.339032  0.785765  1
  O  O45  1  0.470131  0.901967  0.809531  1
  O  O46  1  0.979342  0.610742  0.854699  1
  O  O47  1  0.987596  0.916475  0.868209  1
  O  O48  1  0.193684  0.390981  0.894011  1
  O  O49  1  0.744305  0.091579  0.928529  1
  O  O50  1  0.749627  0.395141  0.947022  1
  O  O51  1  0.624734  0.805976  0.963926  1
