# generated using pymatgen
data_Tm4B4SbIr9
_symmetry_space_group_name_H-M   'P 1'
_cell_length_a   10.84790651
_cell_length_b   10.84790579
_cell_length_c   10.84790713
_cell_angle_alpha   29.54569428
_cell_angle_beta   29.54570040
_cell_angle_gamma   29.54569898
_symmetry_Int_Tables_number   1
_chemical_formula_structural   Tm4B4SbIr9
_chemical_formula_sum   'Tm4 B4 Sb1 Ir9'
_cell_volume   274.77372227
_cell_formula_units_Z   1
loop_
 _symmetry_equiv_pos_site_id
 _symmetry_equiv_pos_as_xyz
  1  'x, y, z'
loop_
 _atom_site_type_symbol
 _atom_site_label
 _atom_site_symmetry_multiplicity
 _atom_site_fract_x
 _atom_site_fract_y
 _atom_site_fract_z
 _atom_site_occupancy
  Tm  Tm0  1  0.148590  0.148590  0.148590  1
  Tm  Tm1  1  0.950834  0.950834  0.950834  1
  Tm  Tm2  1  0.851410  0.851410  0.851410  1
  Tm  Tm3  1  0.049166  0.049166  0.049166  1
  B  B4  1  0.616295  0.616295  0.616295  1
  B  B5  1  0.716971  0.716971  0.716971  1
  B  B6  1  0.383705  0.383705  0.383705  1
  B  B7  1  0.283029  0.283029  0.283029  1
  Sb  Sb8  1  0.500000  0.500000  0.500000  1
  Ir  Ir9  1  0.402626  0.905973  0.402626  1
  Ir  Ir10  1  0.905973  0.402626  0.402626  1
  Ir  Ir11  1  0.500000  0.500000  0.000000  1
  Ir  Ir12  1  0.500000  0.000000  0.500000  1
  Ir  Ir13  1  0.000000  0.500000  0.500000  1
  Ir  Ir14  1  0.597374  0.094027  0.597374  1
  Ir  Ir15  1  0.597374  0.597374  0.094027  1
  Ir  Ir16  1  0.094027  0.597374  0.597374  1
  Ir  Ir17  1  0.402626  0.402626  0.905973  1
