# generated using pymatgen
data_Tb12SiTc3
_symmetry_space_group_name_H-M   'P 1'
_cell_length_a   6.28790600
_cell_length_b   7.53367822
_cell_length_c   9.20833100
_cell_angle_alpha   90.00000000
_cell_angle_beta   90.00000000
_cell_angle_gamma   90.22913237
_symmetry_Int_Tables_number   1
_chemical_formula_structural   Tb12SiTc3
_chemical_formula_sum   'Tb12 Si1 Tc3'
_cell_volume   436.20491641
_cell_formula_units_Z   1
loop_
 _symmetry_equiv_pos_site_id
 _symmetry_equiv_pos_as_xyz
  1  'x, y, z'
loop_
 _atom_site_type_symbol
 _atom_site_label
 _atom_site_symmetry_multiplicity
 _atom_site_fract_x
 _atom_site_fract_y
 _atom_site_fract_z
 _atom_site_occupancy
  Tb  Tb0  1  0.619577  0.044255  0.250000  1
  Tb  Tb1  1  0.366561  0.956704  0.750000  1
  Tb  Tb2  1  0.124947  0.465568  0.750000  1
  Tb  Tb3  1  0.870006  0.530963  0.250000  1
  Tb  Tb4  1  0.158251  0.187502  0.060644  1
  Tb  Tb5  1  0.835317  0.826397  0.936843  1
  Tb  Tb6  1  0.662530  0.319323  0.934557  1
  Tb  Tb7  1  0.835317  0.826397  0.563157  1
  Tb  Tb8  1  0.349006  0.667377  0.062169  1
  Tb  Tb9  1  0.158251  0.187502  0.439356  1
  Tb  Tb10  1  0.349006  0.667377  0.437831  1
  Tb  Tb11  1  0.662530  0.319323  0.565443  1
  Si  Si12  1  0.060040  0.884763  0.250000  1
  Tc  Tc13  1  0.447404  0.381860  0.250000  1
  Tc  Tc14  1  0.540939  0.617043  0.750000  1
  Tc  Tc15  1  0.960320  0.117643  0.750000  1
