# generated using pymatgen
data_AcHg(PdPt)2
_symmetry_space_group_name_H-M   'P 1'
_cell_length_a   5.54443278
_cell_length_b   5.55419669
_cell_length_c   5.55419600
_cell_angle_alpha   60.11307630
_cell_angle_beta   60.05813520
_cell_angle_gamma   60.05813168
_symmetry_Int_Tables_number   1
_chemical_formula_structural   AcHg(PdPt)2
_chemical_formula_sum   'Ac1 Hg1 Pd2 Pt2'
_cell_volume   121.15352290
_cell_formula_units_Z   1
loop_
 _symmetry_equiv_pos_site_id
 _symmetry_equiv_pos_as_xyz
  1  'x, y, z'
loop_
 _atom_site_type_symbol
 _atom_site_label
 _atom_site_symmetry_multiplicity
 _atom_site_fract_x
 _atom_site_fract_y
 _atom_site_fract_z
 _atom_site_occupancy
  Ac  Ac0  1  0.251077  0.248923  0.248923  1
  Hg  Hg1  1  0.000420  0.999580  0.999580  1
  Pd  Pd2  1  0.122165  0.626133  0.626133  1
  Pd  Pd3  1  0.625569  0.626133  0.626133  1
  Pt  Pt4  1  0.625384  0.625837  0.123396  1
  Pt  Pt5  1  0.625384  0.123396  0.625837  1
