# generated using pymatgen
data_Sr4Ca3Dy(As7Ir8)2
_symmetry_space_group_name_H-M   'P 1'
_cell_length_a   4.11993600
_cell_length_b   13.27450181
_cell_length_c   13.70340464
_cell_angle_alpha   81.49598245
_cell_angle_beta   90.00000000
_cell_angle_gamma   90.00000000
_symmetry_Int_Tables_number   1
_chemical_formula_structural   Sr4Ca3Dy(As7Ir8)2
_chemical_formula_sum   'Sr4 Ca3 Dy1 As14 Ir16'
_cell_volume   741.20081434
_cell_formula_units_Z   1
loop_
 _symmetry_equiv_pos_site_id
 _symmetry_equiv_pos_as_xyz
  1  'x, y, z'
loop_
 _atom_site_type_symbol
 _atom_site_label
 _atom_site_symmetry_multiplicity
 _atom_site_fract_x
 _atom_site_fract_y
 _atom_site_fract_z
 _atom_site_occupancy
  Sr  Sr0  1  0.250000  0.103596  0.792367  1
  Sr  Sr1  1  0.750000  0.896460  0.207641  1
  Sr  Sr2  1  0.250000  0.286135  0.104193  1
  Sr  Sr3  1  0.750000  0.713842  0.895229  1
  Ca  Ca4  1  0.750000  0.486299  0.707853  1
  Ca  Ca5  1  0.250000  0.212965  0.435418  1
  Ca  Ca6  1  0.750000  0.785885  0.565195  1
  Dy  Dy7  1  0.250000  0.515426  0.291989  1
  As  As8  1  0.250000  0.057705  0.101156  1
  As  As9  1  0.750000  0.942637  0.898834  1
  As  As10  1  0.250000  0.313960  0.686473  1
  As  As11  1  0.750000  0.686265  0.313648  1
  As  As12  1  0.250000  0.608166  0.565623  1
  As  As13  1  0.750000  0.391400  0.435020  1
  As  As14  1  0.250000  0.846167  0.720223  1
  As  As15  1  0.750000  0.155282  0.281076  1
  As  As16  1  0.750000  0.256305  0.915757  1
  As  As17  1  0.250000  0.743809  0.084657  1
  As  As18  1  0.750000  0.095574  0.585009  1
  As  As19  1  0.250000  0.904298  0.414896  1
  As  As20  1  0.750000  0.469628  0.127821  1
  As  As21  1  0.250000  0.529651  0.870718  1
  Ir  Ir22  1  0.250000  0.983825  0.572046  1
  Ir  Ir23  1  0.750000  0.016567  0.427893  1
  Ir  Ir24  1  0.250000  0.664085  0.727453  1
  Ir  Ir25  1  0.750000  0.339972  0.272943  1
  Ir  Ir26  1  0.250000  0.552223  0.050055  1
  Ir  Ir27  1  0.750000  0.446647  0.949957  1
  Ir  Ir28  1  0.250000  0.057985  0.281676  1
  Ir  Ir29  1  0.750000  0.942754  0.718122  1
  Ir  Ir30  1  0.250000  0.425470  0.524681  1
  Ir  Ir31  1  0.750000  0.572808  0.472775  1
  Ir  Ir32  1  0.250000  0.919653  0.998989  1
  Ir  Ir33  1  0.750000  0.080483  0.000921  1
  Ir  Ir34  1  0.250000  0.720774  0.401165  1
  Ir  Ir35  1  0.750000  0.277966  0.598943  1
  Ir  Ir36  1  0.250000  0.345848  0.857196  1
  Ir  Ir37  1  0.750000  0.651487  0.144390  1
