# generated using pymatgen
data_GdY3Tm4(WO6)4
_symmetry_space_group_name_H-M   'P 1'
_cell_length_a   5.39633700
_cell_length_b   7.69026690
_cell_length_c   11.40656802
_cell_angle_alpha   75.55922196
_cell_angle_beta   90.00000000
_cell_angle_gamma   90.00000000
_symmetry_Int_Tables_number   1
_chemical_formula_structural   GdY3Tm4(WO6)4
_chemical_formula_sum   'Gd1 Y3 Tm4 W4 O24'
_cell_volume   458.40875841
_cell_formula_units_Z   1
loop_
 _symmetry_equiv_pos_site_id
 _symmetry_equiv_pos_as_xyz
  1  'x, y, z'
loop_
 _atom_site_type_symbol
 _atom_site_label
 _atom_site_symmetry_multiplicity
 _atom_site_fract_x
 _atom_site_fract_y
 _atom_site_fract_z
 _atom_site_occupancy
  Gd  Gd0  1  0.684297  0.500000  0.750000  1
  Y  Y1  1  0.742335  0.000000  0.750000  1
  Y  Y2  1  0.258136  0.000000  0.250000  1
  Y  Y3  1  0.315994  0.500000  0.250000  1
  Tm  Tm4  1  0.183782  0.794553  0.578445  1
  Tm  Tm5  1  0.816485  0.793859  0.079023  1
  Tm  Tm6  1  0.183782  0.205447  0.921555  1
  Tm  Tm7  1  0.816485  0.206141  0.420977  1
  W  W8  1  0.255636  0.724313  0.886461  1
  W  W9  1  0.744338  0.723875  0.385594  1
  W  W10  1  0.255636  0.275687  0.613539  1
  W  W11  1  0.744338  0.276125  0.114406  1
  O  O12  1  0.046336  0.940687  0.897634  1
  O  O13  1  0.537037  0.843641  0.932846  1
  O  O14  1  0.953277  0.941074  0.396805  1
  O  O15  1  0.454918  0.792223  0.726443  1
  O  O16  1  0.463633  0.843767  0.432719  1
  O  O17  1  0.983770  0.714151  0.770341  1
  O  O18  1  0.544093  0.791230  0.226229  1
  O  O19  1  0.854763  0.635727  0.548237  1
  O  O20  1  0.355065  0.488925  0.887536  1
  O  O21  1  0.017955  0.712032  0.270608  1
  O  O22  1  0.355065  0.511075  0.612464  1
  O  O23  1  0.854763  0.364273  0.951763  1
  O  O24  1  0.146719  0.635954  0.049590  1
  O  O25  1  0.641812  0.489023  0.386574  1
  O  O26  1  0.983770  0.285849  0.729659  1
  O  O27  1  0.641812  0.510977  0.113426  1
  O  O28  1  0.146719  0.364046  0.450410  1
  O  O29  1  0.454918  0.207777  0.773557  1
  O  O30  1  0.017955  0.287968  0.229392  1
  O  O31  1  0.537037  0.156359  0.567154  1
  O  O32  1  0.544093  0.208770  0.273771  1
  O  O33  1  0.046336  0.059313  0.602366  1
  O  O34  1  0.463633  0.156233  0.067281  1
  O  O35  1  0.953277  0.058926  0.103195  1
