# generated using pymatgen
data_Th2Al4Ga8Pt
_symmetry_space_group_name_H-M   'P 1'
_cell_length_a   6.07777000
_cell_length_b   6.07777000
_cell_length_c   15.70549400
_cell_angle_alpha   90.00000000
_cell_angle_beta   90.00000000
_cell_angle_gamma   90.00000000
_symmetry_Int_Tables_number   1
_chemical_formula_structural   Th2Al4Ga8Pt
_chemical_formula_sum   'Th4 Al8 Ga16 Pt2'
_cell_volume   580.14976876
_cell_formula_units_Z   2
loop_
 _symmetry_equiv_pos_site_id
 _symmetry_equiv_pos_as_xyz
  1  'x, y, z'
loop_
 _atom_site_type_symbol
 _atom_site_label
 _atom_site_symmetry_multiplicity
 _atom_site_fract_x
 _atom_site_fract_y
 _atom_site_fract_z
 _atom_site_occupancy
  Th  Th0  1  0.750000  0.250000  0.251806  1
  Th  Th1  1  0.250000  0.750000  0.251806  1
  Th  Th2  1  0.250000  0.750000  0.748194  1
  Th  Th3  1  0.750000  0.250000  0.748194  1
  Al  Al4  1  0.500314  0.000314  0.911357  1
  Al  Al5  1  0.000314  0.999686  0.911357  1
  Al  Al6  1  0.499686  0.500314  0.911357  1
  Al  Al7  1  0.999686  0.499686  0.911357  1
  Al  Al8  1  0.499686  0.999686  0.088643  1
  Al  Al9  1  0.999686  0.000314  0.088643  1
  Al  Al10  1  0.500314  0.499686  0.088643  1
  Al  Al11  1  0.000314  0.500314  0.088643  1
  Ga  Ga12  1  0.250000  0.250000  0.186490  1
  Ga  Ga13  1  0.750000  0.750000  0.186490  1
  Ga  Ga14  1  0.750000  0.750000  0.813510  1
  Ga  Ga15  1  0.250000  0.250000  0.813510  1
  Ga  Ga16  1  0.250000  0.250000  0.343702  1
  Ga  Ga17  1  0.750000  0.750000  0.343702  1
  Ga  Ga18  1  0.750000  0.750000  0.656298  1
  Ga  Ga19  1  0.250000  0.250000  0.656298  1
  Ga  Ga20  1  0.577715  0.077715  0.429890  1
  Ga  Ga21  1  0.077715  0.922285  0.429890  1
  Ga  Ga22  1  0.422285  0.577715  0.429890  1
  Ga  Ga23  1  0.922285  0.422285  0.429890  1
  Ga  Ga24  1  0.422285  0.922285  0.570110  1
  Ga  Ga25  1  0.922285  0.077715  0.570110  1
  Ga  Ga26  1  0.577715  0.422285  0.570110  1
  Ga  Ga27  1  0.077715  0.577715  0.570110  1
  Pt  Pt28  1  0.750000  0.250000  0.000000  1
  Pt  Pt29  1  0.250000  0.750000  0.000000  1
