# generated using pymatgen
data_YbTh11(GePd)12
_symmetry_space_group_name_H-M   'P 1'
_cell_length_a   4.45051900
_cell_length_b   7.66498785
_cell_length_c   23.04831681
_cell_angle_alpha   90.11295055
_cell_angle_beta   90.00000000
_cell_angle_gamma   90.00000000
_symmetry_Int_Tables_number   1
_chemical_formula_structural   YbTh11(GePd)12
_chemical_formula_sum   'Yb1 Th11 Ge12 Pd12'
_cell_volume   786.24971581
_cell_formula_units_Z   1
loop_
 _symmetry_equiv_pos_site_id
 _symmetry_equiv_pos_as_xyz
  1  'x, y, z'
loop_
 _atom_site_type_symbol
 _atom_site_label
 _atom_site_symmetry_multiplicity
 _atom_site_fract_x
 _atom_site_fract_y
 _atom_site_fract_z
 _atom_site_occupancy
  Yb  Yb0  1  0.250000  0.749371  0.500141  1
  Th  Th1  1  0.250000  0.751515  0.337102  1
  Th  Th2  1  0.750000  0.250136  0.664756  1
  Th  Th3  1  0.750000  0.251113  0.166950  1
  Th  Th4  1  0.250000  0.748923  0.832335  1
  Th  Th5  1  0.250000  0.750589  0.167536  1
  Th  Th6  1  0.750000  0.250872  0.832840  1
  Th  Th7  1  0.750000  0.249014  0.335119  1
  Th  Th8  1  0.250000  0.748064  0.663079  1
  Th  Th9  1  0.250000  0.751327  0.999900  1
  Th  Th10  1  0.750000  0.249864  0.999879  1
  Th  Th11  1  0.750000  0.249048  0.500048  1
  Ge  Ge12  1  0.250000  0.084757  0.080201  1
  Ge  Ge13  1  0.750000  0.916522  0.919820  1
  Ge  Ge14  1  0.750000  0.585416  0.414866  1
  Ge  Ge15  1  0.250000  0.417363  0.584472  1
  Ge  Ge16  1  0.250000  0.084581  0.248462  1
  Ge  Ge17  1  0.750000  0.915264  0.752386  1
  Ge  Ge18  1  0.750000  0.585119  0.248602  1
  Ge  Ge19  1  0.250000  0.415399  0.751734  1
  Ge  Ge20  1  0.250000  0.081578  0.416392  1
  Ge  Ge21  1  0.750000  0.913350  0.586203  1
  Ge  Ge22  1  0.750000  0.584646  0.080103  1
  Ge  Ge23  1  0.250000  0.416193  0.920319  1
  Pd  Pd24  1  0.250000  0.418219  0.252450  1
  Pd  Pd25  1  0.750000  0.581780  0.747277  1
  Pd  Pd26  1  0.750000  0.918527  0.251839  1
  Pd  Pd27  1  0.250000  0.081790  0.747481  1
  Pd  Pd28  1  0.250000  0.417100  0.420528  1
  Pd  Pd29  1  0.750000  0.579748  0.579836  1
  Pd  Pd30  1  0.750000  0.918115  0.086143  1
  Pd  Pd31  1  0.250000  0.082335  0.913424  1
  Pd  Pd32  1  0.250000  0.418823  0.085560  1
  Pd  Pd33  1  0.750000  0.582878  0.914281  1
  Pd  Pd34  1  0.750000  0.918837  0.419285  1
  Pd  Pd35  1  0.250000  0.081825  0.578653  1
