# generated using pymatgen
data_ErAl4NiGe2
_symmetry_space_group_name_H-M   'P 1'
_cell_length_a   4.09062800
_cell_length_b   4.09065594
_cell_length_c   30.79583700
_cell_angle_alpha   89.99994174
_cell_angle_beta   89.99972608
_cell_angle_gamma   119.99987294
_symmetry_Int_Tables_number   1
_chemical_formula_structural   ErAl4NiGe2
_chemical_formula_sum   'Er3 Al12 Ni3 Ge6'
_cell_volume   446.27868023
_cell_formula_units_Z   3
loop_
 _symmetry_equiv_pos_site_id
 _symmetry_equiv_pos_as_xyz
  1  'x, y, z'
loop_
 _atom_site_type_symbol
 _atom_site_label
 _atom_site_symmetry_multiplicity
 _atom_site_fract_x
 _atom_site_fract_y
 _atom_site_fract_z
 _atom_site_occupancy
  Er  Er0  1  0.333318  0.666673  0.166698  1
  Er  Er1  1  0.000015  0.999993  0.499965  1
  Er  Er2  1  0.666653  0.333320  0.833323  1
  Al  Al3  1  0.666672  0.333342  0.023180  1
  Al  Al4  1  0.999992  0.999999  0.077996  1
  Al  Al5  1  0.666647  0.333327  0.255376  1
  Al  Al6  1  0.999980  0.999988  0.310223  1
  Al  Al7  1  0.333298  0.666648  0.356510  1
  Al  Al8  1  0.666662  0.333333  0.411364  1
  Al  Al9  1  0.333358  0.666677  0.588635  1
  Al  Al10  1  0.666706  0.333340  0.643516  1
  Al  Al11  1  0.000041  0.000004  0.689769  1
  Al  Al12  1  0.333333  0.666660  0.744639  1
  Al  Al13  1  0.999991  0.999998  0.921975  1
  Al  Al14  1  0.333339  0.666674  0.976805  1
  Ni  Ni15  1  0.000015  0.000022  0.999996  1
  Ni  Ni16  1  0.666628  0.333319  0.333419  1
  Ni  Ni17  1  0.333301  0.666673  0.666660  1
  Ge  Ge18  1  0.666655  0.333333  0.111191  1
  Ge  Ge19  1  0.999982  0.999998  0.222155  1
  Ge  Ge20  1  0.333339  0.666671  0.444530  1
  Ge  Ge21  1  0.666676  0.333331  0.555451  1
  Ge  Ge22  1  0.000047  0.000005  0.777864  1
  Ge  Ge23  1  0.333323  0.666655  0.888750  1
