# generated using pymatgen
data_Ba4La4Cu(AuSe4)3
_symmetry_space_group_name_H-M   'P 1'
_cell_length_a   11.23107707
_cell_length_b   4.36227000
_cell_length_c   14.28379370
_cell_angle_alpha   90.00000000
_cell_angle_beta   89.55086182
_cell_angle_gamma   90.00000000
_symmetry_Int_Tables_number   1
_chemical_formula_structural   Ba4La4Cu(AuSe4)3
_chemical_formula_sum   'Ba4 La4 Cu1 Au3 Se12'
_cell_volume   699.78426894
_cell_formula_units_Z   1
loop_
 _symmetry_equiv_pos_site_id
 _symmetry_equiv_pos_as_xyz
  1  'x, y, z'
loop_
 _atom_site_type_symbol
 _atom_site_label
 _atom_site_symmetry_multiplicity
 _atom_site_fract_x
 _atom_site_fract_y
 _atom_site_fract_z
 _atom_site_occupancy
  Ba  Ba0  1  0.269931  0.249999  0.999507  1
  Ba  Ba1  1  0.224962  0.750000  0.497730  1
  Ba  Ba2  1  0.771280  0.249999  0.502674  1
  Ba  Ba3  1  0.732496  0.750000  0.995593  1
  La  La4  1  0.013039  0.249999  0.758458  1
  La  La5  1  0.488759  0.750000  0.256388  1
  La  La6  1  0.510095  0.249999  0.742295  1
  La  La7  1  0.986311  0.750000  0.241332  1
  Cu  Cu8  1  0.759417  0.750000  0.721351  1
  Au  Au9  1  0.242699  0.249999  0.283345  1
  Au  Au10  1  0.258291  0.750000  0.781795  1
  Au  Au11  1  0.742537  0.249999  0.216953  1
  Se  Se12  1  0.423871  0.249999  0.396914  1
  Se  Se13  1  0.075942  0.750000  0.897916  1
  Se  Se14  1  0.924863  0.249999  0.101455  1
  Se  Se15  1  0.590365  0.750000  0.612337  1
  Se  Se16  1  0.257949  0.249999  0.667585  1
  Se  Se17  1  0.241832  0.750000  0.170008  1
  Se  Se18  1  0.757144  0.249999  0.819913  1
  Se  Se19  1  0.740678  0.750000  0.330798  1
  Se  Se20  1  0.043685  0.249999  0.384982  1
  Se  Se21  1  0.452540  0.750000  0.885477  1
  Se  Se22  1  0.548589  0.249999  0.112786  1
  Se  Se23  1  0.942730  0.750000  0.622403  1
