# generated using pymatgen
data_Ta6Re4Si5BW2
_symmetry_space_group_name_H-M   'P 1'
_cell_length_a   7.54963106
_cell_length_b   7.54946293
_cell_length_c   7.54963179
_cell_angle_alpha   126.39558301
_cell_angle_beta   127.34737469
_cell_angle_gamma   78.46338787
_symmetry_Int_Tables_number   1
_chemical_formula_structural   Ta6Re4Si5BW2
_chemical_formula_sum   'Ta6 Re4 Si5 B1 W2'
_cell_volume   266.60646008
_cell_formula_units_Z   1
loop_
 _symmetry_equiv_pos_site_id
 _symmetry_equiv_pos_as_xyz
  1  'x, y, z'
loop_
 _atom_site_type_symbol
 _atom_site_label
 _atom_site_symmetry_multiplicity
 _atom_site_fract_x
 _atom_site_fract_y
 _atom_site_fract_z
 _atom_site_occupancy
  Ta  Ta0  1  0.552341  0.089386  0.037045  1
  Ta  Ta1  1  0.446394  0.495107  0.548713  1
  Ta  Ta2  1  0.947694  0.484777  0.037083  1
  Ta  Ta3  1  0.053530  0.102139  0.548609  1
  Ta  Ta4  1  0.750048  0.900311  0.650263  1
  Ta  Ta5  1  0.249986  0.902346  0.152360  1
  Re  Re6  1  0.100707  0.746794  0.598152  1
  Re  Re7  1  0.851157  0.497445  0.597944  1
  Re  Re8  1  0.648642  0.746794  0.146087  1
  Re  Re9  1  0.399501  0.497445  0.146287  1
  Si  Si10  1  0.249882  0.514273  0.764391  1
  Si  Si11  1  0.328749  0.824731  0.490054  1
  Si  Si12  1  0.665294  0.161409  0.490057  1
  Si  Si13  1  0.834677  0.824731  0.995982  1
  Si  Si14  1  0.171352  0.161409  0.996115  1
  B  B15  1  0.750049  0.493008  0.242959  1
  W  W16  1  0.505849  0.250045  0.755899  1
  W  W17  1  0.994146  0.250045  0.244196  1
