# generated using pymatgen
data_Gd4C4SeBr
_symmetry_space_group_name_H-M   'P 1'
_cell_length_a   7.34613548
_cell_length_b   7.34613509
_cell_length_c   6.70934938
_cell_angle_alpha   79.07265164
_cell_angle_beta   79.07265317
_cell_angle_gamma   33.05301736
_symmetry_Int_Tables_number   1
_chemical_formula_structural   Gd4C4SeBr
_chemical_formula_sum   'Gd4 C4 Se1 Br1'
_cell_volume   193.58187695
_cell_formula_units_Z   1
loop_
 _symmetry_equiv_pos_site_id
 _symmetry_equiv_pos_as_xyz
  1  'x, y, z'
loop_
 _atom_site_type_symbol
 _atom_site_label
 _atom_site_symmetry_multiplicity
 _atom_site_fract_x
 _atom_site_fract_y
 _atom_site_fract_z
 _atom_site_occupancy
  Gd  Gd0  1  0.539605  0.154635  0.137465  1
  Gd  Gd1  1  0.154845  0.548596  0.654974  1
  Gd  Gd2  1  0.451404  0.845155  0.845026  1
  Gd  Gd3  1  0.845365  0.460395  0.362535  1
  C  C4  1  0.353477  0.105113  0.471432  1
  C  C5  1  0.894887  0.646523  0.028568  1
  C  C6  1  0.653496  0.901059  0.526140  1
  C  C7  1  0.098941  0.346504  0.973860  1
  Se  Se8  1  0.778262  0.221738  0.750000  1
  Br  Br9  1  0.229716  0.770284  0.250000  1
