# generated using pymatgen
data_CeMg(Cd2Ru)2
_symmetry_space_group_name_H-M   'P 1'
_cell_length_a   7.39018800
_cell_length_b   9.62996300
_cell_length_c   9.72726800
_cell_angle_alpha   90.00000000
_cell_angle_beta   90.00000000
_cell_angle_gamma   90.00000000
_symmetry_Int_Tables_number   1
_chemical_formula_structural   CeMg(Cd2Ru)2
_chemical_formula_sum   'Ce4 Mg4 Cd16 Ru8'
_cell_volume   692.26278715
_cell_formula_units_Z   4
loop_
 _symmetry_equiv_pos_site_id
 _symmetry_equiv_pos_as_xyz
  1  'x, y, z'
loop_
 _atom_site_type_symbol
 _atom_site_label
 _atom_site_symmetry_multiplicity
 _atom_site_fract_x
 _atom_site_fract_y
 _atom_site_fract_z
 _atom_site_occupancy
  Ce  Ce0  1  0.578161  0.750000  0.750000  1
  Ce  Ce1  1  0.078161  0.750000  0.750000  1
  Ce  Ce2  1  0.424414  0.250000  0.250000  1
  Ce  Ce3  1  0.924414  0.250000  0.250000  1
  Mg  Mg4  1  0.152232  0.297085  0.947185  1
  Mg  Mg5  1  0.652232  0.202915  0.947185  1
  Mg  Mg6  1  0.652232  0.297085  0.552815  1
  Mg  Mg7  1  0.152232  0.202915  0.552815  1
  Cd  Cd8  1  0.999114  0.496804  0.500778  1
  Cd  Cd9  1  0.499114  0.496804  0.999222  1
  Cd  Cd10  1  0.499114  0.003196  0.500778  1
  Cd  Cd11  1  0.999114  0.003196  0.999222  1
  Cd  Cd12  1  0.845941  0.058514  0.706023  1
  Cd  Cd13  1  0.345941  0.058514  0.793977  1
  Cd  Cd14  1  0.345941  0.441486  0.706023  1
  Cd  Cd15  1  0.845941  0.441486  0.793977  1
  Cd  Cd16  1  0.845589  0.704745  0.054894  1
  Cd  Cd17  1  0.345589  0.795255  0.054894  1
  Cd  Cd18  1  0.345589  0.704745  0.445106  1
  Cd  Cd19  1  0.845589  0.795255  0.445106  1
  Cd  Cd20  1  0.156102  0.946746  0.295846  1
  Cd  Cd21  1  0.656102  0.946746  0.204154  1
  Cd  Cd22  1  0.656102  0.553254  0.295846  1
  Cd  Cd23  1  0.156102  0.553254  0.204154  1
  Ru  Ru24  1  0.652888  0.584835  0.586609  1
  Ru  Ru25  1  0.152888  0.584835  0.913391  1
  Ru  Ru26  1  0.152888  0.915165  0.586609  1
  Ru  Ru27  1  0.652888  0.915165  0.913391  1
  Ru  Ru28  1  0.346847  0.409842  0.416201  1
  Ru  Ru29  1  0.846847  0.409842  0.083799  1
  Ru  Ru30  1  0.846847  0.090158  0.416201  1
  Ru  Ru31  1  0.346847  0.090158  0.083799  1
