# generated using pymatgen
data_Sc4PS4
_symmetry_space_group_name_H-M   'P 1'
_cell_length_a   3.70139058
_cell_length_b   6.45994731
_cell_length_c   8.26060211
_cell_angle_alpha   96.77374783
_cell_angle_beta   102.99979009
_cell_angle_gamma   106.50867183
_symmetry_Int_Tables_number   1
_chemical_formula_structural   Sc4PS4
_chemical_formula_sum   'Sc4 P1 S4'
_cell_volume   180.99121169
_cell_formula_units_Z   1
loop_
 _symmetry_equiv_pos_site_id
 _symmetry_equiv_pos_as_xyz
  1  'x, y, z'
loop_
 _atom_site_type_symbol
 _atom_site_label
 _atom_site_symmetry_multiplicity
 _atom_site_fract_x
 _atom_site_fract_y
 _atom_site_fract_z
 _atom_site_occupancy
  Sc  Sc0  1  0.437927  0.739700  0.769368  1
  Sc  Sc1  1  0.643223  0.552132  0.360548  1
  Sc  Sc2  1  0.043416  0.138447  0.570455  1
  Sc  Sc3  1  0.241440  0.951560  0.160923  1
  P  P4  1  0.343098  0.845350  0.465117  1
  S  S5  1  0.945880  0.250235  0.268564  1
  S  S6  1  0.738523  0.440678  0.662686  1
  S  S7  1  0.126819  0.027253  0.860408  1
  S  S8  1  0.552538  0.664563  0.070271  1
