# generated using pymatgen
data_DyEr2Co8ReP6
_symmetry_space_group_name_H-M   'P 1'
_cell_length_a   3.71029500
_cell_length_b   10.49415900
_cell_length_c   12.18977400
_cell_angle_alpha   90.00000000
_cell_angle_beta   90.00000000
_cell_angle_gamma   90.00000000
_symmetry_Int_Tables_number   1
_chemical_formula_structural   DyEr2Co8ReP6
_chemical_formula_sum   'Dy2 Er4 Co16 Re2 P12'
_cell_volume   474.62622925
_cell_formula_units_Z   2
loop_
 _symmetry_equiv_pos_site_id
 _symmetry_equiv_pos_as_xyz
  1  'x, y, z'
loop_
 _atom_site_type_symbol
 _atom_site_label
 _atom_site_symmetry_multiplicity
 _atom_site_fract_x
 _atom_site_fract_y
 _atom_site_fract_z
 _atom_site_occupancy
  Dy  Dy0  1  0.000000  0.500000  0.524950  1
  Dy  Dy1  1  0.500000  0.000000  0.475050  1
  Er  Er2  1  0.500000  0.818403  0.205648  1
  Er  Er3  1  0.500000  0.181597  0.205648  1
  Er  Er4  1  0.000000  0.681597  0.794352  1
  Er  Er5  1  0.000000  0.318403  0.794352  1
  Co  Co6  1  0.500000  0.500000  0.702441  1
  Co  Co7  1  0.000000  0.000000  0.297559  1
  Co  Co8  1  0.000000  0.500000  0.987775  1
  Co  Co9  1  0.500000  0.000000  0.012225  1
  Co  Co10  1  0.500000  0.332499  0.989555  1
  Co  Co11  1  0.500000  0.667501  0.989555  1
  Co  Co12  1  0.000000  0.167501  0.010445  1
  Co  Co13  1  0.000000  0.832499  0.010445  1
  Co  Co14  1  0.500000  0.296352  0.430885  1
  Co  Co15  1  0.500000  0.703648  0.430885  1
  Co  Co16  1  0.000000  0.203648  0.569115  1
  Co  Co17  1  0.000000  0.796352  0.569115  1
  Co  Co18  1  0.500000  0.878732  0.708723  1
  Co  Co19  1  0.500000  0.121268  0.708723  1
  Co  Co20  1  0.000000  0.621268  0.291277  1
  Co  Co21  1  0.000000  0.378732  0.291277  1
  Re  Re22  1  0.500000  0.500000  0.156230  1
  Re  Re23  1  0.000000  0.000000  0.843770  1
  P  P24  1  0.500000  0.500000  0.879847  1
  P  P25  1  0.000000  0.000000  0.120153  1
  P  P26  1  0.500000  0.500000  0.349506  1
  P  P27  1  0.000000  0.000000  0.650494  1
  P  P28  1  0.500000  0.311835  0.616676  1
  P  P29  1  0.500000  0.688165  0.616676  1
  P  P30  1  0.000000  0.188165  0.383324  1
  P  P31  1  0.000000  0.811835  0.383324  1
  P  P32  1  0.500000  0.845331  0.892106  1
  P  P33  1  0.500000  0.154669  0.892106  1
  P  P34  1  0.000000  0.654669  0.107894  1
  P  P35  1  0.000000  0.345331  0.107894  1
