# generated using pymatgen
data_Hf3ZrNb2(B2Ru5)2
_symmetry_space_group_name_H-M   'P 1'
_cell_length_a   9.48373137
_cell_length_b   9.48373137
_cell_length_c   3.11011700
_cell_angle_alpha   90.00000000
_cell_angle_beta   90.00000000
_cell_angle_gamma   90.09660329
_symmetry_Int_Tables_number   1
_chemical_formula_structural   Hf3ZrNb2(B2Ru5)2
_chemical_formula_sum   'Hf3 Zr1 Nb2 B4 Ru10'
_cell_volume   279.72713529
_cell_formula_units_Z   1
loop_
 _symmetry_equiv_pos_site_id
 _symmetry_equiv_pos_as_xyz
  1  'x, y, z'
loop_
 _atom_site_type_symbol
 _atom_site_label
 _atom_site_symmetry_multiplicity
 _atom_site_fract_x
 _atom_site_fract_y
 _atom_site_fract_z
 _atom_site_occupancy
  Hf  Hf0  1  0.176112  0.323888  0.000000  1
  Hf  Hf1  1  0.324108  0.824191  0.000000  1
  Hf  Hf2  1  0.675809  0.175892  0.000000  1
  Zr  Zr3  1  0.824159  0.675841  0.000000  1
  Nb  Nb4  1  0.499627  0.499847  0.000000  1
  Nb  Nb5  1  0.000153  0.000373  0.000000  1
  B  B6  1  0.620921  0.879079  0.000000  1
  B  B7  1  0.378820  0.121180  0.000000  1
  B  B8  1  0.121406  0.621232  0.000000  1
  B  B9  1  0.878768  0.378594  0.000000  1
  Ru  Ru10  1  0.569761  0.718618  0.500000  1
  Ru  Ru11  1  0.429271  0.281691  0.500000  1
  Ru  Ru12  1  0.071623  0.781920  0.500000  1
  Ru  Ru13  1  0.929176  0.218185  0.500000  1
  Ru  Ru14  1  0.281815  0.570824  0.500000  1
  Ru  Ru15  1  0.718080  0.428377  0.500000  1
  Ru  Ru16  1  0.218309  0.070729  0.500000  1
  Ru  Ru17  1  0.781382  0.930239  0.500000  1
  Ru  Ru18  1  0.499829  0.000171  0.500000  1
  Ru  Ru19  1  0.000873  0.499127  0.500000  1
