# generated using pymatgen
data_Dy8Er12Si15Ag
_symmetry_space_group_name_H-M   'P 1'
_cell_length_a   7.39221095
_cell_length_b   7.64817045
_cell_length_c   14.58153953
_cell_angle_alpha   89.69546909
_cell_angle_beta   89.08638445
_cell_angle_gamma   90.03840178
_symmetry_Int_Tables_number   1
_chemical_formula_structural   Dy8Er12Si15Ag
_chemical_formula_sum   'Dy8 Er12 Si15 Ag1'
_cell_volume   824.27820500
_cell_formula_units_Z   1
loop_
 _symmetry_equiv_pos_site_id
 _symmetry_equiv_pos_as_xyz
  1  'x, y, z'
loop_
 _atom_site_type_symbol
 _atom_site_label
 _atom_site_symmetry_multiplicity
 _atom_site_fract_x
 _atom_site_fract_y
 _atom_site_fract_z
 _atom_site_occupancy
  Dy  Dy0  1  0.020722  0.179731  0.099253  1
  Dy  Dy1  1  0.979889  0.821720  0.903047  1
  Dy  Dy2  1  0.479522  0.681284  0.903059  1
  Dy  Dy3  1  0.985341  0.830467  0.598715  1
  Dy  Dy4  1  0.519008  0.317903  0.097430  1
  Dy  Dy5  1  0.011454  0.171682  0.398327  1
  Dy  Dy6  1  0.517132  0.315705  0.399661  1
  Dy  Dy7  1  0.489241  0.685446  0.600900  1
  Er  Er8  1  0.161870  0.511391  0.751298  1
  Er  Er9  1  0.839808  0.489927  0.251890  1
  Er  Er10  1  0.338379  0.006144  0.250339  1
  Er  Er11  1  0.664241  0.989721  0.749923  1
  Er  Er12  1  0.339423  0.175382  0.623465  1
  Er  Er13  1  0.663609  0.821283  0.377101  1
  Er  Er14  1  0.168858  0.674023  0.373757  1
  Er  Er15  1  0.673490  0.821644  0.122757  1
  Er  Er16  1  0.828273  0.326460  0.623208  1
  Er  Er17  1  0.326294  0.180069  0.877895  1
  Er  Er18  1  0.825603  0.320468  0.878383  1
  Er  Er19  1  0.172718  0.678386  0.123040  1
  Si  Si20  1  0.036471  0.113577  0.751744  1
  Si  Si21  1  0.964651  0.890619  0.248467  1
  Si  Si22  1  0.467774  0.604428  0.247724  1
  Si  Si23  1  0.533943  0.395363  0.751829  1
  Si  Si24  1  0.278887  0.876251  0.751680  1
  Si  Si25  1  0.720005  0.126250  0.247984  1
  Si  Si26  1  0.222620  0.368810  0.247716  1
  Si  Si27  1  0.780494  0.628442  0.753486  1
  Si  Si28  1  0.835279  0.530693  0.458433  1
  Si  Si29  1  0.329514  0.965701  0.460119  1
  Si  Si30  1  0.847171  0.530855  0.039256  1
  Si  Si31  1  0.666776  0.033745  0.538862  1
  Si  Si32  1  0.150239  0.469371  0.961787  1
  Si  Si33  1  0.651756  0.029108  0.959779  1
  Si  Si34  1  0.346877  0.969335  0.040069  1
  Ag  Ag35  1  0.162670  0.468616  0.537616  1
