# generated using pymatgen
data_Zr6Mn(Tl2Cl9)2
_symmetry_space_group_name_H-M   'P 1'
_cell_length_a   10.24439072
_cell_length_b   10.40911770
_cell_length_c   10.53957100
_cell_angle_alpha   118.35878765
_cell_angle_beta   100.08973324
_cell_angle_gamma   104.47525459
_symmetry_Int_Tables_number   1
_chemical_formula_structural   Zr6Mn(Tl2Cl9)2
_chemical_formula_sum   'Zr6 Mn1 Tl4 Cl18'
_cell_volume   898.83634286
_cell_formula_units_Z   1
loop_
 _symmetry_equiv_pos_site_id
 _symmetry_equiv_pos_as_xyz
  1  'x, y, z'
loop_
 _atom_site_type_symbol
 _atom_site_label
 _atom_site_symmetry_multiplicity
 _atom_site_fract_x
 _atom_site_fract_y
 _atom_site_fract_z
 _atom_site_occupancy
  Zr  Zr0  1  0.160270  0.059846  0.244081  1
  Zr  Zr1  1  0.839730  0.940154  0.755919  1
  Zr  Zr2  1  0.852467  0.133261  0.140063  1
  Zr  Zr3  1  0.147533  0.866739  0.859937  1
  Zr  Zr4  1  0.149620  0.244119  0.046047  1
  Zr  Zr5  1  0.850380  0.755881  0.953953  1
  Mn  Mn6  1  0.000000  0.000000  0.000000  1
  Tl  Tl7  1  0.651908  0.536610  0.224254  1
  Tl  Tl8  1  0.348092  0.463390  0.775746  1
  Tl  Tl9  1  0.687128  0.228368  0.564924  1
  Tl  Tl10  1  0.312872  0.771632  0.435076  1
  Cl  Cl11  1  0.009147  0.403301  0.193773  1
  Cl  Cl12  1  0.990853  0.596699  0.806227  1
  Cl  Cl13  1  0.326300  0.329284  0.307091  1
  Cl  Cl14  1  0.673700  0.670716  0.692909  1
  Cl  Cl15  1  0.326328  0.519069  0.101679  1
  Cl  Cl16  1  0.673672  0.480931  0.898321  1
  Cl  Cl17  1  0.004317  0.799070  0.206528  1
  Cl  Cl18  1  0.995683  0.200930  0.793472  1
  Cl  Cl19  1  0.702608  0.277840  0.291291  1
  Cl  Cl20  1  0.297392  0.722160  0.708709  1
  Cl  Cl21  1  0.313616  0.126099  0.904554  1
  Cl  Cl22  1  0.686384  0.873901  0.095446  1
  Cl  Cl23  1  0.015666  0.201868  0.402838  1
  Cl  Cl24  1  0.984334  0.798132  0.597162  1
  Cl  Cl25  1  0.318014  0.923347  0.109136  1
  Cl  Cl26  1  0.681986  0.076653  0.890864  1
  Cl  Cl27  1  0.339397  0.123180  0.503911  1
  Cl  Cl28  1  0.660603  0.876820  0.496089  1
