# generated using pymatgen
data_Pr2Al16Pt9
_symmetry_space_group_name_H-M   'P 1'
_cell_length_a   11.19086933
_cell_length_b   11.19087014
_cell_length_c   11.19087057
_cell_angle_alpha   158.52025484
_cell_angle_beta   115.15005363
_cell_angle_gamma   69.17360953
_symmetry_Int_Tables_number   1
_chemical_formula_structural   Pr2Al16Pt9
_chemical_formula_sum   'Pr2 Al16 Pt9'
_cell_volume   461.15312709
_cell_formula_units_Z   1
loop_
 _symmetry_equiv_pos_site_id
 _symmetry_equiv_pos_as_xyz
  1  'x, y, z'
loop_
 _atom_site_type_symbol
 _atom_site_label
 _atom_site_symmetry_multiplicity
 _atom_site_fract_x
 _atom_site_fract_y
 _atom_site_fract_z
 _atom_site_occupancy
  Pr  Pr0  1  0.228501  0.228501  0.000000  1
  Pr  Pr1  1  0.771499  0.771499  0.000000  1
  Al  Al2  1  0.273391  0.392465  0.880926  1
  Al  Al3  1  0.093252  0.920821  0.172432  1
  Al  Al4  1  0.511472  0.203989  0.307484  1
  Al  Al5  1  0.251611  0.079179  0.172432  1
  Al  Al6  1  0.914056  0.414056  0.500000  1
  Al  Al7  1  0.726609  0.607535  0.119074  1
  Al  Al8  1  0.896505  0.203989  0.692516  1
  Al  Al9  1  0.488528  0.796011  0.692516  1
  Al  Al10  1  0.385552  0.000000  0.385552  1
  Al  Al11  1  0.614448  0.000000  0.614448  1
  Al  Al12  1  0.488462  0.607535  0.880926  1
  Al  Al13  1  0.103495  0.796011  0.307484  1
  Al  Al14  1  0.906748  0.079179  0.827568  1
  Al  Al15  1  0.748389  0.920821  0.827568  1
  Al  Al16  1  0.511538  0.392465  0.119074  1
  Al  Al17  1  0.085944  0.585944  0.500000  1
  Pt  Pt18  1  0.748010  0.500000  0.248010  1
  Pt  Pt19  1  0.026247  0.339775  0.686472  1
  Pt  Pt20  1  0.624387  0.124387  0.500000  1
  Pt  Pt21  1  0.251990  0.500000  0.751990  1
  Pt  Pt22  1  0.375613  0.875613  0.500000  1
  Pt  Pt23  1  0.000000  0.000000  0.000000  1
  Pt  Pt24  1  0.653303  0.339775  0.313528  1
  Pt  Pt25  1  0.346697  0.660225  0.686472  1
  Pt  Pt26  1  0.973753  0.660225  0.313528  1
