# generated using pymatgen
data_Co3Re2Si
_symmetry_space_group_name_H-M   'P 1'
_cell_length_a   4.70864400
_cell_length_b   4.70812968
_cell_length_c   7.34660600
_cell_angle_alpha   90.00000000
_cell_angle_beta   90.00000000
_cell_angle_gamma   120.00359969
_symmetry_Int_Tables_number   1
_chemical_formula_structural   Co3Re2Si
_chemical_formula_sum   'Co6 Re4 Si2'
_cell_volume   141.04116919
_cell_formula_units_Z   2
loop_
 _symmetry_equiv_pos_site_id
 _symmetry_equiv_pos_as_xyz
  1  'x, y, z'
loop_
 _atom_site_type_symbol
 _atom_site_label
 _atom_site_symmetry_multiplicity
 _atom_site_fract_x
 _atom_site_fract_y
 _atom_site_fract_z
 _atom_site_occupancy
  Co  Co0  1  0.171075  0.342149  0.750000  1
  Co  Co1  1  0.657957  0.828941  0.750000  1
  Co  Co2  1  0.170986  0.828941  0.750000  1
  Co  Co3  1  0.828925  0.657851  0.250000  1
  Co  Co4  1  0.342043  0.171059  0.250000  1
  Co  Co5  1  0.829014  0.171059  0.250000  1
  Re  Re6  1  0.666386  0.332771  0.567484  1
  Re  Re7  1  0.333614  0.667229  0.432516  1
  Re  Re8  1  0.333614  0.667229  0.067484  1
  Re  Re9  1  0.666386  0.332771  0.932516  1
  Si  Si10  1  0.000000  0.000000  0.000000  1
  Si  Si11  1  0.000000  0.000000  0.500000  1
