# generated using pymatgen
data_MgCd(AsO2)4
_symmetry_space_group_name_H-M   'P 1'
_cell_length_a   5.43828100
_cell_length_b   4.71300870
_cell_length_c   18.66826996
_cell_angle_alpha   89.83662817
_cell_angle_beta   90.00000000
_cell_angle_gamma   90.00000000
_symmetry_Int_Tables_number   1
_chemical_formula_structural   MgCd(AsO2)4
_chemical_formula_sum   'Mg2 Cd2 As8 O16'
_cell_volume   478.47824124
_cell_formula_units_Z   2
loop_
 _symmetry_equiv_pos_site_id
 _symmetry_equiv_pos_as_xyz
  1  'x, y, z'
loop_
 _atom_site_type_symbol
 _atom_site_label
 _atom_site_symmetry_multiplicity
 _atom_site_fract_x
 _atom_site_fract_y
 _atom_site_fract_z
 _atom_site_occupancy
  Mg  Mg0  1  0.009882  0.255476  0.751013  1
  Mg  Mg1  1  0.509882  0.744524  0.748987  1
  Cd  Cd2  1  0.993986  0.742032  0.253704  1
  Cd  Cd3  1  0.493986  0.257968  0.246296  1
  As  As4  1  0.288789  0.513582  0.412845  1
  As  As5  1  0.788789  0.486418  0.087155  1
  As  As6  1  0.712764  0.478981  0.603250  1
  As  As7  1  0.212764  0.521019  0.896750  1
  As  As8  1  0.698694  0.012586  0.409694  1
  As  As9  1  0.198694  0.987414  0.090306  1
  As  As10  1  0.297852  0.986221  0.605445  1
  As  As11  1  0.797852  0.013779  0.894555  1
  O  O12  1  0.237313  0.479047  0.318605  1
  O  O13  1  0.737313  0.520953  0.181395  1
  O  O14  1  0.767286  0.500517  0.697235  1
  O  O15  1  0.267286  0.499483  0.802765  1
  O  O16  1  0.730393  0.993848  0.314712  1
  O  O17  1  0.230393  0.006152  0.185288  1
  O  O18  1  0.263388  0.014458  0.699796  1
  O  O19  1  0.763388  0.985542  0.800204  1
  O  O20  1  0.376897  0.889557  0.418002  1
  O  O21  1  0.876897  0.110443  0.081998  1
  O  O22  1  0.621560  0.103432  0.596663  1
  O  O23  1  0.121560  0.896568  0.903337  1
  O  O24  1  0.890516  0.391593  0.892507  1
  O  O25  1  0.390516  0.608407  0.607493  1
  O  O26  1  0.110682  0.611070  0.085621  1
  O  O27  1  0.610682  0.388930  0.414379  1
