# generated using pymatgen
data_Dy20Ir8RuPt3
_symmetry_space_group_name_H-M   'P 1'
_cell_length_a   10.95648171
_cell_length_b   10.95596656
_cell_length_c   6.36913823
_cell_angle_alpha   89.98318529
_cell_angle_beta   89.97440858
_cell_angle_gamma   90.16561183
_symmetry_Int_Tables_number   1
_chemical_formula_structural   Dy20Ir8RuPt3
_chemical_formula_sum   'Dy20 Ir8 Ru1 Pt3'
_cell_volume   764.54070787
_cell_formula_units_Z   1
loop_
 _symmetry_equiv_pos_site_id
 _symmetry_equiv_pos_as_xyz
  1  'x, y, z'
loop_
 _atom_site_type_symbol
 _atom_site_label
 _atom_site_symmetry_multiplicity
 _atom_site_fract_x
 _atom_site_fract_y
 _atom_site_fract_z
 _atom_site_occupancy
  Dy  Dy0  1  0.294484  0.086578  0.372877  1
  Dy  Dy1  1  0.294281  0.909346  0.879927  1
  Dy  Dy2  1  0.704005  0.089205  0.877159  1
  Dy  Dy3  1  0.703883  0.910563  0.373595  1
  Dy  Dy4  1  0.585050  0.792509  0.881097  1
  Dy  Dy5  1  0.585171  0.207682  0.378378  1
  Dy  Dy6  1  0.411534  0.792447  0.378402  1
  Dy  Dy7  1  0.414438  0.207515  0.880590  1
  Dy  Dy8  1  0.209151  0.413992  0.620053  1
  Dy  Dy9  1  0.208628  0.589501  0.120375  1
  Dy  Dy10  1  0.791114  0.413949  0.120073  1
  Dy  Dy11  1  0.790835  0.586558  0.620586  1
  Dy  Dy12  1  0.912400  0.706632  0.125990  1
  Dy  Dy13  1  0.909462  0.294180  0.624725  1
  Dy  Dy14  1  0.092035  0.707536  0.621669  1
  Dy  Dy15  1  0.090535  0.294970  0.124877  1
  Dy  Dy16  1  0.001318  0.998294  0.498597  1
  Dy  Dy17  1  0.001669  0.998660  0.000064  1
  Dy  Dy18  1  0.499742  0.499866  0.999575  1
  Dy  Dy19  1  0.500151  0.500156  0.498657  1
  Ir  Ir20  1  0.151931  0.847452  0.249650  1
  Ir  Ir21  1  0.654332  0.345948  0.749665  1
  Ir  Ir22  1  0.654784  0.653822  0.249287  1
  Ir  Ir23  1  0.345609  0.345796  0.250096  1
  Ir  Ir24  1  0.346574  0.653112  0.749512  1
  Ir  Ir25  1  0.500397  0.000320  0.625369  1
  Ir  Ir26  1  0.999659  0.499577  0.875861  1
  Ir  Ir27  1  0.999853  0.499505  0.376820  1
  Ru  Ru28  1  0.500438  0.000085  0.127342  1
  Pt  Pt29  1  0.847221  0.153517  0.249753  1
  Pt  Pt30  1  0.846093  0.846653  0.749614  1
  Pt  Pt31  1  0.153223  0.154072  0.749764  1
