# generated using pymatgen
data_LiZrMnIr3
_symmetry_space_group_name_H-M   'P 1'
_cell_length_a   4.99858102
_cell_length_b   5.27743307
_cell_length_c   8.50030500
_cell_angle_alpha   90.00000000
_cell_angle_beta   90.00000000
_cell_angle_gamma   121.86322512
_symmetry_Int_Tables_number   1
_chemical_formula_structural   LiZrMnIr3
_chemical_formula_sum   'Li2 Zr2 Mn2 Ir6'
_cell_volume   190.44543562
_cell_formula_units_Z   2
loop_
 _symmetry_equiv_pos_site_id
 _symmetry_equiv_pos_as_xyz
  1  'x, y, z'
loop_
 _atom_site_type_symbol
 _atom_site_label
 _atom_site_symmetry_multiplicity
 _atom_site_fract_x
 _atom_site_fract_y
 _atom_site_fract_z
 _atom_site_occupancy
  Li  Li0  1  0.338052  0.669026  0.066685  1
  Li  Li1  1  0.661948  0.330974  0.566685  1
  Zr  Zr2  1  0.673755  0.336878  0.932050  1
  Zr  Zr3  1  0.326245  0.663122  0.432050  1
  Mn  Mn4  1  0.671661  0.835830  0.748985  1
  Mn  Mn5  1  0.328339  0.164170  0.248985  1
  Ir  Ir6  1  0.008861  0.004431  0.502205  1
  Ir  Ir7  1  0.991139  0.995569  0.002205  1
  Ir  Ir8  1  0.181126  0.348436  0.750038  1
  Ir  Ir9  1  0.818874  0.167311  0.250038  1
  Ir  Ir10  1  0.818874  0.651564  0.250038  1
  Ir  Ir11  1  0.181126  0.832689  0.750038  1
