# generated using pymatgen
data_Ho4Er4Si12Ir3Pd
_symmetry_space_group_name_H-M   'P 1'
_cell_length_a   8.15750021
_cell_length_b   8.15749191
_cell_length_c   7.84874500
_cell_angle_alpha   89.99972512
_cell_angle_beta   90.00047944
_cell_angle_gamma   120.02617793
_symmetry_Int_Tables_number   1
_chemical_formula_structural   Ho4Er4Si12Ir3Pd
_chemical_formula_sum   'Ho4 Er4 Si12 Ir3 Pd1'
_cell_volume   452.19939344
_cell_formula_units_Z   1
loop_
 _symmetry_equiv_pos_site_id
 _symmetry_equiv_pos_as_xyz
  1  'x, y, z'
loop_
 _atom_site_type_symbol
 _atom_site_label
 _atom_site_symmetry_multiplicity
 _atom_site_fract_x
 _atom_site_fract_y
 _atom_site_fract_z
 _atom_site_occupancy
  Ho  Ho0  1  0.512779  0.487221  0.247076  1
  Ho  Ho1  1  0.490330  0.509672  0.752101  1
  Ho  Ho2  1  0.999988  0.000010  0.251752  1
  Ho  Ho3  1  0.000015  0.999986  0.750753  1
  Er  Er4  1  0.512815  0.025545  0.246935  1
  Er  Er5  1  0.490458  0.980996  0.752289  1
  Er  Er6  1  0.974454  0.487185  0.246934  1
  Er  Er7  1  0.019004  0.509541  0.752291  1
  Si  Si8  1  0.166546  0.333461  0.004050  1
  Si  Si9  1  0.833854  0.667334  0.996987  1
  Si  Si10  1  0.666539  0.833455  0.004050  1
  Si  Si11  1  0.832778  0.665196  0.501248  1
  Si  Si12  1  0.332667  0.166147  0.996986  1
  Si  Si13  1  0.164622  0.329565  0.500411  1
  Si  Si14  1  0.166765  0.833237  0.003990  1
  Si  Si15  1  0.334805  0.167221  0.501248  1
  Si  Si16  1  0.833647  0.166353  0.997061  1
  Si  Si17  1  0.670434  0.835379  0.500411  1
  Si  Si18  1  0.832574  0.167425  0.501165  1
  Si  Si19  1  0.164844  0.835158  0.500476  1
  Ir  Ir20  1  0.333122  0.666879  0.031843  1
  Ir  Ir21  1  0.666894  0.333104  0.962395  1
  Ir  Ir22  1  0.666918  0.333081  0.540684  1
  Pd  Pd23  1  0.333152  0.666850  0.456865  1
