# generated using pymatgen
data_Nd5Al2Ru3
_symmetry_space_group_name_H-M   'P 1'
_cell_length_a   8.57485738
_cell_length_b   8.57485870
_cell_length_c   8.57485800
_cell_angle_alpha   109.47121897
_cell_angle_beta   109.47122209
_cell_angle_gamma   109.47121941
_symmetry_Int_Tables_number   1
_chemical_formula_structural   Nd5Al2Ru3
_chemical_formula_sum   'Nd10 Al4 Ru6'
_cell_volume   485.35435622
_cell_formula_units_Z   2
loop_
 _symmetry_equiv_pos_site_id
 _symmetry_equiv_pos_as_xyz
  1  'x, y, z'
loop_
 _atom_site_type_symbol
 _atom_site_label
 _atom_site_symmetry_multiplicity
 _atom_site_fract_x
 _atom_site_fract_y
 _atom_site_fract_z
 _atom_site_occupancy
  Nd  Nd0  1  0.250000  0.684672  0.434673  1
  Nd  Nd1  1  0.750000  0.815328  0.065328  1
  Nd  Nd2  1  0.434673  0.250000  0.684672  1
  Nd  Nd3  1  0.684672  0.434673  0.250000  1
  Nd  Nd4  1  0.065328  0.750000  0.815328  1
  Nd  Nd5  1  0.815328  0.065328  0.750000  1
  Nd  Nd6  1  0.213919  0.213919  0.213919  1
  Nd  Nd7  1  0.500001  0.000000  0.286081  1
  Nd  Nd8  1  0.286081  0.500001  0.000000  1
  Nd  Nd9  1  0.000000  0.286081  0.500001  1
  Al  Al10  1  0.500001  0.000000  0.912479  1
  Al  Al11  1  0.587521  0.587521  0.587521  1
  Al  Al12  1  0.912479  0.500001  0.000000  1
  Al  Al13  1  0.000000  0.912479  0.500001  1
  Ru  Ru14  1  0.250001  0.118312  0.868312  1
  Ru  Ru15  1  0.750000  0.381687  0.631687  1
  Ru  Ru16  1  0.868312  0.250001  0.118312  1
  Ru  Ru17  1  0.118312  0.868312  0.250001  1
  Ru  Ru18  1  0.631687  0.750000  0.381687  1
  Ru  Ru19  1  0.381687  0.631687  0.750000  1
