# generated using pymatgen
data_Ca4Tb5Ho(AgPb3)2
_symmetry_space_group_name_H-M   'P 1'
_cell_length_a   9.36841302
_cell_length_b   9.36940783
_cell_length_c   6.84901200
_cell_angle_alpha   90.00000000
_cell_angle_beta   90.00000000
_cell_angle_gamma   120.00352520
_symmetry_Int_Tables_number   1
_chemical_formula_structural   Ca4Tb5Ho(AgPb3)2
_chemical_formula_sum   'Ca4 Tb5 Ho1 Ag2 Pb6'
_cell_volume   520.62054552
_cell_formula_units_Z   1
loop_
 _symmetry_equiv_pos_site_id
 _symmetry_equiv_pos_as_xyz
  1  'x, y, z'
loop_
 _atom_site_type_symbol
 _atom_site_label
 _atom_site_symmetry_multiplicity
 _atom_site_fract_x
 _atom_site_fract_y
 _atom_site_fract_z
 _atom_site_occupancy
  Ca  Ca0  1  0.666753  0.333479  0.500052  1
  Ca  Ca1  1  0.333247  0.666727  0.500052  1
  Ca  Ca2  1  0.333247  0.666727  0.999948  1
  Ca  Ca3  1  0.666753  0.333479  0.999948  1
  Tb  Tb4  1  0.729127  0.729112  0.250000  1
  Tb  Tb5  1  0.270873  0.999985  0.250000  1
  Tb  Tb6  1  0.000000  0.270758  0.250000  1
  Tb  Tb7  1  0.270904  0.270930  0.750000  1
  Tb  Tb8  1  0.729096  0.000027  0.750000  1
  Ho  Ho9  1  0.000000  0.729388  0.750000  1
  Ag  Ag10  1  0.000000  0.999520  0.500370  1
  Ag  Ag11  1  0.000000  0.999520  0.999630  1
  Pb  Pb12  1  0.379119  0.379131  0.250000  1
  Pb  Pb13  1  0.620881  0.000013  0.250000  1
  Pb  Pb14  1  0.000000  0.620914  0.250000  1
  Pb  Pb15  1  0.621398  0.620983  0.750000  1
  Pb  Pb16  1  0.378602  0.999585  0.750000  1
  Pb  Pb17  1  0.000000  0.379722  0.750000  1
