# generated using pymatgen
data_BaLa8Mn(Si3O13)2
_symmetry_space_group_name_H-M   'P 1'
_cell_length_a   9.77049500
_cell_length_b   9.77049609
_cell_length_c   7.23110000
_cell_angle_alpha   90.00000000
_cell_angle_beta   90.00000000
_cell_angle_gamma   119.99999789
_symmetry_Int_Tables_number   1
_chemical_formula_structural   BaLa8Mn(Si3O13)2
_chemical_formula_sum   'Ba1 La8 Mn1 Si6 O26'
_cell_volume   597.81690313
_cell_formula_units_Z   1
loop_
 _symmetry_equiv_pos_site_id
 _symmetry_equiv_pos_as_xyz
  1  'x, y, z'
loop_
 _atom_site_type_symbol
 _atom_site_label
 _atom_site_symmetry_multiplicity
 _atom_site_fract_x
 _atom_site_fract_y
 _atom_site_fract_z
 _atom_site_occupancy
  Ba  Ba0  1  0.333333  0.666667  0.573193  1
  La  La1  1  0.242059  0.231078  0.817719  1
  La  La2  1  0.989020  0.757941  0.817719  1
  La  La3  1  0.768922  0.010980  0.817719  1
  La  La4  1  0.757495  0.770580  0.313924  1
  La  La5  1  0.013085  0.242505  0.313924  1
  La  La6  1  0.229420  0.986915  0.313924  1
  La  La7  1  0.666667  0.333333  0.554285  1
  La  La8  1  0.333333  0.666667  0.069550  1
  Mn  Mn9  1  0.666667  0.333333  0.051227  1
  Si  Si10  1  0.017942  0.394635  0.826875  1
  Si  Si11  1  0.376693  0.982058  0.826875  1
  Si  Si12  1  0.605365  0.623307  0.826875  1
  Si  Si13  1  0.963416  0.596254  0.302579  1
  Si  Si14  1  0.632838  0.036584  0.302579  1
  Si  Si15  1  0.403746  0.367162  0.302579  1
  O  O16  1  0.898135  0.628986  0.500826  1
  O  O17  1  0.730849  0.101865  0.500826  1
  O  O18  1  0.371014  0.269151  0.500826  1
  O  O19  1  0.086820  0.336358  0.999441  1
  O  O20  1  0.249538  0.913180  0.999441  1
  O  O21  1  0.663642  0.750462  0.999441  1
  O  O22  1  0.109521  0.588769  0.841036  1
  O  O23  1  0.479249  0.890479  0.841036  1
  O  O24  1  0.411231  0.520751  0.841036  1
  O  O25  1  0.864495  0.403659  0.272515  1
  O  O26  1  0.539164  0.135505  0.272515  1
  O  O27  1  0.596341  0.460836  0.272515  1
  O  O28  1  0.824610  0.311855  0.829136  1
  O  O29  1  0.487245  0.175390  0.829136  1
  O  O30  1  0.688145  0.512755  0.829136  1
  O  O31  1  0.155109  0.669766  0.302246  1
  O  O32  1  0.514658  0.844891  0.302246  1
  O  O33  1  0.330234  0.485342  0.302246  1
  O  O34  1  0.075671  0.338451  0.639653  1
  O  O35  1  0.262780  0.924329  0.639653  1
  O  O36  1  0.661549  0.737220  0.639653  1
  O  O37  1  0.927475  0.697170  0.146368  1
  O  O38  1  0.769696  0.072525  0.146368  1
  O  O39  1  0.302830  0.230304  0.146368  1
  O  O40  1  0.000000  0.000000  0.824181  1
  O  O41  1  0.000000  0.000000  0.356653  1
