# generated using pymatgen
data_Sm8Y10Sc2Si15Ni
_symmetry_space_group_name_H-M   'P 1'
_cell_length_a   7.31933565
_cell_length_b   7.80063043
_cell_length_c   14.66838100
_cell_angle_alpha   90.00000000
_cell_angle_beta   90.00000000
_cell_angle_gamma   90.04313327
_symmetry_Int_Tables_number   1
_chemical_formula_structural   Sm8Y10Sc2Si15Ni
_chemical_formula_sum   'Sm8 Y10 Sc2 Si15 Ni1'
_cell_volume   837.49731838
_cell_formula_units_Z   1
loop_
 _symmetry_equiv_pos_site_id
 _symmetry_equiv_pos_as_xyz
  1  'x, y, z'
loop_
 _atom_site_type_symbol
 _atom_site_label
 _atom_site_symmetry_multiplicity
 _atom_site_fract_x
 _atom_site_fract_y
 _atom_site_fract_z
 _atom_site_occupancy
  Sm  Sm0  1  0.017301  0.183374  0.099035  1
  Sm  Sm1  1  0.983808  0.819792  0.908011  1
  Sm  Sm2  1  0.483510  0.681899  0.905778  1
  Sm  Sm3  1  0.983808  0.819792  0.591989  1
  Sm  Sm4  1  0.516690  0.318457  0.098193  1
  Sm  Sm5  1  0.017301  0.183374  0.400965  1
  Sm  Sm6  1  0.516690  0.318457  0.401807  1
  Sm  Sm7  1  0.483510  0.681899  0.594222  1
  Y  Y8  1  0.156733  0.519923  0.750000  1
  Y  Y9  1  0.671177  0.990379  0.750000  1
  Y  Y10  1  0.313620  0.173277  0.624903  1
  Y  Y11  1  0.676998  0.824302  0.372581  1
  Y  Y12  1  0.177069  0.678774  0.372940  1
  Y  Y13  1  0.676998  0.824302  0.127419  1
  Y  Y14  1  0.828329  0.319224  0.623620  1
  Y  Y15  1  0.313620  0.173277  0.875097  1
  Y  Y16  1  0.828329  0.319224  0.876380  1
  Y  Y17  1  0.177069  0.678774  0.127060  1
  Sc  Sc18  1  0.840734  0.484132  0.250000  1
  Sc  Sc19  1  0.341634  0.016945  0.250000  1
  Si  Si20  1  0.979920  0.903316  0.250000  1
  Si  Si21  1  0.479316  0.596752  0.250000  1
  Si  Si22  1  0.529167  0.393727  0.750000  1
  Si  Si23  1  0.271954  0.876505  0.750000  1
  Si  Si24  1  0.717439  0.133625  0.250000  1
  Si  Si25  1  0.218519  0.367476  0.250000  1
  Si  Si26  1  0.768765  0.621662  0.750000  1
  Si  Si27  1  0.153756  0.470610  0.535879  1
  Si  Si28  1  0.846862  0.531166  0.459520  1
  Si  Si29  1  0.348377  0.969750  0.459104  1
  Si  Si30  1  0.846862  0.531166  0.040480  1
  Si  Si31  1  0.651614  0.030811  0.536838  1
  Si  Si32  1  0.153756  0.470610  0.964121  1
  Si  Si33  1  0.651614  0.030811  0.963162  1
  Si  Si34  1  0.348377  0.969750  0.040896  1
  Ni  Ni35  1  0.028775  0.092690  0.750000  1
