# generated using pymatgen
data_TbY3(SO6)2
_symmetry_space_group_name_H-M   'P 1'
_cell_length_a   4.18670300
_cell_length_b   7.09903101
_cell_length_c   8.10742408
_cell_angle_alpha   106.98088636
_cell_angle_beta   90.00182885
_cell_angle_gamma   107.14573062
_symmetry_Int_Tables_number   1
_chemical_formula_structural   TbY3(SO6)2
_chemical_formula_sum   'Tb1 Y3 S2 O12'
_cell_volume   219.23729501
_cell_formula_units_Z   1
loop_
 _symmetry_equiv_pos_site_id
 _symmetry_equiv_pos_as_xyz
  1  'x, y, z'
loop_
 _atom_site_type_symbol
 _atom_site_label
 _atom_site_symmetry_multiplicity
 _atom_site_fract_x
 _atom_site_fract_y
 _atom_site_fract_z
 _atom_site_occupancy
  Tb  Tb0  1  0.663951  0.342906  0.085073  1
  Y  Y1  1  0.679117  0.343426  0.585204  1
  Y  Y2  1  0.320963  0.656718  0.414891  1
  Y  Y3  1  0.335723  0.656704  0.914783  1
  S  S4  1  0.941276  0.999977  0.749971  1
  S  S5  1  0.058705  0.999945  0.249999  1
  O  O6  1  0.771351  0.508057  0.876984  1
  O  O7  1  0.228892  0.492344  0.123067  1
  O  O8  1  0.263318  0.492051  0.622995  1
  O  O9  1  0.736756  0.508073  0.377102  1
  O  O10  1  0.728640  0.997475  0.600139  1
  O  O11  1  0.271367  0.002553  0.399871  1
  O  O12  1  0.731159  0.002409  0.899824  1
  O  O13  1  0.268731  0.997327  0.100113  1
  O  O14  1  0.234420  0.188885  0.796158  1
  O  O15  1  0.765521  0.811110  0.203867  1
  O  O16  1  0.045675  0.811141  0.703837  1
  O  O17  1  0.954434  0.188901  0.296120  1
