# generated using pymatgen
data_Tb8GaCo19B8
_symmetry_space_group_name_H-M   'P 1'
_cell_length_a   5.10669400
_cell_length_b   5.10669336
_cell_length_c   19.99598600
_cell_angle_alpha   90.00000000
_cell_angle_beta   90.00000000
_cell_angle_gamma   120.00000411
_symmetry_Int_Tables_number   1
_chemical_formula_structural   Tb8GaCo19B8
_chemical_formula_sum   'Tb8 Ga1 Co19 B8'
_cell_volume   451.59908565
_cell_formula_units_Z   1
loop_
 _symmetry_equiv_pos_site_id
 _symmetry_equiv_pos_as_xyz
  1  'x, y, z'
loop_
 _atom_site_type_symbol
 _atom_site_label
 _atom_site_symmetry_multiplicity
 _atom_site_fract_x
 _atom_site_fract_y
 _atom_site_fract_z
 _atom_site_occupancy
  Tb  Tb0  1  0.666667  0.333333  0.823461  1
  Tb  Tb1  1  0.666667  0.333333  0.973486  1
  Tb  Tb2  1  0.333333  0.666667  0.478470  1
  Tb  Tb3  1  0.333333  0.666667  0.026514  1
  Tb  Tb4  1  0.333333  0.666667  0.176539  1
  Tb  Tb5  1  0.666667  0.333333  0.521530  1
  Tb  Tb6  1  0.666667  0.333333  0.674289  1
  Tb  Tb7  1  0.333333  0.666667  0.325711  1
  Ga  Ga8  1  0.000000  0.000000  0.000000  1
  Co  Co9  1  0.166203  0.332405  0.893989  1
  Co  Co10  1  0.162363  0.837637  0.605929  1
  Co  Co11  1  0.837637  0.162363  0.394071  1
  Co  Co12  1  0.334392  0.167196  0.249763  1
  Co  Co13  1  0.324725  0.162363  0.394071  1
  Co  Co14  1  0.833797  0.667595  0.106011  1
  Co  Co15  1  0.837637  0.675275  0.394071  1
  Co  Co16  1  0.832804  0.665608  0.249763  1
  Co  Co17  1  0.675275  0.837637  0.605929  1
  Co  Co18  1  0.665608  0.832804  0.750237  1
  Co  Co19  1  0.833797  0.166203  0.106011  1
  Co  Co20  1  0.667595  0.833797  0.893989  1
  Co  Co21  1  0.167196  0.334392  0.750237  1
  Co  Co22  1  0.167196  0.832804  0.750237  1
  Co  Co23  1  0.832804  0.167196  0.249763  1
  Co  Co24  1  0.332405  0.166203  0.106011  1
  Co  Co25  1  0.000000  0.000000  0.500000  1
  Co  Co26  1  0.166203  0.833797  0.893989  1
  Co  Co27  1  0.162363  0.324725  0.605929  1
  B  B28  1  0.333333  0.666667  0.824888  1
  B  B29  1  0.333333  0.666667  0.675201  1
  B  B30  1  0.666667  0.333333  0.324799  1
  B  B31  1  0.000000  0.000000  0.823588  1
  B  B32  1  0.666667  0.333333  0.175112  1
  B  B33  1  0.000000  0.000000  0.677483  1
  B  B34  1  0.000000  0.000000  0.322517  1
  B  B35  1  0.000000  0.000000  0.176412  1
