# generated using pymatgen
data_Ho5LuAl16(SiOs)8
_symmetry_space_group_name_H-M   'P 1'
_cell_length_a   8.68562063
_cell_length_b   8.68612988
_cell_length_c   9.41121600
_cell_angle_alpha   90.00000000
_cell_angle_beta   90.00000000
_cell_angle_gamma   120.13681379
_symmetry_Int_Tables_number   1
_chemical_formula_structural   Ho5LuAl16(SiOs)8
_chemical_formula_sum   'Ho5 Lu1 Al16 Si8 Os8'
_cell_volume   614.04919421
_cell_formula_units_Z   1
loop_
 _symmetry_equiv_pos_site_id
 _symmetry_equiv_pos_as_xyz
  1  'x, y, z'
loop_
 _atom_site_type_symbol
 _atom_site_label
 _atom_site_symmetry_multiplicity
 _atom_site_fract_x
 _atom_site_fract_y
 _atom_site_fract_z
 _atom_site_occupancy
  Ho  Ho0  1  0.808085  0.612677  0.750000  1
  Ho  Ho1  1  0.612570  0.807804  0.250000  1
  Ho  Ho2  1  0.387080  0.191754  0.750000  1
  Ho  Ho3  1  0.194613  0.805224  0.250000  1
  Ho  Ho4  1  0.805475  0.194505  0.750000  1
  Lu  Lu5  1  0.193618  0.390407  0.250000  1
  Al  Al6  1  0.165264  0.329140  0.577788  1
  Al  Al7  1  0.834700  0.670783  0.421146  1
  Al  Al8  1  0.670723  0.834611  0.578381  1
  Al  Al9  1  0.834700  0.670783  0.078854  1
  Al  Al10  1  0.328769  0.165303  0.420932  1
  Al  Al11  1  0.165264  0.329140  0.922212  1
  Al  Al12  1  0.164438  0.835491  0.577999  1
  Al  Al13  1  0.328769  0.165303  0.079068  1
  Al  Al14  1  0.835993  0.164584  0.421296  1
  Al  Al15  1  0.670723  0.834611  0.921619  1
  Al  Al16  1  0.835993  0.164584  0.078704  1
  Al  Al17  1  0.164438  0.835491  0.922001  1
  Al  Al18  1  0.564358  0.434763  0.250000  1
  Al  Al19  1  0.434801  0.564701  0.750000  1
  Al  Al20  1  0.001558  0.002055  0.250000  1
  Al  Al21  1  0.999556  0.000211  0.750000  1
  Si  Si22  1  0.334602  0.664320  0.041541  1
  Si  Si23  1  0.664821  0.334750  0.959355  1
  Si  Si24  1  0.664821  0.334750  0.540645  1
  Si  Si25  1  0.334602  0.664320  0.458459  1
  Si  Si26  1  0.563898  0.124395  0.250000  1
  Si  Si27  1  0.436067  0.875712  0.750000  1
  Si  Si28  1  0.876545  0.435805  0.250000  1
  Si  Si29  1  0.124131  0.563626  0.750000  1
  Os  Os30  1  0.499892  0.999743  0.000000  1
  Os  Os31  1  0.000246  0.499749  0.000568  1
  Os  Os32  1  0.499892  0.999743  0.500000  1
  Os  Os33  1  0.499497  0.499737  0.000468  1
  Os  Os34  1  0.000246  0.499749  0.499432  1
  Os  Os35  1  0.499497  0.499737  0.499532  1
  Os  Os36  1  0.999878  0.999970  0.000014  1
  Os  Os37  1  0.999878  0.999970  0.499986  1
