# generated using pymatgen
data_K3La(VS4)2
_symmetry_space_group_name_H-M   'P 1'
_cell_length_a   10.80748586
_cell_length_b   10.80748591
_cell_length_c   8.90275400
_cell_angle_alpha   76.97867250
_cell_angle_beta   103.02132757
_cell_angle_gamma   57.48028348
_symmetry_Int_Tables_number   1
_chemical_formula_structural   K3La(VS4)2
_chemical_formula_sum   'K6 La2 V4 S16'
_cell_volume   774.59369719
_cell_formula_units_Z   2
loop_
 _symmetry_equiv_pos_site_id
 _symmetry_equiv_pos_as_xyz
  1  'x, y, z'
loop_
 _atom_site_type_symbol
 _atom_site_label
 _atom_site_symmetry_multiplicity
 _atom_site_fract_x
 _atom_site_fract_y
 _atom_site_fract_z
 _atom_site_occupancy
  K  K0  1  0.740923  0.740924  0.749999  1
  K  K1  1  0.259077  0.259077  0.249999  1
  K  K2  1  0.500000  0.500000  0.000000  1
  K  K3  1  0.500000  0.500000  0.500000  1
  K  K4  1  0.004462  0.004463  0.249999  1
  K  K5  1  0.995537  0.995538  0.749999  1
  La  La6  1  0.758972  0.758973  0.249999  1
  La  La7  1  0.241027  0.241027  0.749999  1
  V  V8  1  0.903563  0.340526  0.392780  1
  V  V9  1  0.340526  0.903563  0.107220  1
  V  V10  1  0.659473  0.096437  0.892780  1
  V  V11  1  0.096437  0.659473  0.607220  1
  S  S12  1  0.530644  0.133095  0.052185  1
  S  S13  1  0.133095  0.530644  0.447815  1
  S  S14  1  0.469356  0.866905  0.947815  1
  S  S15  1  0.866905  0.469356  0.552185  1
  S  S16  1  0.873228  0.845026  0.015909  1
  S  S17  1  0.845026  0.873228  0.484091  1
  S  S18  1  0.126772  0.154974  0.984091  1
  S  S19  1  0.154974  0.126772  0.515909  1
  S  S20  1  0.268737  0.754157  0.129460  1
  S  S21  1  0.754157  0.268737  0.370540  1
  S  S22  1  0.731263  0.245843  0.870540  1
  S  S23  1  0.245843  0.731263  0.629460  1
  S  S24  1  0.855517  0.491545  0.147708  1
  S  S25  1  0.491545  0.855517  0.352292  1
  S  S26  1  0.144483  0.508455  0.852292  1
  S  S27  1  0.508454  0.144484  0.647707  1
