# generated using pymatgen
data_Tb3DyHo4(ReB6)4
_symmetry_space_group_name_H-M   'P 1'
_cell_length_a   3.68318600
_cell_length_b   9.17777700
_cell_length_c   11.57341800
_cell_angle_alpha   90.00026477
_cell_angle_beta   90.00000000
_cell_angle_gamma   90.00000000
_symmetry_Int_Tables_number   1
_chemical_formula_structural   Tb3DyHo4(ReB6)4
_chemical_formula_sum   'Tb3 Dy1 Ho4 Re4 B24'
_cell_volume   391.22156962
_cell_formula_units_Z   1
loop_
 _symmetry_equiv_pos_site_id
 _symmetry_equiv_pos_as_xyz
  1  'x, y, z'
loop_
 _atom_site_type_symbol
 _atom_site_label
 _atom_site_symmetry_multiplicity
 _atom_site_fract_x
 _atom_site_fract_y
 _atom_site_fract_z
 _atom_site_occupancy
  Tb  Tb0  1  0.000000  0.676412  0.586039  1
  Tb  Tb1  1  0.000000  0.823584  0.086086  1
  Tb  Tb2  1  0.000000  0.176466  0.913950  1
  Dy  Dy3  1  0.000000  0.323649  0.413972  1
  Ho  Ho4  1  0.000000  0.943234  0.369947  1
  Ho  Ho5  1  0.000000  0.056894  0.630003  1
  Ho  Ho6  1  0.000000  0.443116  0.130115  1
  Ho  Ho7  1  0.000000  0.556798  0.869921  1
  Re  Re8  1  0.000000  0.638642  0.320576  1
  Re  Re9  1  0.000000  0.361217  0.679305  1
  Re  Re10  1  0.000000  0.138866  0.179577  1
  Re  Re11  1  0.000000  0.861195  0.820531  1
  B  B12  1  0.500000  0.553447  0.432587  1
  B  B13  1  0.500000  0.446327  0.567293  1
  B  B14  1  0.500000  0.053661  0.067464  1
  B  B15  1  0.500000  0.946394  0.932571  1
  B  B16  1  0.500000  0.749483  0.418246  1
  B  B17  1  0.500000  0.250510  0.581553  1
  B  B18  1  0.500000  0.249514  0.081773  1
  B  B19  1  0.500000  0.750456  0.918279  1
  B  B20  1  0.500000  0.792160  0.265714  1
  B  B21  1  0.500000  0.207845  0.734273  1
  B  B22  1  0.500000  0.292238  0.234425  1
  B  B23  1  0.500000  0.707818  0.765686  1
  B  B24  1  0.500000  0.630746  0.185828  1
  B  B25  1  0.500000  0.369202  0.814190  1
  B  B26  1  0.500000  0.130912  0.314306  1
  B  B27  1  0.500000  0.869222  0.685762  1
  B  B28  1  0.500000  0.982724  0.212229  1
  B  B29  1  0.500000  0.017348  0.787773  1
  B  B30  1  0.500000  0.482496  0.287886  1
  B  B31  1  0.500000  0.517266  0.712191  1
  B  B32  1  0.500000  0.599310  0.027743  1
  B  B33  1  0.500000  0.400653  0.972277  1
  B  B34  1  0.500000  0.099538  0.472201  1
  B  B35  1  0.500000  0.900659  0.527728  1
