# generated using pymatgen
data_Tm3Zr(CrB4)4
_symmetry_space_group_name_H-M   'P 1'
_cell_length_a   3.38510800
_cell_length_b   5.88119154
_cell_length_c   11.36541791
_cell_angle_alpha   90.10655527
_cell_angle_beta   90.00000000
_cell_angle_gamma   90.00000000
_symmetry_Int_Tables_number   1
_chemical_formula_structural   Tm3Zr(CrB4)4
_chemical_formula_sum   'Tm3 Zr1 Cr4 B16'
_cell_volume   226.26767369
_cell_formula_units_Z   1
loop_
 _symmetry_equiv_pos_site_id
 _symmetry_equiv_pos_as_xyz
  1  'x, y, z'
loop_
 _atom_site_type_symbol
 _atom_site_label
 _atom_site_symmetry_multiplicity
 _atom_site_fract_x
 _atom_site_fract_y
 _atom_site_fract_z
 _atom_site_occupancy
  Tm  Tm0  1  0.000000  0.374635  0.650617  1
  Tm  Tm1  1  0.000000  0.124873  0.151032  1
  Tm  Tm2  1  0.000000  0.874721  0.849727  1
  Zr  Zr3  1  0.000000  0.624636  0.349138  1
  Cr  Cr4  1  0.000000  0.624849  0.083665  1
  Cr  Cr5  1  0.000000  0.375454  0.919302  1
  Cr  Cr6  1  0.000000  0.124495  0.416829  1
  Cr  Cr7  1  0.000000  0.873177  0.579250  1
  B  B8  1  0.500000  0.784023  0.186485  1
  B  B9  1  0.500000  0.216396  0.815451  1
  B  B10  1  0.500000  0.285784  0.314586  1
  B  B11  1  0.500000  0.716800  0.684533  1
  B  B12  1  0.500000  0.864235  0.033450  1
  B  B13  1  0.500000  0.135792  0.968070  1
  B  B14  1  0.500000  0.365688  0.466480  1
  B  B15  1  0.500000  0.634719  0.531472  1
  B  B16  1  0.500000  0.884328  0.451364  1
  B  B17  1  0.500000  0.114322  0.546335  1
  B  B18  1  0.500000  0.386358  0.047695  1
  B  B19  1  0.500000  0.614590  0.953631  1
  B  B20  1  0.500000  0.974522  0.306872  1
  B  B21  1  0.500000  0.024439  0.691783  1
  B  B22  1  0.500000  0.476107  0.194253  1
  B  B23  1  0.500000  0.525056  0.807983  1
