# generated using pymatgen
data_TmSi4(PdRh2)2
_symmetry_space_group_name_H-M   'P 1'
_cell_length_a   7.08530600
_cell_length_b   7.13548770
_cell_length_c   3.77193500
_cell_angle_alpha   90.00000000
_cell_angle_beta   90.00000000
_cell_angle_gamma   120.23456140
_symmetry_Int_Tables_number   1
_chemical_formula_structural   TmSi4(PdRh2)2
_chemical_formula_sum   'Tm1 Si4 Pd2 Rh4'
_cell_volume   164.75771044
_cell_formula_units_Z   1
loop_
 _symmetry_equiv_pos_site_id
 _symmetry_equiv_pos_as_xyz
  1  'x, y, z'
loop_
 _atom_site_type_symbol
 _atom_site_label
 _atom_site_symmetry_multiplicity
 _atom_site_fract_x
 _atom_site_fract_y
 _atom_site_fract_z
 _atom_site_occupancy
  Tm  Tm0  1  0.992246  0.996123  0.000000  1
  Si  Si1  1  0.343042  0.671521  0.000000  1
  Si  Si2  1  0.403766  0.201883  0.499999  1
  Si  Si3  1  0.796166  0.195826  0.499999  1
  Si  Si4  1  0.796166  0.600339  0.499999  1
  Pd  Pd5  1  0.195555  0.390775  0.499999  1
  Pd  Pd6  1  0.195555  0.804778  0.499999  1
  Rh  Rh7  1  0.533998  0.067937  0.000000  1
  Rh  Rh8  1  0.936247  0.468124  0.000000  1
  Rh  Rh9  1  0.533999  0.466060  0.000000  1
  Rh  Rh10  1  0.606593  0.803295  0.499999  1
