# generated using pymatgen
data_PrTh7(Si3Ir)4
_symmetry_space_group_name_H-M   'P 1'
_cell_length_a   8.24795500
_cell_length_b   8.24795563
_cell_length_c   8.47523800
_cell_angle_alpha   90.00000000
_cell_angle_beta   90.00000000
_cell_angle_gamma   120.00000148
_symmetry_Int_Tables_number   1
_chemical_formula_structural   PrTh7(Si3Ir)4
_chemical_formula_sum   'Pr1 Th7 Si12 Ir4'
_cell_volume   499.31559094
_cell_formula_units_Z   1
loop_
 _symmetry_equiv_pos_site_id
 _symmetry_equiv_pos_as_xyz
  1  'x, y, z'
loop_
 _atom_site_type_symbol
 _atom_site_label
 _atom_site_symmetry_multiplicity
 _atom_site_fract_x
 _atom_site_fract_y
 _atom_site_fract_z
 _atom_site_occupancy
  Pr  Pr0  1  0.000000  0.000000  0.250000  1
  Th  Th1  1  0.499780  0.500220  0.750000  1
  Th  Th2  1  0.500183  0.499817  0.250000  1
  Th  Th3  1  0.000438  0.500220  0.750000  1
  Th  Th4  1  0.999634  0.499817  0.250000  1
  Th  Th5  1  0.499780  0.999562  0.750000  1
  Th  Th6  1  0.500183  0.000366  0.250000  1
  Th  Th7  1  0.000000  0.000000  0.750000  1
  Si  Si8  1  0.833595  0.166405  0.998879  1
  Si  Si9  1  0.166429  0.833571  0.999037  1
  Si  Si10  1  0.332811  0.166405  0.998879  1
  Si  Si11  1  0.166429  0.833571  0.500963  1
  Si  Si12  1  0.667141  0.833571  0.999037  1
  Si  Si13  1  0.833595  0.166405  0.501121  1
  Si  Si14  1  0.833595  0.667189  0.998879  1
  Si  Si15  1  0.667141  0.833571  0.500963  1
  Si  Si16  1  0.166429  0.332859  0.999037  1
  Si  Si17  1  0.332811  0.166405  0.501121  1
  Si  Si18  1  0.166429  0.332859  0.500963  1
  Si  Si19  1  0.833595  0.667189  0.501121  1
  Ir  Ir20  1  0.666667  0.333333  0.000947  1
  Ir  Ir21  1  0.333333  0.666667  0.002738  1
  Ir  Ir22  1  0.333333  0.666667  0.497262  1
  Ir  Ir23  1  0.666667  0.333333  0.499053  1
