# generated using pymatgen
data_Y6Co14Re(P4Rh)3
_symmetry_space_group_name_H-M   'P 1'
_cell_length_a   3.73490300
_cell_length_b   10.67009400
_cell_length_c   12.40885800
_cell_angle_alpha   90.00000000
_cell_angle_beta   90.00000000
_cell_angle_gamma   90.00000000
_symmetry_Int_Tables_number   1
_chemical_formula_structural   Y6Co14Re(P4Rh)3
_chemical_formula_sum   'Y6 Co14 Re1 P12 Rh3'
_cell_volume   494.51490647
_cell_formula_units_Z   1
loop_
 _symmetry_equiv_pos_site_id
 _symmetry_equiv_pos_as_xyz
  1  'x, y, z'
loop_
 _atom_site_type_symbol
 _atom_site_label
 _atom_site_symmetry_multiplicity
 _atom_site_fract_x
 _atom_site_fract_y
 _atom_site_fract_z
 _atom_site_occupancy
  Y  Y0  1  0.000000  0.500000  0.519311  1
  Y  Y1  1  0.500000  0.000000  0.479885  1
  Y  Y2  1  0.500000  0.813815  0.205546  1
  Y  Y3  1  0.500000  0.186185  0.205546  1
  Y  Y4  1  0.000000  0.685365  0.795973  1
  Y  Y5  1  0.000000  0.314635  0.795973  1
  Co  Co6  1  0.000000  0.500000  0.990275  1
  Co  Co7  1  0.500000  0.000000  0.012008  1
  Co  Co8  1  0.500000  0.333502  0.993236  1
  Co  Co9  1  0.500000  0.666498  0.993236  1
  Co  Co10  1  0.000000  0.169539  0.007708  1
  Co  Co11  1  0.000000  0.830461  0.007708  1
  Co  Co12  1  0.500000  0.299157  0.429419  1
  Co  Co13  1  0.500000  0.700843  0.429419  1
  Co  Co14  1  0.000000  0.201232  0.569474  1
  Co  Co15  1  0.000000  0.798768  0.569474  1
  Co  Co16  1  0.500000  0.879919  0.709650  1
  Co  Co17  1  0.500000  0.120081  0.709650  1
  Co  Co18  1  0.000000  0.618585  0.289803  1
  Co  Co19  1  0.000000  0.381415  0.289803  1
  Re  Re20  1  0.500000  0.500000  0.157159  1
  P  P21  1  0.500000  0.500000  0.888657  1
  P  P22  1  0.000000  0.000000  0.109541  1
  P  P23  1  0.500000  0.500000  0.347662  1
  P  P24  1  0.000000  0.000000  0.650625  1
  P  P25  1  0.500000  0.302713  0.613616  1
  P  P26  1  0.500000  0.697287  0.613616  1
  P  P27  1  0.000000  0.197552  0.386117  1
  P  P28  1  0.000000  0.802448  0.386117  1
  P  P29  1  0.500000  0.845139  0.895028  1
  P  P30  1  0.500000  0.154861  0.895028  1
  P  P31  1  0.000000  0.654222  0.107239  1
  P  P32  1  0.000000  0.345778  0.107239  1
  Rh  Rh33  1  0.000000  0.000000  0.840285  1
  Rh  Rh34  1  0.500000  0.500000  0.702354  1
  Rh  Rh35  1  0.000000  0.000000  0.296617  1
