# generated using pymatgen
data_Zr10AgSnGeBi5
_symmetry_space_group_name_H-M   'P 1'
_cell_length_a   8.88374475
_cell_length_b   8.88374563
_cell_length_c   5.96526302
_cell_angle_alpha   89.92296400
_cell_angle_beta   89.92296098
_cell_angle_gamma   120.15897730
_symmetry_Int_Tables_number   1
_chemical_formula_structural   Zr10AgSnGeBi5
_chemical_formula_sum   'Zr10 Ag1 Sn1 Ge1 Bi5'
_cell_volume   407.05480337
_cell_formula_units_Z   1
loop_
 _symmetry_equiv_pos_site_id
 _symmetry_equiv_pos_as_xyz
  1  'x, y, z'
loop_
 _atom_site_type_symbol
 _atom_site_label
 _atom_site_symmetry_multiplicity
 _atom_site_fract_x
 _atom_site_fract_y
 _atom_site_fract_z
 _atom_site_occupancy
  Zr  Zr0  1  0.001394  0.268071  0.266379  1
  Zr  Zr1  1  0.727120  0.993240  0.734193  1
  Zr  Zr2  1  0.731507  0.731507  0.263798  1
  Zr  Zr3  1  0.665520  0.337253  0.502344  1
  Zr  Zr4  1  0.993240  0.727120  0.734193  1
  Zr  Zr5  1  0.273283  0.273283  0.735673  1
  Zr  Zr6  1  0.337139  0.665008  0.998183  1
  Zr  Zr7  1  0.665008  0.337139  0.998183  1
  Zr  Zr8  1  0.337253  0.665520  0.502344  1
  Zr  Zr9  1  0.268071  0.001394  0.266379  1
  Ag  Ag10  1  0.000084  0.000084  0.995878  1
  Sn  Sn11  1  0.614499  0.614499  0.754941  1
  Ge  Ge12  1  0.000293  0.000293  0.503251  1
  Bi  Bi13  1  0.612606  0.000147  0.243343  1
  Bi  Bi14  1  0.384949  0.000181  0.757340  1
  Bi  Bi15  1  0.387703  0.387703  0.242896  1
  Bi  Bi16  1  0.000147  0.612606  0.243343  1
  Bi  Bi17  1  0.000181  0.384949  0.757340  1
