# generated using pymatgen
data_Tb3YbB16
_symmetry_space_group_name_H-M   'P 1'
_cell_length_a   7.12217408
_cell_length_b   7.12217408
_cell_length_c   4.03429500
_cell_angle_alpha   90.00000000
_cell_angle_beta   90.00000000
_cell_angle_gamma   90.01763399
_symmetry_Int_Tables_number   1
_chemical_formula_structural   Tb3YbB16
_chemical_formula_sum   'Tb3 Yb1 B16'
_cell_volume   204.64107141
_cell_formula_units_Z   1
loop_
 _symmetry_equiv_pos_site_id
 _symmetry_equiv_pos_as_xyz
  1  'x, y, z'
loop_
 _atom_site_type_symbol
 _atom_site_label
 _atom_site_symmetry_multiplicity
 _atom_site_fract_x
 _atom_site_fract_y
 _atom_site_fract_z
 _atom_site_occupancy
  Tb  Tb0  1  0.817035  0.317257  0.000000  1
  Tb  Tb1  1  0.182743  0.682965  0.000000  1
  Tb  Tb2  1  0.318397  0.181603  0.000000  1
  Yb  Yb3  1  0.683067  0.816933  0.000000  1
  B  B4  1  0.500749  0.501889  0.796969  1
  B  B5  1  0.998111  0.999251  0.796969  1
  B  B6  1  0.500749  0.501889  0.203031  1
  B  B7  1  0.998111  0.999251  0.203031  1
  B  B8  1  0.913269  0.586731  0.500000  1
  B  B9  1  0.087186  0.412814  0.500000  1
  B  B10  1  0.412802  0.913311  0.500000  1
  B  B11  1  0.586689  0.087198  0.500000  1
  B  B12  1  0.675955  0.538459  0.500000  1
  B  B13  1  0.324894  0.461213  0.500000  1
  B  B14  1  0.176265  0.962038  0.500000  1
  B  B15  1  0.823553  0.037866  0.500000  1
  B  B16  1  0.462134  0.676447  0.500000  1
  B  B17  1  0.537962  0.323735  0.500000  1
  B  B18  1  0.038787  0.175106  0.500000  1
  B  B19  1  0.961541  0.824045  0.500000  1
