# generated using pymatgen
data_K(TaS2)2
_symmetry_space_group_name_H-M   'P 1'
_cell_length_a   3.40704922
_cell_length_b   5.81584621
_cell_length_c   16.17886800
_cell_angle_alpha   90.00000000
_cell_angle_beta   90.00000000
_cell_angle_gamma   90.00506046
_symmetry_Int_Tables_number   1
_chemical_formula_structural   K(TaS2)2
_chemical_formula_sum   'K2 Ta4 S8'
_cell_volume   320.58223450
_cell_formula_units_Z   2
loop_
 _symmetry_equiv_pos_site_id
 _symmetry_equiv_pos_as_xyz
  1  'x, y, z'
loop_
 _atom_site_type_symbol
 _atom_site_label
 _atom_site_symmetry_multiplicity
 _atom_site_fract_x
 _atom_site_fract_y
 _atom_site_fract_z
 _atom_site_occupancy
  K  K0  1  0.000000  0.000000  0.500000  1
  K  K1  1  0.500000  0.500000  0.000000  1
  Ta  Ta2  1  0.999991  0.999957  0.750343  1
  Ta  Ta3  1  0.499991  0.499957  0.749657  1
  Ta  Ta4  1  0.000009  0.000043  0.249657  1
  Ta  Ta5  1  0.500009  0.500043  0.250343  1
  S  S6  1  0.500018  0.165897  0.654350  1
  S  S7  1  0.000021  0.665340  0.654749  1
  S  S8  1  0.999979  0.334660  0.345251  1
  S  S9  1  0.499982  0.834103  0.345650  1
  S  S10  1  0.999982  0.334103  0.154350  1
  S  S11  1  0.499979  0.834660  0.154749  1
  S  S12  1  0.500021  0.165340  0.845251  1
  S  S13  1  0.000018  0.665897  0.845650  1
