# generated using pymatgen
data_U6P13(Ir3Rh)5
_symmetry_space_group_name_H-M   'P 1'
_cell_length_a   13.40639970
_cell_length_b   13.38207881
_cell_length_c   3.89970661
_cell_angle_alpha   89.94277079
_cell_angle_beta   90.00374833
_cell_angle_gamma   119.96413648
_symmetry_Int_Tables_number   1
_chemical_formula_structural   U6P13(Ir3Rh)5
_chemical_formula_sum   'U6 P13 Ir15 Rh5'
_cell_volume   606.11478260
_cell_formula_units_Z   1
loop_
 _symmetry_equiv_pos_site_id
 _symmetry_equiv_pos_as_xyz
  1  'x, y, z'
loop_
 _atom_site_type_symbol
 _atom_site_label
 _atom_site_symmetry_multiplicity
 _atom_site_fract_x
 _atom_site_fract_y
 _atom_site_fract_z
 _atom_site_occupancy
  U  U0  1  0.525678  0.717399  0.248505  1
  U  U1  1  0.282178  0.808410  0.249603  1
  U  U2  1  0.191354  0.473796  0.249397  1
  U  U3  1  0.475284  0.284462  0.748412  1
  U  U4  1  0.715456  0.190503  0.748313  1
  U  U5  1  0.809317  0.524854  0.748679  1
  P  P6  1  0.525466  0.138511  0.248075  1
  P  P7  1  0.861402  0.387162  0.249659  1
  P  P8  1  0.612957  0.474141  0.248866  1
  P  P9  1  0.943937  0.710680  0.252190  1
  P  P10  1  0.289975  0.233518  0.253010  1
  P  P11  1  0.766643  0.057248  0.250702  1
  P  P12  1  0.387922  0.526488  0.749080  1
  P  P13  1  0.472794  0.861213  0.748998  1
  P  P14  1  0.138002  0.611772  0.749048  1
  P  P15  1  0.714877  0.769888  0.741746  1
  P  P16  1  0.228598  0.943090  0.744633  1
  P  P17  1  0.056358  0.284926  0.744970  1
  P  P18  1  0.000911  0.000500  0.052178  1
  Ir  Ir19  1  0.332804  0.666569  0.752004  1
  Ir  Ir20  1  0.921391  0.247780  0.247740  1
  Ir  Ir21  1  0.752680  0.672840  0.246904  1
  Ir  Ir22  1  0.327069  0.079419  0.247201  1
  Ir  Ir23  1  0.436547  0.022240  0.748349  1
  Ir  Ir24  1  0.977632  0.414170  0.749395  1
  Ir  Ir25  1  0.585416  0.563587  0.748731  1
  Ir  Ir26  1  0.666643  0.332988  0.248005  1
  Ir  Ir27  1  0.098128  0.190450  0.257860  1
  Ir  Ir28  1  0.810217  0.908751  0.251681  1
  Ir  Ir29  1  0.093385  0.902838  0.255440  1
  Ir  Ir30  1  0.024370  0.582312  0.248704  1
  Ir  Ir31  1  0.417647  0.441624  0.249304  1
  Ir  Ir32  1  0.558269  0.975742  0.248124  1
  Ir  Ir33  1  0.673382  0.925050  0.748955  1
  Rh  Rh34  1  0.071886  0.746580  0.749819  1
  Rh  Rh35  1  0.253142  0.326273  0.751724  1
  Rh  Rh36  1  0.907088  0.821183  0.741091  1
  Rh  Rh37  1  0.181898  0.088594  0.742561  1
  Rh  Rh38  1  0.911298  0.092450  0.740347  1
