# generated using pymatgen
data_Dy13Y2ThCd3InPt4
_symmetry_space_group_name_H-M   'P 1'
_cell_length_a   9.71317264
_cell_length_b   9.71317362
_cell_length_c   9.71476100
_cell_angle_alpha   60.20217772
_cell_angle_beta   60.20218803
_cell_angle_gamma   60.20380062
_symmetry_Int_Tables_number   1
_chemical_formula_structural   Dy13Y2ThCd3InPt4
_chemical_formula_sum   'Dy13 Y2 Th1 Cd3 In1 Pt4'
_cell_volume   651.07102171
_cell_formula_units_Z   1
loop_
 _symmetry_equiv_pos_site_id
 _symmetry_equiv_pos_as_xyz
  1  'x, y, z'
loop_
 _atom_site_type_symbol
 _atom_site_label
 _atom_site_symmetry_multiplicity
 _atom_site_fract_x
 _atom_site_fract_y
 _atom_site_fract_z
 _atom_site_occupancy
  Dy  Dy0  1  0.353470  0.353470  0.939452  1
  Dy  Dy1  1  0.353505  0.939611  0.353468  1
  Dy  Dy2  1  0.939611  0.353505  0.353468  1
  Dy  Dy3  1  0.812591  0.188817  0.188690  1
  Dy  Dy4  1  0.190876  0.810448  0.810432  1
  Dy  Dy5  1  0.188817  0.812591  0.188690  1
  Dy  Dy6  1  0.810448  0.190876  0.810432  1
  Dy  Dy7  1  0.188701  0.188701  0.812647  1
  Dy  Dy8  1  0.810506  0.810506  0.190905  1
  Dy  Dy9  1  0.936460  0.566048  0.566124  1
  Dy  Dy10  1  0.564312  0.936870  0.936862  1
  Dy  Dy11  1  0.566048  0.936460  0.566124  1
  Dy  Dy12  1  0.936870  0.564312  0.936862  1
  Y  Y13  1  0.566348  0.566348  0.936118  1
  Y  Y14  1  0.936220  0.936220  0.564790  1
  Th  Th15  1  0.349255  0.349255  0.349653  1
  Cd  Cd16  1  0.582650  0.582650  0.252288  1
  Cd  Cd17  1  0.582578  0.252411  0.582511  1
  Cd  Cd18  1  0.252411  0.582578  0.582511  1
  In  In19  1  0.582033  0.582033  0.582003  1
  Pt  Pt20  1  0.144006  0.144006  0.143942  1
  Pt  Pt21  1  0.141041  0.141041  0.570191  1
  Pt  Pt22  1  0.141107  0.570134  0.140917  1
  Pt  Pt23  1  0.570134  0.141107  0.140917  1
