# generated using pymatgen
data_Ac2Yb(HoSn2)2
_symmetry_space_group_name_H-M   'P 1'
_cell_length_a   8.22921000
_cell_length_b   8.55389800
_cell_length_c   16.07792500
_cell_angle_alpha   90.00000000
_cell_angle_beta   90.00000000
_cell_angle_gamma   90.00000000
_symmetry_Int_Tables_number   1
_chemical_formula_structural   Ac2Yb(HoSn2)2
_chemical_formula_sum   'Ac8 Yb4 Ho8 Sn16'
_cell_volume   1131.75445017
_cell_formula_units_Z   4
loop_
 _symmetry_equiv_pos_site_id
 _symmetry_equiv_pos_as_xyz
  1  'x, y, z'
loop_
 _atom_site_type_symbol
 _atom_site_label
 _atom_site_symmetry_multiplicity
 _atom_site_fract_x
 _atom_site_fract_y
 _atom_site_fract_z
 _atom_site_occupancy
  Ac  Ac0  1  0.503048  0.677656  0.596046  1
  Ac  Ac1  1  0.003048  0.822344  0.903954  1
  Ac  Ac2  1  0.496952  0.322344  0.096046  1
  Ac  Ac3  1  0.996952  0.177656  0.403954  1
  Ac  Ac4  1  0.496952  0.322344  0.403954  1
  Ac  Ac5  1  0.996952  0.177656  0.096046  1
  Ac  Ac6  1  0.503048  0.677656  0.903954  1
  Ac  Ac7  1  0.003048  0.822344  0.596046  1
  Yb  Yb8  1  0.827381  0.501454  0.750000  1
  Yb  Yb9  1  0.327381  0.998546  0.750000  1
  Yb  Yb10  1  0.172619  0.498546  0.250000  1
  Yb  Yb11  1  0.672619  0.001454  0.250000  1
  Ho  Ho12  1  0.664010  0.169703  0.624677  1
  Ho  Ho13  1  0.164010  0.330297  0.875323  1
  Ho  Ho14  1  0.335990  0.830297  0.124677  1
  Ho  Ho15  1  0.835990  0.669703  0.375323  1
  Ho  Ho16  1  0.335990  0.830297  0.375323  1
  Ho  Ho17  1  0.835990  0.669703  0.124677  1
  Ho  Ho18  1  0.664010  0.169703  0.875323  1
  Ho  Ho19  1  0.164010  0.330297  0.624677  1
  Sn  Sn20  1  0.671312  0.958655  0.460837  1
  Sn  Sn21  1  0.171312  0.541345  0.039163  1
  Sn  Sn22  1  0.328688  0.041345  0.960837  1
  Sn  Sn23  1  0.828688  0.458655  0.539163  1
  Sn  Sn24  1  0.328688  0.041345  0.539163  1
  Sn  Sn25  1  0.828688  0.458655  0.960837  1
  Sn  Sn26  1  0.671312  0.958655  0.039163  1
  Sn  Sn27  1  0.171312  0.541345  0.460837  1
  Sn  Sn28  1  0.464136  0.371550  0.750000  1
  Sn  Sn29  1  0.964136  0.128450  0.750000  1
  Sn  Sn30  1  0.535864  0.628450  0.250000  1
  Sn  Sn31  1  0.035864  0.871550  0.250000  1
  Sn  Sn32  1  0.702021  0.874921  0.750000  1
  Sn  Sn33  1  0.202021  0.625079  0.750000  1
  Sn  Sn34  1  0.297979  0.125079  0.250000  1
  Sn  Sn35  1  0.797979  0.374921  0.250000  1
