# generated using pymatgen
data_TbHo7(Sc3Pt4)4
_symmetry_space_group_name_H-M   'P 1'
_cell_length_a   7.24298702
_cell_length_b   7.29084401
_cell_length_c   14.19603501
_cell_angle_alpha   90.00147718
_cell_angle_beta   90.00414704
_cell_angle_gamma   90.00685943
_symmetry_Int_Tables_number   1
_chemical_formula_structural   TbHo7(Sc3Pt4)4
_chemical_formula_sum   'Tb1 Ho7 Sc12 Pt16'
_cell_volume   749.65694853
_cell_formula_units_Z   1
loop_
 _symmetry_equiv_pos_site_id
 _symmetry_equiv_pos_as_xyz
  1  'x, y, z'
loop_
 _atom_site_type_symbol
 _atom_site_label
 _atom_site_symmetry_multiplicity
 _atom_site_fract_x
 _atom_site_fract_y
 _atom_site_fract_z
 _atom_site_occupancy
  Tb  Tb0  1  0.496735  0.677001  0.592464  1
  Ho  Ho1  1  0.997028  0.822798  0.907479  1
  Ho  Ho2  1  0.502978  0.322771  0.092556  1
  Ho  Ho3  1  0.003020  0.177225  0.407441  1
  Ho  Ho4  1  0.502987  0.322561  0.407341  1
  Ho  Ho5  1  0.003014  0.177277  0.092535  1
  Ho  Ho6  1  0.497067  0.677221  0.907459  1
  Ho  Ho7  1  0.996970  0.822869  0.592577  1
  Sc  Sc8  1  0.655627  0.168066  0.624462  1
  Sc  Sc9  1  0.155521  0.331893  0.875599  1
  Sc  Sc10  1  0.344432  0.831944  0.124408  1
  Sc  Sc11  1  0.844544  0.668080  0.375528  1
  Sc  Sc12  1  0.344266  0.832070  0.375409  1
  Sc  Sc13  1  0.844451  0.668020  0.124431  1
  Sc  Sc14  1  0.655595  0.167992  0.875584  1
  Sc  Sc15  1  0.155265  0.331725  0.624490  1
  Sc  Sc16  1  0.821479  0.503665  0.750104  1
  Sc  Sc17  1  0.321161  0.996322  0.750097  1
  Sc  Sc18  1  0.178746  0.496210  0.249985  1
  Sc  Sc19  1  0.678728  0.003780  0.249992  1
  Pt  Pt20  1  0.680972  0.959893  0.458740  1
  Pt  Pt21  1  0.180813  0.540484  0.041123  1
  Pt  Pt22  1  0.319163  0.040542  0.958882  1
  Pt  Pt23  1  0.819839  0.459035  0.541004  1
  Pt  Pt24  1  0.319021  0.041129  0.540986  1
  Pt  Pt25  1  0.819154  0.459519  0.958863  1
  Pt  Pt26  1  0.680797  0.959508  0.041099  1
  Pt  Pt27  1  0.180567  0.540303  0.458684  1
  Pt  Pt28  1  0.457714  0.380088  0.750181  1
  Pt  Pt29  1  0.957844  0.119686  0.749997  1
  Pt  Pt30  1  0.542187  0.619599  0.250001  1
  Pt  Pt31  1  0.042191  0.880405  0.249998  1
  Pt  Pt32  1  0.683948  0.856069  0.750332  1
  Pt  Pt33  1  0.183263  0.644264  0.750164  1
  Pt  Pt34  1  0.316445  0.144290  0.249995  1
  Pt  Pt35  1  0.816471  0.355694  0.250009  1
