# generated using pymatgen
data_Y3Ho2Bi2Pt
_symmetry_space_group_name_H-M   'P 1'
_cell_length_a   8.08391100
_cell_length_b   9.00848600
_cell_length_c   12.48145100
_cell_angle_alpha   90.00000000
_cell_angle_beta   90.00000000
_cell_angle_gamma   90.00000000
_symmetry_Int_Tables_number   1
_chemical_formula_structural   Y3Ho2Bi2Pt
_chemical_formula_sum   'Y12 Ho8 Bi8 Pt4'
_cell_volume   908.94667971
_cell_formula_units_Z   4
loop_
 _symmetry_equiv_pos_site_id
 _symmetry_equiv_pos_as_xyz
  1  'x, y, z'
loop_
 _atom_site_type_symbol
 _atom_site_label
 _atom_site_symmetry_multiplicity
 _atom_site_fract_x
 _atom_site_fract_y
 _atom_site_fract_z
 _atom_site_occupancy
  Y  Y0  1  0.340524  0.750000  0.709977  1
  Y  Y1  1  0.659476  0.250000  0.290023  1
  Y  Y2  1  0.840524  0.250000  0.790023  1
  Y  Y3  1  0.159476  0.750000  0.209977  1
  Y  Y4  1  0.871868  0.750000  0.801472  1
  Y  Y5  1  0.128132  0.250000  0.198528  1
  Y  Y6  1  0.371868  0.250000  0.698528  1
  Y  Y7  1  0.628132  0.750000  0.301472  1
  Y  Y8  1  0.048963  0.750000  0.500711  1
  Y  Y9  1  0.951037  0.250000  0.499289  1
  Y  Y10  1  0.548963  0.250000  0.999289  1
  Y  Y11  1  0.451037  0.750000  0.000711  1
  Ho  Ho12  1  0.677933  0.544549  0.566512  1
  Ho  Ho13  1  0.322067  0.455451  0.433488  1
  Ho  Ho14  1  0.177933  0.455451  0.933488  1
  Ho  Ho15  1  0.322067  0.044549  0.433488  1
  Ho  Ho16  1  0.822067  0.544549  0.066512  1
  Ho  Ho17  1  0.677933  0.955451  0.566512  1
  Ho  Ho18  1  0.822067  0.955451  0.066512  1
  Ho  Ho19  1  0.177933  0.044549  0.933488  1
  Bi  Bi20  1  0.569927  0.509178  0.827564  1
  Bi  Bi21  1  0.430073  0.490822  0.172436  1
  Bi  Bi22  1  0.069927  0.490822  0.672436  1
  Bi  Bi23  1  0.430073  0.009178  0.172436  1
  Bi  Bi24  1  0.930073  0.509178  0.327564  1
  Bi  Bi25  1  0.569927  0.990822  0.827564  1
  Bi  Bi26  1  0.930073  0.990822  0.327564  1
  Bi  Bi27  1  0.069927  0.009178  0.672436  1
  Pt  Pt28  1  0.071689  0.750000  0.989214  1
  Pt  Pt29  1  0.928311  0.250000  0.010786  1
  Pt  Pt30  1  0.571689  0.250000  0.510786  1
  Pt  Pt31  1  0.428311  0.750000  0.489214  1
