# generated using pymatgen
data_Nd12Si8Ir11Rh
_symmetry_space_group_name_H-M   'P 1'
_cell_length_a   5.71061032
_cell_length_b   7.76414177
_cell_length_c   15.04467191
_cell_angle_alpha   89.96298615
_cell_angle_beta   90.01471020
_cell_angle_gamma   89.96457905
_symmetry_Int_Tables_number   1
_chemical_formula_structural   Nd12Si8Ir11Rh
_chemical_formula_sum   'Nd12 Si8 Ir11 Rh1'
_cell_volume   667.05019614
_cell_formula_units_Z   1
loop_
 _symmetry_equiv_pos_site_id
 _symmetry_equiv_pos_as_xyz
  1  'x, y, z'
loop_
 _atom_site_type_symbol
 _atom_site_label
 _atom_site_symmetry_multiplicity
 _atom_site_fract_x
 _atom_site_fract_y
 _atom_site_fract_z
 _atom_site_occupancy
  Nd  Nd0  1  0.134313  0.472964  0.890402  1
  Nd  Nd1  1  0.364814  0.974922  0.891034  1
  Nd  Nd2  1  0.599484  0.329976  0.749847  1
  Nd  Nd3  1  0.400839  0.670216  0.250123  1
  Nd  Nd4  1  0.634106  0.025386  0.390743  1
  Nd  Nd5  1  0.865504  0.525833  0.109358  1
  Nd  Nd6  1  0.865412  0.526110  0.390751  1
  Nd  Nd7  1  0.365426  0.974623  0.608919  1
  Nd  Nd8  1  0.900905  0.829365  0.749718  1
  Nd  Nd9  1  0.133959  0.473959  0.609062  1
  Nd  Nd10  1  0.635628  0.025812  0.109128  1
  Nd  Nd11  1  0.099650  0.170751  0.250267  1
  Si  Si12  1  0.373995  0.372365  0.098608  1
  Si  Si13  1  0.624976  0.627700  0.900696  1
  Si  Si14  1  0.873405  0.126649  0.901231  1
  Si  Si15  1  0.374906  0.372581  0.401306  1
  Si  Si16  1  0.874628  0.127365  0.598714  1
  Si  Si17  1  0.625241  0.627495  0.599105  1
  Si  Si18  1  0.125621  0.872781  0.401034  1
  Si  Si19  1  0.128407  0.873167  0.099192  1
  Ir  Ir20  1  0.605829  0.337077  0.960616  1
  Ir  Ir21  1  0.394914  0.663119  0.039093  1
  Ir  Ir22  1  0.572546  0.321765  0.249854  1
  Ir  Ir23  1  0.394919  0.663183  0.460614  1
  Ir  Ir24  1  0.072696  0.177720  0.750022  1
  Ir  Ir25  1  0.104795  0.163631  0.460319  1
  Ir  Ir26  1  0.426069  0.678821  0.750336  1
  Ir  Ir27  1  0.928262  0.821717  0.249695  1
  Ir  Ir28  1  0.104056  0.162564  0.039330  1
  Ir  Ir29  1  0.605611  0.336916  0.539399  1
  Ir  Ir30  1  0.894781  0.836652  0.539460  1
  Rh  Rh31  1  0.894304  0.836815  0.962023  1
