# generated using pymatgen
data_ScZn3AgPd
_symmetry_space_group_name_H-M   'P 1'
_cell_length_a   5.14477591
_cell_length_b   5.14477650
_cell_length_c   5.14477700
_cell_angle_alpha   60.85502184
_cell_angle_beta   60.85500543
_cell_angle_gamma   60.85501924
_symmetry_Int_Tables_number   1
_chemical_formula_structural   ScZn3AgPd
_chemical_formula_sum   'Sc1 Zn3 Ag1 Pd1'
_cell_volume   98.14702794
_cell_formula_units_Z   1
loop_
 _symmetry_equiv_pos_site_id
 _symmetry_equiv_pos_as_xyz
  1  'x, y, z'
loop_
 _atom_site_type_symbol
 _atom_site_label
 _atom_site_symmetry_multiplicity
 _atom_site_fract_x
 _atom_site_fract_y
 _atom_site_fract_z
 _atom_site_occupancy
  Sc  Sc0  1  0.997348  0.997348  0.997348  1
  Zn  Zn1  1  0.623743  0.623743  0.128478  1
  Zn  Zn2  1  0.623743  0.128478  0.623743  1
  Zn  Zn3  1  0.128478  0.623743  0.623743  1
  Ag  Ag4  1  0.250285  0.250285  0.250285  1
  Pd  Pd5  1  0.626402  0.626402  0.626402  1
