# generated using pymatgen
data_Th6CoAs12Rh17
_symmetry_space_group_name_H-M   'P 1'
_cell_length_a   4.03321200
_cell_length_b   11.60357800
_cell_length_c   13.43013600
_cell_angle_alpha   90.00000000
_cell_angle_beta   90.00000000
_cell_angle_gamma   90.00000000
_symmetry_Int_Tables_number   1
_chemical_formula_structural   Th6CoAs12Rh17
_chemical_formula_sum   'Th6 Co1 As12 Rh17'
_cell_volume   628.52620189
_cell_formula_units_Z   1
loop_
 _symmetry_equiv_pos_site_id
 _symmetry_equiv_pos_as_xyz
  1  'x, y, z'
loop_
 _atom_site_type_symbol
 _atom_site_label
 _atom_site_symmetry_multiplicity
 _atom_site_fract_x
 _atom_site_fract_y
 _atom_site_fract_z
 _atom_site_occupancy
  Th  Th0  1  0.000000  0.500000  0.521985  1
  Th  Th1  1  0.500000  0.000000  0.476920  1
  Th  Th2  1  0.500000  0.817333  0.204564  1
  Th  Th3  1  0.500000  0.182667  0.204564  1
  Th  Th4  1  0.000000  0.689885  0.795788  1
  Th  Th5  1  0.000000  0.310115  0.795788  1
  Co  Co6  1  0.500000  0.000000  0.024607  1
  As  As7  1  0.500000  0.500000  0.878048  1
  As  As8  1  0.000000  0.000000  0.119060  1
  As  As9  1  0.500000  0.500000  0.345102  1
  As  As10  1  0.000000  0.000000  0.652271  1
  As  As11  1  0.500000  0.314971  0.616129  1
  As  As12  1  0.500000  0.685029  0.616129  1
  As  As13  1  0.000000  0.185453  0.383889  1
  As  As14  1  0.000000  0.814547  0.383889  1
  As  As15  1  0.500000  0.859918  0.896229  1
  As  As16  1  0.500000  0.140082  0.896229  1
  As  As17  1  0.000000  0.650343  0.107479  1
  As  As18  1  0.000000  0.349657  0.107479  1
  Rh  Rh19  1  0.500000  0.500000  0.161136  1
  Rh  Rh20  1  0.000000  0.000000  0.835086  1
  Rh  Rh21  1  0.500000  0.500000  0.700990  1
  Rh  Rh22  1  0.000000  0.000000  0.298506  1
  Rh  Rh23  1  0.000000  0.500000  0.979030  1
  Rh  Rh24  1  0.500000  0.331856  0.993652  1
  Rh  Rh25  1  0.500000  0.668144  0.993652  1
  Rh  Rh26  1  0.000000  0.163201  0.004840  1
  Rh  Rh27  1  0.000000  0.836799  0.004840  1
  Rh  Rh28  1  0.500000  0.302462  0.431991  1
  Rh  Rh29  1  0.500000  0.697538  0.431991  1
  Rh  Rh30  1  0.000000  0.197202  0.567995  1
  Rh  Rh31  1  0.000000  0.802798  0.567995  1
  Rh  Rh32  1  0.500000  0.872219  0.711062  1
  Rh  Rh33  1  0.500000  0.127781  0.711062  1
  Rh  Rh34  1  0.000000  0.627543  0.290014  1
  Rh  Rh35  1  0.000000  0.372457  0.290014  1
