# generated using pymatgen
data_Eu3Ni6B2Pt
_symmetry_space_group_name_H-M   'P 1'
_cell_length_a   7.91045928
_cell_length_b   7.91045974
_cell_length_c   7.91045977
_cell_angle_alpha   38.66534310
_cell_angle_beta   38.66533500
_cell_angle_gamma   38.66534359
_symmetry_Int_Tables_number   1
_chemical_formula_structural   Eu3Ni6B2Pt
_chemical_formula_sum   'Eu3 Ni6 B2 Pt1'
_cell_volume   173.65447541
_cell_formula_units_Z   1
loop_
 _symmetry_equiv_pos_site_id
 _symmetry_equiv_pos_as_xyz
  1  'x, y, z'
loop_
 _atom_site_type_symbol
 _atom_site_label
 _atom_site_symmetry_multiplicity
 _atom_site_fract_x
 _atom_site_fract_y
 _atom_site_fract_z
 _atom_site_occupancy
  Eu  Eu0  1  0.855735  0.855735  0.855735  1
  Eu  Eu1  1  0.144265  0.144265  0.144265  1
  Eu  Eu2  1  0.000000  0.000000  0.000000  1
  Ni  Ni3  1  0.440551  0.931503  0.440551  1
  Ni  Ni4  1  0.440551  0.440551  0.931503  1
  Ni  Ni5  1  0.931503  0.440551  0.440551  1
  Ni  Ni6  1  0.559449  0.068497  0.559449  1
  Ni  Ni7  1  0.559449  0.559449  0.068497  1
  Ni  Ni8  1  0.068497  0.559449  0.559449  1
  B  B9  1  0.669200  0.669200  0.669200  1
  B  B10  1  0.330800  0.330800  0.330800  1
  Pt  Pt11  1  0.500000  0.500000  0.500000  1
