# generated using pymatgen
data_La6HfSc(Bi2Sb3)2
_symmetry_space_group_name_H-M   'P 1'
_cell_length_a   9.69675100
_cell_length_b   9.69675014
_cell_length_c   6.58391500
_cell_angle_alpha   90.00000000
_cell_angle_beta   90.00000000
_cell_angle_gamma   119.99999951
_symmetry_Int_Tables_number   1
_chemical_formula_structural   La6HfSc(Bi2Sb3)2
_chemical_formula_sum   'La6 Hf1 Sc1 Bi4 Sb6'
_cell_volume   536.12652939
_cell_formula_units_Z   1
loop_
 _symmetry_equiv_pos_site_id
 _symmetry_equiv_pos_as_xyz
  1  'x, y, z'
loop_
 _atom_site_type_symbol
 _atom_site_label
 _atom_site_symmetry_multiplicity
 _atom_site_fract_x
 _atom_site_fract_y
 _atom_site_fract_z
 _atom_site_occupancy
  La  La0  1  0.621572  0.000000  0.250161  1
  La  La1  1  0.621572  0.621572  0.749839  1
  La  La2  1  0.378428  0.000000  0.749839  1
  La  La3  1  0.378428  0.378428  0.250161  1
  La  La4  1  0.000000  0.621572  0.250161  1
  La  La5  1  0.000000  0.378428  0.749839  1
  Hf  Hf6  1  0.000000  0.000000  0.500000  1
  Sc  Sc7  1  0.000000  0.000000  0.000000  1
  Bi  Bi8  1  0.333333  0.666667  0.500000  1
  Bi  Bi9  1  0.666667  0.333333  0.000000  1
  Bi  Bi10  1  0.666667  0.333333  0.500000  1
  Bi  Bi11  1  0.333333  0.666667  0.000000  1
  Sb  Sb12  1  0.744138  0.000000  0.748472  1
  Sb  Sb13  1  0.744138  0.744138  0.251528  1
  Sb  Sb14  1  0.000000  0.255862  0.251528  1
  Sb  Sb15  1  0.000000  0.744138  0.748472  1
  Sb  Sb16  1  0.255862  0.000000  0.251528  1
  Sb  Sb17  1  0.255862  0.255862  0.748472  1
