# generated using pymatgen
data_La4YbSi3H
_symmetry_space_group_name_H-M   'P 1'
_cell_length_a   9.04695173
_cell_length_b   9.04695215
_cell_length_c   9.04695533
_cell_angle_alpha   128.08340411
_cell_angle_beta   128.08340469
_cell_angle_gamma   76.48986577
_symmetry_Int_Tables_number   1
_chemical_formula_structural   La4YbSi3H
_chemical_formula_sum   'La8 Yb2 Si6 H2'
_cell_volume   445.68577608
_cell_formula_units_Z   2
loop_
 _symmetry_equiv_pos_site_id
 _symmetry_equiv_pos_as_xyz
  1  'x, y, z'
loop_
 _atom_site_type_symbol
 _atom_site_label
 _atom_site_symmetry_multiplicity
 _atom_site_fract_x
 _atom_site_fract_y
 _atom_site_fract_z
 _atom_site_occupancy
  La  La0  1  0.525977  0.025977  0.847914  1
  La  La1  1  0.178056  0.678056  0.152090  1
  La  La2  1  0.025985  0.178060  0.499998  1
  La  La3  1  0.678060  0.525985  0.499998  1
  La  La4  1  0.474023  0.974023  0.152086  1
  La  La5  1  0.821944  0.321944  0.847910  1
  La  La6  1  0.974015  0.821940  0.500002  1
  La  La7  1  0.321940  0.474015  0.500002  1
  Yb  Yb8  1  0.500000  0.500000  0.000000  1
  Yb  Yb9  1  0.000000  0.000000  0.000000  1
  Si  Si10  1  0.250001  0.249999  0.000000  1
  Si  Si11  1  0.749999  0.750001  0.000000  1
  Si  Si12  1  0.887164  0.387164  0.274330  1
  Si  Si13  1  0.112836  0.612836  0.725670  1
  Si  Si14  1  0.387164  0.112836  0.500000  1
  Si  Si15  1  0.612836  0.887164  0.500000  1
  H  H16  1  0.250000  0.750000  0.500000  1
  H  H17  1  0.750000  0.250000  0.500000  1
