# generated using pymatgen
data_YSb(AuCl6)2
_symmetry_space_group_name_H-M   'P 1'
_cell_length_a   8.13261607
_cell_length_b   10.01425470
_cell_length_c   14.08729172
_cell_angle_alpha   102.86542363
_cell_angle_beta   97.53615885
_cell_angle_gamma   112.99556839
_symmetry_Int_Tables_number   1
_chemical_formula_structural   YSb(AuCl6)2
_chemical_formula_sum   'Y2 Sb2 Au4 Cl24'
_cell_volume   998.73580786
_cell_formula_units_Z   2
loop_
 _symmetry_equiv_pos_site_id
 _symmetry_equiv_pos_as_xyz
  1  'x, y, z'
loop_
 _atom_site_type_symbol
 _atom_site_label
 _atom_site_symmetry_multiplicity
 _atom_site_fract_x
 _atom_site_fract_y
 _atom_site_fract_z
 _atom_site_occupancy
  Y  Y0  1  0.974470  0.319674  0.873454  1
  Y  Y1  1  0.025530  0.680326  0.126546  1
  Sb  Sb2  1  0.603946  0.941442  0.623723  1
  Sb  Sb3  1  0.396054  0.058558  0.376277  1
  Au  Au4  1  0.286070  0.631652  0.765924  1
  Au  Au5  1  0.713930  0.368348  0.234076  1
  Au  Au6  1  0.500000  0.500000  0.500000  1
  Au  Au7  1  0.000000  0.000000  0.000000  1
  Cl  Cl8  1  0.590577  0.725671  0.757942  1
  Cl  Cl9  1  0.409423  0.274329  0.242058  1
  Cl  Cl10  1  0.271539  0.844777  0.737390  1
  Cl  Cl11  1  0.728461  0.155223  0.262610  1
  Cl  Cl12  1  0.978769  0.532675  0.773974  1
  Cl  Cl13  1  0.021231  0.467325  0.226026  1
  Cl  Cl14  1  0.292228  0.411542  0.793634  1
  Cl  Cl15  1  0.707772  0.588458  0.206366  1
  Cl  Cl16  1  0.693072  0.381423  0.507132  1
  Cl  Cl17  1  0.306928  0.618577  0.492868  1
  Cl  Cl18  1  0.752066  0.732526  0.532652  1
  Cl  Cl19  1  0.247934  0.267474  0.467348  1
  Cl  Cl20  1  0.795415  0.105995  0.973901  1
  Cl  Cl21  1  0.204585  0.894005  0.026099  1
  Cl  Cl22  1  0.784181  0.793519  0.034193  1
  Cl  Cl23  1  0.215819  0.206481  0.965807  1
  Cl  Cl24  1  0.627657  0.192173  0.740829  1
  Cl  Cl25  1  0.372343  0.807827  0.259171  1
  Cl  Cl26  1  0.937077  0.060265  0.728875  1
  Cl  Cl27  1  0.062923  0.939735  0.271125  1
  Cl  Cl28  1  0.724432  0.052329  0.491747  1
  Cl  Cl29  1  0.275568  0.947671  0.508253  1
  Cl  Cl30  1  0.775145  0.435715  0.974373  1
  Cl  Cl31  1  0.224855  0.564285  0.025627  1
