# generated using pymatgen
data_GdYTmTaO7
_symmetry_space_group_name_H-M   'P 1'
_cell_length_a   6.47233735
_cell_length_b   6.47233642
_cell_length_c   7.50676493
_cell_angle_alpha   90.04653922
_cell_angle_beta   90.04654130
_cell_angle_gamma   108.82846225
_symmetry_Int_Tables_number   1
_chemical_formula_structural   GdYTmTaO7
_chemical_formula_sum   'Gd2 Y2 Tm2 Ta2 O14'
_cell_volume   297.63926092
_cell_formula_units_Z   2
loop_
 _symmetry_equiv_pos_site_id
 _symmetry_equiv_pos_as_xyz
  1  'x, y, z'
loop_
 _atom_site_type_symbol
 _atom_site_label
 _atom_site_symmetry_multiplicity
 _atom_site_fract_x
 _atom_site_fract_y
 _atom_site_fract_z
 _atom_site_occupancy
  Gd  Gd0  1  0.473139  0.474713  0.998150  1
  Gd  Gd1  1  0.525287  0.526861  0.501850  1
  Y  Y2  1  0.466483  0.999860  0.255438  1
  Y  Y3  1  0.000140  0.533517  0.244562  1
  Tm  Tm4  1  0.534948  0.000953  0.756030  1
  Tm  Tm5  1  0.999047  0.465052  0.743970  1
  Ta  Ta6  1  0.003093  0.002418  0.502179  1
  Ta  Ta7  1  0.997582  0.996907  0.997821  1
  O  O8  1  0.929551  0.070449  0.750000  1
  O  O9  1  0.643424  0.356576  0.750000  1
  O  O10  1  0.311858  0.052940  0.544431  1
  O  O11  1  0.947060  0.688142  0.955569  1
  O  O12  1  0.631565  0.368435  0.250000  1
  O  O13  1  0.923428  0.674202  0.530660  1
  O  O14  1  0.325798  0.076572  0.969340  1
  O  O15  1  0.079048  0.326954  0.023853  1
  O  O16  1  0.673046  0.920952  0.476147  1
  O  O17  1  0.366333  0.633667  0.750000  1
  O  O18  1  0.685515  0.940648  0.036228  1
  O  O19  1  0.059352  0.314485  0.463772  1
  O  O20  1  0.360158  0.639842  0.250000  1
  O  O21  1  0.064144  0.935856  0.250000  1
