# generated using pymatgen
data_Tm6Mn2FeSi6Ru
_symmetry_space_group_name_H-M   'P 1'
_cell_length_a   5.64636969
_cell_length_b   5.64637114
_cell_length_c   13.55118750
_cell_angle_alpha   89.83433172
_cell_angle_beta   90.16566813
_cell_angle_gamma   137.39056014
_symmetry_Int_Tables_number   1
_chemical_formula_structural   Tm6Mn2FeSi6Ru
_chemical_formula_sum   'Tm6 Mn2 Fe1 Si6 Ru1'
_cell_volume   292.48317600
_cell_formula_units_Z   1
loop_
 _symmetry_equiv_pos_site_id
 _symmetry_equiv_pos_as_xyz
  1  'x, y, z'
loop_
 _atom_site_type_symbol
 _atom_site_label
 _atom_site_symmetry_multiplicity
 _atom_site_fract_x
 _atom_site_fract_y
 _atom_site_fract_z
 _atom_site_occupancy
  Tm  Tm0  1  0.638640  0.361360  0.249063  1
  Tm  Tm1  1  0.362174  0.637826  0.750458  1
  Tm  Tm2  1  0.922741  0.077259  0.112456  1
  Tm  Tm3  1  0.078057  0.921943  0.887290  1
  Tm  Tm4  1  0.079146  0.920854  0.614907  1
  Tm  Tm5  1  0.924810  0.075190  0.384852  1
  Mn  Mn6  1  0.214428  0.785572  0.416617  1
  Mn  Mn7  1  0.213557  0.786443  0.083801  1
  Fe  Fe8  1  0.783791  0.216209  0.919956  1
  Si  Si9  1  0.331964  0.668036  0.249995  1
  Si  Si10  1  0.672121  0.327879  0.753167  1
  Si  Si11  1  0.614597  0.385403  0.036781  1
  Si  Si12  1  0.379838  0.620162  0.959897  1
  Si  Si13  1  0.386452  0.613548  0.537411  1
  Si  Si14  1  0.612503  0.387497  0.461152  1
  Ru  Ru15  1  0.785181  0.214819  0.582197  1
