# generated using pymatgen
data_Ba2Na(SnP)6
_symmetry_space_group_name_H-M   'P 1'
_cell_length_a   7.09240327
_cell_length_b   7.09240384
_cell_length_c   9.61960218
_cell_angle_alpha   82.90839333
_cell_angle_beta   82.90839566
_cell_angle_gamma   119.97169225
_symmetry_Int_Tables_number   1
_chemical_formula_structural   Ba2Na(SnP)6
_chemical_formula_sum   'Ba2 Na1 Sn6 P6'
_cell_volume   406.21058276
_cell_formula_units_Z   1
loop_
 _symmetry_equiv_pos_site_id
 _symmetry_equiv_pos_as_xyz
  1  'x, y, z'
loop_
 _atom_site_type_symbol
 _atom_site_label
 _atom_site_symmetry_multiplicity
 _atom_site_fract_x
 _atom_site_fract_y
 _atom_site_fract_z
 _atom_site_occupancy
  Ba  Ba0  1  0.666505  0.333495  0.000000  1
  Ba  Ba1  1  0.333495  0.666505  0.000000  1
  Na  Na2  1  0.000000  0.000000  0.000000  1
  Sn  Sn3  1  0.540947  0.876388  0.370959  1
  Sn  Sn4  1  0.211756  0.211756  0.370677  1
  Sn  Sn5  1  0.876388  0.540947  0.370959  1
  Sn  Sn6  1  0.459053  0.123612  0.629041  1
  Sn  Sn7  1  0.123612  0.459053  0.629041  1
  Sn  Sn8  1  0.788244  0.788244  0.629323  1
  P  P9  1  0.404787  0.404787  0.768289  1
  P  P10  1  0.077039  0.749680  0.768811  1
  P  P11  1  0.749680  0.077039  0.768811  1
  P  P12  1  0.595213  0.595213  0.231711  1
  P  P13  1  0.250320  0.922961  0.231189  1
  P  P14  1  0.922961  0.250320  0.231189  1
