# generated using pymatgen
data_Eu3Y(Si5Pt3)2
_symmetry_space_group_name_H-M   'P 1'
_cell_length_a   8.26403448
_cell_length_b   8.27127496
_cell_length_c   8.27127588
_cell_angle_alpha   137.05087338
_cell_angle_beta   104.63268015
_cell_angle_gamma   90.89698046
_symmetry_Int_Tables_number   1
_chemical_formula_structural   Eu3Y(Si5Pt3)2
_chemical_formula_sum   'Eu3 Y1 Si10 Pt6'
_cell_volume   355.05596560
_cell_formula_units_Z   1
loop_
 _symmetry_equiv_pos_site_id
 _symmetry_equiv_pos_as_xyz
  1  'x, y, z'
loop_
 _atom_site_type_symbol
 _atom_site_label
 _atom_site_symmetry_multiplicity
 _atom_site_fract_x
 _atom_site_fract_y
 _atom_site_fract_z
 _atom_site_occupancy
  Eu  Eu0  1  0.896157  0.128896  0.767261  1
  Eu  Eu1  1  0.637914  0.371008  0.266906  1
  Eu  Eu2  1  0.362499  0.629364  0.733135  1
  Y  Y3  1  0.102288  0.871249  0.231039  1
  Si  Si4  1  0.999676  0.747315  0.746912  1
  Si  Si5  1  0.999676  0.252763  0.252360  1
  Si  Si6  1  0.272076  0.020427  0.750505  1
  Si  Si7  1  0.729562  0.478037  0.748789  1
  Si  Si8  1  0.729562  0.980772  0.251524  1
  Si  Si9  1  0.272076  0.521572  0.251650  1
  Si  Si10  1  0.762022  0.612229  0.149793  1
  Si  Si11  1  0.238747  0.388540  0.850207  1
  Si  Si12  1  0.457988  0.109794  0.348194  1
  Si  Si13  1  0.540349  0.888357  0.651992  1
  Pt  Pt14  1  0.497681  0.750367  0.249640  1
  Pt  Pt15  1  0.497681  0.248042  0.747314  1
  Pt  Pt16  1  0.025210  0.638980  0.386230  1
  Pt  Pt17  1  0.978279  0.363739  0.614540  1
  Pt  Pt18  1  0.246173  0.134137  0.112036  1
  Pt  Pt19  1  0.754383  0.864410  0.889973  1
