# generated using pymatgen
data_LiTm12Fe4Sn
_symmetry_space_group_name_H-M   'P 1'
_cell_length_a   8.25596123
_cell_length_b   8.25596128
_cell_length_c   8.25586700
_cell_angle_alpha   106.68997009
_cell_angle_beta   110.67484766
_cell_angle_gamma   111.08475144
_symmetry_Int_Tables_number   1
_chemical_formula_structural   LiTm12Fe4Sn
_chemical_formula_sum   'Li1 Tm12 Fe4 Sn1'
_cell_volume   432.41914314
_cell_formula_units_Z   1
loop_
 _symmetry_equiv_pos_site_id
 _symmetry_equiv_pos_as_xyz
  1  'x, y, z'
loop_
 _atom_site_type_symbol
 _atom_site_label
 _atom_site_symmetry_multiplicity
 _atom_site_fract_x
 _atom_site_fract_y
 _atom_site_fract_z
 _atom_site_occupancy
  Li  Li0  1  0.499903  0.499985  0.999886  1
  Tm  Tm1  1  0.707618  0.277683  0.985303  1
  Tm  Tm2  1  0.292372  0.722339  0.014708  1
  Tm  Tm3  1  0.707577  0.722302  0.429882  1
  Tm  Tm4  1  0.292355  0.277665  0.570014  1
  Tm  Tm5  1  0.798792  0.108991  0.310264  1
  Tm  Tm6  1  0.798746  0.488428  0.689744  1
  Tm  Tm7  1  0.201311  0.891000  0.689746  1
  Tm  Tm8  1  0.201270  0.511474  0.310262  1
  Tm  Tm9  1  0.601386  0.790751  0.810663  1
  Tm  Tm10  1  0.980052  0.790787  0.189291  1
  Tm  Tm11  1  0.019913  0.209276  0.810662  1
  Tm  Tm12  1  0.398503  0.209237  0.189288  1
  Fe  Fe13  1  0.883570  0.499973  0.383632  1
  Fe  Fe14  1  0.116738  0.500037  0.616686  1
  Fe  Fe15  1  0.999975  0.109011  0.108973  1
  Fe  Fe16  1  0.999951  0.891077  0.891042  1
  Sn  Sn17  1  0.499962  0.999986  0.499948  1
