# generated using pymatgen
data_Pr5ErTa2O14
_symmetry_space_group_name_H-M   'P 1'
_cell_length_a   6.70606701
_cell_length_b   6.67096937
_cell_length_c   7.72117300
_cell_angle_alpha   90.00000000
_cell_angle_beta   90.00000000
_cell_angle_gamma   108.75910533
_symmetry_Int_Tables_number   1
_chemical_formula_structural   Pr5ErTa2O14
_chemical_formula_sum   'Pr5 Er1 Ta2 O14'
_cell_volume   327.06541261
_cell_formula_units_Z   1
loop_
 _symmetry_equiv_pos_site_id
 _symmetry_equiv_pos_as_xyz
  1  'x, y, z'
loop_
 _atom_site_type_symbol
 _atom_site_label
 _atom_site_symmetry_multiplicity
 _atom_site_fract_x
 _atom_site_fract_y
 _atom_site_fract_z
 _atom_site_occupancy
  Pr  Pr0  1  0.534823  0.527679  0.498050  1
  Pr  Pr1  1  0.534823  0.527679  0.001950  1
  Pr  Pr2  1  0.007722  0.462971  0.750000  1
  Pr  Pr3  1  0.533021  0.003761  0.750000  1
  Pr  Pr4  1  0.461145  0.003849  0.250000  1
  Er  Er5  1  0.003579  0.528040  0.250000  1
  Ta  Ta6  1  0.000486  0.001165  0.496979  1
  Ta  Ta7  1  0.000486  0.001165  0.003021  1
  O  O8  1  0.946305  0.055622  0.750000  1
  O  O9  1  0.057301  0.936684  0.250000  1
  O  O10  1  0.349539  0.633032  0.250000  1
  O  O11  1  0.642520  0.370862  0.750000  1
  O  O12  1  0.372919  0.631422  0.750000  1
  O  O13  1  0.649287  0.379143  0.250000  1
  O  O14  1  0.306705  0.070420  0.969671  1
  O  O15  1  0.679785  0.918612  0.472723  1
  O  O16  1  0.306705  0.070420  0.530329  1
  O  O17  1  0.679785  0.918612  0.027277  1
  O  O18  1  0.034159  0.298570  0.455502  1
  O  O19  1  0.932374  0.680860  0.979516  1
  O  O20  1  0.932374  0.680860  0.520484  1
  O  O21  1  0.034159  0.298570  0.044498  1
