# generated using pymatgen
data_NaErPa2(ReN3)4
_symmetry_space_group_name_H-M   'P 1'
_cell_length_a   5.36481600
_cell_length_b   5.62769829
_cell_length_c   7.82534100
_cell_angle_alpha   90.00000000
_cell_angle_beta   90.00000000
_cell_angle_gamma   90.43492668
_symmetry_Int_Tables_number   1
_chemical_formula_structural   NaErPa2(ReN3)4
_chemical_formula_sum   'Na1 Er1 Pa2 Re4 N12'
_cell_volume   236.25249142
_cell_formula_units_Z   1
loop_
 _symmetry_equiv_pos_site_id
 _symmetry_equiv_pos_as_xyz
  1  'x, y, z'
loop_
 _atom_site_type_symbol
 _atom_site_label
 _atom_site_symmetry_multiplicity
 _atom_site_fract_x
 _atom_site_fract_y
 _atom_site_fract_z
 _atom_site_occupancy
  Na  Na0  1  0.507919  0.545719  0.750000  1
  Er  Er1  1  0.990108  0.059393  0.750000  1
  Pa  Pa2  1  0.476321  0.433838  0.250000  1
  Pa  Pa3  1  0.014418  0.930147  0.250000  1
  Re  Re4  1  0.508742  0.999873  0.512349  1
  Re  Re5  1  0.988431  0.501507  0.986177  1
  Re  Re6  1  0.988431  0.501507  0.513823  1
  Re  Re7  1  0.508742  0.999873  0.987651  1
  N  N8  1  0.708676  0.286830  0.542108  1
  N  N9  1  0.302132  0.702137  0.066653  1
  N  N10  1  0.197076  0.197254  0.056525  1
  N  N11  1  0.426272  0.985767  0.750000  1
  N  N12  1  0.886321  0.538247  0.250000  1
  N  N13  1  0.302132  0.702137  0.433347  1
  N  N14  1  0.806606  0.798874  0.960821  1
  N  N15  1  0.708676  0.286830  0.957892  1
  N  N16  1  0.806606  0.798874  0.539179  1
  N  N17  1  0.067272  0.492129  0.750000  1
  N  N18  1  0.197076  0.197254  0.443475  1
  N  N19  1  0.608042  0.041811  0.250000  1
