# generated using pymatgen
data_Hf3Sc5(Si4Os3)4
_symmetry_space_group_name_H-M   'P 1'
_cell_length_a   9.97227644
_cell_length_b   9.98126967
_cell_length_c   13.42023951
_cell_angle_alpha   53.75200515
_cell_angle_beta   53.71267606
_cell_angle_gamma   31.06852587
_symmetry_Int_Tables_number   1
_chemical_formula_structural   Hf3Sc5(Si4Os3)4
_chemical_formula_sum   'Hf3 Sc5 Si16 Os12'
_cell_volume   544.11874311
_cell_formula_units_Z   1
loop_
 _symmetry_equiv_pos_site_id
 _symmetry_equiv_pos_as_xyz
  1  'x, y, z'
loop_
 _atom_site_type_symbol
 _atom_site_label
 _atom_site_symmetry_multiplicity
 _atom_site_fract_x
 _atom_site_fract_y
 _atom_site_fract_z
 _atom_site_occupancy
  Hf  Hf0  1  0.704210  0.960996  0.865312  1
  Hf  Hf1  1  0.961930  0.703655  0.365621  1
  Hf  Hf2  1  0.295420  0.039254  0.134608  1
  Sc  Sc3  1  0.293231  0.558863  0.646631  1
  Sc  Sc4  1  0.439687  0.707356  0.853666  1
  Sc  Sc5  1  0.706962  0.440832  0.353227  1
  Sc  Sc6  1  0.560100  0.292374  0.147103  1
  Sc  Sc7  1  0.036147  0.294568  0.638136  1
  Si  Si8  1  0.875428  0.124028  0.250216  1
  Si  Si9  1  0.126417  0.875338  0.748959  1
  Si  Si10  1  0.383065  0.617773  0.249529  1
  Si  Si11  1  0.617745  0.383065  0.749431  1
  Si  Si12  1  0.972896  0.254459  0.891030  1
  Si  Si13  1  0.748032  0.025078  0.608405  1
  Si  Si14  1  0.027298  0.745206  0.108577  1
  Si  Si15  1  0.253073  0.973811  0.391540  1
  Si  Si16  1  0.574900  0.082868  0.065668  1
  Si  Si17  1  0.918350  0.423874  0.434715  1
  Si  Si18  1  0.424096  0.918126  0.934116  1
  Si  Si19  1  0.080794  0.574550  0.566475  1
  Si  Si20  1  0.385428  0.144956  0.397754  1
  Si  Si21  1  0.853517  0.614630  0.104058  1
  Si  Si22  1  0.612770  0.855840  0.603822  1
  Si  Si23  1  0.147093  0.385437  0.895279  1
  Os  Os24  1  0.649125  0.828756  0.283418  1
  Os  Os25  1  0.171246  0.350342  0.216101  1
  Os  Os26  1  0.763110  0.482198  0.072337  1
  Os  Os27  1  0.827770  0.649836  0.784279  1
  Os  Os28  1  0.896322  0.142287  0.585805  1
  Os  Os29  1  0.856812  0.103263  0.914243  1
  Os  Os30  1  0.103880  0.856728  0.414035  1
  Os  Os31  1  0.142873  0.896113  0.085978  1
  Os  Os32  1  0.237272  0.517920  0.927440  1
  Os  Os33  1  0.487155  0.760567  0.569360  1
  Os  Os34  1  0.514126  0.242570  0.426759  1
  Os  Os35  1  0.351719  0.172485  0.716368  1
