# generated using pymatgen
data_HfTi2(Nb2Sn3)2
_symmetry_space_group_name_H-M   'P 1'
_cell_length_a   5.72402200
_cell_length_b   5.71370205
_cell_length_c   9.58389100
_cell_angle_alpha   90.00000000
_cell_angle_beta   90.00000000
_cell_angle_gamma   120.05975424
_symmetry_Int_Tables_number   1
_chemical_formula_structural   HfTi2(Nb2Sn3)2
_chemical_formula_sum   'Hf1 Ti2 Nb4 Sn6'
_cell_volume   271.28736506
_cell_formula_units_Z   1
loop_
 _symmetry_equiv_pos_site_id
 _symmetry_equiv_pos_as_xyz
  1  'x, y, z'
loop_
 _atom_site_type_symbol
 _atom_site_label
 _atom_site_symmetry_multiplicity
 _atom_site_fract_x
 _atom_site_fract_y
 _atom_site_fract_z
 _atom_site_occupancy
  Hf  Hf0  1  0.000000  0.000000  0.000000  1
  Ti  Ti1  1  0.500000  0.000000  0.751164  1
  Ti  Ti2  1  0.500000  0.000000  0.248836  1
  Nb  Nb3  1  0.000000  0.500000  0.752760  1
  Nb  Nb4  1  0.500000  0.500000  0.752760  1
  Nb  Nb5  1  0.000000  0.500000  0.247240  1
  Nb  Nb6  1  0.500000  0.500000  0.247240  1
  Sn  Sn7  1  0.664314  0.328628  0.500000  1
  Sn  Sn8  1  0.335686  0.671372  0.500000  1
  Sn  Sn9  1  0.663617  0.327233  0.000000  1
  Sn  Sn10  1  0.336383  0.672767  0.000000  1
  Sn  Sn11  1  0.000000  0.000000  0.678511  1
  Sn  Sn12  1  0.000000  0.000000  0.321489  1
