# generated using pymatgen
data_Yb2Eu2Cr(TcO4)3
_symmetry_space_group_name_H-M   'P 1'
_cell_length_a   5.44346113
_cell_length_b   5.69372734
_cell_length_c   7.81225173
_cell_angle_alpha   89.66314498
_cell_angle_beta   90.05670703
_cell_angle_gamma   89.80788030
_symmetry_Int_Tables_number   1
_chemical_formula_structural   Yb2Eu2Cr(TcO4)3
_chemical_formula_sum   'Yb2 Eu2 Cr1 Tc3 O12'
_cell_volume   242.12400676
_cell_formula_units_Z   1
loop_
 _symmetry_equiv_pos_site_id
 _symmetry_equiv_pos_as_xyz
  1  'x, y, z'
loop_
 _atom_site_type_symbol
 _atom_site_label
 _atom_site_symmetry_multiplicity
 _atom_site_fract_x
 _atom_site_fract_y
 _atom_site_fract_z
 _atom_site_occupancy
  Yb  Yb0  1  0.514842  0.064415  0.741618  1
  Yb  Yb1  1  0.485158  0.935585  0.258382  1
  Eu  Eu2  1  0.016593  0.440715  0.254948  1
  Eu  Eu3  1  0.983407  0.559285  0.745052  1
  Cr  Cr4  1  0.500000  0.500000  0.500000  1
  Tc  Tc5  1  0.000000  0.000000  0.000000  1
  Tc  Tc6  1  0.500000  0.500000  0.000000  1
  Tc  Tc7  1  0.000000  0.000000  0.500000  1
  O  O8  1  0.303792  0.197462  0.048708  1
  O  O9  1  0.696208  0.802538  0.951292  1
  O  O10  1  0.800307  0.292409  0.952877  1
  O  O11  1  0.691573  0.798190  0.548626  1
  O  O12  1  0.199693  0.707591  0.047123  1
  O  O13  1  0.308427  0.201810  0.451374  1
  O  O14  1  0.203282  0.703457  0.452290  1
  O  O15  1  0.796718  0.296543  0.547710  1
  O  O16  1  0.590929  0.533739  0.252520  1
  O  O17  1  0.409071  0.466261  0.747480  1
  O  O18  1  0.097705  0.979439  0.752098  1
  O  O19  1  0.902295  0.020561  0.247902  1
