# generated using pymatgen
data_Nd9HoRu4
_symmetry_space_group_name_H-M   'P 1'
_cell_length_a   8.82968886
_cell_length_b   8.82968836
_cell_length_c   7.38046624
_cell_angle_alpha   83.85848789
_cell_angle_beta   83.85848619
_cell_angle_gamma   43.85574870
_symmetry_Int_Tables_number   1
_chemical_formula_structural   Nd9HoRu4
_chemical_formula_sum   'Nd9 Ho1 Ru4'
_cell_volume   396.00729167
_cell_formula_units_Z   1
loop_
 _symmetry_equiv_pos_site_id
 _symmetry_equiv_pos_as_xyz
  1  'x, y, z'
loop_
 _atom_site_type_symbol
 _atom_site_label
 _atom_site_symmetry_multiplicity
 _atom_site_fract_x
 _atom_site_fract_y
 _atom_site_fract_z
 _atom_site_occupancy
  Nd  Nd0  1  0.204815  0.978796  0.583915  1
  Nd  Nd1  1  0.021204  0.795185  0.916085  1
  Nd  Nd2  1  0.207924  0.361572  0.313346  1
  Nd  Nd3  1  0.638428  0.792076  0.186654  1
  Nd  Nd4  1  0.792268  0.640404  0.685611  1
  Nd  Nd5  1  0.359596  0.207732  0.814389  1
  Nd  Nd6  1  0.980177  0.203163  0.086710  1
  Nd  Nd7  1  0.796837  0.019823  0.413290  1
  Nd  Nd8  1  0.575702  0.424298  0.750000  1
  Ho  Ho9  1  0.427786  0.572214  0.250000  1
  Ru  Ru10  1  0.178223  0.603107  0.572016  1
  Ru  Ru11  1  0.396893  0.821777  0.927984  1
  Ru  Ru12  1  0.820039  0.399890  0.423354  1
  Ru  Ru13  1  0.600110  0.179961  0.076646  1
