# generated using pymatgen
data_Y12Si8Os3Rh5
_symmetry_space_group_name_H-M   'P 1'
_cell_length_a   5.61047854
_cell_length_b   7.78333645
_cell_length_c   13.13401947
_cell_angle_alpha   89.98687546
_cell_angle_beta   90.02678514
_cell_angle_gamma   89.84152021
_symmetry_Int_Tables_number   1
_chemical_formula_structural   Y12Si8Os3Rh5
_chemical_formula_sum   'Y12 Si8 Os3 Rh5'
_cell_volume   573.53727048
_cell_formula_units_Z   1
loop_
 _symmetry_equiv_pos_site_id
 _symmetry_equiv_pos_as_xyz
  1  'x, y, z'
loop_
 _atom_site_type_symbol
 _atom_site_label
 _atom_site_symmetry_multiplicity
 _atom_site_fract_x
 _atom_site_fract_y
 _atom_site_fract_z
 _atom_site_occupancy
  Y  Y0  1  0.139810  0.602306  0.104304  1
  Y  Y1  1  0.140544  0.896750  0.896086  1
  Y  Y2  1  0.860516  0.102244  0.395705  1
  Y  Y3  1  0.859078  0.394258  0.603717  1
  Y  Y4  1  0.862521  0.390384  0.897748  1
  Y  Y5  1  0.862046  0.110044  0.102278  1
  Y  Y6  1  0.135064  0.892130  0.601988  1
  Y  Y7  1  0.140250  0.608130  0.396411  1
  Y  Y8  1  0.373016  0.246477  0.250312  1
  Y  Y9  1  0.372194  0.250173  0.751171  1
  Y  Y10  1  0.626507  0.748098  0.248825  1
  Y  Y11  1  0.627231  0.755106  0.750680  1
  Si  Si12  1  0.857290  0.396342  0.250580  1
  Si  Si13  1  0.859241  0.104637  0.750594  1
  Si  Si14  1  0.140250  0.895672  0.250407  1
  Si  Si15  1  0.138660  0.605936  0.748973  1
  Si  Si16  1  0.406998  0.250708  0.999796  1
  Si  Si17  1  0.599947  0.752122  0.499982  1
  Si  Si18  1  0.605925  0.749731  0.999775  1
  Si  Si19  1  0.393534  0.249073  0.497573  1
  Os  Os20  1  0.646179  0.478047  0.089781  1
  Os  Os21  1  0.647089  0.022277  0.910520  1
  Os  Os22  1  0.352280  0.973941  0.411415  1
  Rh  Rh23  1  0.354571  0.520472  0.590229  1
  Rh  Rh24  1  0.354064  0.527213  0.907874  1
  Rh  Rh25  1  0.352642  0.972623  0.090619  1
  Rh  Rh26  1  0.644428  0.029403  0.591105  1
  Rh  Rh27  1  0.648123  0.475703  0.411551  1
