# generated using pymatgen
data_Ta3NbTe6
_symmetry_space_group_name_H-M   'P 1'
_cell_length_a   8.29909797
_cell_length_b   8.29909797
_cell_length_c   12.82777319
_cell_angle_alpha   54.57803850
_cell_angle_beta   54.57803763
_cell_angle_gamma   23.53362570
_symmetry_Int_Tables_number   1
_chemical_formula_structural   Ta3NbTe6
_chemical_formula_sum   'Ta3 Nb1 Te6'
_cell_volume   284.30617342
_cell_formula_units_Z   1
loop_
 _symmetry_equiv_pos_site_id
 _symmetry_equiv_pos_as_xyz
  1  'x, y, z'
loop_
 _atom_site_type_symbol
 _atom_site_label
 _atom_site_symmetry_multiplicity
 _atom_site_fract_x
 _atom_site_fract_y
 _atom_site_fract_z
 _atom_site_occupancy
  Ta  Ta0  1  0.416811  0.416811  0.144239  1
  Ta  Ta1  1  0.774762  0.774762  0.391972  1
  Ta  Ta2  1  0.225761  0.225761  0.607129  1
  Nb  Nb3  1  0.582283  0.582283  0.857031  1
  Te  Te4  1  0.573305  0.573305  0.639025  1
  Te  Te5  1  0.427058  0.427058  0.360675  1
  Te  Te6  1  0.800867  0.800867  0.710709  1
  Te  Te7  1  0.199178  0.199178  0.288843  1
  Te  Te8  1  0.905100  0.905100  0.971601  1
  Te  Te9  1  0.094876  0.094876  0.028776  1
