# generated using pymatgen
data_TbHo7Ti12Si15Ge
_symmetry_space_group_name_H-M   'P 1'
_cell_length_a   7.04999330
_cell_length_b   7.04118676
_cell_length_c   12.93679009
_cell_angle_alpha   89.99551380
_cell_angle_beta   89.92329030
_cell_angle_gamma   89.95301897
_symmetry_Int_Tables_number   1
_chemical_formula_structural   TbHo7Ti12Si15Ge
_chemical_formula_sum   'Tb1 Ho7 Ti12 Si15 Ge1'
_cell_volume   642.18559949
_cell_formula_units_Z   1
loop_
 _symmetry_equiv_pos_site_id
 _symmetry_equiv_pos_as_xyz
  1  'x, y, z'
loop_
 _atom_site_type_symbol
 _atom_site_label
 _atom_site_symmetry_multiplicity
 _atom_site_fract_x
 _atom_site_fract_y
 _atom_site_fract_z
 _atom_site_occupancy
  Tb  Tb0  1  0.341394  0.001978  0.465664  1
  Ho  Ho1  1  0.499002  0.840150  0.717089  1
  Ho  Ho2  1  0.502379  0.159343  0.216676  1
  Ho  Ho3  1  0.840843  0.497460  0.283198  1
  Ho  Ho4  1  0.159204  0.502985  0.783792  1
  Ho  Ho5  1  0.660002  0.996982  0.967186  1
  Ho  Ho6  1  0.000175  0.342665  0.532237  1
  Ho  Ho7  1  0.997871  0.659101  0.033503  1
  Ti  Ti8  1  0.326247  0.326496  0.000197  1
  Ti  Ti9  1  0.173569  0.826245  0.249901  1
  Ti  Ti10  1  0.823210  0.174248  0.750573  1
  Ti  Ti11  1  0.673508  0.673329  0.499953  1
  Ti  Ti12  1  0.152125  0.008686  0.877544  1
  Ti  Ti13  1  0.491849  0.651239  0.126296  1
  Ti  Ti14  1  0.510260  0.349557  0.626646  1
  Ti  Ti15  1  0.652327  0.492520  0.874192  1
  Ti  Ti16  1  0.348112  0.508671  0.373409  1
  Ti  Ti17  1  0.847857  0.991946  0.376159  1
  Ti  Ti18  1  0.008441  0.151601  0.123697  1
  Ti  Ti19  1  0.988939  0.845079  0.622618  1
  Si  Si20  1  0.369358  0.702880  0.934245  1
  Si  Si21  1  0.630365  0.297766  0.434015  1
  Si  Si22  1  0.703014  0.369312  0.066184  1
  Si  Si23  1  0.297519  0.630082  0.566004  1
  Si  Si24  1  0.797272  0.869225  0.184153  1
  Si  Si25  1  0.130225  0.202952  0.315601  1
  Si  Si26  1  0.869817  0.797772  0.815958  1
  Si  Si27  1  0.291303  0.952386  0.065312  1
  Si  Si28  1  0.548371  0.790389  0.314404  1
  Si  Si29  1  0.455502  0.209497  0.816655  1
  Si  Si30  1  0.791484  0.547248  0.685472  1
  Si  Si31  1  0.208911  0.452463  0.185223  1
  Si  Si32  1  0.709015  0.047813  0.565001  1
  Si  Si33  1  0.952543  0.291166  0.935186  1
  Si  Si34  1  0.047336  0.709096  0.434641  1
  Ge  Ge35  1  0.200646  0.129666  0.681421  1
