# generated using pymatgen
data_Dy5Ho3(Si3Ir)4
_symmetry_space_group_name_H-M   'P 1'
_cell_length_a   8.16476800
_cell_length_b   8.16476756
_cell_length_c   7.91347900
_cell_angle_alpha   90.00000000
_cell_angle_beta   90.00000000
_cell_angle_gamma   120.00000177
_symmetry_Int_Tables_number   1
_chemical_formula_structural   Dy5Ho3(Si3Ir)4
_chemical_formula_sum   'Dy5 Ho3 Si12 Ir4'
_cell_volume   456.86275326
_cell_formula_units_Z   1
loop_
 _symmetry_equiv_pos_site_id
 _symmetry_equiv_pos_as_xyz
  1  'x, y, z'
loop_
 _atom_site_type_symbol
 _atom_site_label
 _atom_site_symmetry_multiplicity
 _atom_site_fract_x
 _atom_site_fract_y
 _atom_site_fract_z
 _atom_site_occupancy
  Dy  Dy0  1  0.000000  0.000000  0.250000  1
  Dy  Dy1  1  0.000000  0.000000  0.750000  1
  Dy  Dy2  1  0.509574  0.490426  0.250000  1
  Dy  Dy3  1  0.509574  0.019148  0.250000  1
  Dy  Dy4  1  0.980852  0.490426  0.250000  1
  Ho  Ho5  1  0.490398  0.509602  0.750000  1
  Ho  Ho6  1  0.490398  0.980796  0.750000  1
  Ho  Ho7  1  0.019204  0.509602  0.750000  1
  Si  Si8  1  0.166828  0.833172  0.499493  1
  Si  Si9  1  0.166828  0.333656  0.499493  1
  Si  Si10  1  0.666344  0.833172  0.499493  1
  Si  Si11  1  0.833182  0.166818  0.500920  1
  Si  Si12  1  0.833182  0.666365  0.500920  1
  Si  Si13  1  0.333635  0.166818  0.500920  1
  Si  Si14  1  0.833182  0.166818  0.999080  1
  Si  Si15  1  0.833182  0.666365  0.999080  1
  Si  Si16  1  0.333635  0.166818  0.999080  1
  Si  Si17  1  0.166828  0.833172  0.000507  1
  Si  Si18  1  0.166828  0.333656  0.000507  1
  Si  Si19  1  0.666344  0.833172  0.000507  1
  Ir  Ir20  1  0.333333  0.666667  0.466805  1
  Ir  Ir21  1  0.666667  0.333333  0.534407  1
  Ir  Ir22  1  0.666667  0.333333  0.965593  1
  Ir  Ir23  1  0.333333  0.666667  0.033195  1
