# generated using pymatgen
data_CsPu2F11
_symmetry_space_group_name_H-M   'P 1'
_cell_length_a   15.74480500
_cell_length_b   8.51961985
_cell_length_c   10.64888000
_cell_angle_alpha   65.50050096
_cell_angle_beta   90.00000000
_cell_angle_gamma   90.00000000
_symmetry_Int_Tables_number   1
_chemical_formula_structural   CsPu2F11
_chemical_formula_sum   'Cs4 Pu8 F44'
_cell_volume   1299.82856068
_cell_formula_units_Z   4
loop_
 _symmetry_equiv_pos_site_id
 _symmetry_equiv_pos_as_xyz
  1  'x, y, z'
loop_
 _atom_site_type_symbol
 _atom_site_label
 _atom_site_symmetry_multiplicity
 _atom_site_fract_x
 _atom_site_fract_y
 _atom_site_fract_z
 _atom_site_occupancy
  Cs  Cs0  1  0.623767  0.774583  0.277858  1
  Cs  Cs1  1  0.376233  0.225417  0.722142  1
  Cs  Cs2  1  0.876233  0.774583  0.777858  1
  Cs  Cs3  1  0.123767  0.225417  0.222142  1
  Pu  Pu4  1  0.949828  0.734122  0.245415  1
  Pu  Pu5  1  0.050172  0.265878  0.754585  1
  Pu  Pu6  1  0.550172  0.734122  0.745415  1
  Pu  Pu7  1  0.805049  0.274787  0.312862  1
  Pu  Pu8  1  0.194951  0.725213  0.687138  1
  Pu  Pu9  1  0.305049  0.725213  0.187138  1
  Pu  Pu10  1  0.694951  0.274787  0.812862  1
  Pu  Pu11  1  0.449828  0.265878  0.254585  1
  F  F12  1  0.350546  0.900387  0.002236  1
  F  F13  1  0.946920  0.404826  0.655726  1
  F  F14  1  0.522597  0.042582  0.338894  1
  F  F15  1  0.741152  0.080861  0.281787  1
  F  F16  1  0.258848  0.919139  0.718213  1
  F  F17  1  0.872712  0.488724  0.345284  1
  F  F18  1  0.758848  0.080861  0.781787  1
  F  F19  1  0.797514  0.326691  0.905165  1
  F  F20  1  0.241152  0.919139  0.218213  1
  F  F21  1  0.477403  0.957418  0.661106  1
  F  F22  1  0.202486  0.673309  0.094835  1
  F  F23  1  0.339983  0.150142  0.349204  1
  F  F24  1  0.553080  0.404826  0.155726  1
  F  F25  1  0.149454  0.900387  0.502236  1
  F  F26  1  0.734661  0.464236  0.630929  1
  F  F27  1  0.234661  0.535764  0.869071  1
  F  F28  1  0.446920  0.595174  0.844274  1
  F  F29  1  0.971839  0.663575  0.086468  1
  F  F30  1  0.414410  0.754170  0.278824  1
  F  F31  1  0.297514  0.673309  0.594835  1
  F  F32  1  0.577874  0.789771  0.909123  1
  F  F33  1  0.028161  0.336425  0.913532  1
  F  F34  1  0.160017  0.150142  0.849204  1
  F  F35  1  0.850546  0.099613  0.497764  1
  F  F36  1  0.702486  0.326691  0.405165  1
  F  F37  1  0.627288  0.488724  0.845284  1
  F  F38  1  0.077874  0.210229  0.590877  1
  F  F39  1  0.977403  0.042582  0.838894  1
  F  F40  1  0.649454  0.099613  0.997764  1
  F  F41  1  0.585590  0.245830  0.721176  1
  F  F42  1  0.922126  0.789771  0.409123  1
  F  F43  1  0.765339  0.464236  0.130929  1
  F  F44  1  0.053080  0.595174  0.344274  1
  F  F45  1  0.372712  0.511276  0.154716  1
  F  F46  1  0.265339  0.535764  0.369071  1
  F  F47  1  0.471839  0.336425  0.413532  1
  F  F48  1  0.422126  0.210229  0.090877  1
  F  F49  1  0.528161  0.663575  0.586468  1
  F  F50  1  0.022597  0.957418  0.161106  1
  F  F51  1  0.660017  0.849858  0.650796  1
  F  F52  1  0.839983  0.849858  0.150796  1
  F  F53  1  0.914410  0.245830  0.221176  1
  F  F54  1  0.127288  0.511276  0.654716  1
  F  F55  1  0.085590  0.754170  0.778824  1
