# generated using pymatgen
data_Ac2ThSn7
_symmetry_space_group_name_H-M   'P 1'
_cell_length_a   13.49118722
_cell_length_b   13.49118809
_cell_length_c   4.66751700
_cell_angle_alpha   90.00000000
_cell_angle_beta   90.00000000
_cell_angle_gamma   159.11406770
_symmetry_Int_Tables_number   1
_chemical_formula_structural   Ac2ThSn7
_chemical_formula_sum   'Ac2 Th1 Sn7'
_cell_volume   302.87003267
_cell_formula_units_Z   1
loop_
 _symmetry_equiv_pos_site_id
 _symmetry_equiv_pos_as_xyz
  1  'x, y, z'
loop_
 _atom_site_type_symbol
 _atom_site_label
 _atom_site_symmetry_multiplicity
 _atom_site_fract_x
 _atom_site_fract_y
 _atom_site_fract_z
 _atom_site_occupancy
  Ac  Ac0  1  0.181325  0.818675  0.000000  1
  Ac  Ac1  1  0.818675  0.181325  0.000000  1
  Th  Th2  1  0.000000  0.000000  0.000000  1
  Sn  Sn3  1  0.286673  0.713327  0.500000  1
  Sn  Sn4  1  0.713327  0.286673  0.500000  1
  Sn  Sn5  1  0.408943  0.591057  0.000000  1
  Sn  Sn6  1  0.591057  0.408943  0.000000  1
  Sn  Sn7  1  0.088747  0.911253  0.500000  1
  Sn  Sn8  1  0.911253  0.088747  0.500000  1
  Sn  Sn9  1  0.500000  0.500000  0.500000  1
