# generated using pymatgen
data_SmFePH
_symmetry_space_group_name_H-M   'P 1'
_cell_length_a   3.80768800
_cell_length_b   3.80768800
_cell_length_c   7.67395700
_cell_angle_alpha   90.00000000
_cell_angle_beta   90.00000000
_cell_angle_gamma   90.00000000
_symmetry_Int_Tables_number   1
_chemical_formula_structural   SmFePH
_chemical_formula_sum   'Sm2 Fe2 P2 H2'
_cell_volume   111.26077275
_cell_formula_units_Z   2
loop_
 _symmetry_equiv_pos_site_id
 _symmetry_equiv_pos_as_xyz
  1  'x, y, z'
loop_
 _atom_site_type_symbol
 _atom_site_label
 _atom_site_symmetry_multiplicity
 _atom_site_fract_x
 _atom_site_fract_y
 _atom_site_fract_z
 _atom_site_occupancy
  Sm  Sm0  1  0.500000  0.000000  0.322829  1
  Sm  Sm1  1  0.000000  0.500000  0.677171  1
  Fe  Fe2  1  0.500000  0.500000  0.000000  1
  Fe  Fe3  1  0.000000  0.000000  0.000000  1
  P  P4  1  0.500000  0.000000  0.851349  1
  P  P5  1  0.000000  0.500000  0.148651  1
  H  H6  1  0.000000  0.000000  0.500000  1
  H  H7  1  0.500000  0.500000  0.500000  1
