# generated using pymatgen
data_DyMgPaNi2
_symmetry_space_group_name_H-M   'P 1'
_cell_length_a   7.45652848
_cell_length_b   7.45652848
_cell_length_c   3.52857200
_cell_angle_alpha   90.00000000
_cell_angle_beta   90.00000000
_cell_angle_gamma   93.28275118
_symmetry_Int_Tables_number   1
_chemical_formula_structural   DyMgPaNi2
_chemical_formula_sum   'Dy2 Mg2 Pa2 Ni4'
_cell_volume   195.86603276
_cell_formula_units_Z   2
loop_
 _symmetry_equiv_pos_site_id
 _symmetry_equiv_pos_as_xyz
  1  'x, y, z'
loop_
 _atom_site_type_symbol
 _atom_site_label
 _atom_site_symmetry_multiplicity
 _atom_site_fract_x
 _atom_site_fract_y
 _atom_site_fract_z
 _atom_site_occupancy
  Dy  Dy0  1  0.168607  0.331393  0.500000  1
  Dy  Dy1  1  0.831393  0.668607  0.500000  1
  Mg  Mg2  1  0.000000  0.000000  0.000000  1
  Mg  Mg3  1  0.500000  0.500000  0.000000  1
  Pa  Pa4  1  0.670042  0.170042  0.500000  1
  Pa  Pa5  1  0.329958  0.829958  0.500000  1
  Ni  Ni6  1  0.140710  0.640710  0.000000  1
  Ni  Ni7  1  0.859290  0.359290  0.000000  1
  Ni  Ni8  1  0.617899  0.882101  0.000000  1
  Ni  Ni9  1  0.382101  0.117899  0.000000  1
