# generated using pymatgen
data_Mg2B2AsIrRh4
_symmetry_space_group_name_H-M   'P 1'
_cell_length_a   9.43157600
_cell_length_b   9.43157600
_cell_length_c   2.97634000
_cell_angle_alpha   90.00000000
_cell_angle_beta   90.00000000
_cell_angle_gamma   90.00000000
_symmetry_Int_Tables_number   1
_chemical_formula_structural   Mg2B2AsIrRh4
_chemical_formula_sum   'Mg4 B4 As2 Ir2 Rh8'
_cell_volume   264.75921108
_cell_formula_units_Z   2
loop_
 _symmetry_equiv_pos_site_id
 _symmetry_equiv_pos_as_xyz
  1  'x, y, z'
loop_
 _atom_site_type_symbol
 _atom_site_label
 _atom_site_symmetry_multiplicity
 _atom_site_fract_x
 _atom_site_fract_y
 _atom_site_fract_z
 _atom_site_occupancy
  Mg  Mg0  1  0.674854  0.174854  0.000000  1
  Mg  Mg1  1  0.174854  0.325146  0.000000  1
  Mg  Mg2  1  0.825146  0.674854  0.000000  1
  Mg  Mg3  1  0.325146  0.825146  0.000000  1
  B  B4  1  0.375084  0.124916  0.000000  1
  B  B5  1  0.875084  0.375084  0.000000  1
  B  B6  1  0.124916  0.624916  0.000000  1
  B  B7  1  0.624916  0.875084  0.000000  1
  As  As8  1  0.000000  0.000000  0.000000  1
  As  As9  1  0.500000  0.500000  0.000000  1
  Ir  Ir10  1  0.500000  0.000000  0.500000  1
  Ir  Ir11  1  0.000000  0.500000  0.500000  1
  Rh  Rh12  1  0.214871  0.073505  0.500000  1
  Rh  Rh13  1  0.926495  0.214871  0.500000  1
  Rh  Rh14  1  0.426496  0.285129  0.500000  1
  Rh  Rh15  1  0.714871  0.426496  0.500000  1
  Rh  Rh16  1  0.285129  0.573504  0.500000  1
  Rh  Rh17  1  0.573504  0.714871  0.500000  1
  Rh  Rh18  1  0.073505  0.785129  0.500000  1
  Rh  Rh19  1  0.785129  0.926495  0.500000  1
