# generated using pymatgen
data_Li4Yb3ErPd4
_symmetry_space_group_name_H-M   'P 1'
_cell_length_a   4.16239700
_cell_length_b   6.96505653
_cell_length_c   8.36442402
_cell_angle_alpha   89.80462639
_cell_angle_beta   90.00000000
_cell_angle_gamma   90.00000000
_symmetry_Int_Tables_number   1
_chemical_formula_structural   Li4Yb3ErPd4
_chemical_formula_sum   'Li4 Yb3 Er1 Pd4'
_cell_volume   242.49437056
_cell_formula_units_Z   1
loop_
 _symmetry_equiv_pos_site_id
 _symmetry_equiv_pos_as_xyz
  1  'x, y, z'
loop_
 _atom_site_type_symbol
 _atom_site_label
 _atom_site_symmetry_multiplicity
 _atom_site_fract_x
 _atom_site_fract_y
 _atom_site_fract_z
 _atom_site_occupancy
  Li  Li0  1  0.250000  0.127437  0.943040  1
  Li  Li1  1  0.250000  0.636052  0.558647  1
  Li  Li2  1  0.750000  0.864768  0.055024  1
  Li  Li3  1  0.750000  0.370775  0.443539  1
  Yb  Yb4  1  0.250000  0.537664  0.180633  1
  Yb  Yb5  1  0.750000  0.963702  0.678981  1
  Yb  Yb6  1  0.750000  0.460052  0.822107  1
  Er  Er7  1  0.250000  0.040627  0.321521  1
  Pd  Pd8  1  0.250000  0.255213  0.618479  1
  Pd  Pd9  1  0.250000  0.750215  0.873871  1
  Pd  Pd10  1  0.750000  0.757335  0.369753  1
  Pd  Pd11  1  0.750000  0.236160  0.134407  1
