# generated using pymatgen
data_SrDy2(CoH6)2
_symmetry_space_group_name_H-M   'P 1'
_cell_length_a   4.74074200
_cell_length_b   4.74074286
_cell_length_c   8.21932800
_cell_angle_alpha   90.00000000
_cell_angle_beta   90.00000000
_cell_angle_gamma   119.99999399
_symmetry_Int_Tables_number   1
_chemical_formula_structural   SrDy2(CoH6)2
_chemical_formula_sum   'Sr1 Dy2 Co2 H12'
_cell_volume   159.97778905
_cell_formula_units_Z   1
loop_
 _symmetry_equiv_pos_site_id
 _symmetry_equiv_pos_as_xyz
  1  'x, y, z'
loop_
 _atom_site_type_symbol
 _atom_site_label
 _atom_site_symmetry_multiplicity
 _atom_site_fract_x
 _atom_site_fract_y
 _atom_site_fract_z
 _atom_site_occupancy
  Sr  Sr0  1  0.000000  0.000000  0.000000  1
  Dy  Dy1  1  0.666667  0.333333  0.363111  1
  Dy  Dy2  1  0.333333  0.666667  0.636889  1
  Co  Co3  1  0.666667  0.333333  0.732411  1
  Co  Co4  1  0.333333  0.666667  0.267589  1
  H  H5  1  0.176380  0.823620  0.380508  1
  H  H6  1  0.647238  0.823620  0.380508  1
  H  H7  1  0.176380  0.352762  0.380508  1
  H  H8  1  0.823620  0.176380  0.619492  1
  H  H9  1  0.352762  0.176380  0.619492  1
  H  H10  1  0.823620  0.647238  0.619492  1
  H  H11  1  0.509641  0.019282  0.845404  1
  H  H12  1  0.509641  0.490359  0.845404  1
  H  H13  1  0.980718  0.490359  0.845404  1
  H  H14  1  0.490359  0.980718  0.154596  1
  H  H15  1  0.490359  0.509641  0.154596  1
  H  H16  1  0.019282  0.509641  0.154596  1
