# generated using pymatgen
data_Yb(Ga2Pt)2
_symmetry_space_group_name_H-M   'P 1'
_cell_length_a   4.32453500
_cell_length_b   6.84591219
_cell_length_c   8.93016220
_cell_angle_alpha   71.88206494
_cell_angle_beta   90.00000000
_cell_angle_gamma   90.00000000
_symmetry_Int_Tables_number   1
_chemical_formula_structural   Yb(Ga2Pt)2
_chemical_formula_sum   'Yb2 Ga8 Pt4'
_cell_volume   251.27248758
_cell_formula_units_Z   2
loop_
 _symmetry_equiv_pos_site_id
 _symmetry_equiv_pos_as_xyz
  1  'x, y, z'
loop_
 _atom_site_type_symbol
 _atom_site_label
 _atom_site_symmetry_multiplicity
 _atom_site_fract_x
 _atom_site_fract_y
 _atom_site_fract_z
 _atom_site_occupancy
  Yb  Yb0  1  0.750000  0.848444  0.785650  1
  Yb  Yb1  1  0.250000  0.151556  0.214350  1
  Ga  Ga2  1  0.250000  0.095078  0.881118  1
  Ga  Ga3  1  0.750000  0.904922  0.118882  1
  Ga  Ga4  1  0.250000  0.107190  0.577875  1
  Ga  Ga5  1  0.750000  0.892810  0.422125  1
  Ga  Ga6  1  0.250000  0.520896  0.368822  1
  Ga  Ga7  1  0.750000  0.479104  0.631178  1
  Ga  Ga8  1  0.250000  0.508663  0.868502  1
  Ga  Ga9  1  0.750000  0.491337  0.131498  1
  Pt  Pt10  1  0.250000  0.715188  0.070615  1
  Pt  Pt11  1  0.750000  0.284812  0.929385  1
  Pt  Pt12  1  0.250000  0.723259  0.569655  1
  Pt  Pt13  1  0.750000  0.276741  0.430345  1
