# generated using pymatgen
data_Sm8Zr12Si15Ge
_symmetry_space_group_name_H-M   'P 1'
_cell_length_a   7.22400329
_cell_length_b   7.37973080
_cell_length_c   14.09003850
_cell_angle_alpha   90.02591109
_cell_angle_beta   89.86567087
_cell_angle_gamma   90.01893300
_symmetry_Int_Tables_number   1
_chemical_formula_structural   Sm8Zr12Si15Ge
_chemical_formula_sum   'Sm8 Zr12 Si15 Ge1'
_cell_volume   751.15467163
_cell_formula_units_Z   1
loop_
 _symmetry_equiv_pos_site_id
 _symmetry_equiv_pos_as_xyz
  1  'x, y, z'
loop_
 _atom_site_type_symbol
 _atom_site_label
 _atom_site_symmetry_multiplicity
 _atom_site_fract_x
 _atom_site_fract_y
 _atom_site_fract_z
 _atom_site_occupancy
  Sm  Sm0  1  0.013321  0.174920  0.097048  1
  Sm  Sm1  1  0.986745  0.825437  0.903033  1
  Sm  Sm2  1  0.487113  0.674734  0.903022  1
  Sm  Sm3  1  0.986732  0.826296  0.597364  1
  Sm  Sm4  1  0.512967  0.325140  0.097181  1
  Sm  Sm5  1  0.011751  0.173989  0.402461  1
  Sm  Sm6  1  0.512761  0.324691  0.402357  1
  Sm  Sm7  1  0.489761  0.676171  0.597675  1
  Zr  Zr8  1  0.157972  0.496834  0.751783  1
  Zr  Zr9  1  0.841891  0.503252  0.249933  1
  Zr  Zr10  1  0.341955  0.997124  0.249784  1
  Zr  Zr11  1  0.658042  0.002913  0.750277  1
  Zr  Zr12  1  0.332760  0.173649  0.626279  1
  Zr  Zr13  1  0.669293  0.823692  0.374485  1
  Zr  Zr14  1  0.168741  0.678104  0.373872  1
  Zr  Zr15  1  0.669718  0.823345  0.125014  1
  Zr  Zr16  1  0.827806  0.322902  0.625267  1
  Zr  Zr17  1  0.330065  0.176701  0.874911  1
  Zr  Zr18  1  0.829719  0.323603  0.874873  1
  Zr  Zr19  1  0.170050  0.676573  0.125203  1
  Si  Si20  1  0.033865  0.121852  0.749956  1
  Si  Si21  1  0.965596  0.878752  0.249558  1
  Si  Si22  1  0.465695  0.621761  0.249788  1
  Si  Si23  1  0.533815  0.378432  0.750234  1
  Si  Si24  1  0.284551  0.876642  0.750366  1
  Si  Si25  1  0.715209  0.122514  0.249643  1
  Si  Si26  1  0.215083  0.377671  0.249926  1
  Si  Si27  1  0.785565  0.622404  0.750016  1
  Si  Si28  1  0.841500  0.534984  0.458364  1
  Si  Si29  1  0.345862  0.965530  0.459318  1
  Si  Si30  1  0.846583  0.533828  0.040712  1
  Si  Si31  1  0.654175  0.034499  0.540389  1
  Si  Si32  1  0.153457  0.466246  0.959300  1
  Si  Si33  1  0.652955  0.034005  0.959137  1
  Si  Si34  1  0.346895  0.965970  0.040734  1
  Ge  Ge35  1  0.160030  0.464843  0.540736  1
