# generated using pymatgen
data_Th4CdCu20Sn3
_symmetry_space_group_name_H-M   'P 1'
_cell_length_a   5.10617800
_cell_length_b   8.34711750
_cell_length_c   10.59965898
_cell_angle_alpha   89.95549634
_cell_angle_beta   90.00000000
_cell_angle_gamma   90.00000000
_symmetry_Int_Tables_number   1
_chemical_formula_structural   Th4CdCu20Sn3
_chemical_formula_sum   'Th4 Cd1 Cu20 Sn3'
_cell_volume   451.77712693
_cell_formula_units_Z   1
loop_
 _symmetry_equiv_pos_site_id
 _symmetry_equiv_pos_as_xyz
  1  'x, y, z'
loop_
 _atom_site_type_symbol
 _atom_site_label
 _atom_site_symmetry_multiplicity
 _atom_site_fract_x
 _atom_site_fract_y
 _atom_site_fract_z
 _atom_site_occupancy
  Th  Th0  1  0.750000  0.251753  0.936627  1
  Th  Th1  1  0.250000  0.752412  0.057471  1
  Th  Th2  1  0.750000  0.745100  0.559989  1
  Th  Th3  1  0.250000  0.252418  0.447758  1
  Cd  Cd4  1  0.750000  0.363793  0.637851  1
  Cu  Cu5  1  0.000747  0.429570  0.186136  1
  Cu  Cu6  1  0.501736  0.568782  0.811950  1
  Cu  Cu7  1  0.499244  0.929553  0.313399  1
  Cu  Cu8  1  0.998325  0.070101  0.688057  1
  Cu  Cu9  1  0.998264  0.568782  0.811950  1
  Cu  Cu10  1  0.499253  0.429570  0.186136  1
  Cu  Cu11  1  0.501675  0.070101  0.688057  1
  Cu  Cu12  1  0.000756  0.929553  0.313399  1
  Cu  Cu13  1  0.750000  0.434057  0.392996  1
  Cu  Cu14  1  0.250000  0.563500  0.606325  1
  Cu  Cu15  1  0.750000  0.935352  0.105054  1
  Cu  Cu16  1  0.250000  0.068678  0.895349  1
  Cu  Cu17  1  0.750000  0.180800  0.254534  1
  Cu  Cu18  1  0.250000  0.819379  0.746825  1
  Cu  Cu19  1  0.750000  0.681250  0.244186  1
  Cu  Cu20  1  0.250000  0.320660  0.753328  1
  Cu  Cu21  1  0.750000  0.081388  0.483394  1
  Cu  Cu22  1  0.250000  0.915330  0.518692  1
  Cu  Cu23  1  0.750000  0.582453  0.017104  1
  Cu  Cu24  1  0.250000  0.418979  0.982275  1
  Sn  Sn25  1  0.250000  0.636469  0.359109  1
  Sn  Sn26  1  0.750000  0.861898  0.860054  1
  Sn  Sn27  1  0.250000  0.138324  0.141989  1
