# generated using pymatgen
data_Ba2Eu2Sb2O
_symmetry_space_group_name_H-M   'P 1'
_cell_length_a   9.77475141
_cell_length_b   9.77475165
_cell_length_c   9.77475158
_cell_angle_alpha   150.06852930
_cell_angle_beta   150.06853230
_cell_angle_gamma   42.84081949
_symmetry_Int_Tables_number   1
_chemical_formula_structural   Ba2Eu2Sb2O
_chemical_formula_sum   'Ba2 Eu2 Sb2 O1'
_cell_volume   231.92295724
_cell_formula_units_Z   1
loop_
 _symmetry_equiv_pos_site_id
 _symmetry_equiv_pos_as_xyz
  1  'x, y, z'
loop_
 _atom_site_type_symbol
 _atom_site_label
 _atom_site_symmetry_multiplicity
 _atom_site_fract_x
 _atom_site_fract_y
 _atom_site_fract_z
 _atom_site_occupancy
  Ba  Ba0  1  0.667842  0.667842  0.000000  1
  Ba  Ba1  1  0.332158  0.332158  0.000000  1
  Eu  Eu2  1  0.500000  0.000000  0.500000  1
  Eu  Eu3  1  0.000000  0.500000  0.500000  1
  Sb  Sb4  1  0.871890  0.871890  0.000000  1
  Sb  Sb5  1  0.128110  0.128110  0.000000  1
  O  O6  1  0.500000  0.500000  0.000000  1
