# generated using pymatgen
data_La2Fe2Si2C
_symmetry_space_group_name_H-M   'P 1'
_cell_length_a   5.83889995
_cell_length_b   5.83890020
_cell_length_c   7.11715202
_cell_angle_alpha   54.87981360
_cell_angle_beta   54.87981387
_cell_angle_gamma   40.26757398
_symmetry_Int_Tables_number   1
_chemical_formula_structural   La2Fe2Si2C
_chemical_formula_sum   'La2 Fe2 Si2 C1'
_cell_volume   123.94422454
_cell_formula_units_Z   1
loop_
 _symmetry_equiv_pos_site_id
 _symmetry_equiv_pos_as_xyz
  1  'x, y, z'
loop_
 _atom_site_type_symbol
 _atom_site_label
 _atom_site_symmetry_multiplicity
 _atom_site_fract_x
 _atom_site_fract_y
 _atom_site_fract_z
 _atom_site_occupancy
  La  La0  1  0.442564  0.442564  0.302643  1
  La  La1  1  0.557436  0.557436  0.697357  1
  Fe  Fe2  1  0.809302  0.809302  0.081013  1
  Fe  Fe3  1  0.190698  0.190698  0.918987  1
  Si  Si4  1  0.813399  0.813399  0.753934  1
  Si  Si5  1  0.186601  0.186601  0.246066  1
  C  C6  1  0.000000  0.000000  0.000000  1
