# generated using pymatgen
data_NdPd2Au3
_symmetry_space_group_name_H-M   'P 1'
_cell_length_a   5.48636924
_cell_length_b   5.48636932
_cell_length_c   5.48636945
_cell_angle_alpha   120.04135167
_cell_angle_beta   119.37829724
_cell_angle_gamma   90.50428788
_symmetry_Int_Tables_number   1
_chemical_formula_structural   NdPd2Au3
_chemical_formula_sum   'Nd1 Pd2 Au3'
_cell_volume   117.27476805
_cell_formula_units_Z   1
loop_
 _symmetry_equiv_pos_site_id
 _symmetry_equiv_pos_as_xyz
  1  'x, y, z'
loop_
 _atom_site_type_symbol
 _atom_site_label
 _atom_site_symmetry_multiplicity
 _atom_site_fract_x
 _atom_site_fract_y
 _atom_site_fract_z
 _atom_site_occupancy
  Nd  Nd0  1  0.003232  0.003232  0.000000  1
  Pd  Pd1  1  0.623792  0.374571  0.249221  1
  Pd  Pd2  1  0.125350  0.374571  0.750779  1
  Au  Au3  1  0.623445  0.374048  0.750604  1
  Au  Au4  1  0.623445  0.872841  0.249396  1
  Au  Au5  1  0.250737  0.750737  0.500000  1
