# generated using pymatgen
data_HoPa(Be12Ni)2
_symmetry_space_group_name_H-M   'P 1'
_cell_length_a   7.25084151
_cell_length_b   7.31371463
_cell_length_c   7.22921012
_cell_angle_alpha   59.80910471
_cell_angle_beta   59.78586007
_cell_angle_gamma   59.51659380
_symmetry_Int_Tables_number   1
_chemical_formula_structural   HoPa(Be12Ni)2
_chemical_formula_sum   'Ho1 Pa1 Be24 Ni2'
_cell_volume   269.25510805
_cell_formula_units_Z   1
loop_
 _symmetry_equiv_pos_site_id
 _symmetry_equiv_pos_as_xyz
  1  'x, y, z'
loop_
 _atom_site_type_symbol
 _atom_site_label
 _atom_site_symmetry_multiplicity
 _atom_site_fract_x
 _atom_site_fract_y
 _atom_site_fract_z
 _atom_site_occupancy
  Ho  Ho0  1  0.750892  0.749108  0.750892  1
  Pa  Pa1  1  0.246324  0.253676  0.246324  1
  Be  Be2  1  0.500230  0.499770  0.500230  1
  Be  Be3  1  0.999656  0.000344  0.999656  1
  Be  Be4  1  0.565183  0.791110  0.432203  1
  Be  Be5  1  0.432203  0.211504  0.565183  1
  Be  Be6  1  0.294010  0.938122  0.704461  1
  Be  Be7  1  0.704461  0.063406  0.294010  1
  Be  Be8  1  0.933906  0.283588  0.066983  1
  Be  Be9  1  0.066983  0.715523  0.933906  1
  Be  Be10  1  0.207000  0.797515  0.559107  1
  Be  Be11  1  0.794503  0.201804  0.441606  1
  Be  Be12  1  0.441606  0.562086  0.794503  1
  Be  Be13  1  0.559107  0.436378  0.207000  1
  Be  Be14  1  0.709029  0.283340  0.939266  1
  Be  Be15  1  0.288502  0.712923  0.064079  1
  Be  Be16  1  0.064079  0.934495  0.288502  1
  Be  Be17  1  0.939266  0.068365  0.709029  1
  Be  Be18  1  0.561238  0.207969  0.794591  1
  Be  Be19  1  0.437369  0.794166  0.206562  1
  Be  Be20  1  0.794591  0.436202  0.561238  1
  Be  Be21  1  0.206562  0.561903  0.437369  1
  Be  Be22  1  0.939146  0.709984  0.289193  1
  Be  Be23  1  0.064263  0.288932  0.708176  1
  Be  Be24  1  0.289193  0.061677  0.939146  1
  Be  Be25  1  0.708176  0.938630  0.064263  1
  Ni  Ni26  1  0.802261  0.556399  0.200262  1
  Ni  Ni27  1  0.200262  0.441077  0.802261  1
