# generated using pymatgen
data_Ce12Fe5Si6Ir
_symmetry_space_group_name_H-M   'P 1'
_cell_length_a   7.46844248
_cell_length_b   7.46844003
_cell_length_c   9.56923000
_cell_angle_alpha   89.86913569
_cell_angle_beta   89.86913573
_cell_angle_gamma   119.92293675
_symmetry_Int_Tables_number   1
_chemical_formula_structural   Ce12Fe5Si6Ir
_chemical_formula_sum   'Ce12 Fe5 Si6 Ir1'
_cell_volume   462.59375597
_cell_formula_units_Z   1
loop_
 _symmetry_equiv_pos_site_id
 _symmetry_equiv_pos_as_xyz
  1  'x, y, z'
loop_
 _atom_site_type_symbol
 _atom_site_label
 _atom_site_symmetry_multiplicity
 _atom_site_fract_x
 _atom_site_fract_y
 _atom_site_fract_z
 _atom_site_occupancy
  Ce  Ce0  1  0.998579  0.576787  0.499347  1
  Ce  Ce1  1  0.576787  0.998579  0.499347  1
  Ce  Ce2  1  0.421325  0.421325  0.498380  1
  Ce  Ce3  1  0.998290  0.424465  0.001411  1
  Ce  Ce4  1  0.424465  0.998290  0.001411  1
  Ce  Ce5  1  0.604534  0.604534  0.019179  1
  Ce  Ce6  1  0.004632  0.746261  0.173429  1
  Ce  Ce7  1  0.746261  0.004632  0.173429  1
  Ce  Ce8  1  0.259121  0.259121  0.172902  1
  Ce  Ce9  1  0.988275  0.253870  0.666903  1
  Ce  Ce10  1  0.253870  0.988275  0.666903  1
  Ce  Ce11  1  0.740071  0.740071  0.671402  1
  Fe  Fe12  1  0.999751  0.351084  0.341964  1
  Fe  Fe13  1  0.351084  0.999751  0.341964  1
  Fe  Fe14  1  0.649854  0.649854  0.343758  1
  Fe  Fe15  1  0.000266  0.649448  0.843613  1
  Fe  Fe16  1  0.649448  0.000266  0.843613  1
  Si  Si17  1  0.667807  0.334891  0.273245  1
  Si  Si18  1  0.334891  0.667807  0.273245  1
  Si  Si19  1  0.333311  0.665344  0.775819  1
  Si  Si20  1  0.665344  0.333311  0.775819  1
  Si  Si21  1  0.998844  0.998844  0.417271  1
  Si  Si22  1  0.997773  0.997773  0.915128  1
  Ir  Ir23  1  0.335420  0.335420  0.839769  1
