# generated using pymatgen
data_V2SiB2Mo3
_symmetry_space_group_name_H-M   'P 1'
_cell_length_a   6.91637475
_cell_length_b   6.93844633
_cell_length_c   6.93844586
_cell_angle_alpha   129.43886048
_cell_angle_beta   129.35346653
_cell_angle_gamma   74.44322427
_symmetry_Int_Tables_number   1
_chemical_formula_structural   V2SiB2Mo3
_chemical_formula_sum   'V4 Si2 B4 Mo6'
_cell_volume   193.72441651
_cell_formula_units_Z   2
loop_
 _symmetry_equiv_pos_site_id
 _symmetry_equiv_pos_as_xyz
  1  'x, y, z'
loop_
 _atom_site_type_symbol
 _atom_site_label
 _atom_site_symmetry_multiplicity
 _atom_site_fract_x
 _atom_site_fract_y
 _atom_site_fract_z
 _atom_site_occupancy
  V  V0  1  0.002264  0.999528  0.997498  1
  V  V1  1  0.802925  0.968651  0.499892  1
  V  V2  1  0.302925  0.803033  0.834274  1
  V  V3  1  0.502264  0.504766  0.002736  1
  Si  Si4  1  0.743838  0.752996  0.003923  1
  Si  Si5  1  0.243838  0.239915  0.990842  1
  B  B6  1  0.383735  0.879649  0.258555  1
  B  B7  1  0.883735  0.625181  0.504086  1
  B  B8  1  0.622241  0.118202  0.738486  1
  B  B9  1  0.122241  0.383754  0.504039  1
  Mo  Mo10  1  0.192378  0.029719  0.498320  1
  Mo  Mo11  1  0.530718  0.692776  0.498726  1
  Mo  Mo12  1  0.030718  0.531993  0.837942  1
  Mo  Mo13  1  0.692378  0.194058  0.162658  1
  Mo  Mo14  1  0.971901  0.471960  0.168083  1
  Mo  Mo15  1  0.471901  0.303819  0.499941  1
