# generated using pymatgen
data_La3Ho(PPt)4
_symmetry_space_group_name_H-M   'P 1'
_cell_length_a   4.20147400
_cell_length_b   4.20147431
_cell_length_c   16.29174100
_cell_angle_alpha   90.00000000
_cell_angle_beta   90.00000000
_cell_angle_gamma   120.00001329
_symmetry_Int_Tables_number   1
_chemical_formula_structural   La3Ho(PPt)4
_chemical_formula_sum   'La3 Ho1 P4 Pt4'
_cell_volume   249.05855477
_cell_formula_units_Z   1
loop_
 _symmetry_equiv_pos_site_id
 _symmetry_equiv_pos_as_xyz
  1  'x, y, z'
loop_
 _atom_site_type_symbol
 _atom_site_label
 _atom_site_symmetry_multiplicity
 _atom_site_fract_x
 _atom_site_fract_y
 _atom_site_fract_z
 _atom_site_occupancy
  La  La0  1  0.000000  0.000000  0.507876  1
  La  La1  1  0.000000  0.000000  0.992124  1
  La  La2  1  0.000000  0.000000  0.250000  1
  Ho  Ho3  1  0.000000  0.000000  0.750000  1
  P  P4  1  0.333333  0.666667  0.872534  1
  P  P5  1  0.666667  0.333333  0.123531  1
  P  P6  1  0.666667  0.333333  0.376469  1
  P  P7  1  0.333333  0.666667  0.627466  1
  Pt  Pt8  1  0.333333  0.666667  0.379787  1
  Pt  Pt9  1  0.666667  0.333333  0.643466  1
  Pt  Pt10  1  0.666667  0.333333  0.856534  1
  Pt  Pt11  1  0.333333  0.666667  0.120213  1
