# generated using pymatgen
data_Tb4Ho11Lu5Sn16
_symmetry_space_group_name_H-M   'P 1'
_cell_length_a   7.97273591
_cell_length_b   8.12046711
_cell_length_c   15.37032504
_cell_angle_alpha   90.02271097
_cell_angle_beta   89.96048955
_cell_angle_gamma   90.05415699
_symmetry_Int_Tables_number   1
_chemical_formula_structural   Tb4Ho11Lu5Sn16
_chemical_formula_sum   'Tb4 Ho11 Lu5 Sn16'
_cell_volume   995.11004645
_cell_formula_units_Z   1
loop_
 _symmetry_equiv_pos_site_id
 _symmetry_equiv_pos_as_xyz
  1  'x, y, z'
loop_
 _atom_site_type_symbol
 _atom_site_label
 _atom_site_symmetry_multiplicity
 _atom_site_fract_x
 _atom_site_fract_y
 _atom_site_fract_z
 _atom_site_occupancy
  Tb  Tb0  1  0.481268  0.680341  0.095055  1
  Tb  Tb1  1  0.980806  0.820597  0.403452  1
  Tb  Tb2  1  0.519387  0.320822  0.597235  1
  Tb  Tb3  1  0.018948  0.178498  0.903215  1
  Ho  Ho4  1  0.865250  0.662427  0.623323  1
  Ho  Ho5  1  0.634442  0.162186  0.377403  1
  Ho  Ho6  1  0.135556  0.337557  0.121178  1
  Ho  Ho7  1  0.634390  0.162922  0.122841  1
  Ho  Ho8  1  0.134191  0.337311  0.377514  1
  Ho  Ho9  1  0.365898  0.837562  0.623017  1
  Ho  Ho10  1  0.865985  0.662190  0.877944  1
  Ho  Ho11  1  0.519085  0.320227  0.903468  1
  Ho  Ho12  1  0.020094  0.178956  0.597437  1
  Ho  Ho13  1  0.480693  0.679647  0.403638  1
  Ho  Ho14  1  0.979928  0.820428  0.096534  1
  Lu  Lu15  1  0.364547  0.838478  0.875928  1
  Lu  Lu16  1  0.197103  0.503750  0.750740  1
  Lu  Lu17  1  0.696243  0.996131  0.750424  1
  Lu  Lu18  1  0.803809  0.496361  0.250104  1
  Lu  Lu19  1  0.303513  0.003246  0.249443  1
  Sn  Sn20  1  0.295027  0.035586  0.040727  1
  Sn  Sn21  1  0.794137  0.463438  0.457780  1
  Sn  Sn22  1  0.706389  0.963410  0.542808  1
  Sn  Sn23  1  0.207533  0.539602  0.956797  1
  Sn  Sn24  1  0.701244  0.962096  0.957517  1
  Sn  Sn25  1  0.205204  0.536716  0.542778  1
  Sn  Sn26  1  0.294441  0.036723  0.457667  1
  Sn  Sn27  1  0.794631  0.462943  0.042472  1
  Sn  Sn28  1  0.561595  0.619406  0.750895  1
  Sn  Sn29  1  0.062282  0.881321  0.750835  1
  Sn  Sn30  1  0.437875  0.382257  0.250032  1
  Sn  Sn31  1  0.938391  0.118224  0.249364  1
  Sn  Sn32  1  0.329200  0.149364  0.750708  1
  Sn  Sn33  1  0.828841  0.350086  0.750266  1
  Sn  Sn34  1  0.670965  0.849883  0.249977  1
  Sn  Sn35  1  0.171106  0.649311  0.249482  1
