# generated using pymatgen
data_HoScBi4(SbO7)2
_symmetry_space_group_name_H-M   'P 1'
_cell_length_a   6.44924058
_cell_length_b   6.71654257
_cell_length_c   7.60952183
_cell_angle_alpha   106.49002317
_cell_angle_beta   89.61646725
_cell_angle_gamma   99.02471328
_symmetry_Int_Tables_number   1
_chemical_formula_structural   HoScBi4(SbO7)2
_chemical_formula_sum   'Ho1 Sc1 Bi4 Sb2 O14'
_cell_volume   311.89935865
_cell_formula_units_Z   1
loop_
 _symmetry_equiv_pos_site_id
 _symmetry_equiv_pos_as_xyz
  1  'x, y, z'
loop_
 _atom_site_type_symbol
 _atom_site_label
 _atom_site_symmetry_multiplicity
 _atom_site_fract_x
 _atom_site_fract_y
 _atom_site_fract_z
 _atom_site_occupancy
  Ho  Ho0  1  0.457680  0.004775  0.248305  1
  Sc  Sc1  1  0.538146  0.994747  0.754225  1
  Bi  Bi2  1  0.260001  0.515786  0.880268  1
  Bi  Bi3  1  0.742915  0.477290  0.119689  1
  Bi  Bi4  1  0.733654  0.462864  0.612840  1
  Bi  Bi5  1  0.269719  0.544492  0.396678  1
  Sb  Sb6  1  0.997840  0.999463  0.500718  1
  Sb  Sb7  1  0.999416  0.999440  0.996189  1
  O  O8  1  0.457344  0.658264  0.177615  1
  O  O9  1  0.539668  0.323632  0.815652  1
  O  O10  1  0.296843  0.955568  0.946152  1
  O  O11  1  0.702548  0.047875  0.040555  1
  O  O12  1  0.289871  0.930464  0.521613  1
  O  O13  1  0.708533  0.069872  0.486418  1
  O  O14  1  0.530720  0.351564  0.350948  1
  O  O15  1  0.479881  0.667271  0.658356  1
  O  O16  1  0.919517  0.684931  0.952029  1
  O  O17  1  0.082193  0.314580  0.047089  1
  O  O18  1  0.098103  0.310086  0.610804  1
  O  O19  1  0.905448  0.688693  0.386614  1
  O  O20  1  0.889685  0.955735  0.737844  1
  O  O21  1  0.100275  0.042606  0.259399  1
