# generated using pymatgen
data_Zr4Al4Mo3Pt
_symmetry_space_group_name_H-M   'P 1'
_cell_length_a   5.26653508
_cell_length_b   5.26653543
_cell_length_c   8.83991800
_cell_angle_alpha   90.00000000
_cell_angle_beta   90.00000000
_cell_angle_gamma   119.17895338
_symmetry_Int_Tables_number   1
_chemical_formula_structural   Zr4Al4Mo3Pt
_chemical_formula_sum   'Zr4 Al4 Mo3 Pt1'
_cell_volume   214.07345883
_cell_formula_units_Z   1
loop_
 _symmetry_equiv_pos_site_id
 _symmetry_equiv_pos_as_xyz
  1  'x, y, z'
loop_
 _atom_site_type_symbol
 _atom_site_label
 _atom_site_symmetry_multiplicity
 _atom_site_fract_x
 _atom_site_fract_y
 _atom_site_fract_z
 _atom_site_occupancy
  Zr  Zr0  1  0.334045  0.665955  0.187424  1
  Zr  Zr1  1  0.666409  0.333591  0.315864  1
  Zr  Zr2  1  0.666409  0.333591  0.684136  1
  Zr  Zr3  1  0.334045  0.665955  0.812576  1
  Al  Al4  1  0.997468  0.002532  0.244952  1
  Al  Al5  1  0.997468  0.002532  0.755048  1
  Al  Al6  1  0.831753  0.652031  0.000000  1
  Al  Al7  1  0.347969  0.168247  0.000000  1
  Mo  Mo8  1  0.165633  0.342835  0.500000  1
  Mo  Mo9  1  0.657165  0.834367  0.500000  1
  Mo  Mo10  1  0.166811  0.833189  0.500000  1
  Pt  Pt11  1  0.834978  0.165022  0.000000  1
