# generated using pymatgen
data_Ho6LuRh3
_symmetry_space_group_name_H-M   'P 1'
_cell_length_a   9.73651600
_cell_length_b   9.73651583
_cell_length_c   6.16461500
_cell_angle_alpha   90.00000000
_cell_angle_beta   90.00000000
_cell_angle_gamma   120.00000059
_symmetry_Int_Tables_number   1
_chemical_formula_structural   Ho6LuRh3
_chemical_formula_sum   'Ho12 Lu2 Rh6'
_cell_volume   506.10863114
_cell_formula_units_Z   2
loop_
 _symmetry_equiv_pos_site_id
 _symmetry_equiv_pos_as_xyz
  1  'x, y, z'
loop_
 _atom_site_type_symbol
 _atom_site_label
 _atom_site_symmetry_multiplicity
 _atom_site_fract_x
 _atom_site_fract_y
 _atom_site_fract_z
 _atom_site_occupancy
  Ho  Ho0  1  0.123621  0.876379  0.253488  1
  Ho  Ho1  1  0.752757  0.876379  0.253488  1
  Ho  Ho2  1  0.123621  0.247243  0.253488  1
  Ho  Ho3  1  0.876379  0.123621  0.753488  1
  Ho  Ho4  1  0.247243  0.123621  0.753488  1
  Ho  Ho5  1  0.876379  0.752757  0.753488  1
  Ho  Ho6  1  0.540989  0.459011  0.446964  1
  Ho  Ho7  1  0.918023  0.459011  0.446964  1
  Ho  Ho8  1  0.540989  0.081977  0.446964  1
  Ho  Ho9  1  0.459011  0.540989  0.946964  1
  Ho  Ho10  1  0.081977  0.540989  0.946964  1
  Ho  Ho11  1  0.459011  0.918023  0.946964  1
  Lu  Lu12  1  0.333333  0.666667  0.459845  1
  Lu  Lu13  1  0.666667  0.333333  0.959845  1
  Rh  Rh14  1  0.809508  0.190492  0.180190  1
  Rh  Rh15  1  0.380983  0.190492  0.180190  1
  Rh  Rh16  1  0.809508  0.619017  0.180190  1
  Rh  Rh17  1  0.190492  0.809508  0.680190  1
  Rh  Rh18  1  0.619017  0.809508  0.680190  1
  Rh  Rh19  1  0.190492  0.380983  0.680190  1
