# generated using pymatgen
data_Tm20SiBi11
_symmetry_space_group_name_H-M   'P 1'
_cell_length_a   8.09937695
_cell_length_b   9.38462900
_cell_length_c   11.85607813
_cell_angle_alpha   90.00000000
_cell_angle_beta   89.77313495
_cell_angle_gamma   90.00000000
_symmetry_Int_Tables_number   1
_chemical_formula_structural   Tm20SiBi11
_chemical_formula_sum   'Tm20 Si1 Bi11'
_cell_volume   901.16925813
_cell_formula_units_Z   1
loop_
 _symmetry_equiv_pos_site_id
 _symmetry_equiv_pos_as_xyz
  1  'x, y, z'
loop_
 _atom_site_type_symbol
 _atom_site_label
 _atom_site_symmetry_multiplicity
 _atom_site_fract_x
 _atom_site_fract_y
 _atom_site_fract_z
 _atom_site_occupancy
  Tm  Tm0  1  0.038565  0.250000  0.510897  1
  Tm  Tm1  1  0.979746  0.750000  0.490362  1
  Tm  Tm2  1  0.475559  0.750000  0.011547  1
  Tm  Tm3  1  0.526437  0.250000  0.988300  1
  Tm  Tm4  1  0.356518  0.250000  0.295742  1
  Tm  Tm5  1  0.647790  0.750000  0.716496  1
  Tm  Tm6  1  0.146834  0.750000  0.781422  1
  Tm  Tm7  1  0.852938  0.250000  0.216863  1
  Tm  Tm8  1  0.193651  0.250000  0.776014  1
  Tm  Tm9  1  0.811290  0.750000  0.218250  1
  Tm  Tm10  1  0.313424  0.750000  0.281401  1
  Tm  Tm11  1  0.668356  0.250000  0.707689  1
  Tm  Tm12  1  0.193638  0.066255  0.060814  1
  Tm  Tm13  1  0.806440  0.934935  0.940371  1
  Tm  Tm14  1  0.310398  0.951708  0.559283  1
  Tm  Tm15  1  0.806440  0.565065  0.940371  1
  Tm  Tm16  1  0.683001  0.073236  0.445909  1
  Tm  Tm17  1  0.193638  0.433745  0.060814  1
  Tm  Tm18  1  0.683001  0.426764  0.445909  1
  Tm  Tm19  1  0.310398  0.548292  0.559283  1
  Si  Si20  1  0.409438  0.250000  0.537023  1
  Bi  Bi21  1  0.593977  0.750000  0.457758  1
  Bi  Bi22  1  0.093804  0.750000  0.042015  1
  Bi  Bi23  1  0.909083  0.250000  0.954473  1
  Bi  Bi24  1  0.064607  0.003079  0.325341  1
  Bi  Bi25  1  0.933361  0.998771  0.674461  1
  Bi  Bi26  1  0.434432  0.995388  0.825501  1
  Bi  Bi27  1  0.933361  0.501229  0.674461  1
  Bi  Bi28  1  0.565417  0.004961  0.175196  1
  Bi  Bi29  1  0.064607  0.496921  0.325341  1
  Bi  Bi30  1  0.565417  0.495039  0.175196  1
  Bi  Bi31  1  0.434432  0.504612  0.825501  1
