# generated using pymatgen
data_Mg4Zn6CoRu
_symmetry_space_group_name_H-M   'P 1'
_cell_length_a   5.10189504
_cell_length_b   5.18203111
_cell_length_c   8.32231200
_cell_angle_alpha   90.00000000
_cell_angle_beta   90.00000000
_cell_angle_gamma   119.56272026
_symmetry_Int_Tables_number   1
_chemical_formula_structural   Mg4Zn6CoRu
_chemical_formula_sum   'Mg4 Zn6 Co1 Ru1'
_cell_volume   191.38283632
_cell_formula_units_Z   1
loop_
 _symmetry_equiv_pos_site_id
 _symmetry_equiv_pos_as_xyz
  1  'x, y, z'
loop_
 _atom_site_type_symbol
 _atom_site_label
 _atom_site_symmetry_multiplicity
 _atom_site_fract_x
 _atom_site_fract_y
 _atom_site_fract_z
 _atom_site_occupancy
  Mg  Mg0  1  0.324386  0.650895  0.066142  1
  Mg  Mg1  1  0.672239  0.331327  0.567328  1
  Mg  Mg2  1  0.672239  0.331327  0.932672  1
  Mg  Mg3  1  0.324386  0.650895  0.433858  1
  Zn  Zn4  1  0.997518  0.029435  0.005046  1
  Zn  Zn5  1  0.997518  0.029435  0.494954  1
  Zn  Zn6  1  0.348507  0.158627  0.250000  1
  Zn  Zn7  1  0.660732  0.826339  0.750000  1
  Zn  Zn8  1  0.168092  0.829937  0.750000  1
  Zn  Zn9  1  0.834079  0.657766  0.250000  1
  Co  Co10  1  0.825166  0.162786  0.250000  1
  Ru  Ru11  1  0.175137  0.341230  0.750000  1
