# generated using pymatgen
data_RbMgAsO4
_symmetry_space_group_name_H-M   'P 1'
_cell_length_a   5.14268401
_cell_length_b   10.41821249
_cell_length_c   8.90986201
_cell_angle_alpha   106.55962697
_cell_angle_beta   90.00037988
_cell_angle_gamma   90.00623352
_symmetry_Int_Tables_number   1
_chemical_formula_structural   RbMgAsO4
_chemical_formula_sum   'Rb4 Mg4 As4 O16'
_cell_volume   457.56927660
_cell_formula_units_Z   4
loop_
 _symmetry_equiv_pos_site_id
 _symmetry_equiv_pos_as_xyz
  1  'x, y, z'
loop_
 _atom_site_type_symbol
 _atom_site_label
 _atom_site_symmetry_multiplicity
 _atom_site_fract_x
 _atom_site_fract_y
 _atom_site_fract_z
 _atom_site_occupancy
  Rb  Rb0  1  0.499986  0.132086  0.210658  1
  Rb  Rb1  1  0.999981  0.132086  0.710657  1
  Rb  Rb2  1  0.500018  0.867914  0.789343  1
  Rb  Rb3  1  0.000015  0.867914  0.289342  1
  Mg  Mg4  1  0.500009  0.493467  0.664487  1
  Mg  Mg5  1  0.999991  0.506533  0.835514  1
  Mg  Mg6  1  0.000006  0.493467  0.164488  1
  Mg  Mg7  1  0.499994  0.506533  0.335512  1
  As  As8  1  0.500026  0.674915  0.058284  1
  As  As9  1  0.000028  0.674916  0.558283  1
  As  As10  1  0.499971  0.325084  0.941717  1
  As  As11  1  0.999974  0.325085  0.441717  1
  O  O12  1  0.499952  0.154399  0.884815  1
  O  O13  1  0.999958  0.154399  0.384814  1
  O  O14  1  0.500042  0.845602  0.115187  1
  O  O15  1  0.000047  0.845601  0.615185  1
  O  O16  1  0.344540  0.619173  0.877668  1
  O  O17  1  0.844541  0.619173  0.377668  1
  O  O18  1  0.334713  0.619134  0.198438  1
  O  O19  1  0.834714  0.619135  0.698437  1
  O  O20  1  0.179180  0.380853  0.956997  1
  O  O21  1  0.679185  0.380853  0.456997  1
  O  O22  1  0.655458  0.380827  0.122332  1
  O  O23  1  0.155461  0.380826  0.622332  1
  O  O24  1  0.820816  0.619147  0.043004  1
  O  O25  1  0.320819  0.619147  0.543002  1
  O  O26  1  0.665285  0.380865  0.801563  1
  O  O27  1  0.165288  0.380866  0.301563  1
