# generated using pymatgen
data_Ce2NdLu(AlRh)4
_symmetry_space_group_name_H-M   'P 1'
_cell_length_a   4.20598200
_cell_length_b   7.02868998
_cell_length_c   15.92576124
_cell_angle_alpha   89.63976350
_cell_angle_beta   90.00000000
_cell_angle_gamma   90.00000000
_symmetry_Int_Tables_number   1
_chemical_formula_structural   Ce2NdLu(AlRh)4
_chemical_formula_sum   'Ce4 Nd2 Lu2 Al8 Rh8'
_cell_volume   470.79670433
_cell_formula_units_Z   2
loop_
 _symmetry_equiv_pos_site_id
 _symmetry_equiv_pos_as_xyz
  1  'x, y, z'
loop_
 _atom_site_type_symbol
 _atom_site_label
 _atom_site_symmetry_multiplicity
 _atom_site_fract_x
 _atom_site_fract_y
 _atom_site_fract_z
 _atom_site_occupancy
  Ce  Ce0  1  0.250000  0.032214  0.775408  1
  Ce  Ce1  1  0.750000  0.967786  0.224592  1
  Ce  Ce2  1  0.250000  0.535146  0.716056  1
  Ce  Ce3  1  0.750000  0.464854  0.283944  1
  Nd  Nd4  1  0.250000  0.657583  0.938357  1
  Nd  Nd5  1  0.750000  0.342417  0.061643  1
  Lu  Lu6  1  0.250000  0.157009  0.557698  1
  Lu  Lu7  1  0.750000  0.842991  0.442302  1
  Al  Al8  1  0.250000  0.133472  0.357634  1
  Al  Al9  1  0.750000  0.866528  0.642366  1
  Al  Al10  1  0.250000  0.641801  0.152195  1
  Al  Al11  1  0.750000  0.358199  0.847805  1
  Al  Al12  1  0.250000  0.004946  0.063047  1
  Al  Al13  1  0.750000  0.995054  0.936953  1
  Al  Al14  1  0.250000  0.505373  0.440887  1
  Al  Al15  1  0.750000  0.494627  0.559113  1
  Rh  Rh16  1  0.750000  0.265079  0.432801  1
  Rh  Rh17  1  0.250000  0.734921  0.567199  1
  Rh  Rh18  1  0.750000  0.783862  0.076963  1
  Rh  Rh19  1  0.250000  0.216138  0.923037  1
  Rh  Rh20  1  0.750000  0.747170  0.808126  1
  Rh  Rh21  1  0.250000  0.252830  0.191874  1
  Rh  Rh22  1  0.750000  0.244483  0.681143  1
  Rh  Rh23  1  0.250000  0.755517  0.318857  1
