# generated using pymatgen
data_Na4Sr2GeP4
_symmetry_space_group_name_H-M   'P 1'
_cell_length_a   9.40606480
_cell_length_b   9.40606543
_cell_length_c   7.31467118
_cell_angle_alpha   89.52450067
_cell_angle_beta   89.52449214
_cell_angle_gamma   119.91792292
_symmetry_Int_Tables_number   1
_chemical_formula_structural   Na4Sr2GeP4
_chemical_formula_sum   'Na8 Sr4 Ge2 P8'
_cell_volume   560.84172223
_cell_formula_units_Z   2
loop_
 _symmetry_equiv_pos_site_id
 _symmetry_equiv_pos_as_xyz
  1  'x, y, z'
loop_
 _atom_site_type_symbol
 _atom_site_label
 _atom_site_symmetry_multiplicity
 _atom_site_fract_x
 _atom_site_fract_y
 _atom_site_fract_z
 _atom_site_occupancy
  Na  Na0  1  0.472119  0.941035  0.391066  1
  Na  Na1  1  0.941035  0.472119  0.891066  1
  Na  Na2  1  0.864976  0.723084  0.198469  1
  Na  Na3  1  0.289000  0.134301  0.231065  1
  Na  Na4  1  0.848648  0.138114  0.219191  1
  Na  Na5  1  0.134301  0.289000  0.731065  1
  Na  Na6  1  0.723084  0.864976  0.698469  1
  Na  Na7  1  0.138114  0.848648  0.719191  1
  Sr  Sr8  1  0.049337  0.528117  0.388857  1
  Sr  Sr9  1  0.480311  0.530923  0.386611  1
  Sr  Sr10  1  0.528117  0.049337  0.888857  1
  Sr  Sr11  1  0.530923  0.480311  0.886611  1
  Ge  Ge12  1  0.661706  0.326512  0.503332  1
  Ge  Ge13  1  0.326512  0.661706  0.003332  1
  P  P14  1  0.663601  0.338336  0.175841  1
  P  P15  1  0.338336  0.663601  0.675841  1
  P  P16  1  0.195756  0.384483  0.114668  1
  P  P17  1  0.613507  0.807004  0.095684  1
  P  P18  1  0.198627  0.809514  0.104751  1
  P  P19  1  0.807004  0.613507  0.595684  1
  P  P20  1  0.384483  0.195756  0.614668  1
  P  P21  1  0.809514  0.198627  0.604751  1
