# generated using pymatgen
data_K6MgS4
_symmetry_space_group_name_H-M   'P 1'
_cell_length_a   9.98256000
_cell_length_b   9.98255902
_cell_length_c   7.73869800
_cell_angle_alpha   90.00000000
_cell_angle_beta   90.00000000
_cell_angle_gamma   119.99999662
_symmetry_Int_Tables_number   1
_chemical_formula_structural   K6MgS4
_chemical_formula_sum   'K12 Mg2 S8'
_cell_volume   667.85527569
_cell_formula_units_Z   2
loop_
 _symmetry_equiv_pos_site_id
 _symmetry_equiv_pos_as_xyz
  1  'x, y, z'
loop_
 _atom_site_type_symbol
 _atom_site_label
 _atom_site_symmetry_multiplicity
 _atom_site_fract_x
 _atom_site_fract_y
 _atom_site_fract_z
 _atom_site_occupancy
  K  K0  1  0.293963  0.146982  0.955560  1
  K  K1  1  0.853018  0.706037  0.955560  1
  K  K2  1  0.853018  0.146982  0.955560  1
  K  K3  1  0.706037  0.853018  0.455560  1
  K  K4  1  0.146982  0.293963  0.455560  1
  K  K5  1  0.146982  0.853018  0.455560  1
  K  K6  1  0.058640  0.529320  0.134368  1
  K  K7  1  0.470680  0.941360  0.134368  1
  K  K8  1  0.470680  0.529320  0.134368  1
  K  K9  1  0.941360  0.470680  0.634368  1
  K  K10  1  0.529320  0.058640  0.634368  1
  K  K11  1  0.529320  0.470680  0.634368  1
  Mg  Mg12  1  0.666667  0.333333  0.249588  1
  Mg  Mg13  1  0.333333  0.666667  0.749588  1
  S  S14  1  0.666667  0.333333  0.925873  1
  S  S15  1  0.333333  0.666667  0.425873  1
  S  S16  1  0.390549  0.195275  0.349220  1
  S  S17  1  0.804725  0.609451  0.349220  1
  S  S18  1  0.804725  0.195275  0.349220  1
  S  S19  1  0.609451  0.804725  0.849220  1
  S  S20  1  0.195275  0.390549  0.849220  1
  S  S21  1  0.195275  0.804725  0.849220  1
