# generated using pymatgen
data_TbCe3In2(RhAu)2
_symmetry_space_group_name_H-M   'P 1'
_cell_length_a   7.91846001
_cell_length_b   7.91846005
_cell_length_c   3.74293000
_cell_angle_alpha   90.00000000
_cell_angle_beta   90.00000000
_cell_angle_gamma   88.23687911
_symmetry_Int_Tables_number   1
_chemical_formula_structural   TbCe3In2(RhAu)2
_chemical_formula_sum   'Tb1 Ce3 In2 Rh2 Au2'
_cell_volume   234.57812289
_cell_formula_units_Z   1
loop_
 _symmetry_equiv_pos_site_id
 _symmetry_equiv_pos_as_xyz
  1  'x, y, z'
loop_
 _atom_site_type_symbol
 _atom_site_label
 _atom_site_symmetry_multiplicity
 _atom_site_fract_x
 _atom_site_fract_y
 _atom_site_fract_z
 _atom_site_occupancy
  Tb  Tb0  1  0.666404  0.166404  0.500000  1
  Ce  Ce1  1  0.340665  0.840665  0.500000  1
  Ce  Ce2  1  0.188709  0.313945  0.500000  1
  Ce  Ce3  1  0.813945  0.688709  0.500000  1
  In  In4  1  0.999140  0.002134  0.000000  1
  In  In5  1  0.502134  0.499140  0.000000  1
  Rh  Rh6  1  0.629548  0.858295  0.000000  1
  Rh  Rh7  1  0.358295  0.129548  0.000000  1
  Au  Au8  1  0.128382  0.628382  0.000000  1
  Au  Au9  1  0.872777  0.372777  0.000000  1
