# generated using pymatgen
data_NaLaPr5RuBr12
_symmetry_space_group_name_H-M   'P 1'
_cell_length_a   9.65860292
_cell_length_b   9.65145329
_cell_length_c   9.65466049
_cell_angle_alpha   107.11378822
_cell_angle_beta   107.15243284
_cell_angle_gamma   107.34851934
_symmetry_Int_Tables_number   1
_chemical_formula_structural   NaLaPr5RuBr12
_chemical_formula_sum   'Na1 La1 Pr5 Ru1 Br12'
_cell_volume   745.29903652
_cell_formula_units_Z   1
loop_
 _symmetry_equiv_pos_site_id
 _symmetry_equiv_pos_as_xyz
  1  'x, y, z'
loop_
 _atom_site_type_symbol
 _atom_site_label
 _atom_site_symmetry_multiplicity
 _atom_site_fract_x
 _atom_site_fract_y
 _atom_site_fract_z
 _atom_site_occupancy
  Na  Na0  1  0.499961  0.499923  0.499986  1
  La  La1  1  0.113257  0.319163  0.030561  1
  Pr  Pr2  1  0.319093  0.030795  0.113240  1
  Pr  Pr3  1  0.030414  0.112179  0.318976  1
  Pr  Pr4  1  0.969298  0.886773  0.680885  1
  Pr  Pr5  1  0.680877  0.968921  0.886959  1
  Pr  Pr6  1  0.886596  0.682131  0.968959  1
  Ru  Ru7  1  0.001279  0.003524  0.000160  1
  Br  Br8  1  0.216331  0.684817  0.072319  1
  Br  Br9  1  0.457220  0.371502  0.157972  1
  Br  Br10  1  0.685227  0.073092  0.215970  1
  Br  Br11  1  0.926986  0.782459  0.314359  1
  Br  Br12  1  0.156730  0.454623  0.373878  1
  Br  Br13  1  0.371295  0.156320  0.454075  1
  Br  Br14  1  0.628704  0.843539  0.545908  1
  Br  Br15  1  0.843367  0.545256  0.628934  1
  Br  Br16  1  0.072257  0.215473  0.682656  1
  Br  Br17  1  0.314718  0.926749  0.784029  1
  Br  Br18  1  0.545362  0.627816  0.843222  1
  Br  Br19  1  0.781032  0.314947  0.926954  1
