# generated using pymatgen
data_NaLiSmPt3
_symmetry_space_group_name_H-M   'P 1'
_cell_length_a   5.21290777
_cell_length_b   5.21290854
_cell_length_c   5.21290669
_cell_angle_alpha   63.86244694
_cell_angle_beta   63.86244171
_cell_angle_gamma   63.86245077
_symmetry_Int_Tables_number   1
_chemical_formula_structural   NaLiSmPt3
_chemical_formula_sum   'Na1 Li1 Sm1 Pt3'
_cell_volume   108.69748490
_cell_formula_units_Z   1
loop_
 _symmetry_equiv_pos_site_id
 _symmetry_equiv_pos_as_xyz
  1  'x, y, z'
loop_
 _atom_site_type_symbol
 _atom_site_label
 _atom_site_symmetry_multiplicity
 _atom_site_fract_x
 _atom_site_fract_y
 _atom_site_fract_z
 _atom_site_occupancy
  Na  Na0  1  0.997165  0.997165  0.997165  1
  Li  Li1  1  0.627814  0.627814  0.627814  1
  Sm  Sm2  1  0.244835  0.244835  0.244835  1
  Pt  Pt3  1  0.627263  0.627263  0.125661  1
  Pt  Pt4  1  0.627263  0.125661  0.627263  1
  Pt  Pt5  1  0.125661  0.627263  0.627263  1
