# generated using pymatgen
data_Sc7Ta(Si4Ru3)4
_symmetry_space_group_name_H-M   'P 1'
_cell_length_a   9.88799194
_cell_length_b   9.90269529
_cell_length_c   13.33092991
_cell_angle_alpha   53.92625187
_cell_angle_beta   53.89188325
_cell_angle_gamma   31.13248821
_symmetry_Int_Tables_number   1
_chemical_formula_structural   Sc7Ta(Si4Ru3)4
_chemical_formula_sum   'Sc7 Ta1 Si16 Ru12'
_cell_volume   533.99801839
_cell_formula_units_Z   1
loop_
 _symmetry_equiv_pos_site_id
 _symmetry_equiv_pos_as_xyz
  1  'x, y, z'
loop_
 _atom_site_type_symbol
 _atom_site_label
 _atom_site_symmetry_multiplicity
 _atom_site_fract_x
 _atom_site_fract_y
 _atom_site_fract_z
 _atom_site_occupancy
  Sc  Sc0  1  0.295239  0.558968  0.644528  1
  Sc  Sc1  1  0.439122  0.707396  0.854854  1
  Sc  Sc2  1  0.706658  0.441070  0.353241  1
  Sc  Sc3  1  0.560930  0.292143  0.146290  1
  Sc  Sc4  1  0.036594  0.293393  0.638392  1
  Sc  Sc5  1  0.708274  0.962648  0.860017  1
  Sc  Sc6  1  0.963264  0.706581  0.360804  1
  Ta  Ta7  1  0.300255  0.040088  0.130507  1
  Si  Si8  1  0.875878  0.124781  0.250915  1
  Si  Si9  1  0.127990  0.872730  0.749609  1
  Si  Si10  1  0.382825  0.619426  0.249857  1
  Si  Si11  1  0.616445  0.382463  0.750584  1
  Si  Si12  1  0.974142  0.254274  0.891807  1
  Si  Si13  1  0.747974  0.024893  0.607145  1
  Si  Si14  1  0.026638  0.744458  0.108954  1
  Si  Si15  1  0.252107  0.976333  0.390285  1
  Si  Si16  1  0.574095  0.081901  0.066097  1
  Si  Si17  1  0.920044  0.425138  0.433404  1
  Si  Si18  1  0.427320  0.917582  0.935415  1
  Si  Si19  1  0.080007  0.574828  0.567618  1
  Si  Si20  1  0.385901  0.143368  0.397459  1
  Si  Si21  1  0.852288  0.612724  0.103993  1
  Si  Si22  1  0.610900  0.860380  0.601649  1
  Si  Si23  1  0.142856  0.386350  0.897705  1
  Ru  Ru24  1  0.647413  0.830688  0.281248  1
  Ru  Ru25  1  0.167656  0.350012  0.216515  1
  Ru  Ru26  1  0.755240  0.483157  0.072206  1
  Ru  Ru27  1  0.829052  0.649251  0.783533  1
  Ru  Ru28  1  0.897588  0.141909  0.585489  1
  Ru  Ru29  1  0.856745  0.102591  0.914961  1
  Ru  Ru30  1  0.104297  0.857044  0.414210  1
  Ru  Ru31  1  0.144051  0.897895  0.085950  1
  Ru  Ru32  1  0.238847  0.512307  0.934304  1
  Ru  Ru33  1  0.492513  0.750295  0.568958  1
  Ru  Ru34  1  0.506895  0.250344  0.431791  1
  Ru  Ru35  1  0.351958  0.170592  0.719707  1
