# generated using pymatgen
data_YZr3(Si3Ni5)4
_symmetry_space_group_name_H-M   'P 1'
_cell_length_a   3.72993800
_cell_length_b   6.63977924
_cell_length_c   18.41144368
_cell_angle_alpha   90.09583535
_cell_angle_beta   90.00000000
_cell_angle_gamma   90.00000000
_symmetry_Int_Tables_number   1
_chemical_formula_structural   YZr3(Si3Ni5)4
_chemical_formula_sum   'Y1 Zr3 Si12 Ni20'
_cell_volume   455.97652984
_cell_formula_units_Z   1
loop_
 _symmetry_equiv_pos_site_id
 _symmetry_equiv_pos_as_xyz
  1  'x, y, z'
loop_
 _atom_site_type_symbol
 _atom_site_label
 _atom_site_symmetry_multiplicity
 _atom_site_fract_x
 _atom_site_fract_y
 _atom_site_fract_z
 _atom_site_occupancy
  Y  Y0  1  0.250000  0.877729  0.142679  1
  Zr  Zr1  1  0.250000  0.621291  0.642891  1
  Zr  Zr2  1  0.750000  0.379527  0.358107  1
  Zr  Zr3  1  0.750000  0.119496  0.856013  1
  Si  Si4  1  0.250000  0.852856  0.922797  1
  Si  Si5  1  0.750000  0.157861  0.074721  1
  Si  Si6  1  0.750000  0.351818  0.577339  1
  Si  Si7  1  0.250000  0.647465  0.424620  1
  Si  Si8  1  0.750000  0.622457  0.759857  1
  Si  Si9  1  0.250000  0.377049  0.241222  1
  Si  Si10  1  0.250000  0.406039  0.910901  1
  Si  Si11  1  0.750000  0.582671  0.083960  1
  Si  Si12  1  0.750000  0.906344  0.586233  1
  Si  Si13  1  0.250000  0.094223  0.415749  1
  Si  Si14  1  0.250000  0.121725  0.738959  1
  Si  Si15  1  0.750000  0.877152  0.263583  1
  Ni  Ni16  1  0.250000  0.133852  0.993221  1
  Ni  Ni17  1  0.750000  0.380387  0.982543  1
  Ni  Ni18  1  0.750000  0.120499  0.487810  1
  Ni  Ni19  1  0.250000  0.615652  0.010699  1
  Ni  Ni20  1  0.250000  0.359635  0.116091  1
  Ni  Ni21  1  0.750000  0.645652  0.884287  1
  Ni  Ni22  1  0.750000  0.856562  0.387309  1
  Ni  Ni23  1  0.250000  0.142734  0.614752  1
  Ni  Ni24  1  0.250000  0.071159  0.295639  1
  Ni  Ni25  1  0.750000  0.929237  0.706785  1
  Ni  Ni26  1  0.750000  0.568111  0.207045  1
  Ni  Ni27  1  0.250000  0.430076  0.791151  1
  Ni  Ni28  1  0.750000  0.629496  0.506294  1
  Ni  Ni29  1  0.250000  0.370297  0.495883  1
  Ni  Ni30  1  0.250000  0.817829  0.798727  1
  Ni  Ni31  1  0.750000  0.184961  0.202009  1
  Ni  Ni32  1  0.750000  0.317323  0.700341  1
  Ni  Ni33  1  0.250000  0.681132  0.301486  1
  Ni  Ni34  1  0.250000  0.880049  0.513872  1
  Ni  Ni35  1  0.750000  0.869655  0.004421  1
