# generated using pymatgen
data_NaYb3(HoHg2)4
_symmetry_space_group_name_H-M   'P 1'
_cell_length_a   7.41859117
_cell_length_b   7.41441200
_cell_length_c   7.38340900
_cell_angle_alpha   90.00000000
_cell_angle_beta   89.98789764
_cell_angle_gamma   90.00000000
_symmetry_Int_Tables_number   1
_chemical_formula_structural   NaYb3(HoHg2)4
_chemical_formula_sum   'Na1 Yb3 Ho4 Hg8'
_cell_volume   406.12064749
_cell_formula_units_Z   1
loop_
 _symmetry_equiv_pos_site_id
 _symmetry_equiv_pos_as_xyz
  1  'x, y, z'
loop_
 _atom_site_type_symbol
 _atom_site_label
 _atom_site_symmetry_multiplicity
 _atom_site_fract_x
 _atom_site_fract_y
 _atom_site_fract_z
 _atom_site_occupancy
  Na  Na0  1  0.750006  0.250000  0.999431  1
  Yb  Yb1  1  0.249997  0.750000  0.000099  1
  Yb  Yb2  1  0.749996  0.250000  0.499793  1
  Yb  Yb3  1  0.250004  0.750000  0.500240  1
  Ho  Ho4  1  0.249989  0.250000  0.000052  1
  Ho  Ho5  1  0.750020  0.750000  0.000054  1
  Ho  Ho6  1  0.749986  0.750000  0.500047  1
  Ho  Ho7  1  0.250006  0.250000  0.500044  1
  Hg  Hg8  1  0.501024  0.001011  0.247296  1
  Hg  Hg9  1  0.501024  0.498989  0.247296  1
  Hg  Hg10  1  0.999081  0.499059  0.247363  1
  Hg  Hg11  1  0.999081  0.000941  0.247363  1
  Hg  Hg12  1  0.998930  0.001056  0.752733  1
  Hg  Hg13  1  0.998930  0.498944  0.752733  1
  Hg  Hg14  1  0.500961  0.499011  0.752730  1
  Hg  Hg15  1  0.500961  0.000989  0.752730  1
