# generated using pymatgen
data_VMo(AsO5)2
_symmetry_space_group_name_H-M   'P 1'
_cell_length_a   6.55521400
_cell_length_b   7.70572200
_cell_length_c   7.84186100
_cell_angle_alpha   90.00000000
_cell_angle_beta   90.00000000
_cell_angle_gamma   90.00000000
_symmetry_Int_Tables_number   1
_chemical_formula_structural   VMo(AsO5)2
_chemical_formula_sum   'V2 Mo2 As4 O20'
_cell_volume   396.11323285
_cell_formula_units_Z   2
loop_
 _symmetry_equiv_pos_site_id
 _symmetry_equiv_pos_as_xyz
  1  'x, y, z'
loop_
 _atom_site_type_symbol
 _atom_site_label
 _atom_site_symmetry_multiplicity
 _atom_site_fract_x
 _atom_site_fract_y
 _atom_site_fract_z
 _atom_site_occupancy
  V  V0  1  0.250000  0.766651  0.674139  1
  V  V1  1  0.750000  0.266651  0.825861  1
  Mo  Mo2  1  0.250000  0.731765  0.164468  1
  Mo  Mo3  1  0.750000  0.231765  0.335532  1
  As  As4  1  0.750000  0.613179  0.114520  1
  As  As5  1  0.250000  0.113179  0.385480  1
  As  As6  1  0.750000  0.881903  0.631586  1
  As  As7  1  0.250000  0.381903  0.868414  1
  O  O8  1  0.250000  0.490434  0.059052  1
  O  O9  1  0.750000  0.181818  0.121991  1
  O  O10  1  0.549119  0.755128  0.110781  1
  O  O11  1  0.950881  0.755128  0.110781  1
  O  O12  1  0.250000  0.994675  0.201195  1
  O  O13  1  0.750000  0.494675  0.298805  1
  O  O14  1  0.049119  0.255128  0.389219  1
  O  O15  1  0.450881  0.255128  0.389219  1
  O  O16  1  0.250000  0.681818  0.378009  1
  O  O17  1  0.750000  0.990434  0.440948  1
  O  O18  1  0.250000  0.990091  0.570422  1
  O  O19  1  0.750000  0.320861  0.623900  1
  O  O20  1  0.542377  0.747665  0.639262  1
  O  O21  1  0.957623  0.747665  0.639262  1
  O  O22  1  0.250000  0.523037  0.695545  1
  O  O23  1  0.750000  0.023037  0.804455  1
  O  O24  1  0.042377  0.247665  0.860738  1
  O  O25  1  0.457623  0.247665  0.860738  1
  O  O26  1  0.250000  0.820861  0.876100  1
  O  O27  1  0.750000  0.490091  0.929578  1
