# generated using pymatgen
data_Sm5Sn(P2Rh7)2
_symmetry_space_group_name_H-M   'P 1'
_cell_length_a   4.13298100
_cell_length_b   4.10521200
_cell_length_c   24.39299200
_cell_angle_alpha   90.00000000
_cell_angle_beta   90.00000000
_cell_angle_gamma   90.00000000
_symmetry_Int_Tables_number   1
_chemical_formula_structural   Sm5Sn(P2Rh7)2
_chemical_formula_sum   'Sm5 Sn1 P4 Rh14'
_cell_volume   413.87011893
_cell_formula_units_Z   1
loop_
 _symmetry_equiv_pos_site_id
 _symmetry_equiv_pos_as_xyz
  1  'x, y, z'
loop_
 _atom_site_type_symbol
 _atom_site_label
 _atom_site_symmetry_multiplicity
 _atom_site_fract_x
 _atom_site_fract_y
 _atom_site_fract_z
 _atom_site_occupancy
  Sm  Sm0  1  0.000000  0.000000  0.885838  1
  Sm  Sm1  1  0.000000  0.000000  0.114162  1
  Sm  Sm2  1  0.000000  0.000000  0.310320  1
  Sm  Sm3  1  0.000000  0.000000  0.500000  1
  Sm  Sm4  1  0.000000  0.000000  0.689680  1
  Sn  Sn5  1  0.500000  0.000000  0.000000  1
  P  P6  1  0.500000  0.500000  0.164673  1
  P  P7  1  0.500000  0.500000  0.373433  1
  P  P8  1  0.500000  0.500000  0.626567  1
  P  P9  1  0.500000  0.500000  0.835327  1
  Rh  Rh10  1  0.500000  0.500000  0.927497  1
  Rh  Rh11  1  0.500000  0.500000  0.072503  1
  Rh  Rh12  1  0.500000  0.500000  0.284126  1
  Rh  Rh13  1  0.500000  0.500000  0.500000  1
  Rh  Rh14  1  0.500000  0.500000  0.715874  1
  Rh  Rh15  1  0.500000  0.000000  0.210003  1
  Rh  Rh16  1  0.500000  0.000000  0.413275  1
  Rh  Rh17  1  0.500000  0.000000  0.586725  1
  Rh  Rh18  1  0.500000  0.000000  0.789997  1
  Rh  Rh19  1  0.000000  0.500000  0.000000  1
  Rh  Rh20  1  0.000000  0.500000  0.209626  1
  Rh  Rh21  1  0.000000  0.500000  0.412943  1
  Rh  Rh22  1  0.000000  0.500000  0.587057  1
  Rh  Rh23  1  0.000000  0.500000  0.790374  1
