# generated using pymatgen
data_YTh3TlInNi4
_symmetry_space_group_name_H-M   'P 1'
_cell_length_a   7.66298233
_cell_length_b   7.64840002
_cell_length_c   3.66460500
_cell_angle_alpha   90.00000000
_cell_angle_beta   90.00000000
_cell_angle_gamma   91.31766385
_symmetry_Int_Tables_number   1
_chemical_formula_structural   YTh3TlInNi4
_chemical_formula_sum   'Y1 Th3 Tl1 In1 Ni4'
_cell_volume   214.72407019
_cell_formula_units_Z   1
loop_
 _symmetry_equiv_pos_site_id
 _symmetry_equiv_pos_as_xyz
  1  'x, y, z'
loop_
 _atom_site_type_symbol
 _atom_site_label
 _atom_site_symmetry_multiplicity
 _atom_site_fract_x
 _atom_site_fract_y
 _atom_site_fract_z
 _atom_site_occupancy
  Y  Y0  1  0.828778  0.674235  0.500000  1
  Th  Th1  1  0.676028  0.169345  0.500000  1
  Th  Th2  1  0.327516  0.827158  0.500000  1
  Th  Th3  1  0.168172  0.328876  0.500000  1
  Tl  Tl4  1  0.509176  0.503678  0.000000  1
  In  In5  1  0.996482  0.991319  0.000000  1
  Ni  Ni6  1  0.125801  0.623357  0.000000  1
  Ni  Ni7  1  0.882778  0.367538  0.000000  1
  Ni  Ni8  1  0.617090  0.888756  0.000000  1
  Ni  Ni9  1  0.368180  0.125737  0.000000  1
