# generated using pymatgen
data_Yb2In2CuRh
_symmetry_space_group_name_H-M   'P 1'
_cell_length_a   4.14062000
_cell_length_b   7.26480193
_cell_length_c   8.62263074
_cell_angle_alpha   89.39855828
_cell_angle_beta   90.00000000
_cell_angle_gamma   90.00000000
_symmetry_Int_Tables_number   1
_chemical_formula_structural   Yb2In2CuRh
_chemical_formula_sum   'Yb4 In4 Cu2 Rh2'
_cell_volume   259.36120413
_cell_formula_units_Z   2
loop_
 _symmetry_equiv_pos_site_id
 _symmetry_equiv_pos_as_xyz
  1  'x, y, z'
loop_
 _atom_site_type_symbol
 _atom_site_label
 _atom_site_symmetry_multiplicity
 _atom_site_fract_x
 _atom_site_fract_y
 _atom_site_fract_z
 _atom_site_occupancy
  Yb  Yb0  1  0.250000  0.024732  0.170218  1
  Yb  Yb1  1  0.750000  0.975268  0.829782  1
  Yb  Yb2  1  0.250000  0.535090  0.311837  1
  Yb  Yb3  1  0.750000  0.464910  0.688163  1
  In  In4  1  0.750000  0.354001  0.063476  1
  In  In5  1  0.250000  0.645999  0.936524  1
  In  In6  1  0.750000  0.851297  0.440044  1
  In  In7  1  0.250000  0.148703  0.559956  1
  Cu  Cu8  1  0.250000  0.769715  0.634493  1
  Cu  Cu9  1  0.750000  0.230285  0.365507  1
  Rh  Rh10  1  0.250000  0.259874  0.863834  1
  Rh  Rh11  1  0.750000  0.740126  0.136166  1
