# generated using pymatgen
data_Tb6Ce2Hf12Si15As
_symmetry_space_group_name_H-M   'P 1'
_cell_length_a   7.29529091
_cell_length_b   7.30793761
_cell_length_c   13.41819067
_cell_angle_alpha   89.74472117
_cell_angle_beta   89.97110991
_cell_angle_gamma   89.95525949
_symmetry_Int_Tables_number   1
_chemical_formula_structural   Tb6Ce2Hf12Si15As
_chemical_formula_sum   'Tb6 Ce2 Hf12 Si15 As1'
_cell_volume   715.36371296
_cell_formula_units_Z   1
loop_
 _symmetry_equiv_pos_site_id
 _symmetry_equiv_pos_as_xyz
  1  'x, y, z'
loop_
 _atom_site_type_symbol
 _atom_site_label
 _atom_site_symmetry_multiplicity
 _atom_site_fract_x
 _atom_site_fract_y
 _atom_site_fract_z
 _atom_site_occupancy
  Tb  Tb0  1  0.152765  0.499931  0.467123  1
  Tb  Tb1  1  0.505245  0.843366  0.033886  1
  Tb  Tb2  1  0.844329  0.502723  0.965660  1
  Tb  Tb3  1  0.497412  0.154486  0.535408  1
  Tb  Tb4  1  0.344302  0.995176  0.785456  1
  Tb  Tb5  1  0.654606  0.004998  0.284566  1
  Ce  Ce6  1  0.995393  0.344683  0.213992  1
  Ce  Ce7  1  0.005521  0.655604  0.713798  1
  Hf  Hf8  1  0.174341  0.176621  0.001115  1
  Hf  Hf9  1  0.826490  0.825092  0.500983  1
  Hf  Hf10  1  0.322965  0.677432  0.249920  1
  Hf  Hf11  1  0.676518  0.325667  0.750037  1
  Hf  Hf12  1  0.150843  0.997838  0.372844  1
  Hf  Hf13  1  0.849611  0.001959  0.874718  1
  Hf  Hf14  1  0.503785  0.649692  0.624806  1
  Hf  Hf15  1  0.350115  0.496224  0.874720  1
  Hf  Hf16  1  0.494640  0.348493  0.125153  1
  Hf  Hf17  1  0.654161  0.506536  0.375862  1
  Hf  Hf18  1  0.996480  0.149946  0.625326  1
  Hf  Hf19  1  0.001444  0.848334  0.124558  1
  Si  Si20  1  0.637051  0.703917  0.816950  1
  Si  Si21  1  0.204613  0.864317  0.565047  1
  Si  Si22  1  0.136912  0.795344  0.933232  1
  Si  Si23  1  0.794668  0.137127  0.066024  1
  Si  Si24  1  0.863067  0.203864  0.433181  1
  Si  Si25  1  0.297024  0.360821  0.683053  1
  Si  Si26  1  0.701634  0.637384  0.183868  1
  Si  Si27  1  0.293621  0.038990  0.180584  1
  Si  Si28  1  0.704960  0.951128  0.686195  1
  Si  Si29  1  0.451947  0.795455  0.435410  1
  Si  Si30  1  0.206007  0.549161  0.063857  1
  Si  Si31  1  0.548345  0.204842  0.935293  1
  Si  Si32  1  0.793384  0.450282  0.564254  1
  Si  Si33  1  0.048834  0.293777  0.815268  1
  Si  Si34  1  0.951957  0.706515  0.315587  1
  As  As35  1  0.365008  0.302274  0.322268  1
