# generated using pymatgen
data_Ca3Tb3(CoSn6)2
_symmetry_space_group_name_H-M   'P 1'
_cell_length_a   8.47278448
_cell_length_b   8.47278387
_cell_length_c   13.27925614
_cell_angle_alpha   90.02152327
_cell_angle_beta   89.97848270
_cell_angle_gamma   148.15641693
_symmetry_Int_Tables_number   1
_chemical_formula_structural   Ca3Tb3(CoSn6)2
_chemical_formula_sum   'Ca3 Tb3 Co2 Sn12'
_cell_volume   502.95895137
_cell_formula_units_Z   1
loop_
 _symmetry_equiv_pos_site_id
 _symmetry_equiv_pos_as_xyz
  1  'x, y, z'
loop_
 _atom_site_type_symbol
 _atom_site_label
 _atom_site_symmetry_multiplicity
 _atom_site_fract_x
 _atom_site_fract_y
 _atom_site_fract_z
 _atom_site_occupancy
  Ca  Ca0  1  0.100118  0.899882  0.596569  1
  Ca  Ca1  1  0.100380  0.899620  0.904201  1
  Ca  Ca2  1  0.900350  0.099650  0.403123  1
  Tb  Tb3  1  0.897769  0.102231  0.094095  1
  Tb  Tb4  1  0.900670  0.099330  0.754493  1
  Tb  Tb5  1  0.099243  0.900757  0.247982  1
  Co  Co6  1  0.298971  0.701029  0.249261  1
  Co  Co7  1  0.703182  0.296818  0.750201  1
  Sn  Sn8  1  0.758797  0.241203  0.572848  1
  Sn  Sn9  1  0.426164  0.573836  0.579765  1
  Sn  Sn10  1  0.573109  0.426891  0.421671  1
  Sn  Sn11  1  0.733689  0.266311  0.248112  1
  Sn  Sn12  1  0.267232  0.732768  0.750130  1
  Sn  Sn13  1  0.241759  0.758241  0.072635  1
  Sn  Sn14  1  0.242180  0.757820  0.426721  1
  Sn  Sn15  1  0.571473  0.428527  0.076770  1
  Sn  Sn16  1  0.454707  0.545293  0.247811  1
  Sn  Sn17  1  0.545707  0.454293  0.750217  1
  Sn  Sn18  1  0.758025  0.241975  0.928613  1
  Sn  Sn19  1  0.426473  0.573527  0.924786  1
