# generated using pymatgen
data_Ho16Tm4Si15Se
_symmetry_space_group_name_H-M   'P 1'
_cell_length_a   7.46755772
_cell_length_b   7.59973769
_cell_length_c   14.54975530
_cell_angle_alpha   89.68137747
_cell_angle_beta   85.68221914
_cell_angle_gamma   89.89773850
_symmetry_Int_Tables_number   1
_chemical_formula_structural   Ho16Tm4Si15Se
_chemical_formula_sum   'Ho16 Tm4 Si15 Se1'
_cell_volume   823.36309658
_cell_formula_units_Z   1
loop_
 _symmetry_equiv_pos_site_id
 _symmetry_equiv_pos_as_xyz
  1  'x, y, z'
loop_
 _atom_site_type_symbol
 _atom_site_label
 _atom_site_symmetry_multiplicity
 _atom_site_fract_x
 _atom_site_fract_y
 _atom_site_fract_z
 _atom_site_occupancy
  Ho  Ho0  1  0.013096  0.831343  0.104006  1
  Ho  Ho1  1  0.472646  0.685772  0.397998  1
  Ho  Ho2  1  0.485682  0.314338  0.897565  1
  Ho  Ho3  1  0.027580  0.184263  0.602404  1
  Ho  Ho4  1  0.996169  0.172071  0.898528  1
  Ho  Ho5  1  0.527327  0.313829  0.601982  1
  Ho  Ho6  1  0.500711  0.686926  0.102648  1
  Ho  Ho7  1  0.971942  0.813807  0.397833  1
  Ho  Ho8  1  0.639827  0.837953  0.879143  1
  Ho  Ho9  1  0.177155  0.674243  0.622942  1
  Ho  Ho10  1  0.859459  0.335011  0.118970  1
  Ho  Ho11  1  0.324214  0.176758  0.378017  1
  Ho  Ho12  1  0.359320  0.167348  0.120314  1
  Ho  Ho13  1  0.823682  0.325139  0.377771  1
  Ho  Ho14  1  0.144026  0.665593  0.881728  1
  Ho  Ho15  1  0.676413  0.823010  0.622979  1
  Tm  Tm16  1  0.670681  0.995771  0.246237  1
  Tm  Tm17  1  0.168753  0.506220  0.245559  1
  Tm  Tm18  1  0.831921  0.493081  0.748405  1
  Tm  Tm19  1  0.329162  0.004358  0.753025  1
  Si  Si20  1  0.785427  0.631000  0.250429  1
  Si  Si21  1  0.285997  0.870952  0.252105  1
  Si  Si22  1  0.712943  0.131100  0.749252  1
  Si  Si23  1  0.211800  0.367880  0.750020  1
  Si  Si24  1  0.042689  0.111521  0.252129  1
  Si  Si25  1  0.542994  0.392755  0.250390  1
  Si  Si26  1  0.458634  0.607614  0.750917  1
  Si  Si27  1  0.957834  0.887986  0.750022  1
  Si  Si28  1  0.357117  0.971614  0.543377  1
  Si  Si29  1  0.709612  0.032862  0.041840  1
  Si  Si30  1  0.144537  0.472466  0.457476  1
  Si  Si31  1  0.210795  0.469433  0.043632  1
  Si  Si32  1  0.644896  0.027291  0.457178  1
  Si  Si33  1  0.295780  0.965991  0.957043  1
  Si  Si34  1  0.856602  0.526111  0.543475  1
  Se  Se35  1  0.782573  0.526589  0.952660  1
