# generated using pymatgen
data_NpNbFe3(Co3B)6
_symmetry_space_group_name_H-M   'P 1'
_cell_length_a   7.47461282
_cell_length_b   7.47461228
_cell_length_c   7.49056300
_cell_angle_alpha   59.92938758
_cell_angle_beta   59.92938998
_cell_angle_gamma   59.86437266
_symmetry_Int_Tables_number   1
_chemical_formula_structural   NpNbFe3(Co3B)6
_chemical_formula_sum   'Np1 Nb1 Fe3 Co18 B6'
_cell_volume   295.30194719
_cell_formula_units_Z   1
loop_
 _symmetry_equiv_pos_site_id
 _symmetry_equiv_pos_as_xyz
  1  'x, y, z'
loop_
 _atom_site_type_symbol
 _atom_site_label
 _atom_site_symmetry_multiplicity
 _atom_site_fract_x
 _atom_site_fract_y
 _atom_site_fract_z
 _atom_site_occupancy
  Np  Np0  1  0.245497  0.245497  0.254503  1
  Nb  Nb1  1  0.749202  0.749202  0.750798  1
  Fe  Fe2  1  0.998764  0.998764  0.001236  1
  Fe  Fe3  1  0.861214  0.379401  0.379692  1
  Fe  Fe4  1  0.379401  0.861214  0.379692  1
  Co  Co5  1  0.383669  0.383669  0.848078  1
  Co  Co6  1  0.383669  0.383669  0.384584  1
  Co  Co7  1  0.151339  0.618177  0.615242  1
  Co  Co8  1  0.618177  0.151339  0.615242  1
  Co  Co9  1  0.616632  0.616632  0.153696  1
  Co  Co10  1  0.616632  0.616632  0.613040  1
  Co  Co11  1  0.661836  0.999185  0.998241  1
  Co  Co12  1  0.661836  0.999185  0.340739  1
  Co  Co13  1  0.661829  0.339554  0.999309  1
  Co  Co14  1  0.999185  0.661836  0.340739  1
  Co  Co15  1  0.999185  0.661836  0.998241  1
  Co  Co16  1  0.339554  0.661829  0.999309  1
  Co  Co17  1  0.998258  0.339728  0.664643  1
  Co  Co18  1  0.339728  0.998258  0.664643  1
  Co  Co19  1  0.997385  0.997385  0.664107  1
  Co  Co20  1  0.339728  0.998258  0.997372  1
  Co  Co21  1  0.998258  0.339728  0.997372  1
  Co  Co22  1  0.997385  0.997385  0.341124  1
  B  B23  1  0.725618  0.273318  0.271594  1
  B  B24  1  0.725618  0.273318  0.729470  1
  B  B25  1  0.729646  0.729646  0.270354  1
  B  B26  1  0.273318  0.725618  0.729470  1
  B  B27  1  0.273318  0.725618  0.271594  1
  B  B28  1  0.274124  0.274124  0.725876  1
