# generated using pymatgen
data_Ti5BeSnSb2
_symmetry_space_group_name_H-M   'P 1'
_cell_length_a   8.12620881
_cell_length_b   8.13058897
_cell_length_c   5.45337800
_cell_angle_alpha   90.00000000
_cell_angle_beta   90.00000000
_cell_angle_gamma   120.01783883
_symmetry_Int_Tables_number   1
_chemical_formula_structural   Ti5BeSnSb2
_chemical_formula_sum   'Ti10 Be2 Sn2 Sb4'
_cell_volume   311.98098344
_cell_formula_units_Z   2
loop_
 _symmetry_equiv_pos_site_id
 _symmetry_equiv_pos_as_xyz
  1  'x, y, z'
loop_
 _atom_site_type_symbol
 _atom_site_label
 _atom_site_symmetry_multiplicity
 _atom_site_fract_x
 _atom_site_fract_y
 _atom_site_fract_z
 _atom_site_occupancy
  Ti  Ti0  1  0.668729  0.334964  0.499585  1
  Ti  Ti1  1  0.331271  0.666236  0.499585  1
  Ti  Ti2  1  0.331271  0.666236  0.000415  1
  Ti  Ti3  1  0.668729  0.334964  0.000415  1
  Ti  Ti4  1  0.745903  0.744781  0.250000  1
  Ti  Ti5  1  0.254097  0.998879  0.250000  1
  Ti  Ti6  1  0.000000  0.256569  0.250000  1
  Ti  Ti7  1  0.251677  0.251059  0.750000  1
  Ti  Ti8  1  0.748323  0.999383  0.750000  1
  Ti  Ti9  1  0.000000  0.747050  0.750000  1
  Be  Be10  1  0.000000  0.001265  0.005303  1
  Be  Be11  1  0.000000  0.001265  0.494697  1
  Sn  Sn12  1  0.386890  0.386483  0.250000  1
  Sn  Sn13  1  0.613110  0.999593  0.250000  1
  Sb  Sb14  1  0.000000  0.612855  0.250000  1
  Sb  Sb15  1  0.608995  0.610053  0.750000  1
  Sb  Sb16  1  0.391005  0.001058  0.750000  1
  Sb  Sb17  1  0.000000  0.387309  0.750000  1
