# generated using pymatgen
data_Zr6Ti4Sn3Bi3B2
_symmetry_space_group_name_H-M   'P 1'
_cell_length_a   8.47818100
_cell_length_b   8.47818114
_cell_length_c   5.68591700
_cell_angle_alpha   90.00000000
_cell_angle_beta   90.00000000
_cell_angle_gamma   120.00000334
_symmetry_Int_Tables_number   1
_chemical_formula_structural   Zr6Ti4Sn3Bi3B2
_chemical_formula_sum   'Zr6 Ti4 Sn3 Bi3 B2'
_cell_volume   353.94559218
_cell_formula_units_Z   1
loop_
 _symmetry_equiv_pos_site_id
 _symmetry_equiv_pos_as_xyz
  1  'x, y, z'
loop_
 _atom_site_type_symbol
 _atom_site_label
 _atom_site_symmetry_multiplicity
 _atom_site_fract_x
 _atom_site_fract_y
 _atom_site_fract_z
 _atom_site_occupancy
  Zr  Zr0  1  0.769677  0.769677  0.750000  1
  Zr  Zr1  1  0.230323  0.000000  0.750000  1
  Zr  Zr2  1  0.000000  0.230323  0.750000  1
  Zr  Zr3  1  0.233311  0.233311  0.250000  1
  Zr  Zr4  1  0.766689  0.000000  0.250000  1
  Zr  Zr5  1  0.000000  0.766689  0.250000  1
  Ti  Ti6  1  0.666667  0.333333  0.009287  1
  Ti  Ti7  1  0.333333  0.666667  0.009287  1
  Ti  Ti8  1  0.333333  0.666667  0.490713  1
  Ti  Ti9  1  0.666667  0.333333  0.490713  1
  Sn  Sn10  1  0.598054  0.598054  0.250000  1
  Sn  Sn11  1  0.401946  0.000000  0.250000  1
  Sn  Sn12  1  0.000000  0.401946  0.250000  1
  Bi  Bi13  1  0.406902  0.406902  0.750000  1
  Bi  Bi14  1  0.593098  0.000000  0.750000  1
  Bi  Bi15  1  0.000000  0.593098  0.750000  1
  B  B16  1  0.000000  0.000000  0.000944  1
  B  B17  1  0.000000  0.000000  0.499056  1
