# generated using pymatgen
data_Y6Ho6Co4BiOs
_symmetry_space_group_name_H-M   'P 1'
_cell_length_a   8.32835124
_cell_length_b   8.34310848
_cell_length_c   8.32835133
_cell_angle_alpha   111.22260731
_cell_angle_beta   110.37539377
_cell_angle_gamma   106.77925097
_symmetry_Int_Tables_number   1
_chemical_formula_structural   Y6Ho6Co4BiOs
_chemical_formula_sum   'Y6 Ho6 Co4 Bi1 Os1'
_cell_volume   445.11444662
_cell_formula_units_Z   1
loop_
 _symmetry_equiv_pos_site_id
 _symmetry_equiv_pos_as_xyz
  1  'x, y, z'
loop_
 _atom_site_type_symbol
 _atom_site_label
 _atom_site_symmetry_multiplicity
 _atom_site_fract_x
 _atom_site_fract_y
 _atom_site_fract_z
 _atom_site_occupancy
  Y  Y0  1  0.819084  0.718522  0.536273  1
  Y  Y1  1  0.180916  0.281478  0.463727  1
  Y  Y2  1  0.182250  0.718522  0.899438  1
  Y  Y3  1  0.817750  0.281478  0.100562  1
  Y  Y4  1  0.688040  0.380133  0.692093  1
  Y  Y5  1  0.311960  0.619867  0.307907  1
  Ho  Ho6  1  0.687869  0.998170  0.310300  1
  Ho  Ho7  1  0.312131  0.001830  0.689700  1
  Ho  Ho8  1  0.591797  0.788459  0.804965  1
  Ho  Ho9  1  0.408203  0.211541  0.195035  1
  Ho  Ho10  1  0.983494  0.788459  0.196662  1
  Ho  Ho11  1  0.016506  0.211541  0.803338  1
  Co  Co12  1  0.623771  0.000000  0.623771  1
  Co  Co13  1  0.376229  0.000000  0.376229  1
  Co  Co14  1  0.110419  0.611668  0.501249  1
  Co  Co15  1  0.889581  0.388332  0.498751  1
  Bi  Bi16  1  0.500000  0.500000  0.000000  1
  Os  Os17  1  0.000000  0.000000  0.000000  1
