# generated using pymatgen
data_Tb7Tm9Cd4Os3Pd
_symmetry_space_group_name_H-M   'P 1'
_cell_length_a   9.55844868
_cell_length_b   9.64382924
_cell_length_c   9.69588618
_cell_angle_alpha   59.80344491
_cell_angle_beta   59.50514971
_cell_angle_gamma   59.44982498
_symmetry_Int_Tables_number   1
_chemical_formula_structural   Tb7Tm9Cd4Os3Pd
_chemical_formula_sum   'Tb7 Tm9 Cd4 Os3 Pd1'
_cell_volume   626.02953061
_cell_formula_units_Z   1
loop_
 _symmetry_equiv_pos_site_id
 _symmetry_equiv_pos_as_xyz
  1  'x, y, z'
loop_
 _atom_site_type_symbol
 _atom_site_label
 _atom_site_symmetry_multiplicity
 _atom_site_fract_x
 _atom_site_fract_y
 _atom_site_fract_z
 _atom_site_occupancy
  Tb  Tb0  1  0.816118  0.804537  0.189661  1
  Tb  Tb1  1  0.938638  0.557315  0.561885  1
  Tb  Tb2  1  0.551103  0.941293  0.940577  1
  Tb  Tb3  1  0.551078  0.941312  0.567030  1
  Tb  Tb4  1  0.938687  0.557289  0.942180  1
  Tb  Tb5  1  0.550040  0.566390  0.941794  1
  Tb  Tb6  1  0.938392  0.941164  0.560233  1
  Tm  Tm7  1  0.346523  0.351682  0.351018  1
  Tm  Tm8  1  0.346589  0.351631  0.950777  1
  Tm  Tm9  1  0.345975  0.955266  0.349362  1
  Tm  Tm10  1  0.969947  0.343088  0.343468  1
  Tm  Tm11  1  0.816018  0.189008  0.190132  1
  Tm  Tm12  1  0.184623  0.812083  0.811515  1
  Tm  Tm13  1  0.184629  0.812072  0.191777  1
  Tm  Tm14  1  0.815997  0.188994  0.804860  1
  Tm  Tm15  1  0.184870  0.188404  0.813350  1
  Cd  Cd16  1  0.580499  0.579056  0.580207  1
  Cd  Cd17  1  0.580508  0.579109  0.260327  1
  Cd  Cd18  1  0.580709  0.258505  0.580449  1
  Cd  Cd19  1  0.255689  0.581732  0.581357  1
  Os  Os20  1  0.148533  0.138751  0.135945  1
  Os  Os21  1  0.148529  0.138720  0.576752  1
  Os  Os22  1  0.151847  0.576026  0.136026  1
  Pd  Pd23  1  0.574457  0.146573  0.139319  1
