# generated using pymatgen
data_PaZn(Ni7B2)3
_symmetry_space_group_name_H-M   'P 1'
_cell_length_a   7.47004634
_cell_length_b   7.47004501
_cell_length_c   7.47004600
_cell_angle_alpha   59.99999563
_cell_angle_beta   60.00000152
_cell_angle_gamma   60.00000024
_symmetry_Int_Tables_number   1
_chemical_formula_structural   PaZn(Ni7B2)3
_chemical_formula_sum   'Pa1 Zn1 Ni21 B6'
_cell_volume   294.75065903
_cell_formula_units_Z   1
loop_
 _symmetry_equiv_pos_site_id
 _symmetry_equiv_pos_as_xyz
  1  'x, y, z'
loop_
 _atom_site_type_symbol
 _atom_site_label
 _atom_site_symmetry_multiplicity
 _atom_site_fract_x
 _atom_site_fract_y
 _atom_site_fract_z
 _atom_site_occupancy
  Pa  Pa0  1  0.750000  0.750000  0.750000  1
  Zn  Zn1  1  0.250000  0.250000  0.250000  1
  Ni  Ni2  1  0.000000  0.000000  0.000000  1
  Ni  Ni3  1  0.611266  0.611266  0.166202  1
  Ni  Ni4  1  0.611266  0.166202  0.611266  1
  Ni  Ni5  1  0.166202  0.611266  0.611266  1
  Ni  Ni6  1  0.611266  0.611266  0.611266  1
  Ni  Ni7  1  0.380983  0.380983  0.857051  1
  Ni  Ni8  1  0.380983  0.857051  0.380983  1
  Ni  Ni9  1  0.857051  0.380983  0.380983  1
  Ni  Ni10  1  0.380983  0.380983  0.380983  1
  Ni  Ni11  1  0.000286  0.000286  0.337478  1
  Ni  Ni12  1  0.661949  0.000286  0.337478  1
  Ni  Ni13  1  0.000286  0.661949  0.337478  1
  Ni  Ni14  1  0.661949  0.337478  0.000286  1
  Ni  Ni15  1  0.000286  0.337478  0.000286  1
  Ni  Ni16  1  0.000286  0.337478  0.661949  1
  Ni  Ni17  1  0.337478  0.661949  0.000286  1
  Ni  Ni18  1  0.337478  0.000286  0.661949  1
  Ni  Ni19  1  0.337478  0.000286  0.000286  1
  Ni  Ni20  1  0.000286  0.000286  0.661949  1
  Ni  Ni21  1  0.000286  0.661949  0.000286  1
  Ni  Ni22  1  0.661949  0.000286  0.000286  1
  B  B23  1  0.729550  0.729550  0.270450  1
  B  B24  1  0.270450  0.729550  0.270450  1
  B  B25  1  0.729550  0.270450  0.270450  1
  B  B26  1  0.270450  0.270450  0.729550  1
  B  B27  1  0.729550  0.270450  0.729550  1
  B  B28  1  0.270450  0.729550  0.729550  1
