# generated using pymatgen
data_Y12Tm4MgCd3Ir4
_symmetry_space_group_name_H-M   'P 1'
_cell_length_a   9.67214625
_cell_length_b   9.67214615
_cell_length_c   9.67214677
_cell_angle_alpha   59.72491947
_cell_angle_beta   59.72492007
_cell_angle_gamma   59.72492017
_symmetry_Int_Tables_number   1
_chemical_formula_structural   Y12Tm4MgCd3Ir4
_chemical_formula_sum   'Y12 Tm4 Mg1 Cd3 Ir4'
_cell_volume   635.81656576
_cell_formula_units_Z   1
loop_
 _symmetry_equiv_pos_site_id
 _symmetry_equiv_pos_as_xyz
  1  'x, y, z'
loop_
 _atom_site_type_symbol
 _atom_site_label
 _atom_site_symmetry_multiplicity
 _atom_site_fract_x
 _atom_site_fract_y
 _atom_site_fract_z
 _atom_site_occupancy
  Y  Y0  1  0.807814  0.191129  0.191129  1
  Y  Y1  1  0.188078  0.810359  0.810359  1
  Y  Y2  1  0.191129  0.807814  0.191129  1
  Y  Y3  1  0.810359  0.188078  0.810359  1
  Y  Y4  1  0.191129  0.191129  0.807814  1
  Y  Y5  1  0.810359  0.810359  0.188078  1
  Y  Y6  1  0.940414  0.561650  0.561650  1
  Y  Y7  1  0.561308  0.938876  0.938876  1
  Y  Y8  1  0.561650  0.940414  0.561650  1
  Y  Y9  1  0.938876  0.561308  0.938876  1
  Y  Y10  1  0.561650  0.561650  0.940414  1
  Y  Y11  1  0.938876  0.938876  0.561308  1
  Tm  Tm12  1  0.348085  0.348085  0.348085  1
  Tm  Tm13  1  0.347459  0.347459  0.959065  1
  Tm  Tm14  1  0.347459  0.959065  0.347459  1
  Tm  Tm15  1  0.959065  0.347459  0.347459  1
  Mg  Mg16  1  0.575095  0.575095  0.575095  1
  Cd  Cd17  1  0.581123  0.581123  0.256077  1
  Cd  Cd18  1  0.581123  0.256077  0.581123  1
  Cd  Cd19  1  0.256077  0.581123  0.581123  1
  Ir  Ir20  1  0.142863  0.142863  0.142863  1
  Ir  Ir21  1  0.144022  0.144022  0.571966  1
  Ir  Ir22  1  0.144022  0.571966  0.144022  1
  Ir  Ir23  1  0.571966  0.144022  0.144022  1
