# generated using pymatgen
data_Li16Ca6Zn7
_symmetry_space_group_name_H-M   'P 1'
_cell_length_a   9.56493300
_cell_length_b   9.56493280
_cell_length_c   9.56493300
_cell_angle_alpha   120.00000414
_cell_angle_beta   90.00000000
_cell_angle_gamma   120.00000414
_symmetry_Int_Tables_number   1
_chemical_formula_structural   Li16Ca6Zn7
_chemical_formula_sum   'Li16 Ca6 Zn7'
_cell_volume   618.77211734
_cell_formula_units_Z   1
loop_
 _symmetry_equiv_pos_site_id
 _symmetry_equiv_pos_as_xyz
  1  'x, y, z'
loop_
 _atom_site_type_symbol
 _atom_site_label
 _atom_site_symmetry_multiplicity
 _atom_site_fract_x
 _atom_site_fract_y
 _atom_site_fract_z
 _atom_site_occupancy
  Li  Li0  1  0.380173  0.760345  0.140517  1
  Li  Li1  1  0.825380  0.650759  0.174621  1
  Li  Li2  1  0.523861  0.349242  0.174621  1
  Li  Li3  1  0.825380  0.349242  0.174621  1
  Li  Li4  1  0.140517  0.760345  0.380173  1
  Li  Li5  1  0.619827  0.760345  0.380173  1
  Li  Li6  1  0.619827  0.239654  0.380173  1
  Li  Li7  1  0.825380  0.650759  0.476139  1
  Li  Li8  1  0.174621  0.349242  0.523861  1
  Li  Li9  1  0.380173  0.760345  0.619827  1
  Li  Li10  1  0.380173  0.239654  0.619827  1
  Li  Li11  1  0.859483  0.239654  0.619827  1
  Li  Li12  1  0.174621  0.650759  0.825380  1
  Li  Li13  1  0.476139  0.650759  0.825380  1
  Li  Li14  1  0.174621  0.349242  0.825380  1
  Li  Li15  1  0.619827  0.239654  0.859483  1
  Ca  Ca16  1  0.790422  0.000000  0.209577  1
  Ca  Ca17  1  0.209578  0.419156  0.209578  1
  Ca  Ca18  1  0.209578  0.000000  0.209578  1
  Ca  Ca19  1  0.790422  0.000000  0.790422  1
  Ca  Ca20  1  0.209577  0.000000  0.790422  1
  Ca  Ca21  1  0.790422  0.580845  0.790422  1
  Zn  Zn22  1  0.500000  0.000000  0.000000  1
  Zn  Zn23  1  0.000000  0.500000  0.000000  1
  Zn  Zn24  1  0.500000  0.500000  0.000000  1
  Zn  Zn25  1  0.500000  0.000000  0.500000  1
  Zn  Zn26  1  0.000000  0.000000  0.500000  1
  Zn  Zn27  1  0.000000  0.500000  0.500000  1
  Zn  Zn28  1  0.500000  0.500000  0.500000  1
