# generated using pymatgen
data_SrNdB4Ir5
_symmetry_space_group_name_H-M   'P 1'
_cell_length_a   7.60699856
_cell_length_b   6.34642713
_cell_length_c   5.75600733
_cell_angle_alpha   77.71742272
_cell_angle_beta   54.60627986
_cell_angle_gamma   47.67630110
_symmetry_Int_Tables_number   1
_chemical_formula_structural   SrNdB4Ir5
_chemical_formula_sum   'Sr1 Nd1 B4 Ir5'
_cell_volume   160.07856243
_cell_formula_units_Z   1
loop_
 _symmetry_equiv_pos_site_id
 _symmetry_equiv_pos_as_xyz
  1  'x, y, z'
loop_
 _atom_site_type_symbol
 _atom_site_label
 _atom_site_symmetry_multiplicity
 _atom_site_fract_x
 _atom_site_fract_y
 _atom_site_fract_z
 _atom_site_occupancy
  Sr  Sr0  1  0.143952  0.143952  0.856048  1
  Nd  Nd1  1  0.860157  0.860157  0.139843  1
  B  B2  1  0.790210  0.469350  0.530650  1
  B  B3  1  0.208588  0.530655  0.469345  1
  B  B4  1  0.530655  0.208588  0.791412  1
  B  B5  1  0.469350  0.790210  0.209790  1
  Ir  Ir6  1  0.496811  0.496811  0.503189  1
  Ir  Ir7  1  0.500184  0.500184  0.999816  1
  Ir  Ir8  1  0.000184  0.000184  0.499816  1
  Ir  Ir9  1  0.749955  0.749955  0.750045  1
  Ir  Ir10  1  0.249955  0.249955  0.250045  1
