# generated using pymatgen
data_Ac8TlPd6
_symmetry_space_group_name_H-M   'P 1'
_cell_length_a   8.10697015
_cell_length_b   8.10696954
_cell_length_c   8.10696979
_cell_angle_alpha   72.30226273
_cell_angle_beta   72.30225641
_cell_angle_gamma   72.30224942
_symmetry_Int_Tables_number   1
_chemical_formula_structural   Ac8TlPd6
_chemical_formula_sum   'Ac8 Tl1 Pd6'
_cell_volume   470.25076160
_cell_formula_units_Z   1
loop_
 _symmetry_equiv_pos_site_id
 _symmetry_equiv_pos_as_xyz
  1  'x, y, z'
loop_
 _atom_site_type_symbol
 _atom_site_label
 _atom_site_symmetry_multiplicity
 _atom_site_fract_x
 _atom_site_fract_y
 _atom_site_fract_z
 _atom_site_occupancy
  Ac  Ac0  1  0.804254  0.804254  0.804254  1
  Ac  Ac1  1  0.195746  0.195746  0.195746  1
  Ac  Ac2  1  0.319305  0.629820  0.837336  1
  Ac  Ac3  1  0.837336  0.319305  0.629820  1
  Ac  Ac4  1  0.629819  0.837336  0.319305  1
  Ac  Ac5  1  0.680695  0.370180  0.162664  1
  Ac  Ac6  1  0.162664  0.680695  0.370180  1
  Ac  Ac7  1  0.370180  0.162664  0.680695  1
  Tl  Tl8  1  0.000000  0.000000  0.000000  1
  Pd  Pd9  1  0.158494  0.960722  0.581027  1
  Pd  Pd10  1  0.581027  0.158494  0.960722  1
  Pd  Pd11  1  0.960722  0.581027  0.158494  1
  Pd  Pd12  1  0.841506  0.039278  0.418973  1
  Pd  Pd13  1  0.418973  0.841506  0.039278  1
  Pd  Pd14  1  0.039278  0.418973  0.841506  1
