# generated using pymatgen
data_Lu12Mn2InFePd
_symmetry_space_group_name_H-M   'P 1'
_cell_length_a   8.09116371
_cell_length_b   8.09084736
_cell_length_c   8.09116444
_cell_angle_alpha   110.88493751
_cell_angle_beta   106.25381657
_cell_angle_gamma   111.32409038
_symmetry_Int_Tables_number   1
_chemical_formula_structural   Lu12Mn2InFePd
_chemical_formula_sum   'Lu12 Mn2 In1 Fe1 Pd1'
_cell_volume   406.77740945
_cell_formula_units_Z   1
loop_
 _symmetry_equiv_pos_site_id
 _symmetry_equiv_pos_as_xyz
  1  'x, y, z'
loop_
 _atom_site_type_symbol
 _atom_site_label
 _atom_site_symmetry_multiplicity
 _atom_site_fract_x
 _atom_site_fract_y
 _atom_site_fract_z
 _atom_site_occupancy
  Lu  Lu0  1  0.309499  0.309109  0.618571  1
  Lu  Lu1  1  0.690501  0.690891  0.381429  1
  Lu  Lu2  1  0.690540  0.309109  0.999610  1
  Lu  Lu3  1  0.309460  0.690891  0.000390  1
  Lu  Lu4  1  0.188180  0.446211  0.258030  1
  Lu  Lu5  1  0.811820  0.553789  0.741970  1
  Lu  Lu6  1  0.188197  0.930168  0.741972  1
  Lu  Lu7  1  0.962267  0.188397  0.773881  1
  Lu  Lu8  1  0.811803  0.069832  0.258028  1
  Lu  Lu9  1  0.037733  0.811603  0.226119  1
  Lu  Lu10  1  0.414517  0.188397  0.226129  1
  Lu  Lu11  1  0.585483  0.811603  0.773871  1
  Mn  Mn12  1  0.382199  0.382194  0.999995  1
  Mn  Mn13  1  0.617801  0.617806  0.000005  1
  In  In14  1  0.500000  0.000000  0.500000  1
  Fe  Fe15  1  0.000000  0.000000  0.000000  1
  Pd  Pd16  1  0.000000  0.500000  0.500000  1
