# generated using pymatgen
data_DyY9Si16Pd
_symmetry_space_group_name_H-M   'P 1'
_cell_length_a   11.13175135
_cell_length_b   11.07429547
_cell_length_c   11.13150500
_cell_angle_alpha   144.70366374
_cell_angle_beta   135.91370389
_cell_angle_gamma   57.79432790
_symmetry_Int_Tables_number   1
_chemical_formula_structural   DyY9Si16Pd
_chemical_formula_sum   'Dy1 Y9 Si16 Pd1'
_cell_volume   546.78005100
_cell_formula_units_Z   1
loop_
 _symmetry_equiv_pos_site_id
 _symmetry_equiv_pos_as_xyz
  1  'x, y, z'
loop_
 _atom_site_type_symbol
 _atom_site_label
 _atom_site_symmetry_multiplicity
 _atom_site_fract_x
 _atom_site_fract_y
 _atom_site_fract_z
 _atom_site_occupancy
  Dy  Dy0  1  0.651748  0.167398  0.014396  1
  Y  Y1  1  0.753682  0.753915  0.499032  1
  Y  Y2  1  0.459532  0.960006  0.011343  1
  Y  Y3  1  0.854357  0.360359  0.013871  1
  Y  Y4  1  0.948683  0.960018  0.500424  1
  Y  Y5  1  0.153015  0.167290  0.515478  1
  Y  Y6  1  0.346390  0.360367  0.505982  1
  Y  Y7  1  0.254843  0.753903  0.000209  1
  Y  Y8  1  0.549977  0.564510  0.503211  1
  Y  Y9  1  0.061420  0.564474  0.014588  1
  Si  Si10  1  0.202516  0.580908  0.378446  1
  Si  Si11  1  0.996879  0.061417  0.063931  1
  Si  Si12  1  0.700699  0.285564  0.585033  1
  Si  Si13  1  0.806355  0.224690  0.417703  1
  Si  Si14  1  0.903731  0.546994  0.643082  1
  Si  Si15  1  0.418021  0.866916  0.449542  1
  Si  Si16  1  0.106120  0.708414  0.602280  1
  Si  Si17  1  0.303571  0.897491  0.594433  1
  Si  Si18  1  0.585757  0.035869  0.450010  1
  Si  Si19  1  0.000423  0.421057  0.420078  1
  Si  Si20  1  0.820021  0.888762  0.068282  1
  Si  Si21  1  0.402632  0.493632  0.091596  1
  Si  Si22  1  0.122218  0.080289  0.957986  1
  Si  Si23  1  0.287233  0.235798  0.948822  1
  Si  Si24  1  0.502471  0.387394  0.885429  1
  Si  Si25  1  0.601245  0.698207  0.096925  1
  Pd  Pd26  1  0.706458  0.635855  0.929384  1
