# generated using pymatgen
data_Tb3CeIn2(CuRh)2
_symmetry_space_group_name_H-M   'P 1'
_cell_length_a   7.63703168
_cell_length_b   7.63703171
_cell_length_c   3.73298200
_cell_angle_alpha   90.00000000
_cell_angle_beta   90.00000000
_cell_angle_gamma   88.68501894
_symmetry_Int_Tables_number   1
_chemical_formula_structural   Tb3CeIn2(CuRh)2
_chemical_formula_sum   'Tb3 Ce1 In2 Cu2 Rh2'
_cell_volume   217.66604821
_cell_formula_units_Z   1
loop_
 _symmetry_equiv_pos_site_id
 _symmetry_equiv_pos_as_xyz
  1  'x, y, z'
loop_
 _atom_site_type_symbol
 _atom_site_label
 _atom_site_symmetry_multiplicity
 _atom_site_fract_x
 _atom_site_fract_y
 _atom_site_fract_z
 _atom_site_occupancy
  Tb  Tb0  1  0.662076  0.173139  0.500000  1
  Tb  Tb1  1  0.326861  0.837924  0.500000  1
  Tb  Tb2  1  0.179473  0.320527  0.500000  1
  Ce  Ce3  1  0.817517  0.682483  0.500000  1
  In  In4  1  0.999957  0.006700  0.000000  1
  In  In5  1  0.493300  0.500043  0.000000  1
  Cu  Cu6  1  0.117627  0.617840  0.000000  1
  Cu  Cu7  1  0.882160  0.382373  0.000000  1
  Rh  Rh8  1  0.643899  0.856101  0.000000  1
  Rh  Rh9  1  0.377129  0.122871  0.000000  1
