# generated using pymatgen
data_CeTm11Tc3Ru
_symmetry_space_group_name_H-M   'P 1'
_cell_length_a   6.22067236
_cell_length_b   7.30285755
_cell_length_c   9.08961700
_cell_angle_alpha   90.00000000
_cell_angle_beta   90.00000000
_cell_angle_gamma   88.88844009
_symmetry_Int_Tables_number   1
_chemical_formula_structural   CeTm11Tc3Ru
_chemical_formula_sum   'Ce1 Tm11 Tc3 Ru1'
_cell_volume   412.85163379
_cell_formula_units_Z   1
loop_
 _symmetry_equiv_pos_site_id
 _symmetry_equiv_pos_as_xyz
  1  'x, y, z'
loop_
 _atom_site_type_symbol
 _atom_site_label
 _atom_site_symmetry_multiplicity
 _atom_site_fract_x
 _atom_site_fract_y
 _atom_site_fract_z
 _atom_site_occupancy
  Ce  Ce0  1  0.360471  0.941072  0.750000  1
  Tm  Tm1  1  0.630121  0.037873  0.250000  1
  Tm  Tm2  1  0.121259  0.461390  0.750000  1
  Tm  Tm3  1  0.871829  0.543710  0.250000  1
  Tm  Tm4  1  0.165375  0.178258  0.065676  1
  Tm  Tm5  1  0.835916  0.825340  0.938835  1
  Tm  Tm6  1  0.661650  0.322679  0.938824  1
  Tm  Tm7  1  0.835916  0.825340  0.561165  1
  Tm  Tm8  1  0.333201  0.673638  0.066362  1
  Tm  Tm9  1  0.165375  0.178258  0.434324  1
  Tm  Tm10  1  0.333201  0.673638  0.433638  1
  Tm  Tm11  1  0.661650  0.322679  0.561176  1
  Tc  Tc12  1  0.467071  0.382621  0.250000  1
  Tc  Tc13  1  0.519878  0.639926  0.750000  1
  Tc  Tc14  1  0.000821  0.109949  0.750000  1
  Ru  Ru15  1  0.036265  0.883629  0.250000  1
