# generated using pymatgen
data_Y2Er8Si16Pd
_symmetry_space_group_name_H-M   'P 1'
_cell_length_a   11.03585206
_cell_length_b   11.04722399
_cell_length_c   11.03585200
_cell_angle_alpha   144.76818187
_cell_angle_beta   136.44507257
_cell_angle_gamma   57.19223369
_symmetry_Int_Tables_number   1
_chemical_formula_structural   Y2Er8Si16Pd
_chemical_formula_sum   'Y2 Er8 Si16 Pd1'
_cell_volume   530.54518639
_cell_formula_units_Z   1
loop_
 _symmetry_equiv_pos_site_id
 _symmetry_equiv_pos_as_xyz
  1  'x, y, z'
loop_
 _atom_site_type_symbol
 _atom_site_label
 _atom_site_symmetry_multiplicity
 _atom_site_fract_x
 _atom_site_fract_y
 _atom_site_fract_z
 _atom_site_occupancy
  Y  Y0  1  0.249016  0.763412  0.010494  1
  Y  Y1  1  0.752920  0.763412  0.514398  1
  Er  Er2  1  0.051635  0.563541  0.015808  1
  Er  Er3  1  0.352107  0.371421  0.521767  1
  Er  Er4  1  0.151623  0.166369  0.520485  1
  Er  Er5  1  0.451568  0.963116  0.014734  1
  Er  Er6  1  0.645885  0.166369  0.014747  1
  Er  Er7  1  0.948381  0.963116  0.511546  1
  Er  Er8  1  0.849653  0.371421  0.019314  1
  Er  Er9  1  0.547733  0.563541  0.511907  1
  Si  Si10  1  0.118417  0.079499  0.961080  1
  Si  Si11  1  0.798116  0.182055  0.383940  1
  Si  Si12  1  0.300352  0.899160  0.598809  1
  Si  Si13  1  0.399608  0.500376  0.100768  1
  Si  Si14  1  0.884276  0.848034  0.963758  1
  Si  Si15  1  0.104421  0.708875  0.604454  1
  Si  Si16  1  0.200529  0.584082  0.383551  1
  Si  Si17  1  0.698025  0.293444  0.595420  1
  Si  Si18  1  0.999780  0.432804  0.433025  1
  Si  Si19  1  0.714358  0.668381  0.954023  1
  Si  Si20  1  0.600849  0.702131  0.101282  1
  Si  Si21  1  0.000399  0.085780  0.085381  1
  Si  Si22  1  0.501010  0.390812  0.889803  1
  Si  Si23  1  0.285377  0.241021  0.955645  1
  Si  Si24  1  0.583179  0.041882  0.458702  1
  Si  Si25  1  0.415056  0.872715  0.457659  1
  Pd  Pd26  1  0.895726  0.502145  0.606419  1
