# generated using pymatgen
data_TiZn21Rh4
_symmetry_space_group_name_H-M   'P 1'
_cell_length_a   7.91612912
_cell_length_b   7.92908748
_cell_length_c   7.92908732
_cell_angle_alpha   109.50430104
_cell_angle_beta   109.43812048
_cell_angle_gamma   109.43812082
_symmetry_Int_Tables_number   1
_chemical_formula_structural   TiZn21Rh4
_chemical_formula_sum   'Ti1 Zn21 Rh4'
_cell_volume   383.27865196
_cell_formula_units_Z   1
loop_
 _symmetry_equiv_pos_site_id
 _symmetry_equiv_pos_as_xyz
  1  'x, y, z'
loop_
 _atom_site_type_symbol
 _atom_site_label
 _atom_site_symmetry_multiplicity
 _atom_site_fract_x
 _atom_site_fract_y
 _atom_site_fract_z
 _atom_site_occupancy
  Ti  Ti0  1  0.219633  0.000000  0.000000  1
  Zn  Zn1  1  0.991747  0.211660  0.000000  1
  Zn  Zn2  1  0.736969  0.352275  0.000000  1
  Zn  Zn3  1  0.354543  0.369455  0.000000  1
  Zn  Zn4  1  0.647893  0.643745  0.000000  1
  Zn  Zn5  1  0.355421  0.719490  0.000000  1
  Zn  Zn6  1  0.991747  0.000000  0.211660  1
  Zn  Zn7  1  0.635929  0.280509  0.280509  1
  Zn  Zn8  1  0.262123  0.614414  0.268887  1
  Zn  Zn9  1  0.736969  0.000000  0.352275  1
  Zn  Zn10  1  0.993236  0.731112  0.345528  1
  Zn  Zn11  1  0.354543  0.000000  0.369455  1
  Zn  Zn12  1  0.004149  0.356255  0.356255  1
  Zn  Zn13  1  0.647708  0.654472  0.385584  1
  Zn  Zn14  1  0.262123  0.268887  0.614414  1
  Zn  Zn15  1  0.647893  0.000000  0.643745  1
  Zn  Zn16  1  0.985088  0.630545  0.630545  1
  Zn  Zn17  1  0.647708  0.385584  0.654472  1
  Zn  Zn18  1  0.384693  0.647725  0.647725  1
  Zn  Zn19  1  0.355421  0.000000  0.719490  1
  Zn  Zn20  1  0.993236  0.345528  0.731112  1
  Zn  Zn21  1  0.780085  0.788338  0.788338  1
  Rh  Rh22  1  0.636972  0.000000  0.000000  1
  Rh  Rh23  1  0.015838  0.673350  0.000000  1
  Rh  Rh24  1  0.342488  0.326650  0.326650  1
  Rh  Rh25  1  0.015838  0.000000  0.673350  1
