# generated using pymatgen
data_Dy4As6Ir5Rh2
_symmetry_space_group_name_H-M   'P 1'
_cell_length_a   7.30344449
_cell_length_b   7.30344506
_cell_length_c   7.30344469
_cell_angle_alpha   109.61336446
_cell_angle_beta   109.18728734
_cell_angle_gamma   109.61337836
_symmetry_Int_Tables_number   1
_chemical_formula_structural   Dy4As6Ir5Rh2
_chemical_formula_sum   'Dy4 As6 Ir5 Rh2'
_cell_volume   299.88406038
_cell_formula_units_Z   1
loop_
 _symmetry_equiv_pos_site_id
 _symmetry_equiv_pos_as_xyz
  1  'x, y, z'
loop_
 _atom_site_type_symbol
 _atom_site_label
 _atom_site_symmetry_multiplicity
 _atom_site_fract_x
 _atom_site_fract_y
 _atom_site_fract_z
 _atom_site_occupancy
  Dy  Dy0  1  0.500468  0.500000  0.499532  1
  Dy  Dy1  1  0.999532  0.500000  0.000468  1
  Dy  Dy2  1  0.500468  0.000936  0.000468  1
  Dy  Dy3  1  0.999532  0.999064  0.499532  1
  As  As4  1  0.680694  0.000000  0.680694  1
  As  As5  1  0.680650  0.680714  0.999936  1
  As  As6  1  0.319222  0.319286  0.999936  1
  As  As7  1  0.000064  0.680714  0.680778  1
  As  As8  1  0.000064  0.319286  0.319350  1
  As  As9  1  0.319306  0.000000  0.319306  1
  Ir  Ir10  1  0.498957  0.749573  0.248531  1
  Ir  Ir11  1  0.751469  0.250427  0.501043  1
  Ir  Ir12  1  0.250616  0.749573  0.501043  1
  Ir  Ir13  1  0.250000  0.500000  0.750000  1
  Ir  Ir14  1  0.498957  0.250427  0.749384  1
  Rh  Rh15  1  0.000000  0.000000  0.000000  1
  Rh  Rh16  1  0.750000  0.500000  0.250000  1
