# generated using pymatgen
data_LaY3(Tl2Br5)4
_symmetry_space_group_name_H-M   'P 1'
_cell_length_a   8.63143543
_cell_length_b   9.06716300
_cell_length_c   13.81780700
_cell_angle_alpha   90.00000000
_cell_angle_beta   90.71625611
_cell_angle_gamma   90.00000000
_symmetry_Int_Tables_number   1
_chemical_formula_structural   LaY3(Tl2Br5)4
_chemical_formula_sum   'La1 Y3 Tl8 Br20'
_cell_volume   1081.33344565
_cell_formula_units_Z   1
loop_
 _symmetry_equiv_pos_site_id
 _symmetry_equiv_pos_as_xyz
  1  'x, y, z'
loop_
 _atom_site_type_symbol
 _atom_site_label
 _atom_site_symmetry_multiplicity
 _atom_site_fract_x
 _atom_site_fract_y
 _atom_site_fract_z
 _atom_site_occupancy
  La  La0  1  0.574238  0.750000  0.005703  1
  Y  Y1  1  0.928346  0.750000  0.504044  1
  Y  Y2  1  0.070592  0.250000  0.496062  1
  Y  Y3  1  0.426226  0.250000  0.995910  1
  Tl  Tl4  1  0.945232  0.004393  0.825501  1
  Tl  Tl5  1  0.055292  0.998582  0.174555  1
  Tl  Tl6  1  0.443972  0.997758  0.670380  1
  Tl  Tl7  1  0.055292  0.501418  0.174555  1
  Tl  Tl8  1  0.556090  0.003686  0.329549  1
  Tl  Tl9  1  0.945232  0.495607  0.825501  1
  Tl  Tl10  1  0.556090  0.496314  0.329549  1
  Tl  Tl11  1  0.443972  0.502242  0.670380  1
  Br  Br12  1  0.117359  0.750000  0.676034  1
  Br  Br13  1  0.882724  0.250000  0.324181  1
  Br  Br14  1  0.616003  0.250000  0.825932  1
  Br  Br15  1  0.373379  0.750000  0.182430  1
  Br  Br16  1  0.836267  0.045106  0.570399  1
  Br  Br17  1  0.162521  0.955062  0.430076  1
  Br  Br18  1  0.332964  0.961902  0.923121  1
  Br  Br19  1  0.162521  0.544938  0.430076  1
  Br  Br20  1  0.666453  0.052139  0.076049  1
  Br  Br21  1  0.836267  0.454894  0.570399  1
  Br  Br22  1  0.666453  0.447861  0.076049  1
  Br  Br23  1  0.332964  0.538098  0.923121  1
  Br  Br24  1  0.591168  0.750000  0.511890  1
  Br  Br25  1  0.408052  0.250000  0.486589  1
  Br  Br26  1  0.086690  0.250000  0.989005  1
  Br  Br27  1  0.924617  0.750000  0.010722  1
  Br  Br28  1  0.658196  0.750000  0.795629  1
  Br  Br29  1  0.345167  0.250000  0.197288  1
  Br  Br30  1  0.156136  0.250000  0.697421  1
  Br  Br31  1  0.843525  0.750000  0.301902  1
