# generated using pymatgen
data_Y6Co16ReMoP12
_symmetry_space_group_name_H-M   'P 1'
_cell_length_a   3.73073600
_cell_length_b   10.55747500
_cell_length_c   12.25463500
_cell_angle_alpha   90.00000000
_cell_angle_beta   90.00000000
_cell_angle_gamma   90.00000000
_symmetry_Int_Tables_number   1
_chemical_formula_structural   Y6Co16ReMoP12
_chemical_formula_sum   'Y6 Co16 Re1 Mo1 P12'
_cell_volume   482.67517208
_cell_formula_units_Z   1
loop_
 _symmetry_equiv_pos_site_id
 _symmetry_equiv_pos_as_xyz
  1  'x, y, z'
loop_
 _atom_site_type_symbol
 _atom_site_label
 _atom_site_symmetry_multiplicity
 _atom_site_fract_x
 _atom_site_fract_y
 _atom_site_fract_z
 _atom_site_occupancy
  Y  Y0  1  0.000000  0.500000  0.524290  1
  Y  Y1  1  0.500000  0.000000  0.475751  1
  Y  Y2  1  0.500000  0.818652  0.205425  1
  Y  Y3  1  0.500000  0.181348  0.205425  1
  Y  Y4  1  0.000000  0.681720  0.794883  1
  Y  Y5  1  0.000000  0.318280  0.794883  1
  Co  Co6  1  0.500000  0.500000  0.701589  1
  Co  Co7  1  0.000000  0.000000  0.298357  1
  Co  Co8  1  0.000000  0.500000  0.986572  1
  Co  Co9  1  0.500000  0.000000  0.011610  1
  Co  Co10  1  0.500000  0.331133  0.989308  1
  Co  Co11  1  0.500000  0.668867  0.989308  1
  Co  Co12  1  0.000000  0.166484  0.009833  1
  Co  Co13  1  0.000000  0.833516  0.009833  1
  Co  Co14  1  0.500000  0.295884  0.431955  1
  Co  Co15  1  0.500000  0.704116  0.431955  1
  Co  Co16  1  0.000000  0.202951  0.569357  1
  Co  Co17  1  0.000000  0.797049  0.569357  1
  Co  Co18  1  0.500000  0.879568  0.708186  1
  Co  Co19  1  0.500000  0.120432  0.708186  1
  Co  Co20  1  0.000000  0.621827  0.292870  1
  Co  Co21  1  0.000000  0.378173  0.292870  1
  Re  Re22  1  0.000000  0.000000  0.843681  1
  Mo  Mo23  1  0.500000  0.500000  0.155496  1
  P  P24  1  0.500000  0.500000  0.880751  1
  P  P25  1  0.000000  0.000000  0.119865  1
  P  P26  1  0.500000  0.500000  0.348841  1
  P  P27  1  0.000000  0.000000  0.651425  1
  P  P28  1  0.500000  0.311107  0.616436  1
  P  P29  1  0.500000  0.688893  0.616436  1
  P  P30  1  0.000000  0.188682  0.384392  1
  P  P31  1  0.000000  0.811318  0.384392  1
  P  P32  1  0.500000  0.846388  0.892031  1
  P  P33  1  0.500000  0.153612  0.892031  1
  P  P34  1  0.000000  0.655362  0.106211  1
  P  P35  1  0.000000  0.344638  0.106211  1
