# generated using pymatgen
data_Lu4Hf2Sn5
_symmetry_space_group_name_H-M   'P 1'
_cell_length_a   6.11610056
_cell_length_b   9.13073868
_cell_length_c   11.20072831
_cell_angle_alpha   114.05388841
_cell_angle_beta   105.84420843
_cell_angle_gamma   90.00000145
_symmetry_Int_Tables_number   1
_chemical_formula_structural   Lu4Hf2Sn5
_chemical_formula_sum   'Lu8 Hf4 Sn10'
_cell_volume   545.05518692
_cell_formula_units_Z   2
loop_
 _symmetry_equiv_pos_site_id
 _symmetry_equiv_pos_as_xyz
  1  'x, y, z'
loop_
 _atom_site_type_symbol
 _atom_site_label
 _atom_site_symmetry_multiplicity
 _atom_site_fract_x
 _atom_site_fract_y
 _atom_site_fract_z
 _atom_site_occupancy
  Lu  Lu0  1  0.439047  0.672561  0.878095  1
  Lu  Lu1  1  0.560953  0.327439  0.121905  1
  Lu  Lu2  1  0.939047  0.205534  0.878095  1
  Lu  Lu3  1  0.060953  0.794466  0.121905  1
  Lu  Lu4  1  0.145887  0.257635  0.291773  1
  Lu  Lu5  1  0.854113  0.742365  0.708227  1
  Lu  Lu6  1  0.645887  0.034138  0.291773  1
  Lu  Lu7  1  0.354113  0.965862  0.708227  1
  Hf  Hf8  1  0.555412  0.305412  0.610823  1
  Hf  Hf9  1  0.444588  0.694588  0.389177  1
  Hf  Hf10  1  0.944588  0.694588  0.389177  1
  Hf  Hf11  1  0.055412  0.305412  0.610823  1
  Sn  Sn12  1  0.290142  0.589559  0.580284  1
  Sn  Sn13  1  0.709858  0.410441  0.419716  1
  Sn  Sn14  1  0.790142  0.990725  0.580284  1
  Sn  Sn15  1  0.209858  0.009275  0.419716  1
  Sn  Sn16  1  0.250000  0.000000  0.000000  1
  Sn  Sn17  1  0.750000  0.000000  0.000000  1
  Sn  Sn18  1  0.076112  0.475318  0.152226  1
  Sn  Sn19  1  0.923888  0.524682  0.847774  1
  Sn  Sn20  1  0.576112  0.676908  0.152226  1
  Sn  Sn21  1  0.423888  0.323092  0.847774  1
