# generated using pymatgen
data_Dy8Y2Si16Hg
_symmetry_space_group_name_H-M   'P 1'
_cell_length_a   11.10633346
_cell_length_b   11.05251060
_cell_length_c   11.10583228
_cell_angle_alpha   144.51908820
_cell_angle_beta   136.07660373
_cell_angle_gamma   57.77725748
_symmetry_Int_Tables_number   1
_chemical_formula_structural   Dy8Y2Si16Hg
_chemical_formula_sum   'Dy8 Y2 Si16 Hg1'
_cell_volume   544.08028599
_cell_formula_units_Z   1
loop_
 _symmetry_equiv_pos_site_id
 _symmetry_equiv_pos_as_xyz
  1  'x, y, z'
loop_
 _atom_site_type_symbol
 _atom_site_label
 _atom_site_symmetry_multiplicity
 _atom_site_fract_x
 _atom_site_fract_y
 _atom_site_fract_z
 _atom_site_occupancy
  Dy  Dy0  1  0.849588  0.366144  0.018942  1
  Dy  Dy1  1  0.953421  0.969151  0.525046  1
  Dy  Dy2  1  0.151716  0.166077  0.518790  1
  Dy  Dy3  1  0.347096  0.366029  0.516475  1
  Dy  Dy4  1  0.244560  0.760425  0.005764  1
  Dy  Dy5  1  0.545395  0.560415  0.498861  1
  Dy  Dy6  1  0.061555  0.560354  0.014951  1
  Dy  Dy7  1  0.647296  0.166103  0.014385  1
  Y  Y8  1  0.754770  0.760520  0.515998  1
  Y  Y9  1  0.443895  0.969343  0.015879  1
  Si  Si10  1  0.199254  0.581421  0.381986  1
  Si  Si11  1  0.000626  0.082116  0.082124  1
  Si  Si12  1  0.700242  0.281696  0.582104  1
  Si  Si13  1  0.801275  0.177172  0.376383  1
  Si  Si14  1  0.895980  0.505505  0.609896  1
  Si  Si15  1  0.416467  0.869666  0.452700  1
  Si  Si16  1  0.103453  0.713362  0.609871  1
  Si  Si17  1  0.301009  0.896717  0.595289  1
  Si  Si18  1  0.582709  0.041250  0.458186  1
  Si  Si19  1  0.999546  0.429496  0.430419  1
  Si  Si20  1  0.879796  0.842426  0.962738  1
  Si  Si21  1  0.399783  0.499147  0.098993  1
  Si  Si22  1  0.119823  0.087913  0.967606  1
  Si  Si23  1  0.285981  0.238441  0.951967  1
  Si  Si24  1  0.499255  0.391060  0.891547  1
  Si  Si25  1  0.596844  0.703732  0.106798  1
  Hg  Hg26  1  0.718667  0.675818  0.957805  1
