# generated using pymatgen
data_Tb4Ta5ReSi8
_symmetry_space_group_name_H-M   'P 1'
_cell_length_a   7.01512273
_cell_length_b   6.88689518
_cell_length_c   6.98792800
_cell_angle_alpha   70.82088917
_cell_angle_beta   89.95611041
_cell_angle_gamma   90.10214531
_symmetry_Int_Tables_number   1
_chemical_formula_structural   Tb4Ta5ReSi8
_chemical_formula_sum   'Tb4 Ta5 Re1 Si8'
_cell_volume   318.86455935
_cell_formula_units_Z   1
loop_
 _symmetry_equiv_pos_site_id
 _symmetry_equiv_pos_as_xyz
  1  'x, y, z'
loop_
 _atom_site_type_symbol
 _atom_site_label
 _atom_site_symmetry_multiplicity
 _atom_site_fract_x
 _atom_site_fract_y
 _atom_site_fract_z
 _atom_site_occupancy
  Tb  Tb0  1  0.332381  0.562275  0.812725  1
  Tb  Tb1  1  0.830176  0.937946  0.187096  1
  Tb  Tb2  1  0.669836  0.436743  0.188998  1
  Tb  Tb3  1  0.168850  0.062243  0.813743  1
  Ta  Ta4  1  0.501050  0.000194  0.499978  1
  Ta  Ta5  1  0.999287  0.499346  0.501883  1
  Ta  Ta6  1  0.826298  0.746135  0.745500  1
  Ta  Ta7  1  0.330203  0.751373  0.256586  1
  Ta  Ta8  1  0.174891  0.251700  0.255658  1
  Re  Re9  1  0.668469  0.249101  0.743618  1
  Si  Si10  1  0.538974  0.870456  0.912449  1
  Si  Si11  1  0.038916  0.633964  0.084712  1
  Si  Si12  1  0.463275  0.136080  0.079327  1
  Si  Si13  1  0.956890  0.365668  0.911316  1
  Si  Si14  1  0.126165  0.872523  0.503456  1
  Si  Si15  1  0.628768  0.625338  0.497097  1
  Si  Si16  1  0.870005  0.128196  0.500498  1
  Si  Si17  1  0.375569  0.370720  0.505362  1
