# generated using pymatgen
data_PrTh2(SnRh)3
_symmetry_space_group_name_H-M   'P 1'
_cell_length_a   7.63990676
_cell_length_b   7.58663916
_cell_length_c   4.09840400
_cell_angle_alpha   90.00000000
_cell_angle_beta   90.00000000
_cell_angle_gamma   119.76962470
_symmetry_Int_Tables_number   1
_chemical_formula_structural   PrTh2(SnRh)3
_chemical_formula_sum   'Pr1 Th2 Sn3 Rh3'
_cell_volume   206.19892128
_cell_formula_units_Z   1
loop_
 _symmetry_equiv_pos_site_id
 _symmetry_equiv_pos_as_xyz
  1  'x, y, z'
loop_
 _atom_site_type_symbol
 _atom_site_label
 _atom_site_symmetry_multiplicity
 _atom_site_fract_x
 _atom_site_fract_y
 _atom_site_fract_z
 _atom_site_occupancy
  Pr  Pr0  1  0.000000  0.589020  0.500000  1
  Th  Th1  1  0.586366  0.999326  0.500000  1
  Th  Th2  1  0.413634  0.412960  0.500000  1
  Sn  Sn3  1  0.243664  0.993495  0.000000  1
  Sn  Sn4  1  0.756336  0.749831  0.000000  1
  Sn  Sn5  1  0.000000  0.257406  0.000000  1
  Rh  Rh6  1  0.000000  0.011088  0.500000  1
  Rh  Rh7  1  0.351722  0.669298  0.000000  1
  Rh  Rh8  1  0.648278  0.317575  0.000000  1
