# generated using pymatgen
data_CeHo2Tm2Al2Ru3
_symmetry_space_group_name_H-M   'P 1'
_cell_length_a   8.39885812
_cell_length_b   8.32250625
_cell_length_c   8.28905938
_cell_angle_alpha   109.94582221
_cell_angle_beta   109.42825470
_cell_angle_gamma   110.10441729
_symmetry_Int_Tables_number   1
_chemical_formula_structural   CeHo2Tm2Al2Ru3
_chemical_formula_sum   'Ce2 Ho4 Tm4 Al4 Ru6'
_cell_volume   440.05204689
_cell_formula_units_Z   2
loop_
 _symmetry_equiv_pos_site_id
 _symmetry_equiv_pos_as_xyz
  1  'x, y, z'
loop_
 _atom_site_type_symbol
 _atom_site_label
 _atom_site_symmetry_multiplicity
 _atom_site_fract_x
 _atom_site_fract_y
 _atom_site_fract_z
 _atom_site_occupancy
  Ce  Ce0  1  0.943037  0.251841  0.194604  1
  Ce  Ce1  1  0.196161  0.941148  0.251350  1
  Ho  Ho2  1  0.781009  0.785427  0.778405  1
  Ho  Ho3  1  0.318493  0.567621  0.754228  1
  Ho  Ho4  1  0.751012  0.318230  0.569482  1
  Ho  Ho5  1  0.568182  0.747645  0.313519  1
  Tm  Tm6  1  0.718447  0.502553  0.998961  1
  Tm  Tm7  1  0.999355  0.719087  0.505700  1
  Tm  Tm8  1  0.500619  0.993342  0.715594  1
  Tm  Tm9  1  0.254091  0.186248  0.931011  1
  Al  Al10  1  0.415793  0.410924  0.408302  1
  Al  Al11  1  0.091951  0.492150  0.996521  1
  Al  Al12  1  0.998155  0.090693  0.503705  1
  Al  Al13  1  0.502319  0.009633  0.093150  1
  Ru  Ru14  1  0.867798  0.116974  0.742181  1
  Ru  Ru15  1  0.754037  0.899782  0.122577  1
  Ru  Ru16  1  0.126424  0.762512  0.904886  1
  Ru  Ru17  1  0.226137  0.595542  0.366243  1
  Ru  Ru18  1  0.360081  0.223660  0.598701  1
  Ru  Ru19  1  0.626897  0.384991  0.250879  1
