# generated using pymatgen
data_Zr6GaHgC2
_symmetry_space_group_name_H-M   'P 1'
_cell_length_a   6.09407200
_cell_length_b   6.09407258
_cell_length_c   9.15430000
_cell_angle_alpha   90.00000000
_cell_angle_beta   90.00000000
_cell_angle_gamma   146.87936916
_symmetry_Int_Tables_number   1
_chemical_formula_structural   Zr6GaHgC2
_chemical_formula_sum   'Zr6 Ga1 Hg1 C2'
_cell_volume   185.76071353
_cell_formula_units_Z   1
loop_
 _symmetry_equiv_pos_site_id
 _symmetry_equiv_pos_as_xyz
  1  'x, y, z'
loop_
 _atom_site_type_symbol
 _atom_site_label
 _atom_site_symmetry_multiplicity
 _atom_site_fract_x
 _atom_site_fract_y
 _atom_site_fract_z
 _atom_site_occupancy
  Zr  Zr0  1  0.627049  0.372952  0.051281  1
  Zr  Zr1  1  0.950211  0.049791  0.250000  1
  Zr  Zr2  1  0.627049  0.372952  0.448719  1
  Zr  Zr3  1  0.374487  0.625514  0.537099  1
  Zr  Zr4  1  0.040626  0.959376  0.750000  1
  Zr  Zr5  1  0.374487  0.625514  0.962901  1
  Ga  Ga6  1  0.253220  0.746781  0.250000  1
  Hg  Hg7  1  0.749190  0.250811  0.750000  1
  C  C8  1  0.001844  0.998156  0.001627  1
  C  C9  1  0.001844  0.998156  0.498373  1
