# generated using pymatgen
data_Ho3Co4P6Rh5
_symmetry_space_group_name_H-M   'P 1'
_cell_length_a   3.77915600
_cell_length_b   10.94156000
_cell_length_c   12.53842400
_cell_angle_alpha   90.00000000
_cell_angle_beta   90.00000000
_cell_angle_gamma   90.00000000
_symmetry_Int_Tables_number   1
_chemical_formula_structural   Ho3Co4P6Rh5
_chemical_formula_sum   'Ho6 Co8 P12 Rh10'
_cell_volume   518.46210364
_cell_formula_units_Z   2
loop_
 _symmetry_equiv_pos_site_id
 _symmetry_equiv_pos_as_xyz
  1  'x, y, z'
loop_
 _atom_site_type_symbol
 _atom_site_label
 _atom_site_symmetry_multiplicity
 _atom_site_fract_x
 _atom_site_fract_y
 _atom_site_fract_z
 _atom_site_occupancy
  Ho  Ho0  1  0.000000  0.500000  0.518059  1
  Ho  Ho1  1  0.500000  0.000000  0.476019  1
  Ho  Ho2  1  0.500000  0.815723  0.197757  1
  Ho  Ho3  1  0.500000  0.184277  0.197757  1
  Ho  Ho4  1  0.000000  0.680267  0.803856  1
  Ho  Ho5  1  0.000000  0.319733  0.803856  1
  Co  Co6  1  0.000000  0.500000  0.992200  1
  Co  Co7  1  0.500000  0.000000  0.011790  1
  Co  Co8  1  0.000000  0.620571  0.283917  1
  Co  Co9  1  0.000000  0.379429  0.283917  1
  Co  Co10  1  0.500000  0.334392  0.997143  1
  Co  Co11  1  0.500000  0.665608  0.997143  1
  Co  Co12  1  0.000000  0.168581  0.007340  1
  Co  Co13  1  0.000000  0.831419  0.007340  1
  P  P14  1  0.500000  0.316794  0.619360  1
  P  P15  1  0.500000  0.683206  0.619360  1
  P  P16  1  0.000000  0.192424  0.372302  1
  P  P17  1  0.000000  0.807576  0.372302  1
  P  P18  1  0.500000  0.500000  0.894486  1
  P  P19  1  0.000000  0.000000  0.107483  1
  P  P20  1  0.500000  0.840316  0.905056  1
  P  P21  1  0.500000  0.159684  0.905056  1
  P  P22  1  0.000000  0.656641  0.104039  1
  P  P23  1  0.000000  0.343359  0.104039  1
  P  P24  1  0.500000  0.500000  0.341217  1
  P  P25  1  0.000000  0.000000  0.652470  1
  Rh  Rh26  1  0.500000  0.301387  0.425867  1
  Rh  Rh27  1  0.500000  0.698613  0.425867  1
  Rh  Rh28  1  0.000000  0.204852  0.568571  1
  Rh  Rh29  1  0.000000  0.795148  0.568571  1
  Rh  Rh30  1  0.500000  0.872400  0.716627  1
  Rh  Rh31  1  0.500000  0.127600  0.716627  1
  Rh  Rh32  1  0.500000  0.500000  0.157514  1
  Rh  Rh33  1  0.000000  0.000000  0.843223  1
  Rh  Rh34  1  0.500000  0.500000  0.708704  1
  Rh  Rh35  1  0.000000  0.000000  0.293163  1
