# generated using pymatgen
data_Tm5GaP11Ir10Rh9
_symmetry_space_group_name_H-M   'P 1'
_cell_length_a   12.70276962
_cell_length_b   12.70277032
_cell_length_c   3.94527600
_cell_angle_alpha   90.00000000
_cell_angle_beta   90.00000000
_cell_angle_gamma   119.74721568
_symmetry_Int_Tables_number   1
_chemical_formula_structural   Tm5GaP11Ir10Rh9
_chemical_formula_sum   'Tm5 Ga1 P11 Ir10 Rh9'
_cell_volume   552.72041833
_cell_formula_units_Z   1
loop_
 _symmetry_equiv_pos_site_id
 _symmetry_equiv_pos_as_xyz
  1  'x, y, z'
loop_
 _atom_site_type_symbol
 _atom_site_label
 _atom_site_symmetry_multiplicity
 _atom_site_fract_x
 _atom_site_fract_y
 _atom_site_fract_z
 _atom_site_occupancy
  Tm  Tm0  1  0.335510  0.665968  0.500000  1
  Tm  Tm1  1  0.665968  0.335510  0.500000  1
  Tm  Tm2  1  0.178935  0.178935  0.000000  1
  Tm  Tm3  1  0.815442  0.001813  0.000000  1
  Tm  Tm4  1  0.001813  0.815442  0.000000  1
  Ga  Ga5  1  0.359338  0.359338  0.500000  1
  P  P6  1  0.313557  0.827119  0.000000  1
  P  P7  1  0.170917  0.483749  0.000000  1
  P  P8  1  0.519319  0.683214  0.000000  1
  P  P9  1  0.827119  0.313557  0.000000  1
  P  P10  1  0.483749  0.170917  0.000000  1
  P  P11  1  0.683214  0.519319  0.000000  1
  P  P12  1  0.640129  0.000342  0.500000  1
  P  P13  1  0.000342  0.640129  0.500000  1
  P  P14  1  0.824922  0.824922  0.500000  1
  P  P15  1  0.181238  0.998535  0.500000  1
  P  P16  1  0.998535  0.181238  0.500000  1
  Ir  Ir17  1  0.131549  0.639406  0.000000  1
  Ir  Ir18  1  0.358476  0.493070  0.000000  1
  Ir  Ir19  1  0.507535  0.861186  0.000000  1
  Ir  Ir20  1  0.639406  0.131549  0.000000  1
  Ir  Ir21  1  0.493070  0.358476  0.000000  1
  Ir  Ir22  1  0.861186  0.507535  0.000000  1
  Ir  Ir23  1  0.721706  0.721706  0.000000  1
  Ir  Ir24  1  0.281979  0.996059  0.000000  1
  Ir  Ir25  1  0.996059  0.281979  0.000000  1
  Ir  Ir26  1  0.003727  0.003727  0.500000  1
  Rh  Rh27  1  0.193082  0.816828  0.500000  1
  Rh  Rh28  1  0.170848  0.379402  0.500000  1
  Rh  Rh29  1  0.631172  0.810755  0.500000  1
  Rh  Rh30  1  0.816828  0.193082  0.500000  1
  Rh  Rh31  1  0.379402  0.170848  0.500000  1
  Rh  Rh32  1  0.810755  0.631172  0.500000  1
  Rh  Rh33  1  0.555040  0.555040  0.500000  1
  Rh  Rh34  1  0.456533  0.991604  0.500000  1
  Rh  Rh35  1  0.991604  0.456533  0.500000  1
