# generated using pymatgen
data_Ho3Tm2Bi3O14
_symmetry_space_group_name_H-M   'P 1'
_cell_length_a   6.56083706
_cell_length_b   6.57864868
_cell_length_c   7.70660000
_cell_angle_alpha   106.81507859
_cell_angle_beta   89.65920146
_cell_angle_gamma   98.80395688
_symmetry_Int_Tables_number   1
_chemical_formula_structural   Ho3Tm2Bi3O14
_chemical_formula_sum   'Ho3 Tm2 Bi3 O14'
_cell_volume   314.39602649
_cell_formula_units_Z   1
loop_
 _symmetry_equiv_pos_site_id
 _symmetry_equiv_pos_as_xyz
  1  'x, y, z'
loop_
 _atom_site_type_symbol
 _atom_site_label
 _atom_site_symmetry_multiplicity
 _atom_site_fract_x
 _atom_site_fract_y
 _atom_site_fract_z
 _atom_site_occupancy
  Ho  Ho0  1  0.272444  0.536692  0.882702  1
  Ho  Ho1  1  0.735161  0.460687  0.112516  1
  Ho  Ho2  1  0.737321  0.473553  0.616987  1
  Tm  Tm3  1  0.463577  0.007322  0.252694  1
  Tm  Tm4  1  0.537099  0.996842  0.750143  1
  Bi  Bi5  1  0.994745  0.999810  0.500763  1
  Bi  Bi6  1  0.999796  0.997475  0.998302  1
  Bi  Bi7  1  0.278931  0.531350  0.386757  1
  O  O8  1  0.455392  0.656123  0.164439  1
  O  O9  1  0.553339  0.347913  0.833511  1
  O  O10  1  0.304147  0.920308  0.949244  1
  O  O11  1  0.697089  0.078449  0.051286  1
  O  O12  1  0.300575  0.931226  0.517321  1
  O  O13  1  0.696402  0.083902  0.489785  1
  O  O14  1  0.548673  0.359095  0.342238  1
  O  O15  1  0.463026  0.641155  0.659643  1
  O  O16  1  0.925974  0.660922  0.951402  1
  O  O17  1  0.072154  0.330597  0.033613  1
  O  O18  1  0.066166  0.343893  0.629641  1
  O  O19  1  0.903253  0.661562  0.380417  1
  O  O20  1  0.867316  0.904396  0.726915  1
  O  O21  1  0.127419  0.076729  0.269682  1
