# generated using pymatgen
data_Pr5CoTe2
_symmetry_space_group_name_H-M   'P 1'
_cell_length_a   8.40019100
_cell_length_b   8.69174800
_cell_length_c   13.18112300
_cell_angle_alpha   90.00000000
_cell_angle_beta   90.00000000
_cell_angle_gamma   90.00000000
_symmetry_Int_Tables_number   1
_chemical_formula_structural   Pr5CoTe2
_chemical_formula_sum   'Pr20 Co4 Te8'
_cell_volume   962.38467787
_cell_formula_units_Z   4
loop_
 _symmetry_equiv_pos_site_id
 _symmetry_equiv_pos_as_xyz
  1  'x, y, z'
loop_
 _atom_site_type_symbol
 _atom_site_label
 _atom_site_symmetry_multiplicity
 _atom_site_fract_x
 _atom_site_fract_y
 _atom_site_fract_z
 _atom_site_occupancy
  Pr  Pr0  1  0.844159  0.750000  0.807977  1
  Pr  Pr1  1  0.155841  0.250000  0.192023  1
  Pr  Pr2  1  0.344159  0.250000  0.692023  1
  Pr  Pr3  1  0.655841  0.750000  0.307977  1
  Pr  Pr4  1  0.363029  0.750000  0.690899  1
  Pr  Pr5  1  0.636971  0.250000  0.309101  1
  Pr  Pr6  1  0.863029  0.250000  0.809101  1
  Pr  Pr7  1  0.136971  0.750000  0.190899  1
  Pr  Pr8  1  0.966719  0.750000  0.498202  1
  Pr  Pr9  1  0.033281  0.250000  0.501798  1
  Pr  Pr10  1  0.466719  0.250000  0.001798  1
  Pr  Pr11  1  0.533281  0.750000  0.998202  1
  Pr  Pr12  1  0.677534  0.030615  0.571568  1
  Pr  Pr13  1  0.322466  0.969385  0.428432  1
  Pr  Pr14  1  0.177534  0.969385  0.928432  1
  Pr  Pr15  1  0.322466  0.530615  0.428432  1
  Pr  Pr16  1  0.822466  0.030615  0.071568  1
  Pr  Pr17  1  0.677534  0.469385  0.571568  1
  Pr  Pr18  1  0.822466  0.469385  0.071568  1
  Pr  Pr19  1  0.177534  0.530615  0.928432  1
  Co  Co20  1  0.560262  0.750000  0.513969  1
  Co  Co21  1  0.439738  0.250000  0.486031  1
  Co  Co22  1  0.060262  0.250000  0.986031  1
  Co  Co23  1  0.939738  0.750000  0.013969  1
  Te  Te24  1  0.559938  0.492625  0.822147  1
  Te  Te25  1  0.440062  0.507375  0.177853  1
  Te  Te26  1  0.059938  0.507375  0.677853  1
  Te  Te27  1  0.440062  0.992625  0.177853  1
  Te  Te28  1  0.940062  0.492625  0.322147  1
  Te  Te29  1  0.559938  0.007375  0.822147  1
  Te  Te30  1  0.940062  0.007375  0.322147  1
  Te  Te31  1  0.059938  0.992625  0.677853  1
