# generated using pymatgen
data_Li2Nd7Y(Si6Pd)2
_symmetry_space_group_name_H-M   'P 1'
_cell_length_a   8.26141829
_cell_length_b   8.25343975
_cell_length_c   8.42710601
_cell_angle_alpha   90.00000116
_cell_angle_beta   89.99505633
_cell_angle_gamma   119.96805569
_symmetry_Int_Tables_number   1
_chemical_formula_structural   Li2Nd7Y(Si6Pd)2
_chemical_formula_sum   'Li2 Nd7 Y1 Si12 Pd2'
_cell_volume   497.78108508
_cell_formula_units_Z   1
loop_
 _symmetry_equiv_pos_site_id
 _symmetry_equiv_pos_as_xyz
  1  'x, y, z'
loop_
 _atom_site_type_symbol
 _atom_site_label
 _atom_site_symmetry_multiplicity
 _atom_site_fract_x
 _atom_site_fract_y
 _atom_site_fract_z
 _atom_site_occupancy
  Li  Li0  1  0.333386  0.666693  0.999970  1
  Li  Li1  1  0.666649  0.333324  0.995948  1
  Nd  Nd2  1  0.500337  0.000575  0.250241  1
  Nd  Nd3  1  0.499549  0.999284  0.750360  1
  Nd  Nd4  1  0.999402  0.499701  0.250159  1
  Nd  Nd5  1  0.500337  0.499761  0.250241  1
  Nd  Nd6  1  0.499549  0.500265  0.750360  1
  Nd  Nd7  1  0.000016  0.000008  0.248853  1
  Nd  Nd8  1  0.999999  0.999999  0.750728  1
  Y  Y9  1  0.000964  0.500482  0.747607  1
  Si  Si10  1  0.166152  0.334280  0.997211  1
  Si  Si11  1  0.833708  0.665708  0.998490  1
  Si  Si12  1  0.667902  0.833951  0.998732  1
  Si  Si13  1  0.834307  0.667950  0.502617  1
  Si  Si14  1  0.331968  0.165984  0.999679  1
  Si  Si15  1  0.165719  0.332016  0.501025  1
  Si  Si16  1  0.166152  0.831872  0.997211  1
  Si  Si17  1  0.332295  0.166148  0.501423  1
  Si  Si18  1  0.833708  0.168000  0.998490  1
  Si  Si19  1  0.667811  0.833905  0.500011  1
  Si  Si20  1  0.834307  0.166358  0.502617  1
  Si  Si21  1  0.165719  0.833703  0.501025  1
  Pd  Pd22  1  0.668144  0.334071  0.504242  1
  Pd  Pd23  1  0.331923  0.665962  0.502759  1
