# generated using pymatgen
data_Li2Pr4HoP12Ru17
_symmetry_space_group_name_H-M   'P 1'
_cell_length_a   12.82991328
_cell_length_b   12.60442803
_cell_length_c   4.01111100
_cell_angle_alpha   90.00000000
_cell_angle_beta   90.00000000
_cell_angle_gamma   120.56953221
_symmetry_Int_Tables_number   1
_chemical_formula_structural   Li2Pr4HoP12Ru17
_chemical_formula_sum   'Li2 Pr4 Ho1 P12 Ru17'
_cell_volume   558.49726226
_cell_formula_units_Z   1
loop_
 _symmetry_equiv_pos_site_id
 _symmetry_equiv_pos_as_xyz
  1  'x, y, z'
loop_
 _atom_site_type_symbol
 _atom_site_label
 _atom_site_symmetry_multiplicity
 _atom_site_fract_x
 _atom_site_fract_y
 _atom_site_fract_z
 _atom_site_occupancy
  Li  Li0  1  0.000252  0.562723  0.000000  1
  Li  Li1  1  0.437928  0.437424  0.000000  1
  Pr  Pr2  1  0.001625  0.182806  0.500000  1
  Pr  Pr3  1  0.820010  0.816810  0.500000  1
  Pr  Pr4  1  0.183789  0.000902  0.500000  1
  Pr  Pr5  1  0.662627  0.325085  0.000000  1
  Ho  Ho6  1  0.338269  0.675314  0.000000  1
  P  P7  1  0.000786  0.805585  0.000000  1
  P  P8  1  0.192985  0.197364  0.000000  1
  P  P9  1  0.814089  0.997765  0.000000  1
  P  P10  1  0.691641  0.166400  0.500000  1
  P  P11  1  0.818264  0.517780  0.500000  1
  P  P12  1  0.474476  0.299498  0.500000  1
  P  P13  1  0.180321  0.701273  0.500000  1
  P  P14  1  0.521066  0.827017  0.500000  1
  P  P15  1  0.299255  0.487309  0.500000  1
  P  P16  1  0.000262  0.372682  0.000000  1
  P  P17  1  0.628974  0.626501  0.000000  1
  P  P18  1  0.378870  0.000771  0.000000  1
  Ru  Ru19  1  0.556637  0.999903  0.000000  1
  Ru  Ru20  1  0.000363  0.708487  0.500000  1
  Ru  Ru21  1  0.289703  0.294833  0.500000  1
  Ru  Ru22  1  0.714503  0.996954  0.500000  1
  Ru  Ru23  1  0.806649  0.183443  0.000000  1
  Ru  Ru24  1  0.813116  0.614469  0.000000  1
  Ru  Ru25  1  0.377561  0.194279  0.000000  1
  Ru  Ru26  1  0.188334  0.806334  0.000000  1
  Ru  Ru27  1  0.618573  0.811699  0.000000  1
  Ru  Ru28  1  0.198526  0.390568  0.000000  1
  Ru  Ru29  1  0.875606  0.366295  0.500000  1
  Ru  Ru30  1  0.628422  0.511494  0.500000  1
  Ru  Ru31  1  0.488749  0.121331  0.500000  1
  Ru  Ru32  1  0.369703  0.874544  0.500000  1
  Ru  Ru33  1  0.504318  0.630897  0.500000  1
  Ru  Ru34  1  0.119065  0.493404  0.500000  1
  Ru  Ru35  1  0.004682  0.000057  0.000000  1
