# generated using pymatgen
data_Ho6Al24IrRu6Au
_symmetry_space_group_name_H-M   'P 1'
_cell_length_a   8.85076851
_cell_length_b   8.84133147
_cell_length_c   9.54089070
_cell_angle_alpha   89.67935343
_cell_angle_beta   90.19564753
_cell_angle_gamma   119.91234166
_symmetry_Int_Tables_number   1
_chemical_formula_structural   Ho6Al24IrRu6Au
_chemical_formula_sum   'Ho6 Al24 Ir1 Ru6 Au1'
_cell_volume   647.13401805
_cell_formula_units_Z   1
loop_
 _symmetry_equiv_pos_site_id
 _symmetry_equiv_pos_as_xyz
  1  'x, y, z'
loop_
 _atom_site_type_symbol
 _atom_site_label
 _atom_site_symmetry_multiplicity
 _atom_site_fract_x
 _atom_site_fract_y
 _atom_site_fract_z
 _atom_site_occupancy
  Ho  Ho0  1  0.192474  0.387319  0.250764  1
  Ho  Ho1  1  0.807526  0.612681  0.749236  1
  Ho  Ho2  1  0.613085  0.807092  0.249680  1
  Ho  Ho3  1  0.386915  0.192908  0.750320  1
  Ho  Ho4  1  0.193722  0.805312  0.253613  1
  Ho  Ho5  1  0.806278  0.194688  0.746387  1
  Al  Al6  1  0.327739  0.671383  0.024748  1
  Al  Al7  1  0.672261  0.328617  0.975252  1
  Al  Al8  1  0.667175  0.334901  0.519516  1
  Al  Al9  1  0.332825  0.665099  0.480484  1
  Al  Al10  1  0.161733  0.324395  0.577875  1
  Al  Al11  1  0.838267  0.675605  0.422125  1
  Al  Al12  1  0.675142  0.836860  0.576774  1
  Al  Al13  1  0.848929  0.677496  0.079872  1
  Al  Al14  1  0.324858  0.163140  0.423226  1
  Al  Al15  1  0.151071  0.322504  0.920128  1
  Al  Al16  1  0.161273  0.835975  0.577877  1
  Al  Al17  1  0.321839  0.150550  0.080594  1
  Al  Al18  1  0.838727  0.164025  0.422123  1
  Al  Al19  1  0.678161  0.849450  0.919406  1
  Al  Al20  1  0.837451  0.162652  0.078207  1
  Al  Al21  1  0.162549  0.837348  0.921793  1
  Al  Al22  1  0.561805  0.122203  0.247565  1
  Al  Al23  1  0.438195  0.877797  0.752435  1
  Al  Al24  1  0.879193  0.438953  0.248866  1
  Al  Al25  1  0.120807  0.561047  0.751134  1
  Al  Al26  1  0.564232  0.436007  0.256813  1
  Al  Al27  1  0.435768  0.563993  0.743187  1
  Al  Al28  1  0.999184  0.000198  0.250210  1
  Al  Al29  1  0.000816  0.999802  0.749790  1
  Ir  Ir30  1  0.500000  0.000000  0.500000  1
  Ru  Ru31  1  0.500000  0.000000  0.000000  1
  Ru  Ru32  1  0.000000  0.500000  0.000000  1
  Ru  Ru33  1  0.000000  0.500000  0.500000  1
  Ru  Ru34  1  0.500000  0.500000  0.500000  1
  Ru  Ru35  1  0.000000  0.000000  0.000000  1
  Ru  Ru36  1  0.000000  0.000000  0.500000  1
  Au  Au37  1  0.500000  0.500000  0.000000  1
