# generated using pymatgen
data_TbY7Re(B8Os)3
_symmetry_space_group_name_H-M   'P 1'
_cell_length_a   3.66973500
_cell_length_b   9.17186256
_cell_length_c   11.56018500
_cell_angle_alpha   89.91169015
_cell_angle_beta   90.00000000
_cell_angle_gamma   90.00000000
_symmetry_Int_Tables_number   1
_chemical_formula_structural   TbY7Re(B8Os)3
_chemical_formula_sum   'Tb1 Y7 Re1 B24 Os3'
_cell_volume   389.09577100
_cell_formula_units_Z   1
loop_
 _symmetry_equiv_pos_site_id
 _symmetry_equiv_pos_as_xyz
  1  'x, y, z'
loop_
 _atom_site_type_symbol
 _atom_site_label
 _atom_site_symmetry_multiplicity
 _atom_site_fract_x
 _atom_site_fract_y
 _atom_site_fract_z
 _atom_site_occupancy
  Tb  Tb0  1  0.000000  0.822688  0.085267  1
  Y  Y1  1  0.000000  0.179926  0.911541  1
  Y  Y2  1  0.000000  0.322847  0.416090  1
  Y  Y3  1  0.000000  0.676042  0.586953  1
  Y  Y4  1  0.000000  0.443363  0.127912  1
  Y  Y5  1  0.000000  0.555769  0.872540  1
  Y  Y6  1  0.000000  0.942976  0.372284  1
  Y  Y7  1  0.000000  0.056552  0.627053  1
  Re  Re8  1  0.000000  0.362618  0.678739  1
  B  B9  1  0.500000  0.053679  0.067120  1
  B  B10  1  0.500000  0.946552  0.932581  1
  B  B11  1  0.500000  0.553363  0.432489  1
  B  B12  1  0.500000  0.447288  0.567148  1
  B  B13  1  0.500000  0.247576  0.080514  1
  B  B14  1  0.500000  0.752689  0.919585  1
  B  B15  1  0.500000  0.747049  0.419305  1
  B  B16  1  0.500000  0.252643  0.580710  1
  B  B17  1  0.500000  0.289730  0.233601  1
  B  B18  1  0.500000  0.709750  0.767131  1
  B  B19  1  0.500000  0.790093  0.266520  1
  B  B20  1  0.500000  0.209176  0.733495  1
  B  B21  1  0.500000  0.130901  0.314219  1
  B  B22  1  0.500000  0.868564  0.686297  1
  B  B23  1  0.500000  0.631468  0.185737  1
  B  B24  1  0.500000  0.368864  0.813909  1
  B  B25  1  0.500000  0.483259  0.287406  1
  B  B26  1  0.500000  0.517727  0.712716  1
  B  B27  1  0.500000  0.983209  0.212301  1
  B  B28  1  0.500000  0.017097  0.787315  1
  B  B29  1  0.500000  0.107049  0.469560  1
  B  B30  1  0.500000  0.891489  0.529794  1
  B  B31  1  0.500000  0.608182  0.030400  1
  B  B32  1  0.500000  0.392119  0.970580  1
  Os  Os33  1  0.000000  0.137257  0.178558  1
  Os  Os34  1  0.000000  0.862861  0.821856  1
  Os  Os35  1  0.000000  0.637585  0.320774  1
