# generated using pymatgen
data_Sm3Dy(Rh2O7)2
_symmetry_space_group_name_H-M   'P 1'
_cell_length_a   7.30888741
_cell_length_b   7.29599947
_cell_length_c   7.30888800
_cell_angle_alpha   59.94154674
_cell_angle_beta   59.99999733
_cell_angle_gamma   59.94154763
_symmetry_Int_Tables_number   1
_chemical_formula_structural   Sm3Dy(Rh2O7)2
_chemical_formula_sum   'Sm3 Dy1 Rh4 O14'
_cell_volume   275.35191099
_cell_formula_units_Z   1
loop_
 _symmetry_equiv_pos_site_id
 _symmetry_equiv_pos_as_xyz
  1  'x, y, z'
loop_
 _atom_site_type_symbol
 _atom_site_label
 _atom_site_symmetry_multiplicity
 _atom_site_fract_x
 _atom_site_fract_y
 _atom_site_fract_z
 _atom_site_occupancy
  Sm  Sm0  1  0.125000  0.125000  0.125000  1
  Sm  Sm1  1  0.625000  0.125000  0.125000  1
  Sm  Sm2  1  0.125000  0.125000  0.625000  1
  Dy  Dy3  1  0.125000  0.625000  0.125000  1
  Rh  Rh4  1  0.625000  0.625000  0.625000  1
  Rh  Rh5  1  0.625000  0.625000  0.125000  1
  Rh  Rh6  1  0.125000  0.625000  0.625000  1
  Rh  Rh7  1  0.625000  0.125000  0.625000  1
  O  O8  1  0.247625  0.257126  0.247625  1
  O  O9  1  0.290359  0.706358  0.290359  1
  O  O10  1  0.959734  0.959490  0.540389  1
  O  O11  1  0.540389  0.959490  0.540389  1
  O  O12  1  0.712924  0.706358  0.290359  1
  O  O13  1  0.959641  0.543642  0.537076  1
  O  O14  1  0.709611  0.290510  0.709611  1
  O  O15  1  0.290266  0.290510  0.709611  1
  O  O16  1  0.709611  0.290510  0.290266  1
  O  O17  1  0.290359  0.706358  0.712924  1
  O  O18  1  0.959641  0.543642  0.959641  1
  O  O19  1  0.537076  0.543642  0.959641  1
  O  O20  1  0.002375  0.992874  0.002375  1
  O  O21  1  0.540389  0.959490  0.959734  1
