# generated using pymatgen
data_V2Pb(CO3)4
_symmetry_space_group_name_H-M   'P 1'
_cell_length_a   6.42377974
_cell_length_b   9.85873248
_cell_length_c   8.15995002
_cell_angle_alpha   89.63816774
_cell_angle_beta   109.99606769
_cell_angle_gamma   89.99403096
_symmetry_Int_Tables_number   1
_chemical_formula_structural   V2Pb(CO3)4
_chemical_formula_sum   'V4 Pb2 C8 O24'
_cell_volume   485.60814905
_cell_formula_units_Z   2
loop_
 _symmetry_equiv_pos_site_id
 _symmetry_equiv_pos_as_xyz
  1  'x, y, z'
loop_
 _atom_site_type_symbol
 _atom_site_label
 _atom_site_symmetry_multiplicity
 _atom_site_fract_x
 _atom_site_fract_y
 _atom_site_fract_z
 _atom_site_occupancy
  V  V0  1  0.499992  0.750092  0.999967  1
  V  V1  1  0.500018  0.249955  0.999952  1
  V  V2  1  0.000228  0.999830  0.500195  1
  V  V3  1  0.999928  0.500099  0.499809  1
  Pb  Pb4  1  0.500277  0.250057  0.499395  1
  Pb  Pb5  1  0.499628  0.749587  0.500309  1
  C  C6  1  0.034451  0.248089  0.728204  1
  C  C7  1  0.035291  0.747908  0.728325  1
  C  C8  1  0.965779  0.251861  0.271990  1
  C  C9  1  0.964377  0.752181  0.271507  1
  C  C10  1  0.525416  0.999317  0.231605  1
  C  C11  1  0.525206  0.499337  0.230435  1
  C  C12  1  0.474709  0.500687  0.768566  1
  C  C13  1  0.474698  0.000684  0.769464  1
  O  O14  1  0.339772  0.457334  0.616743  1
  O  O15  1  0.339802  0.956305  0.618168  1
  O  O16  1  0.660342  0.042879  0.383361  1
  O  O17  1  0.660144  0.543477  0.381826  1
  O  O18  1  0.581989  0.416767  0.885996  1
  O  O19  1  0.582632  0.917735  0.887912  1
  O  O20  1  0.418069  0.083251  0.114134  1
  O  O21  1  0.417312  0.582348  0.112102  1
  O  O22  1  0.007229  0.378760  0.306920  1
  O  O23  1  0.004062  0.879259  0.305247  1
  O  O24  1  0.993565  0.121151  0.693502  1
  O  O25  1  0.994908  0.620887  0.694192  1
  O  O26  1  0.498546  0.368659  0.211706  1
  O  O27  1  0.497841  0.868841  0.211974  1
  O  O28  1  0.501264  0.131342  0.788052  1
  O  O29  1  0.502488  0.631197  0.788259  1
  O  O30  1  0.907197  0.337312  0.617848  1
  O  O31  1  0.907885  0.836844  0.617764  1
  O  O32  1  0.092808  0.162490  0.382128  1
  O  O33  1  0.092040  0.663527  0.382479  1
  O  O34  1  0.182078  0.288634  0.867654  1
  O  O35  1  0.182717  0.788803  0.867737  1
  O  O36  1  0.818021  0.211657  0.132450  1
  O  O37  1  0.817287  0.710857  0.132122  1
