# generated using pymatgen
data_Ho12In2Si3Ni
_symmetry_space_group_name_H-M   'P 1'
_cell_length_a   8.48674326
_cell_length_b   8.48674373
_cell_length_c   8.48674450
_cell_angle_alpha   112.93478679
_cell_angle_beta   111.05667207
_cell_angle_gamma   104.53821487
_symmetry_Int_Tables_number   1
_chemical_formula_structural   Ho12In2Si3Ni
_chemical_formula_sum   'Ho12 In2 Si3 Ni1'
_cell_volume   467.82105293
_cell_formula_units_Z   1
loop_
 _symmetry_equiv_pos_site_id
 _symmetry_equiv_pos_as_xyz
  1  'x, y, z'
loop_
 _atom_site_type_symbol
 _atom_site_label
 _atom_site_symmetry_multiplicity
 _atom_site_fract_x
 _atom_site_fract_y
 _atom_site_fract_z
 _atom_site_occupancy
  Ho  Ho0  1  0.311633  0.618956  0.307322  1
  Ho  Ho1  1  0.679428  0.383139  0.703711  1
  Ho  Ho2  1  0.311633  0.004310  0.692678  1
  Ho  Ho3  1  0.679428  0.975718  0.296289  1
  Ho  Ho4  1  0.185487  0.288352  0.468773  1
  Ho  Ho5  1  0.819578  0.716713  0.531227  1
  Ho  Ho6  1  0.185487  0.716713  0.897136  1
  Ho  Ho7  1  0.819578  0.288352  0.102864  1
  Ho  Ho8  1  0.445476  0.241359  0.204119  1
  Ho  Ho9  1  0.556186  0.761948  0.794237  1
  Ho  Ho10  1  0.037240  0.241359  0.795881  1
  Ho  Ho11  1  0.967710  0.761948  0.205763  1
  In  In12  1  0.500977  0.500977  0.000000  1
  In  In13  1  0.999821  0.999821  0.000000  1
  Si  Si14  1  0.881295  0.381295  0.500000  1
  Si  Si15  1  0.364194  0.002380  0.361814  1
  Si  Si16  1  0.640565  0.002380  0.638186  1
  Ni  Ni17  1  0.114283  0.614283  0.500000  1
