# generated using pymatgen
data_Er2CoNiH8
_symmetry_space_group_name_H-M   'P 1'
_cell_length_a   5.98181576
_cell_length_b   5.98181510
_cell_length_c   4.70728600
_cell_angle_alpha   90.00000000
_cell_angle_beta   90.00000000
_cell_angle_gamma   145.63535183
_symmetry_Int_Tables_number   1
_chemical_formula_structural   Er2CoNiH8
_chemical_formula_sum   'Er2 Co1 Ni1 H8'
_cell_volume   95.07538192
_cell_formula_units_Z   1
loop_
 _symmetry_equiv_pos_site_id
 _symmetry_equiv_pos_as_xyz
  1  'x, y, z'
loop_
 _atom_site_type_symbol
 _atom_site_label
 _atom_site_symmetry_multiplicity
 _atom_site_fract_x
 _atom_site_fract_y
 _atom_site_fract_z
 _atom_site_occupancy
  Er  Er0  1  0.866090  0.133910  0.750000  1
  Er  Er1  1  0.131449  0.868551  0.250000  1
  Co  Co2  1  0.403158  0.596842  0.250000  1
  Ni  Ni3  1  0.599533  0.400467  0.750000  1
  H  H4  1  0.086637  0.913363  0.750000  1
  H  H5  1  0.911976  0.088024  0.250000  1
  H  H6  1  0.694366  0.305634  0.491344  1
  H  H7  1  0.306219  0.693781  0.498404  1
  H  H8  1  0.694366  0.305634  0.008656  1
  H  H9  1  0.306219  0.693781  0.001596  1
  H  H10  1  0.499993  0.500007  0.002340  1
  H  H11  1  0.499993  0.500007  0.497660  1
