# generated using pymatgen
data_ScZn3(OsO3)8
_symmetry_space_group_name_H-M   'P 1'
_cell_length_a   4.59723408
_cell_length_b   10.41314706
_cell_length_c   9.18304100
_cell_angle_alpha   63.83644695
_cell_angle_beta   89.94551133
_cell_angle_gamma   89.97597404
_symmetry_Int_Tables_number   1
_chemical_formula_structural   ScZn3(OsO3)8
_chemical_formula_sum   'Sc1 Zn3 Os8 O24'
_cell_volume   394.56475930
_cell_formula_units_Z   1
loop_
 _symmetry_equiv_pos_site_id
 _symmetry_equiv_pos_as_xyz
  1  'x, y, z'
loop_
 _atom_site_type_symbol
 _atom_site_label
 _atom_site_symmetry_multiplicity
 _atom_site_fract_x
 _atom_site_fract_y
 _atom_site_fract_z
 _atom_site_occupancy
  Sc  Sc0  1  0.000000  0.000000  0.000000  1
  Zn  Zn1  1  0.500000  0.500000  0.000000  1
  Zn  Zn2  1  0.000000  0.000000  0.500000  1
  Zn  Zn3  1  0.500000  0.500000  0.500000  1
  Os  Os4  1  0.000000  0.668773  0.165613  1
  Os  Os5  1  0.000000  0.668833  0.665584  1
  Os  Os6  1  0.501031  0.170217  0.167963  1
  Os  Os7  1  0.498969  0.170217  0.661819  1
  Os  Os8  1  0.498969  0.829783  0.832037  1
  Os  Os9  1  0.501031  0.829783  0.338181  1
  Os  Os10  1  0.000000  0.331167  0.334416  1
  Os  Os11  1  0.000000  0.331227  0.834387  1
  O  O12  1  0.681866  0.000000  0.160533  1
  O  O13  1  0.683741  0.000000  0.656681  1
  O  O14  1  0.815492  0.500088  0.157716  1
  O  O15  1  0.815492  0.499912  0.657804  1
  O  O16  1  0.184508  0.499912  0.842284  1
  O  O17  1  0.184508  0.500088  0.342196  1
  O  O18  1  0.316259  0.000000  0.343319  1
  O  O19  1  0.318134  0.000000  0.839467  1
  O  O20  1  0.703644  0.675407  0.809224  1
  O  O21  1  0.705798  0.678944  0.307751  1
  O  O22  1  0.294202  0.678944  0.013306  1
  O  O23  1  0.296356  0.675407  0.515370  1
  O  O24  1  0.296356  0.324593  0.190776  1
  O  O25  1  0.294202  0.321056  0.692249  1
  O  O26  1  0.202636  0.823468  0.689111  1
  O  O27  1  0.203987  0.826031  0.190535  1
  O  O28  1  0.796013  0.826031  0.983433  1
  O  O29  1  0.797364  0.823468  0.487419  1
  O  O30  1  0.797364  0.176532  0.310889  1
  O  O31  1  0.796013  0.173969  0.809465  1
  O  O32  1  0.203987  0.173969  0.016567  1
  O  O33  1  0.202636  0.176532  0.512581  1
  O  O34  1  0.705798  0.321056  0.986694  1
  O  O35  1  0.703644  0.324593  0.484630  1
