# generated using pymatgen
data_Ta3Be2Co3Ir2
_symmetry_space_group_name_H-M   'P 1'
_cell_length_a   8.90740700
_cell_length_b   8.54218600
_cell_length_c   3.39769500
_cell_angle_alpha   90.00000000
_cell_angle_beta   90.00000000
_cell_angle_gamma   90.00000000
_symmetry_Int_Tables_number   1
_chemical_formula_structural   Ta3Be2Co3Ir2
_chemical_formula_sum   'Ta6 Be4 Co6 Ir4'
_cell_volume   258.52628855
_cell_formula_units_Z   2
loop_
 _symmetry_equiv_pos_site_id
 _symmetry_equiv_pos_as_xyz
  1  'x, y, z'
loop_
 _atom_site_type_symbol
 _atom_site_label
 _atom_site_symmetry_multiplicity
 _atom_site_fract_x
 _atom_site_fract_y
 _atom_site_fract_z
 _atom_site_occupancy
  Ta  Ta0  1  0.500000  0.500000  0.000000  1
  Ta  Ta1  1  0.000000  0.000000  0.000000  1
  Ta  Ta2  1  0.823575  0.327207  0.000000  1
  Ta  Ta3  1  0.176425  0.672793  0.000000  1
  Ta  Ta4  1  0.323575  0.172793  0.000000  1
  Ta  Ta5  1  0.676425  0.827207  0.000000  1
  Be  Be6  1  0.604600  0.125106  0.000000  1
  Be  Be7  1  0.395400  0.874894  0.000000  1
  Be  Be8  1  0.104600  0.374894  0.000000  1
  Be  Be9  1  0.895400  0.625106  0.000000  1
  Co  Co10  1  0.500000  0.000000  0.500000  1
  Co  Co11  1  0.000000  0.500000  0.500000  1
  Co  Co12  1  0.435439  0.713010  0.500000  1
  Co  Co13  1  0.564561  0.286990  0.500000  1
  Co  Co14  1  0.064561  0.213010  0.500000  1
  Co  Co15  1  0.935439  0.786990  0.500000  1
  Ir  Ir16  1  0.720444  0.572250  0.500000  1
  Ir  Ir17  1  0.279556  0.427750  0.500000  1
  Ir  Ir18  1  0.220444  0.927750  0.500000  1
  Ir  Ir19  1  0.779556  0.072250  0.500000  1
