# generated using pymatgen
data_Y6Ga4Ru3Rh
_symmetry_space_group_name_H-M   'P 1'
_cell_length_a   5.61330847
_cell_length_b   7.68462582
_cell_length_c   13.78830883
_cell_angle_alpha   90.07741948
_cell_angle_beta   90.25470095
_cell_angle_gamma   90.08287439
_symmetry_Int_Tables_number   1
_chemical_formula_structural   Y6Ga4Ru3Rh
_chemical_formula_sum   'Y12 Ga8 Ru6 Rh2'
_cell_volume   594.76785788
_cell_formula_units_Z   2
loop_
 _symmetry_equiv_pos_site_id
 _symmetry_equiv_pos_as_xyz
  1  'x, y, z'
loop_
 _atom_site_type_symbol
 _atom_site_label
 _atom_site_symmetry_multiplicity
 _atom_site_fract_x
 _atom_site_fract_y
 _atom_site_fract_z
 _atom_site_occupancy
  Y  Y0  1  0.620399  0.256710  0.252228  1
  Y  Y1  1  0.379601  0.743290  0.747772  1
  Y  Y2  1  0.376860  0.762212  0.250770  1
  Y  Y3  1  0.623140  0.237788  0.749230  1
  Y  Y4  1  0.152403  0.397942  0.096488  1
  Y  Y5  1  0.847597  0.602058  0.903512  1
  Y  Y6  1  0.846679  0.598193  0.596102  1
  Y  Y7  1  0.847457  0.899452  0.403975  1
  Y  Y8  1  0.153321  0.401807  0.403898  1
  Y  Y9  1  0.152543  0.100548  0.596025  1
  Y  Y10  1  0.151406  0.097282  0.903829  1
  Y  Y11  1  0.848594  0.902718  0.096171  1
  Ga  Ga12  1  0.123754  0.106051  0.250365  1
  Ga  Ga13  1  0.876246  0.893949  0.749635  1
  Ga  Ga14  1  0.876005  0.604721  0.249300  1
  Ga  Ga15  1  0.123995  0.395279  0.750700  1
  Ga  Ga16  1  0.642553  0.248562  0.998901  1
  Ga  Ga17  1  0.357447  0.751438  0.001099  1
  Ga  Ga18  1  0.361382  0.749170  0.500047  1
  Ga  Ga19  1  0.638618  0.250830  0.499953  1
  Ru  Ru20  1  0.352353  0.042740  0.093175  1
  Ru  Ru21  1  0.647647  0.957260  0.906825  1
  Ru  Ru22  1  0.645006  0.961748  0.593606  1
  Ru  Ru23  1  0.641482  0.537385  0.403766  1
  Ru  Ru24  1  0.354994  0.038252  0.406394  1
  Ru  Ru25  1  0.358518  0.462615  0.596234  1
  Rh  Rh26  1  0.357068  0.462416  0.905876  1
  Rh  Rh27  1  0.642932  0.537584  0.094124  1
