# generated using pymatgen
data_Cs5KRb2(Ga2Se5)2
_symmetry_space_group_name_H-M   'P 1'
_cell_length_a   8.52291383
_cell_length_b   8.94788099
_cell_length_c   11.43850189
_cell_angle_alpha   76.60723921
_cell_angle_beta   86.19006256
_cell_angle_gamma   81.32336066
_symmetry_Int_Tables_number   1
_chemical_formula_structural   Cs5KRb2(Ga2Se5)2
_chemical_formula_sum   'Cs5 K1 Rb2 Ga4 Se10'
_cell_volume   838.43843738
_cell_formula_units_Z   1
loop_
 _symmetry_equiv_pos_site_id
 _symmetry_equiv_pos_as_xyz
  1  'x, y, z'
loop_
 _atom_site_type_symbol
 _atom_site_label
 _atom_site_symmetry_multiplicity
 _atom_site_fract_x
 _atom_site_fract_y
 _atom_site_fract_z
 _atom_site_occupancy
  Cs  Cs0  1  0.052106  0.606149  0.761232  1
  Cs  Cs1  1  0.825033  0.909882  0.131123  1
  Cs  Cs2  1  0.950536  0.394301  0.236807  1
  Cs  Cs3  1  0.554826  0.715483  0.503605  1
  Cs  Cs4  1  0.445658  0.279826  0.495000  1
  K  K5  1  0.439355  0.335488  0.084400  1
  Rb  Rb6  1  0.559297  0.672062  0.907101  1
  Rb  Rb7  1  0.157762  0.093195  0.869413  1
  Ga  Ga8  1  0.903125  0.087001  0.599343  1
  Ga  Ga9  1  0.103297  0.915422  0.401808  1
  Ga  Ga10  1  0.297374  0.729738  0.205372  1
  Ga  Ga11  1  0.702413  0.269785  0.794826  1
  Se  Se12  1  0.862047  0.358925  0.604715  1
  Se  Se13  1  0.185878  0.971136  0.588628  1
  Se  Se14  1  0.428347  0.381322  0.782024  1
  Se  Se15  1  0.179508  0.694941  0.030898  1
  Se  Se16  1  0.820044  0.312685  0.966714  1
  Se  Se17  1  0.564119  0.598437  0.223923  1
  Se  Se18  1  0.135949  0.644545  0.394927  1
  Se  Se19  1  0.261440  0.015759  0.222688  1
  Se  Se20  1  0.751917  0.984749  0.780703  1
  Se  Se21  1  0.819970  0.029168  0.414751  1
