# generated using pymatgen
data_PrNdHo4Ta2O14
_symmetry_space_group_name_H-M   'P 1'
_cell_length_a   6.49995656
_cell_length_b   6.49995593
_cell_length_c   7.59621430
_cell_angle_alpha   89.97393527
_cell_angle_beta   90.02606651
_cell_angle_gamma   109.15462929
_symmetry_Int_Tables_number   1
_chemical_formula_structural   PrNdHo4Ta2O14
_chemical_formula_sum   'Pr1 Nd1 Ho4 Ta2 O14'
_cell_volume   303.16755835
_cell_formula_units_Z   1
loop_
 _symmetry_equiv_pos_site_id
 _symmetry_equiv_pos_as_xyz
  1  'x, y, z'
loop_
 _atom_site_type_symbol
 _atom_site_label
 _atom_site_symmetry_multiplicity
 _atom_site_fract_x
 _atom_site_fract_y
 _atom_site_fract_z
 _atom_site_occupancy
  Pr  Pr0  1  0.511343  0.511343  0.500000  1
  Nd  Nd1  1  0.486405  0.486405  0.000000  1
  Ho  Ho2  1  0.000957  0.533395  0.245613  1
  Ho  Ho3  1  0.999006  0.466715  0.746769  1
  Ho  Ho4  1  0.533395  0.000957  0.754387  1
  Ho  Ho5  1  0.466715  0.999006  0.253231  1
  Ta  Ta6  1  0.001358  0.001358  0.500000  1
  Ta  Ta7  1  0.998309  0.998309  0.000000  1
  O  O8  1  0.935024  0.064967  0.749983  1
  O  O9  1  0.064967  0.935024  0.250017  1
  O  O10  1  0.355831  0.644305  0.248508  1
  O  O11  1  0.644305  0.355831  0.751492  1
  O  O12  1  0.362480  0.637545  0.751705  1
  O  O13  1  0.637545  0.362480  0.248295  1
  O  O14  1  0.323467  0.072892  0.971219  1
  O  O15  1  0.676945  0.928227  0.470994  1
  O  O16  1  0.316608  0.062849  0.537396  1
  O  O17  1  0.683937  0.937435  0.037369  1
  O  O18  1  0.062849  0.316608  0.462604  1
  O  O19  1  0.937435  0.683937  0.962631  1
  O  O20  1  0.928227  0.676945  0.529006  1
  O  O21  1  0.072892  0.323467  0.028781  1
