# generated using pymatgen
data_Lu4NiB14
_symmetry_space_group_name_H-M   'P 1'
_cell_length_a   7.14026800
_cell_length_b   7.14026800
_cell_length_c   7.37121900
_cell_angle_alpha   90.00000000
_cell_angle_beta   90.00000000
_cell_angle_gamma   90.00000000
_symmetry_Int_Tables_number   1
_chemical_formula_structural   Lu4NiB14
_chemical_formula_sum   'Lu8 Ni2 B28'
_cell_volume   375.81000661
_cell_formula_units_Z   2
loop_
 _symmetry_equiv_pos_site_id
 _symmetry_equiv_pos_as_xyz
  1  'x, y, z'
loop_
 _atom_site_type_symbol
 _atom_site_label
 _atom_site_symmetry_multiplicity
 _atom_site_fract_x
 _atom_site_fract_y
 _atom_site_fract_z
 _atom_site_occupancy
  Lu  Lu0  1  0.193754  0.333066  0.000000  1
  Lu  Lu1  1  0.666934  0.193754  0.000000  1
  Lu  Lu2  1  0.333066  0.806246  0.000000  1
  Lu  Lu3  1  0.693754  0.166934  0.500000  1
  Lu  Lu4  1  0.306246  0.833066  0.500000  1
  Lu  Lu5  1  0.806246  0.666934  0.000000  1
  Lu  Lu6  1  0.833066  0.693754  0.500000  1
  Lu  Lu7  1  0.166934  0.306246  0.500000  1
  Ni  Ni8  1  0.000000  0.000000  0.000000  1
  Ni  Ni9  1  0.500000  0.500000  0.500000  1
  B  B10  1  0.175805  0.039098  0.232019  1
  B  B11  1  0.960902  0.175805  0.232019  1
  B  B12  1  0.039098  0.824195  0.232019  1
  B  B13  1  0.675805  0.460902  0.267981  1
  B  B14  1  0.324195  0.539098  0.267981  1
  B  B15  1  0.824195  0.960902  0.232019  1
  B  B16  1  0.539098  0.675805  0.267981  1
  B  B17  1  0.460902  0.324195  0.267981  1
  B  B18  1  0.824195  0.960902  0.767981  1
  B  B19  1  0.039098  0.824195  0.767981  1
  B  B20  1  0.960902  0.175805  0.767981  1
  B  B21  1  0.324195  0.539098  0.732019  1
  B  B22  1  0.675805  0.460902  0.732019  1
  B  B23  1  0.175805  0.039098  0.767981  1
  B  B24  1  0.460902  0.324195  0.732019  1
  B  B25  1  0.539098  0.675805  0.732019  1
  B  B26  1  0.088305  0.588305  0.250000  1
  B  B27  1  0.411695  0.088305  0.250000  1
  B  B28  1  0.588305  0.911695  0.250000  1
  B  B29  1  0.911695  0.411695  0.250000  1
  B  B30  1  0.911695  0.411695  0.750000  1
  B  B31  1  0.588305  0.911695  0.750000  1
  B  B32  1  0.411695  0.088305  0.750000  1
  B  B33  1  0.088305  0.588305  0.750000  1
  B  B34  1  0.000000  0.000000  0.388762  1
  B  B35  1  0.500000  0.500000  0.111238  1
  B  B36  1  0.000000  0.000000  0.611238  1
  B  B37  1  0.500000  0.500000  0.888762  1
