# generated using pymatgen
data_Li2Nd3ErPt3
_symmetry_space_group_name_H-M   'P 1'
_cell_length_a   7.64595800
_cell_length_b   7.60859464
_cell_length_c   4.14876300
_cell_angle_alpha   90.00000000
_cell_angle_beta   90.00000000
_cell_angle_gamma   120.16257733
_symmetry_Int_Tables_number   1
_chemical_formula_structural   Li2Nd3ErPt3
_chemical_formula_sum   'Li2 Nd3 Er1 Pt3'
_cell_volume   208.67566293
_cell_formula_units_Z   1
loop_
 _symmetry_equiv_pos_site_id
 _symmetry_equiv_pos_as_xyz
  1  'x, y, z'
loop_
 _atom_site_type_symbol
 _atom_site_label
 _atom_site_symmetry_multiplicity
 _atom_site_fract_x
 _atom_site_fract_y
 _atom_site_fract_z
 _atom_site_occupancy
  Li  Li0  1  0.004117  0.242904  0.500000  1
  Li  Li1  1  0.761213  0.757096  0.500000  1
  Nd  Nd2  1  0.416066  0.439693  0.000000  1
  Nd  Nd3  1  0.615010  0.000000  0.000000  1
  Nd  Nd4  1  0.976373  0.560307  0.000000  1
  Er  Er5  1  0.241217  0.000000  0.500000  1
  Pt  Pt6  1  0.652336  0.322429  0.500000  1
  Pt  Pt7  1  0.003761  0.000000  0.000000  1
  Pt  Pt8  1  0.329907  0.677571  0.500000  1
