# generated using pymatgen
data_Rb2Hf(SeO4)3
_symmetry_space_group_name_H-M   'P 1'
_cell_length_a   5.05631025
_cell_length_b   8.27941786
_cell_length_c   9.96799131
_cell_angle_alpha   114.54418512
_cell_angle_beta   107.42362910
_cell_angle_gamma   89.96015220
_symmetry_Int_Tables_number   1
_chemical_formula_structural   Rb2Hf(SeO4)3
_chemical_formula_sum   'Rb2 Hf1 Se3 O12'
_cell_volume   358.47362394
_cell_formula_units_Z   1
loop_
 _symmetry_equiv_pos_site_id
 _symmetry_equiv_pos_as_xyz
  1  'x, y, z'
loop_
 _atom_site_type_symbol
 _atom_site_label
 _atom_site_symmetry_multiplicity
 _atom_site_fract_x
 _atom_site_fract_y
 _atom_site_fract_z
 _atom_site_occupancy
  Rb  Rb0  1  0.553727  0.821967  0.824736  1
  Rb  Rb1  1  0.257821  0.457579  0.095374  1
  Hf  Hf2  1  0.906308  0.037740  0.459992  1
  Se  Se3  1  0.551124  0.270197  0.739606  1
  Se  Se4  1  0.261413  0.991106  0.180405  1
  Se  Se5  1  0.906046  0.683085  0.460144  1
  O  O6  1  0.319559  0.796105  0.063023  1
  O  O7  1  0.959994  0.507665  0.319775  1
  O  O8  1  0.039279  0.954263  0.267354  1
  O  O9  1  0.685223  0.482552  0.829109  1
  O  O10  1  0.773288  0.146591  0.652621  1
  O  O11  1  0.562590  0.107859  0.332243  1
  O  O12  1  0.249798  0.235401  0.587913  1
  O  O13  1  0.652357  0.788026  0.379280  1
  O  O14  1  0.160070  0.868476  0.540546  1
  O  O15  1  0.127070  0.114001  0.091072  1
  O  O16  1  0.493199  0.192622  0.857095  1
  O  O17  1  0.852233  0.648955  0.600893  1
