# generated using pymatgen
data_Pr2Nd3Sn10IrRh3
_symmetry_space_group_name_H-M   'P 1'
_cell_length_a   14.24760684
_cell_length_b   14.25170484
_cell_length_c   4.65073800
_cell_angle_alpha   90.00000000
_cell_angle_beta   90.00000000
_cell_angle_gamma   89.94183031
_symmetry_Int_Tables_number   1
_chemical_formula_structural   Pr2Nd3Sn10IrRh3
_chemical_formula_sum   'Pr4 Nd6 Sn20 Ir2 Rh6'
_cell_volume   944.34436189
_cell_formula_units_Z   2
loop_
 _symmetry_equiv_pos_site_id
 _symmetry_equiv_pos_as_xyz
  1  'x, y, z'
loop_
 _atom_site_type_symbol
 _atom_site_label
 _atom_site_symmetry_multiplicity
 _atom_site_fract_x
 _atom_site_fract_y
 _atom_site_fract_z
 _atom_site_occupancy
  Pr  Pr0  1  0.887528  0.388467  0.500000  1
  Pr  Pr1  1  0.112472  0.611533  0.500000  1
  Pr  Pr2  1  0.388286  0.111723  0.500000  1
  Pr  Pr3  1  0.611714  0.888277  0.500000  1
  Nd  Nd4  1  0.500000  0.500000  0.000000  1
  Nd  Nd5  1  0.000000  0.000000  0.000000  1
  Nd  Nd6  1  0.678179  0.178242  0.500000  1
  Nd  Nd7  1  0.321821  0.821758  0.500000  1
  Nd  Nd8  1  0.179081  0.322541  0.500000  1
  Nd  Nd9  1  0.820919  0.677459  0.500000  1
  Sn  Sn10  1  0.569688  0.069692  0.000000  1
  Sn  Sn11  1  0.430312  0.930308  0.000000  1
  Sn  Sn12  1  0.069174  0.429767  0.000000  1
  Sn  Sn13  1  0.930826  0.570233  0.000000  1
  Sn  Sn14  1  0.653315  0.698821  0.000000  1
  Sn  Sn15  1  0.346685  0.301179  0.000000  1
  Sn  Sn16  1  0.153321  0.801806  0.000000  1
  Sn  Sn17  1  0.846679  0.198194  0.000000  1
  Sn  Sn18  1  0.301139  0.654116  0.000000  1
  Sn  Sn19  1  0.698861  0.345884  0.000000  1
  Sn  Sn20  1  0.198193  0.153420  0.000000  1
  Sn  Sn21  1  0.801807  0.846580  0.000000  1
  Sn  Sn22  1  0.661905  0.504815  0.500000  1
  Sn  Sn23  1  0.338095  0.495185  0.500000  1
  Sn  Sn24  1  0.163466  0.995381  0.500000  1
  Sn  Sn25  1  0.836534  0.004619  0.500000  1
  Sn  Sn26  1  0.495351  0.663528  0.500000  1
  Sn  Sn27  1  0.504649  0.336472  0.500000  1
  Sn  Sn28  1  0.004669  0.163552  0.500000  1
  Sn  Sn29  1  0.995331  0.836448  0.500000  1
  Ir  Ir30  1  0.746860  0.529234  0.000000  1
  Ir  Ir31  1  0.253140  0.470766  0.000000  1
  Rh  Rh32  1  0.245564  0.971030  0.000000  1
  Rh  Rh33  1  0.754436  0.028970  0.000000  1
  Rh  Rh34  1  0.471195  0.745347  0.000000  1
  Rh  Rh35  1  0.528805  0.254653  0.000000  1
  Rh  Rh36  1  0.028644  0.245757  0.000000  1
  Rh  Rh37  1  0.971356  0.754243  0.000000  1
