# generated using pymatgen
data_Y2Ti3P7Rh9
_symmetry_space_group_name_H-M   'P 1'
_cell_length_a   3.84047700
_cell_length_b   9.68618201
_cell_length_c   9.68560813
_cell_angle_alpha   119.99183272
_cell_angle_beta   89.99943330
_cell_angle_gamma   90.00066864
_symmetry_Int_Tables_number   1
_chemical_formula_structural   Y2Ti3P7Rh9
_chemical_formula_sum   'Y2 Ti3 P7 Rh9'
_cell_volume   312.05493534
_cell_formula_units_Z   1
loop_
 _symmetry_equiv_pos_site_id
 _symmetry_equiv_pos_as_xyz
  1  'x, y, z'
loop_
 _atom_site_type_symbol
 _atom_site_label
 _atom_site_symmetry_multiplicity
 _atom_site_fract_x
 _atom_site_fract_y
 _atom_site_fract_z
 _atom_site_occupancy
  Y  Y0  1  0.261663  0.666629  0.333309  1
  Y  Y1  1  0.761761  0.333446  0.666669  1
  Ti  Ti2  1  0.762135  0.100071  0.878699  1
  Ti  Ti3  1  0.762160  0.121077  0.221266  1
  Ti  Ti4  1  0.762125  0.778678  0.899939  1
  P  P5  1  0.262665  0.999797  0.999915  1
  P  P6  1  0.761772  0.876581  0.588917  1
  P  P7  1  0.761787  0.410923  0.287583  1
  P  P8  1  0.761747  0.712380  0.123436  1
  P  P9  1  0.261835  0.116129  0.416744  1
  P  P10  1  0.261861  0.583406  0.699383  1
  P  P11  1  0.261837  0.300694  0.884031  1
  Rh  Rh12  1  0.261778  0.883849  0.159589  1
  Rh  Rh13  1  0.261886  0.840433  0.724363  1
  Rh  Rh14  1  0.261823  0.275419  0.115804  1
  Rh  Rh15  1  0.761905  0.610051  0.558389  1
  Rh  Rh16  1  0.761842  0.441632  0.051690  1
  Rh  Rh17  1  0.761782  0.948435  0.390170  1
  Rh  Rh18  1  0.261970  0.365328  0.436417  1
  Rh  Rh19  1  0.261886  0.563622  0.928785  1
  Rh  Rh20  1  0.261780  0.071416  0.634904  1
