# generated using pymatgen
data_La2Dy(HoRu)2
_symmetry_space_group_name_H-M   'P 1'
_cell_length_a   6.50365967
_cell_length_b   7.24007809
_cell_length_c   8.78485270
_cell_angle_alpha   96.33718919
_cell_angle_beta   111.72568886
_cell_angle_gamma   89.99999239
_symmetry_Int_Tables_number   1
_chemical_formula_structural   La2Dy(HoRu)2
_chemical_formula_sum   'La4 Dy2 Ho4 Ru4'
_cell_volume   381.54708373
_cell_formula_units_Z   2
loop_
 _symmetry_equiv_pos_site_id
 _symmetry_equiv_pos_as_xyz
  1  'x, y, z'
loop_
 _atom_site_type_symbol
 _atom_site_label
 _atom_site_symmetry_multiplicity
 _atom_site_fract_x
 _atom_site_fract_y
 _atom_site_fract_z
 _atom_site_occupancy
  La  La0  1  0.978313  0.911451  0.193922  1
  La  La1  1  0.784391  0.588549  0.806078  1
  La  La2  1  0.021192  0.088936  0.805817  1
  La  La3  1  0.215376  0.411064  0.194183  1
  Dy  Dy4  1  0.636315  0.815190  0.430942  1
  Dy  Dy5  1  0.205372  0.684810  0.569058  1
  Ho  Ho6  1  0.364102  0.184834  0.569193  1
  Ho  Ho7  1  0.794910  0.315166  0.430807  1
  Ho  Ho8  1  0.425870  0.750000  0.000000  1
  Ho  Ho9  1  0.574185  0.250000  0.000000  1
  Ru  Ru10  1  0.825165  0.580914  0.224565  1
  Ru  Ru11  1  0.600600  0.919086  0.775435  1
  Ru  Ru12  1  0.174710  0.418858  0.775212  1
  Ru  Ru13  1  0.399498  0.081142  0.224788  1
