# generated using pymatgen
data_TbPa2F12
_symmetry_space_group_name_H-M   'P 1'
_cell_length_a   8.32544832
_cell_length_b   8.45219412
_cell_length_c   8.30824205
_cell_angle_alpha   63.13767074
_cell_angle_beta   63.78821288
_cell_angle_gamma   80.50748663
_symmetry_Int_Tables_number   1
_chemical_formula_structural   TbPa2F12
_chemical_formula_sum   'Tb2 Pa4 F24'
_cell_volume   467.48018809
_cell_formula_units_Z   2
loop_
 _symmetry_equiv_pos_site_id
 _symmetry_equiv_pos_as_xyz
  1  'x, y, z'
loop_
 _atom_site_type_symbol
 _atom_site_label
 _atom_site_symmetry_multiplicity
 _atom_site_fract_x
 _atom_site_fract_y
 _atom_site_fract_z
 _atom_site_occupancy
  Tb  Tb0  1  0.216372  0.368841  0.837210  1
  Tb  Tb1  1  0.783628  0.631159  0.162790  1
  Pa  Pa2  1  0.631575  0.769053  0.666374  1
  Pa  Pa3  1  0.368425  0.230947  0.333626  1
  Pa  Pa4  1  0.783971  0.209538  0.749555  1
  Pa  Pa5  1  0.216029  0.790462  0.250445  1
  F  F6  1  0.317717  0.257555  0.604924  1
  F  F7  1  0.682283  0.742445  0.395076  1
  F  F8  1  0.731281  0.679972  0.894788  1
  F  F9  1  0.268719  0.320028  0.105212  1
  F  F10  1  0.821759  0.938897  0.948814  1
  F  F11  1  0.178241  0.061103  0.051186  1
  F  F12  1  0.064573  0.172018  0.540456  1
  F  F13  1  0.935427  0.827982  0.459544  1
  F  F14  1  0.405025  0.598567  0.750518  1
  F  F15  1  0.594975  0.401433  0.249482  1
  F  F16  1  0.500000  0.000000  0.500000  1
  F  F17  1  0.000000  0.500000  0.000000  1
  F  F18  1  0.503366  0.249003  0.794536  1
  F  F19  1  0.496634  0.750997  0.205464  1
  F  F20  1  0.745259  0.495383  0.714387  1
  F  F21  1  0.254741  0.504617  0.285613  1
  F  F22  1  0.398122  0.810726  0.922308  1
  F  F23  1  0.601878  0.189274  0.077692  1
  F  F24  1  0.190430  0.603811  0.561683  1
  F  F25  1  0.809570  0.396189  0.438317  1
  F  F26  1  0.722913  0.025274  0.646652  1
  F  F27  1  0.277087  0.974726  0.353348  1
  F  F28  1  0.972316  0.272163  0.839154  1
  F  F29  1  0.027684  0.727837  0.160846  1
