# generated using pymatgen
data_CaTb3Al16(SiIr3)2
_symmetry_space_group_name_H-M   'P 1'
_cell_length_a   7.55605078
_cell_length_b   7.55955860
_cell_length_c   9.38613300
_cell_angle_alpha   90.00000000
_cell_angle_beta   90.00000000
_cell_angle_gamma   119.62064608
_symmetry_Int_Tables_number   1
_chemical_formula_structural   CaTb3Al16(SiIr3)2
_chemical_formula_sum   'Ca1 Tb3 Al16 Si2 Ir6'
_cell_volume   466.07533984
_cell_formula_units_Z   1
loop_
 _symmetry_equiv_pos_site_id
 _symmetry_equiv_pos_as_xyz
  1  'x, y, z'
loop_
 _atom_site_type_symbol
 _atom_site_label
 _atom_site_symmetry_multiplicity
 _atom_site_fract_x
 _atom_site_fract_y
 _atom_site_fract_z
 _atom_site_occupancy
  Ca  Ca0  1  0.994639  0.674606  0.250000  1
  Tb  Tb1  1  0.004267  0.325299  0.750000  1
  Tb  Tb2  1  0.675048  0.994930  0.250000  1
  Tb  Tb3  1  0.323890  0.003255  0.750000  1
  Al  Al4  1  0.001653  0.337453  0.076778  1
  Al  Al5  1  0.998174  0.663472  0.924711  1
  Al  Al6  1  0.998174  0.663472  0.575289  1
  Al  Al7  1  0.335382  0.000722  0.422936  1
  Al  Al8  1  0.001653  0.337453  0.423222  1
  Al  Al9  1  0.663610  0.998305  0.576697  1
  Al  Al10  1  0.663610  0.998305  0.923303  1
  Al  Al11  1  0.335382  0.000722  0.077064  1
  Al  Al12  1  0.335999  0.335869  0.555203  1
  Al  Al13  1  0.665102  0.664104  0.444334  1
  Al  Al14  1  0.665102  0.664104  0.055666  1
  Al  Al15  1  0.335999  0.335869  0.944797  1
  Al  Al16  1  0.336589  0.548401  0.250000  1
  Al  Al17  1  0.665173  0.452281  0.750000  1
  Al  Al18  1  0.548062  0.334879  0.250000  1
  Al  Al19  1  0.452197  0.664869  0.750000  1
  Si  Si20  1  0.129033  0.130092  0.250000  1
  Si  Si21  1  0.871436  0.870991  0.750000  1
  Ir  Ir22  1  0.670251  0.327280  0.998961  1
  Ir  Ir23  1  0.329427  0.671434  0.998909  1
  Ir  Ir24  1  0.329427  0.671434  0.501091  1
  Ir  Ir25  1  0.670251  0.327280  0.501039  1
  Ir  Ir26  1  0.000236  0.001560  0.998829  1
  Ir  Ir27  1  0.000236  0.001560  0.501171  1
