# generated using pymatgen
data_Ho3Ga6Co7Cu2
_symmetry_space_group_name_H-M   'P 1'
_cell_length_a   4.06808300
_cell_length_b   8.70980702
_cell_length_c   8.81473728
_cell_angle_alpha   59.48555959
_cell_angle_beta   90.00000000
_cell_angle_gamma   90.00000000
_symmetry_Int_Tables_number   1
_chemical_formula_structural   Ho3Ga6Co7Cu2
_chemical_formula_sum   'Ho3 Ga6 Co7 Cu2'
_cell_volume   269.06896334
_cell_formula_units_Z   1
loop_
 _symmetry_equiv_pos_site_id
 _symmetry_equiv_pos_as_xyz
  1  'x, y, z'
loop_
 _atom_site_type_symbol
 _atom_site_label
 _atom_site_symmetry_multiplicity
 _atom_site_fract_x
 _atom_site_fract_y
 _atom_site_fract_z
 _atom_site_occupancy
  Ho  Ho0  1  0.500000  0.325252  0.335981  1
  Ho  Ho1  1  0.500000  0.675069  0.660652  1
  Ho  Ho2  1  0.000000  0.999824  0.998982  1
  Ga  Ga3  1  0.000000  0.493798  0.508869  1
  Ga  Ga4  1  0.000000  0.505393  0.003601  1
  Ga  Ga5  1  0.000000  0.999983  0.490526  1
  Ga  Ga6  1  0.500000  0.727402  0.276370  1
  Ga  Ga7  1  0.500000  0.272469  0.003693  1
  Ga  Ga8  1  0.500000  0.000247  0.722738  1
  Co  Co9  1  0.000000  0.182217  0.177483  1
  Co  Co10  1  0.000000  0.179822  0.630935  1
  Co  Co11  1  0.000000  0.630464  0.191571  1
  Co  Co12  1  0.000000  0.820104  0.810946  1
  Co  Co13  1  0.000000  0.369401  0.822000  1
  Co  Co14  1  0.000000  0.817493  0.360005  1
  Co  Co15  1  0.500000  0.000314  0.297843  1
  Cu  Cu16  1  0.500000  0.297441  0.705296  1
  Cu  Cu17  1  0.500000  0.703204  0.002610  1
