# generated using pymatgen
data_U8Nb11Si16W
_symmetry_space_group_name_H-M   'P 1'
_cell_length_a   7.03460289
_cell_length_b   7.03287127
_cell_length_c   12.97916889
_cell_angle_alpha   90.03704928
_cell_angle_beta   89.94183467
_cell_angle_gamma   90.04141167
_symmetry_Int_Tables_number   1
_chemical_formula_structural   U8Nb11Si16W
_chemical_formula_sum   'U8 Nb11 Si16 W1'
_cell_volume   642.12371483
_cell_formula_units_Z   1
loop_
 _symmetry_equiv_pos_site_id
 _symmetry_equiv_pos_as_xyz
  1  'x, y, z'
loop_
 _atom_site_type_symbol
 _atom_site_label
 _atom_site_symmetry_multiplicity
 _atom_site_fract_x
 _atom_site_fract_y
 _atom_site_fract_z
 _atom_site_occupancy
  U  U0  1  0.995281  0.329881  0.221053  1
  U  U1  1  0.008765  0.672227  0.717920  1
  U  U2  1  0.167627  0.496576  0.468900  1
  U  U3  1  0.505495  0.829715  0.032272  1
  U  U4  1  0.828674  0.506242  0.969173  1
  U  U5  1  0.495473  0.167751  0.529307  1
  U  U6  1  0.328426  0.992341  0.780421  1
  U  U7  1  0.669700  0.005723  0.280867  1
  Nb  Nb8  1  0.167912  0.167294  0.000449  1
  Nb  Nb9  1  0.833284  0.833394  0.499133  1
  Nb  Nb10  1  0.329978  0.668543  0.250763  1
  Nb  Nb11  1  0.668558  0.331718  0.749932  1
  Nb  Nb12  1  0.844317  0.000766  0.874021  1
  Nb  Nb13  1  0.498227  0.657661  0.623403  1
  Nb  Nb14  1  0.344970  0.498705  0.875905  1
  Nb  Nb15  1  0.497472  0.341435  0.124806  1
  Nb  Nb16  1  0.658237  0.499452  0.375992  1
  Nb  Nb17  1  0.999618  0.157251  0.625894  1
  Nb  Nb18  1  0.999246  0.844216  0.125759  1
  Si  Si19  1  0.295438  0.038085  0.186792  1
  Si  Si20  1  0.702424  0.960633  0.684326  1
  Si  Si21  1  0.459274  0.797192  0.433492  1
  Si  Si22  1  0.201287  0.538509  0.065646  1
  Si  Si23  1  0.538976  0.200556  0.934760  1
  Si  Si24  1  0.796772  0.461650  0.565716  1
  Si  Si25  1  0.039650  0.299198  0.815492  1
  Si  Si26  1  0.962341  0.707100  0.315464  1
  Si  Si27  1  0.370629  0.290625  0.317355  1
  Si  Si28  1  0.629264  0.707610  0.815167  1
  Si  Si29  1  0.206300  0.873629  0.562900  1
  Si  Si30  1  0.128675  0.791680  0.934711  1
  Si  Si31  1  0.792908  0.129707  0.065813  1
  Si  Si32  1  0.875883  0.204795  0.433896  1
  Si  Si33  1  0.293582  0.370523  0.683627  1
  Si  Si34  1  0.706390  0.627013  0.184743  1
  W  W35  1  0.158947  0.000605  0.374131  1
