# generated using pymatgen
data_Sc8Fe4B23C
_symmetry_space_group_name_H-M   'P 1'
_cell_length_a   8.76791345
_cell_length_b   11.00946494
_cell_length_c   3.34601000
_cell_angle_alpha   90.00000000
_cell_angle_beta   90.00000000
_cell_angle_gamma   90.24812522
_symmetry_Int_Tables_number   1
_chemical_formula_structural   Sc8Fe4B23C
_chemical_formula_sum   'Sc8 Fe4 B23 C1'
_cell_volume   322.98743615
_cell_formula_units_Z   1
loop_
 _symmetry_equiv_pos_site_id
 _symmetry_equiv_pos_as_xyz
  1  'x, y, z'
loop_
 _atom_site_type_symbol
 _atom_site_label
 _atom_site_symmetry_multiplicity
 _atom_site_fract_x
 _atom_site_fract_y
 _atom_site_fract_z
 _atom_site_occupancy
  Sc  Sc0  1  0.673931  0.086819  0.000000  1
  Sc  Sc1  1  0.055868  0.126355  0.000000  1
  Sc  Sc2  1  0.556643  0.371042  0.000000  1
  Sc  Sc3  1  0.179443  0.413774  0.000000  1
  Sc  Sc4  1  0.821557  0.585470  0.000000  1
  Sc  Sc5  1  0.444352  0.629848  0.000000  1
  Sc  Sc6  1  0.944548  0.873315  0.000000  1
  Sc  Sc7  1  0.320271  0.914977  0.000000  1
  Fe  Fe8  1  0.358600  0.179596  0.000000  1
  Fe  Fe9  1  0.859622  0.314416  0.000000  1
  Fe  Fe10  1  0.139095  0.681411  0.000000  1
  Fe  Fe11  1  0.643031  0.823907  0.000000  1
  B  B12  1  0.443822  0.065685  0.499999  1
  B  B13  1  0.247772  0.080153  0.499999  1
  B  B14  1  0.868421  0.177021  0.499999  1
  B  B15  1  0.515832  0.211937  0.499999  1
  B  B16  1  0.206379  0.235591  0.499999  1
  B  B17  1  0.706479  0.261131  0.499999  1
  B  B18  1  0.016852  0.284958  0.499999  1
  B  B19  1  0.368386  0.316987  0.499999  1
  B  B20  1  0.750418  0.417655  0.499999  1
  B  B21  1  0.946009  0.431756  0.499999  1
  B  B22  1  0.397399  0.472855  0.499999  1
  B  B23  1  0.604562  0.528173  0.499999  1
  B  B24  1  0.054245  0.564957  0.499999  1
  B  B25  1  0.250338  0.581020  0.499999  1
  B  B26  1  0.632511  0.684963  0.499999  1
  B  B27  1  0.982028  0.711790  0.499999  1
  B  B28  1  0.293519  0.737408  0.499999  1
  B  B29  1  0.794738  0.766712  0.499999  1
  B  B30  1  0.484265  0.789817  0.499999  1
  B  B31  1  0.129851  0.817297  0.499999  1
  B  B32  1  0.754951  0.924473  0.499999  1
  B  B33  1  0.556497  0.936472  0.499999  1
  B  B34  1  0.101548  0.972259  0.499999  1
  C  C35  1  0.896228  0.028012  0.499999  1
