# generated using pymatgen
data_ErPaIr2Pb
_symmetry_space_group_name_H-M   'P 1'
_cell_length_a   7.88614300
_cell_length_b   7.78901300
_cell_length_c   3.58747100
_cell_angle_alpha   90.00000000
_cell_angle_beta   90.00000000
_cell_angle_gamma   90.00000000
_symmetry_Int_Tables_number   1
_chemical_formula_structural   ErPaIr2Pb
_chemical_formula_sum   'Er2 Pa2 Ir4 Pb2'
_cell_volume   220.36137604
_cell_formula_units_Z   2
loop_
 _symmetry_equiv_pos_site_id
 _symmetry_equiv_pos_as_xyz
  1  'x, y, z'
loop_
 _atom_site_type_symbol
 _atom_site_label
 _atom_site_symmetry_multiplicity
 _atom_site_fract_x
 _atom_site_fract_y
 _atom_site_fract_z
 _atom_site_occupancy
  Er  Er0  1  0.830730  0.667854  0.500000  1
  Er  Er1  1  0.330730  0.832146  0.500000  1
  Pa  Pa2  1  0.670208  0.161976  0.500000  1
  Pa  Pa3  1  0.170208  0.338024  0.500000  1
  Ir  Ir4  1  0.365187  0.151899  0.000000  1
  Ir  Ir5  1  0.127656  0.605603  0.000000  1
  Ir  Ir6  1  0.627656  0.894397  0.000000  1
  Ir  Ir7  1  0.865187  0.348101  0.000000  1
  Pb  Pb8  1  0.006220  0.988835  0.000000  1
  Pb  Pb9  1  0.506220  0.511165  0.000000  1
