# generated using pymatgen
data_YbEu9Si4(SbH)2
_symmetry_space_group_name_H-M   'P 1'
_cell_length_a   9.31813926
_cell_length_b   9.31814016
_cell_length_c   9.31813806
_cell_angle_alpha   129.19004236
_cell_angle_beta   129.19004883
_cell_angle_gamma   74.70497560
_symmetry_Int_Tables_number   1
_chemical_formula_structural   YbEu9Si4(SbH)2
_chemical_formula_sum   'Yb1 Eu9 Si4 Sb2 H2'
_cell_volume   473.49132926
_cell_formula_units_Z   1
loop_
 _symmetry_equiv_pos_site_id
 _symmetry_equiv_pos_as_xyz
  1  'x, y, z'
loop_
 _atom_site_type_symbol
 _atom_site_label
 _atom_site_symmetry_multiplicity
 _atom_site_fract_x
 _atom_site_fract_y
 _atom_site_fract_z
 _atom_site_occupancy
  Yb  Yb0  1  0.000000  0.000000  0.000000  1
  Eu  Eu1  1  0.500000  0.500000  0.000000  1
  Eu  Eu2  1  0.524001  0.022285  0.832007  1
  Eu  Eu3  1  0.190277  0.691994  0.167993  1
  Eu  Eu4  1  0.022285  0.190277  0.498283  1
  Eu  Eu5  1  0.691994  0.524001  0.501717  1
  Eu  Eu6  1  0.475999  0.977715  0.167993  1
  Eu  Eu7  1  0.809723  0.308006  0.832007  1
  Eu  Eu8  1  0.977715  0.809723  0.501717  1
  Eu  Eu9  1  0.308006  0.475999  0.498283  1
  Si  Si10  1  0.887401  0.386640  0.274040  1
  Si  Si11  1  0.112599  0.613360  0.725960  1
  Si  Si12  1  0.386640  0.112599  0.499239  1
  Si  Si13  1  0.613360  0.887401  0.500761  1
  Sb  Sb14  1  0.249826  0.249826  0.000000  1
  Sb  Sb15  1  0.750174  0.750174  0.000000  1
  H  H16  1  0.250000  0.750000  0.500000  1
  H  H17  1  0.750000  0.250000  0.500000  1
