# generated using pymatgen
data_Yb10ErTm9Sn16
_symmetry_space_group_name_H-M   'P 1'
_cell_length_a   7.79385006
_cell_length_b   8.38523008
_cell_length_c   15.78335502
_cell_angle_alpha   90.00583645
_cell_angle_beta   89.99751211
_cell_angle_gamma   90.01440585
_symmetry_Int_Tables_number   1
_chemical_formula_structural   Yb10ErTm9Sn16
_chemical_formula_sum   'Yb10 Er1 Tm9 Sn16'
_cell_volume   1031.49312851
_cell_formula_units_Z   1
loop_
 _symmetry_equiv_pos_site_id
 _symmetry_equiv_pos_as_xyz
  1  'x, y, z'
loop_
 _atom_site_type_symbol
 _atom_site_label
 _atom_site_symmetry_multiplicity
 _atom_site_fract_x
 _atom_site_fract_y
 _atom_site_fract_z
 _atom_site_occupancy
  Yb  Yb0  1  0.502113  0.684378  0.593598  1
  Yb  Yb1  1  0.002069  0.815677  0.906393  1
  Yb  Yb2  1  0.496004  0.312076  0.091043  1
  Yb  Yb3  1  0.995971  0.187905  0.408929  1
  Yb  Yb4  1  0.496029  0.312080  0.408955  1
  Yb  Yb5  1  0.996021  0.187918  0.091042  1
  Yb  Yb6  1  0.502083  0.684363  0.906400  1
  Yb  Yb7  1  0.002061  0.815686  0.593609  1
  Yb  Yb8  1  0.164019  0.489393  0.249996  1
  Yb  Yb9  1  0.664024  0.010618  0.250002  1
  Er  Er10  1  0.175568  0.337825  0.623932  1
  Tm  Tm11  1  0.675562  0.162015  0.624026  1
  Tm  Tm12  1  0.175569  0.337945  0.876006  1
  Tm  Tm13  1  0.326348  0.835123  0.121512  1
  Tm  Tm14  1  0.826335  0.664898  0.378475  1
  Tm  Tm15  1  0.326334  0.835096  0.378468  1
  Tm  Tm16  1  0.826349  0.664890  0.121514  1
  Tm  Tm17  1  0.675565  0.162019  0.875985  1
  Tm  Tm18  1  0.838144  0.508614  0.750050  1
  Tm  Tm19  1  0.338234  0.991355  0.750040  1
  Sn  Sn20  1  0.672386  0.962244  0.460157  1
  Sn  Sn21  1  0.172374  0.537729  0.039832  1
  Sn  Sn22  1  0.327945  0.035756  0.955913  1
  Sn  Sn23  1  0.827733  0.464330  0.544046  1
  Sn  Sn24  1  0.328142  0.035557  0.544035  1
  Sn  Sn25  1  0.827970  0.464269  0.955915  1
  Sn  Sn26  1  0.672380  0.962269  0.039832  1
  Sn  Sn27  1  0.172359  0.537915  0.460006  1
  Sn  Sn28  1  0.476984  0.369928  0.750113  1
  Sn  Sn29  1  0.976606  0.129938  0.750117  1
  Sn  Sn30  1  0.527658  0.628269  0.249996  1
  Sn  Sn31  1  0.027661  0.871738  0.249987  1
  Sn  Sn32  1  0.711190  0.861651  0.750011  1
  Sn  Sn33  1  0.211260  0.638530  0.750070  1
  Sn  Sn34  1  0.281478  0.127381  0.249998  1
  Sn  Sn35  1  0.781469  0.372623  0.249999  1
