# generated using pymatgen
data_Dy4ScCr3(Co4P3)4
_symmetry_space_group_name_H-M   'P 1'
_cell_length_a   11.94851408
_cell_length_b   11.94851395
_cell_length_c   3.65515300
_cell_angle_alpha   90.00000000
_cell_angle_beta   90.00000000
_cell_angle_gamma   119.95124388
_symmetry_Int_Tables_number   1
_chemical_formula_structural   Dy4ScCr3(Co4P3)4
_chemical_formula_sum   'Dy4 Sc1 Cr3 Co16 P12'
_cell_volume   452.14438902
_cell_formula_units_Z   1
loop_
 _symmetry_equiv_pos_site_id
 _symmetry_equiv_pos_as_xyz
  1  'x, y, z'
loop_
 _atom_site_type_symbol
 _atom_site_label
 _atom_site_symmetry_multiplicity
 _atom_site_fract_x
 _atom_site_fract_y
 _atom_site_fract_z
 _atom_site_occupancy
  Dy  Dy0  1  0.666653  0.332922  0.000000  1
  Dy  Dy1  1  0.332922  0.666653  0.000000  1
  Dy  Dy2  1  0.814299  0.000633  0.500000  1
  Dy  Dy3  1  0.000633  0.814299  0.500000  1
  Sc  Sc4  1  0.188046  0.188046  0.500000  1
  Cr  Cr5  1  0.552155  0.552155  0.000000  1
  Cr  Cr6  1  0.445804  0.001211  0.000000  1
  Cr  Cr7  1  0.001211  0.445804  0.000000  1
  Co  Co8  1  0.824699  0.200319  0.000000  1
  Co  Co9  1  0.799400  0.622746  0.000000  1
  Co  Co10  1  0.374521  0.177705  0.000000  1
  Co  Co11  1  0.200319  0.824699  0.000000  1
  Co  Co12  1  0.622746  0.799400  0.000000  1
  Co  Co13  1  0.177705  0.374521  0.000000  1
  Co  Co14  1  0.644520  0.126054  0.500000  1
  Co  Co15  1  0.873866  0.517788  0.500000  1
  Co  Co16  1  0.479821  0.354309  0.500000  1
  Co  Co17  1  0.126054  0.644520  0.500000  1
  Co  Co18  1  0.517788  0.873866  0.500000  1
  Co  Co19  1  0.354309  0.479821  0.500000  1
  Co  Co20  1  0.717021  0.717021  0.500000  1
  Co  Co21  1  0.281990  0.002262  0.500000  1
  Co  Co22  1  0.002262  0.281990  0.500000  1
  Co  Co23  1  0.001843  0.001843  0.000000  1
  P  P24  1  0.362111  0.362111  0.000000  1
  P  P25  1  0.633123  0.999851  0.000000  1
  P  P26  1  0.999851  0.633123  0.000000  1
  P  P27  1  0.838743  0.317156  0.500000  1
  P  P28  1  0.681613  0.519350  0.500000  1
  P  P29  1  0.479844  0.162425  0.500000  1
  P  P30  1  0.317156  0.838743  0.500000  1
  P  P31  1  0.519350  0.681613  0.500000  1
  P  P32  1  0.162425  0.479844  0.500000  1
  P  P33  1  0.821334  0.821334  0.000000  1
  P  P34  1  0.179824  0.004041  0.000000  1
  P  P35  1  0.004041  0.179824  0.000000  1
