# generated using pymatgen
data_AlFe(SeO4)3
_symmetry_space_group_name_H-M   'P 1'
_cell_length_a   9.12656758
_cell_length_b   9.12656850
_cell_length_c   9.12656805
_cell_angle_alpha   55.81683759
_cell_angle_beta   55.81683789
_cell_angle_gamma   55.81684327
_symmetry_Int_Tables_number   1
_chemical_formula_structural   AlFe(SeO4)3
_chemical_formula_sum   'Al2 Fe2 Se6 O24'
_cell_volume   485.39974353
_cell_formula_units_Z   2
loop_
 _symmetry_equiv_pos_site_id
 _symmetry_equiv_pos_as_xyz
  1  'x, y, z'
loop_
 _atom_site_type_symbol
 _atom_site_label
 _atom_site_symmetry_multiplicity
 _atom_site_fract_x
 _atom_site_fract_y
 _atom_site_fract_z
 _atom_site_occupancy
  Al  Al0  1  0.143434  0.143434  0.143434  1
  Al  Al1  1  0.349520  0.349520  0.349520  1
  Fe  Fe2  1  0.648633  0.648633  0.648633  1
  Fe  Fe3  1  0.857225  0.857225  0.857225  1
  Se  Se4  1  0.971223  0.533218  0.247855  1
  Se  Se5  1  0.533218  0.247855  0.971223  1
  Se  Se6  1  0.247855  0.971223  0.533218  1
  Se  Se7  1  0.750565  0.041230  0.455787  1
  Se  Se8  1  0.455787  0.750565  0.041230  1
  Se  Se9  1  0.041230  0.455787  0.750565  1
  O  O10  1  0.822652  0.497048  0.473786  1
  O  O11  1  0.878471  0.752384  0.111038  1
  O  O12  1  0.997650  0.377625  0.185237  1
  O  O13  1  0.514628  0.212045  0.181325  1
  O  O14  1  0.752384  0.111038  0.878471  1
  O  O15  1  0.497048  0.473786  0.822652  1
  O  O16  1  0.473786  0.822652  0.497048  1
  O  O17  1  0.212045  0.181325  0.514628  1
  O  O18  1  0.779969  0.026391  0.628952  1
  O  O19  1  0.181325  0.514628  0.212045  1
  O  O20  1  0.898620  0.130589  0.243670  1
  O  O21  1  0.628952  0.779969  0.026391  1
  O  O22  1  0.377625  0.185237  0.997650  1
  O  O23  1  0.111038  0.878471  0.752384  1
  O  O24  1  0.826279  0.476685  0.795194  1
  O  O25  1  0.185237  0.997650  0.377625  1
  O  O26  1  0.795194  0.826279  0.476685  1
  O  O27  1  0.526496  0.187214  0.477365  1
  O  O28  1  0.477365  0.526496  0.187214  1
  O  O29  1  0.243670  0.898620  0.130589  1
  O  O30  1  0.476685  0.795194  0.826279  1
  O  O31  1  0.026391  0.628952  0.779969  1
  O  O32  1  0.130589  0.243670  0.898620  1
  O  O33  1  0.187214  0.477365  0.526496  1
