# generated using pymatgen
data_Sm3CS2
_symmetry_space_group_name_H-M   'P 1'
_cell_length_a   6.86364773
_cell_length_b   6.86364730
_cell_length_c   6.86364700
_cell_angle_alpha   147.63107675
_cell_angle_beta   132.50269258
_cell_angle_gamma   58.65143953
_symmetry_Int_Tables_number   1
_chemical_formula_structural   Sm3CS2
_chemical_formula_sum   'Sm3 C1 S2'
_cell_volume   126.57849924
_cell_formula_units_Z   1
loop_
 _symmetry_equiv_pos_site_id
 _symmetry_equiv_pos_as_xyz
  1  'x, y, z'
loop_
 _atom_site_type_symbol
 _atom_site_label
 _atom_site_symmetry_multiplicity
 _atom_site_fract_x
 _atom_site_fract_y
 _atom_site_fract_z
 _atom_site_occupancy
  Sm  Sm0  1  0.856159  0.356159  0.500000  1
  Sm  Sm1  1  0.500000  0.000000  0.500000  1
  Sm  Sm2  1  0.143841  0.643841  0.500000  1
  C  C3  1  0.000000  0.000000  0.000000  1
  S  S4  1  0.672400  0.672400  0.000000  1
  S  S5  1  0.327600  0.327600  0.000000  1
