# generated using pymatgen
data_Sc4BeZn2Os5
_symmetry_space_group_name_H-M   'P 1'
_cell_length_a   5.10863619
_cell_length_b   5.16309569
_cell_length_c   8.59758200
_cell_angle_alpha   90.00000000
_cell_angle_beta   90.00000000
_cell_angle_gamma   120.35326850
_symmetry_Int_Tables_number   1
_chemical_formula_structural   Sc4BeZn2Os5
_chemical_formula_sum   'Sc4 Be1 Zn2 Os5'
_cell_volume   195.68840219
_cell_formula_units_Z   1
loop_
 _symmetry_equiv_pos_site_id
 _symmetry_equiv_pos_as_xyz
  1  'x, y, z'
loop_
 _atom_site_type_symbol
 _atom_site_label
 _atom_site_symmetry_multiplicity
 _atom_site_fract_x
 _atom_site_fract_y
 _atom_site_fract_z
 _atom_site_occupancy
  Sc  Sc0  1  0.326707  0.663353  0.429746  1
  Sc  Sc1  1  0.650171  0.325085  0.554135  1
  Sc  Sc2  1  0.650171  0.325085  0.945865  1
  Sc  Sc3  1  0.326707  0.663353  0.070254  1
  Be  Be4  1  0.335806  0.167904  0.250000  1
  Zn  Zn5  1  0.198150  0.356462  0.750000  1
  Zn  Zn6  1  0.198150  0.841688  0.750000  1
  Os  Os7  1  0.826115  0.652659  0.250000  1
  Os  Os8  1  0.697852  0.848926  0.750000  1
  Os  Os9  1  0.982028  0.991014  0.001867  1
  Os  Os10  1  0.826115  0.173456  0.250000  1
  Os  Os11  1  0.982028  0.991014  0.498133  1
