# generated using pymatgen
data_MnSb12Pd2Ru
_symmetry_space_group_name_H-M   'P 1'
_cell_length_a   8.15393310
_cell_length_b   8.15305537
_cell_length_c   9.40756377
_cell_angle_alpha   54.74737141
_cell_angle_beta   54.81977331
_cell_angle_gamma   70.50446909
_symmetry_Int_Tables_number   1
_chemical_formula_structural   MnSb12Pd2Ru
_chemical_formula_sum   'Mn1 Sb12 Pd2 Ru1'
_cell_volume   417.43241828
_cell_formula_units_Z   1
loop_
 _symmetry_equiv_pos_site_id
 _symmetry_equiv_pos_as_xyz
  1  'x, y, z'
loop_
 _atom_site_type_symbol
 _atom_site_label
 _atom_site_symmetry_multiplicity
 _atom_site_fract_x
 _atom_site_fract_y
 _atom_site_fract_z
 _atom_site_occupancy
  Mn  Mn0  1  0.000000  0.500000  0.500000  1
  Sb  Sb1  1  0.670439  0.665855  0.489888  1
  Sb  Sb2  1  0.329561  0.334145  0.510112  1
  Sb  Sb3  1  0.651191  0.651813  0.195793  1
  Sb  Sb4  1  0.348809  0.348187  0.804207  1
  Sb  Sb5  1  0.159541  0.849845  0.654260  1
  Sb  Sb6  1  0.840459  0.150155  0.345740  1
  Sb  Sb7  1  0.851365  0.164182  0.652326  1
  Sb  Sb8  1  0.148635  0.835818  0.347674  1
  Sb  Sb9  1  0.816094  0.495088  0.836884  1
  Sb  Sb10  1  0.183906  0.504912  0.163116  1
  Sb  Sb11  1  0.504986  0.186841  0.158574  1
  Sb  Sb12  1  0.495014  0.813159  0.841426  1
  Pd  Pd13  1  0.000000  0.500000  0.000000  1
  Pd  Pd14  1  0.500000  0.000000  0.000000  1
  Ru  Ru15  1  0.500000  0.000000  0.500000  1
