# generated using pymatgen
data_Zr6AlIn5Pd6
_symmetry_space_group_name_H-M   'P 1'
_cell_length_a   7.53947788
_cell_length_b   7.49622243
_cell_length_c   7.18080704
_cell_angle_alpha   89.99999742
_cell_angle_beta   89.97182236
_cell_angle_gamma   119.81038261
_symmetry_Int_Tables_number   1
_chemical_formula_structural   Zr6AlIn5Pd6
_chemical_formula_sum   'Zr6 Al1 In5 Pd6'
_cell_volume   352.13905810
_cell_formula_units_Z   1
loop_
 _symmetry_equiv_pos_site_id
 _symmetry_equiv_pos_as_xyz
  1  'x, y, z'
loop_
 _atom_site_type_symbol
 _atom_site_label
 _atom_site_symmetry_multiplicity
 _atom_site_fract_x
 _atom_site_fract_y
 _atom_site_fract_z
 _atom_site_occupancy
  Zr  Zr0  1  0.386481  0.409974  0.747748  1
  Zr  Zr1  1  0.019912  0.605496  0.747394  1
  Zr  Zr2  1  0.592113  0.982365  0.752205  1
  Zr  Zr3  1  0.613519  0.023493  0.252252  1
  Zr  Zr4  1  0.980088  0.585583  0.252606  1
  Zr  Zr5  1  0.407887  0.390252  0.247795  1
  Al  Al6  1  0.000000  0.273058  0.500000  1
  In  In7  1  0.258675  0.996357  0.000582  1
  In  In8  1  0.741325  0.737683  0.999418  1
  In  In9  1  0.000000  0.267116  0.000000  1
  In  In10  1  0.723344  0.723032  0.499792  1
  In  In11  1  0.276656  0.999689  0.500208  1
  Pd  Pd12  1  0.663188  0.330820  0.962154  1
  Pd  Pd13  1  0.000269  0.013000  0.730049  1
  Pd  Pd14  1  0.677230  0.329473  0.535399  1
  Pd  Pd15  1  0.322770  0.652244  0.464601  1
  Pd  Pd16  1  0.336812  0.667634  0.037846  1
  Pd  Pd17  1  0.999731  0.012730  0.269951  1
