# generated using pymatgen
data_DyAl2GaAu
_symmetry_space_group_name_H-M   'P 1'
_cell_length_a   4.15443153
_cell_length_b   4.15443271
_cell_length_c   6.37340616
_cell_angle_alpha   70.97873885
_cell_angle_beta   70.97871764
_cell_angle_gamma   90.00000480
_symmetry_Int_Tables_number   1
_chemical_formula_structural   DyAl2GaAu
_chemical_formula_sum   'Dy1 Al2 Ga1 Au1'
_cell_volume   97.61912897
_cell_formula_units_Z   1
loop_
 _symmetry_equiv_pos_site_id
 _symmetry_equiv_pos_as_xyz
  1  'x, y, z'
loop_
 _atom_site_type_symbol
 _atom_site_label
 _atom_site_symmetry_multiplicity
 _atom_site_fract_x
 _atom_site_fract_y
 _atom_site_fract_z
 _atom_site_occupancy
  Dy  Dy0  1  0.986936  0.986936  0.026126  1
  Al  Al1  1  0.750426  0.250426  0.499146  1
  Al  Al2  1  0.250426  0.750426  0.499146  1
  Ga  Ga3  1  0.394945  0.394945  0.210110  1
  Au  Au4  1  0.617265  0.617265  0.765470  1
