# generated using pymatgen
data_U3Zn(PO5)4
_symmetry_space_group_name_H-M   'P 1'
_cell_length_a   5.42817937
_cell_length_b   8.56065634
_cell_length_c   9.18857434
_cell_angle_alpha   101.11369640
_cell_angle_beta   103.09545904
_cell_angle_gamma   95.12809758
_symmetry_Int_Tables_number   1
_chemical_formula_structural   U3Zn(PO5)4
_chemical_formula_sum   'U3 Zn1 P4 O20'
_cell_volume   404.10451019
_cell_formula_units_Z   1
loop_
 _symmetry_equiv_pos_site_id
 _symmetry_equiv_pos_as_xyz
  1  'x, y, z'
loop_
 _atom_site_type_symbol
 _atom_site_label
 _atom_site_symmetry_multiplicity
 _atom_site_fract_x
 _atom_site_fract_y
 _atom_site_fract_z
 _atom_site_occupancy
  U  U0  1  0.647337  0.700847  0.955808  1
  U  U1  1  0.336877  0.802502  0.551724  1
  U  U2  1  0.657621  0.206732  0.440387  1
  Zn  Zn3  1  0.284267  0.260717  0.017987  1
  P  P4  1  0.108691  0.507126  0.772076  1
  P  P5  1  0.941724  0.479180  0.236340  1
  P  P6  1  0.268613  0.932615  0.176309  1
  P  P7  1  0.703216  0.084846  0.827361  1
  O  O8  1  0.989134  0.120298  0.878120  1
  O  O9  1  0.984767  0.865599  0.097611  1
  O  O10  1  0.984652  0.368560  0.640433  1
  O  O11  1  0.054027  0.623380  0.370093  1
  O  O12  1  0.746869  0.367282  0.279020  1
  O  O13  1  0.283785  0.641603  0.734826  1
  O  O14  1  0.421028  0.814516  0.085416  1
  O  O15  1  0.558570  0.191094  0.917807  1
  O  O16  1  0.428661  0.325398  0.499415  1
  O  O17  1  0.591127  0.694005  0.513521  1
  O  O18  1  0.886781  0.590316  0.830385  1
  O  O19  1  0.138256  0.403825  0.165708  1
  O  O20  1  0.304123  0.471774  0.909718  1
  O  O21  1  0.770241  0.563071  0.107578  1
  O  O22  1  0.879280  0.083597  0.378098  1
  O  O23  1  0.091412  0.907866  0.607043  1
  O  O24  1  0.349834  0.927805  0.345999  1
  O  O25  1  0.607807  0.063939  0.649404  1
  O  O26  1  0.353392  0.105705  0.171714  1
  O  O27  1  0.627905  0.895804  0.840098  1
