# generated using pymatgen
data_Ca2Nd(HgPd)3
_symmetry_space_group_name_H-M   'P 1'
_cell_length_a   7.74336779
_cell_length_b   7.74336760
_cell_length_c   4.01059600
_cell_angle_alpha   90.00000000
_cell_angle_beta   90.00000000
_cell_angle_gamma   119.99838970
_symmetry_Int_Tables_number   1
_chemical_formula_structural   Ca2Nd(HgPd)3
_chemical_formula_sum   'Ca2 Nd1 Hg3 Pd3'
_cell_volume   208.26023751
_cell_formula_units_Z   1
loop_
 _symmetry_equiv_pos_site_id
 _symmetry_equiv_pos_as_xyz
  1  'x, y, z'
loop_
 _atom_site_type_symbol
 _atom_site_label
 _atom_site_symmetry_multiplicity
 _atom_site_fract_x
 _atom_site_fract_y
 _atom_site_fract_z
 _atom_site_occupancy
  Ca  Ca0  1  0.602731  0.000217  0.500000  1
  Ca  Ca1  1  0.000217  0.602731  0.500000  1
  Nd  Nd2  1  0.395811  0.395811  0.500000  1
  Hg  Hg3  1  0.264618  0.990769  0.000000  1
  Hg  Hg4  1  0.742598  0.742598  0.000000  1
  Hg  Hg5  1  0.990769  0.264618  0.000000  1
  Pd  Pd6  1  0.006793  0.006793  0.500000  1
  Pd  Pd7  1  0.660097  0.336364  0.000000  1
  Pd  Pd8  1  0.336364  0.660097  0.000000  1
