# generated using pymatgen
data_Ti2Nb2CrB2P
_symmetry_space_group_name_H-M   'P 1'
_cell_length_a   5.96758185
_cell_length_b   5.96758178
_cell_length_c   7.10209592
_cell_angle_alpha   114.84267245
_cell_angle_beta   114.84268637
_cell_angle_gamma   89.99999718
_symmetry_Int_Tables_number   1
_chemical_formula_structural   Ti2Nb2CrB2P
_chemical_formula_sum   'Ti4 Nb4 Cr2 B4 P2'
_cell_volume   203.43716329
_cell_formula_units_Z   2
loop_
 _symmetry_equiv_pos_site_id
 _symmetry_equiv_pos_as_xyz
  1  'x, y, z'
loop_
 _atom_site_type_symbol
 _atom_site_label
 _atom_site_symmetry_multiplicity
 _atom_site_fract_x
 _atom_site_fract_y
 _atom_site_fract_z
 _atom_site_occupancy
  Ti  Ti0  1  0.035598  0.535598  0.728915  1
  Ti  Ti1  1  0.693316  0.193316  0.728915  1
  Ti  Ti2  1  0.193316  0.035598  0.728915  1
  Ti  Ti3  1  0.535598  0.693316  0.728915  1
  Nb  Nb4  1  0.962553  0.462553  0.272755  1
  Nb  Nb5  1  0.310201  0.810201  0.272755  1
  Nb  Nb6  1  0.810201  0.962553  0.272755  1
  Nb  Nb7  1  0.462553  0.310201  0.272755  1
  Cr  Cr8  1  0.496180  0.496180  0.992360  1
  Cr  Cr9  1  0.996180  0.996180  0.992360  1
  B  B10  1  0.380979  0.880979  0.993435  1
  B  B11  1  0.612456  0.112456  0.993435  1
  B  B12  1  0.112456  0.380979  0.993435  1
  B  B13  1  0.880979  0.612456  0.993435  1
  P  P14  1  0.258716  0.258716  0.517433  1
  P  P15  1  0.758716  0.758716  0.517433  1
