# generated using pymatgen
data_DyY3Cu2(Si2Ru)2
_symmetry_space_group_name_H-M   'P 1'
_cell_length_a   4.22667300
_cell_length_b   6.97819779
_cell_length_c   7.37010023
_cell_angle_alpha   91.48255978
_cell_angle_beta   90.00000000
_cell_angle_gamma   90.00000000
_symmetry_Int_Tables_number   1
_chemical_formula_structural   DyY3Cu2(Si2Ru)2
_chemical_formula_sum   'Dy1 Y3 Cu2 Si4 Ru2'
_cell_volume   217.30509688
_cell_formula_units_Z   1
loop_
 _symmetry_equiv_pos_site_id
 _symmetry_equiv_pos_as_xyz
  1  'x, y, z'
loop_
 _atom_site_type_symbol
 _atom_site_label
 _atom_site_symmetry_multiplicity
 _atom_site_fract_x
 _atom_site_fract_y
 _atom_site_fract_z
 _atom_site_occupancy
  Dy  Dy0  1  0.750000  0.508097  0.312184  1
  Y  Y1  1  0.250000  0.992460  0.797511  1
  Y  Y2  1  0.750000  0.007596  0.202435  1
  Y  Y3  1  0.250000  0.492145  0.687195  1
  Cu  Cu4  1  0.750000  0.833810  0.573134  1
  Cu  Cu5  1  0.250000  0.166122  0.426653  1
  Si  Si6  1  0.250000  0.300032  0.088974  1
  Si  Si7  1  0.750000  0.700049  0.911075  1
  Si  Si8  1  0.250000  0.796634  0.388385  1
  Si  Si9  1  0.750000  0.203284  0.611561  1
  Ru  Ru10  1  0.750000  0.347720  0.934575  1
  Ru  Ru11  1  0.250000  0.652051  0.066318  1
