# generated using pymatgen
data_V2Ni20B6W
_symmetry_space_group_name_H-M   'P 1'
_cell_length_a   7.41166956
_cell_length_b   7.41166958
_cell_length_c   7.41167000
_cell_angle_alpha   59.99999814
_cell_angle_beta   59.99999805
_cell_angle_gamma   60.00000395
_symmetry_Int_Tables_number   1
_chemical_formula_structural   V2Ni20B6W
_chemical_formula_sum   'V2 Ni20 B6 W1'
_cell_volume   287.89437255
_cell_formula_units_Z   1
loop_
 _symmetry_equiv_pos_site_id
 _symmetry_equiv_pos_as_xyz
  1  'x, y, z'
loop_
 _atom_site_type_symbol
 _atom_site_label
 _atom_site_symmetry_multiplicity
 _atom_site_fract_x
 _atom_site_fract_y
 _atom_site_fract_z
 _atom_site_occupancy
  V  V0  1  0.000000  0.000000  0.000000  1
  V  V1  1  0.250000  0.250000  0.250000  1
  Ni  Ni2  1  0.615274  0.615274  0.154178  1
  Ni  Ni3  1  0.615274  0.154178  0.615274  1
  Ni  Ni4  1  0.154178  0.615274  0.615274  1
  Ni  Ni5  1  0.615274  0.615274  0.615274  1
  Ni  Ni6  1  0.380563  0.380563  0.858312  1
  Ni  Ni7  1  0.380563  0.858312  0.380563  1
  Ni  Ni8  1  0.858312  0.380563  0.380563  1
  Ni  Ni9  1  0.380563  0.380563  0.380563  1
  Ni  Ni10  1  0.998747  0.998747  0.341671  1
  Ni  Ni11  1  0.660834  0.998747  0.341671  1
  Ni  Ni12  1  0.998747  0.660834  0.341671  1
  Ni  Ni13  1  0.660834  0.341671  0.998747  1
  Ni  Ni14  1  0.998747  0.341671  0.998747  1
  Ni  Ni15  1  0.998747  0.341671  0.660834  1
  Ni  Ni16  1  0.341671  0.660834  0.998747  1
  Ni  Ni17  1  0.341671  0.998747  0.660834  1
  Ni  Ni18  1  0.341671  0.998747  0.998747  1
  Ni  Ni19  1  0.998747  0.998747  0.660834  1
  Ni  Ni20  1  0.998747  0.660834  0.998747  1
  Ni  Ni21  1  0.660834  0.998747  0.998747  1
  B  B22  1  0.732548  0.732548  0.267452  1
  B  B23  1  0.267452  0.732548  0.267452  1
  B  B24  1  0.732548  0.267452  0.267452  1
  B  B25  1  0.267452  0.267452  0.732548  1
  B  B26  1  0.732548  0.267452  0.732548  1
  B  B27  1  0.267452  0.732548  0.732548  1
  W  W28  1  0.750000  0.750000  0.750000  1
