# generated using pymatgen
data_Fe3CuNi8(BO5)4
_symmetry_space_group_name_H-M   'P 1'
_cell_length_a   9.30717209
_cell_length_b   12.31889412
_cell_length_c   3.03429200
_cell_angle_alpha   90.00000000
_cell_angle_beta   90.00000000
_cell_angle_gamma   89.98412436
_symmetry_Int_Tables_number   1
_chemical_formula_structural   Fe3CuNi8(BO5)4
_chemical_formula_sum   'Fe3 Cu1 Ni8 B4 O20'
_cell_volume   347.89390645
_cell_formula_units_Z   1
loop_
 _symmetry_equiv_pos_site_id
 _symmetry_equiv_pos_as_xyz
  1  'x, y, z'
loop_
 _atom_site_type_symbol
 _atom_site_label
 _atom_site_symmetry_multiplicity
 _atom_site_fract_x
 _atom_site_fract_y
 _atom_site_fract_z
 _atom_site_occupancy
  Fe  Fe0  1  0.239540  0.384386  0.000000  1
  Fe  Fe1  1  0.760716  0.614876  0.000000  1
  Fe  Fe2  1  0.260260  0.886139  0.000000  1
  Cu  Cu3  1  0.740882  0.114262  0.000000  1
  Ni  Ni4  1  0.997399  0.001436  0.000000  1
  Ni  Ni5  1  0.499756  0.499680  0.000000  1
  Ni  Ni6  1  0.501570  0.000957  0.500001  1
  Ni  Ni7  1  0.998437  0.217509  0.500001  1
  Ni  Ni8  1  0.502129  0.280752  0.500001  1
  Ni  Ni9  1  0.999992  0.499711  0.500001  1
  Ni  Ni10  1  0.499698  0.718191  0.500001  1
  Ni  Ni11  1  0.999886  0.782777  0.500001  1
  B  B12  1  0.272690  0.139140  0.000000  1
  B  B13  1  0.771984  0.359357  0.000000  1
  B  B14  1  0.226885  0.639540  0.000000  1
  B  B15  1  0.727422  0.861686  0.000000  1
  O  O16  1  0.349337  0.042084  0.000000  1
  O  O17  1  0.124209  0.140980  0.000000  1
  O  O18  1  0.348761  0.236541  0.000000  1
  O  O19  1  0.847666  0.261952  0.000000  1
  O  O20  1  0.623791  0.358815  0.000000  1
  O  O21  1  0.849174  0.456733  0.000000  1
  O  O22  1  0.150748  0.542026  0.000000  1
  O  O23  1  0.375408  0.640831  0.000000  1
  O  O24  1  0.151856  0.737375  0.000000  1
  O  O25  1  0.651954  0.763780  0.000000  1
  O  O26  1  0.875727  0.859852  0.000000  1
  O  O27  1  0.650116  0.958566  0.000000  1
  O  O28  1  0.884153  0.077881  0.500001  1
  O  O29  1  0.608881  0.142650  0.500001  1
  O  O30  1  0.106597  0.355950  0.500001  1
  O  O31  1  0.383232  0.421649  0.500001  1
  O  O32  1  0.617009  0.577576  0.500001  1
  O  O33  1  0.893201  0.643559  0.500001  1
  O  O34  1  0.392917  0.857139  0.500001  1
  O  O35  1  0.116016  0.923662  0.500001  1
