# generated using pymatgen
data_HoEr7Mn(B8Ru)3
_symmetry_space_group_name_H-M   'P 1'
_cell_length_a   3.61536400
_cell_length_b   9.08624026
_cell_length_c   11.46376800
_cell_angle_alpha   89.98516707
_cell_angle_beta   90.00000000
_cell_angle_gamma   90.00000000
_symmetry_Int_Tables_number   1
_chemical_formula_structural   HoEr7Mn(B8Ru)3
_chemical_formula_sum   'Ho1 Er7 Mn1 B24 Ru3'
_cell_volume   376.58552222
_cell_formula_units_Z   1
loop_
 _symmetry_equiv_pos_site_id
 _symmetry_equiv_pos_as_xyz
  1  'x, y, z'
loop_
 _atom_site_type_symbol
 _atom_site_label
 _atom_site_symmetry_multiplicity
 _atom_site_fract_x
 _atom_site_fract_y
 _atom_site_fract_z
 _atom_site_occupancy
  Ho  Ho0  1  0.000000  0.325680  0.412780  1
  Er  Er1  1  0.000000  0.676500  0.581925  1
  Er  Er2  1  0.000000  0.820123  0.088452  1
  Er  Er3  1  0.000000  0.177427  0.915185  1
  Er  Er4  1  0.000000  0.940511  0.371593  1
  Er  Er5  1  0.000000  0.056794  0.627613  1
  Er  Er6  1  0.000000  0.445794  0.130299  1
  Er  Er7  1  0.000000  0.556834  0.871799  1
  Mn  Mn8  1  0.000000  0.638131  0.320844  1
  B  B9  1  0.500000  0.554348  0.431790  1
  B  B10  1  0.500000  0.446834  0.566479  1
  B  B11  1  0.500000  0.053609  0.067185  1
  B  B12  1  0.500000  0.946401  0.933425  1
  B  B13  1  0.500000  0.746511  0.417883  1
  B  B14  1  0.500000  0.251727  0.580049  1
  B  B15  1  0.500000  0.248986  0.080707  1
  B  B16  1  0.500000  0.751664  0.920061  1
  B  B17  1  0.500000  0.789787  0.266427  1
  B  B18  1  0.500000  0.208702  0.734148  1
  B  B19  1  0.500000  0.291816  0.234134  1
  B  B20  1  0.500000  0.708736  0.765671  1
  B  B21  1  0.500000  0.631976  0.186788  1
  B  B22  1  0.500000  0.368213  0.815095  1
  B  B23  1  0.500000  0.131275  0.314704  1
  B  B24  1  0.500000  0.868063  0.684694  1
  B  B25  1  0.500000  0.982294  0.212753  1
  B  B26  1  0.500000  0.017081  0.787628  1
  B  B27  1  0.500000  0.485542  0.288197  1
  B  B28  1  0.500000  0.517198  0.712299  1
  B  B29  1  0.500000  0.607078  0.029802  1
  B  B30  1  0.500000  0.393301  0.970862  1
  B  B31  1  0.500000  0.106592  0.470287  1
  B  B32  1  0.500000  0.892676  0.529225  1
  Ru  Ru33  1  0.000000  0.361703  0.679522  1
  Ru  Ru34  1  0.000000  0.137936  0.178631  1
  Ru  Ru35  1  0.000000  0.862156  0.821066  1
