# generated using pymatgen
data_Li2Si2Pd3Ru
_symmetry_space_group_name_H-M   'P 1'
_cell_length_a   4.13163521
_cell_length_b   6.01251934
_cell_length_c   12.45341539
_cell_angle_alpha   90.24385345
_cell_angle_beta   89.96386324
_cell_angle_gamma   89.99966303
_symmetry_Int_Tables_number   1
_chemical_formula_structural   Li2Si2Pd3Ru
_chemical_formula_sum   'Li6 Si6 Pd9 Ru3'
_cell_volume   309.35911052
_cell_formula_units_Z   3
loop_
 _symmetry_equiv_pos_site_id
 _symmetry_equiv_pos_as_xyz
  1  'x, y, z'
loop_
 _atom_site_type_symbol
 _atom_site_label
 _atom_site_symmetry_multiplicity
 _atom_site_fract_x
 _atom_site_fract_y
 _atom_site_fract_z
 _atom_site_occupancy
  Li  Li0  1  0.000011  0.000831  0.999138  1
  Li  Li1  1  0.499845  0.501387  0.167544  1
  Li  Li2  1  0.999832  0.998824  0.333427  1
  Li  Li3  1  0.499994  0.500741  0.500106  1
  Li  Li4  1  0.000157  0.998186  0.666849  1
  Li  Li5  1  0.500149  0.500819  0.832668  1
  Si  Si6  1  0.000025  0.491899  0.006566  1
  Si  Si7  1  0.499860  0.019624  0.151025  1
  Si  Si8  1  0.999842  0.488422  0.325560  1
  Si  Si9  1  0.499967  0.999073  0.500858  1
  Si  Si10  1  0.000167  0.500447  0.666330  1
  Si  Si11  1  0.500151  0.998144  0.849579  1
  Pd  Pd12  1  0.999825  0.754324  0.168513  1
  Pd  Pd13  1  0.499780  0.245527  0.335280  1
  Pd  Pd14  1  0.499749  0.750695  0.333072  1
  Pd  Pd15  1  0.999928  0.249372  0.500062  1
  Pd  Pd16  1  0.999931  0.747692  0.498032  1
  Pd  Pd17  1  0.500197  0.248686  0.667558  1
  Pd  Pd18  1  0.500260  0.752145  0.668488  1
  Pd  Pd19  1  0.000193  0.250466  0.829981  1
  Pd  Pd20  1  0.000224  0.746967  0.832340  1
  Ru  Ru21  1  0.500037  0.258737  0.997068  1
  Ru  Ru22  1  0.500030  0.747229  0.000400  1
  Ru  Ru23  1  0.999840  0.249771  0.169554  1
