# generated using pymatgen
data_Er7Lu3(SiSn3)2
_symmetry_space_group_name_H-M   'P 1'
_cell_length_a   9.10852100
_cell_length_b   9.10852075
_cell_length_c   6.36896900
_cell_angle_alpha   90.00000000
_cell_angle_beta   90.00000000
_cell_angle_gamma   120.00000454
_symmetry_Int_Tables_number   1
_chemical_formula_structural   Er7Lu3(SiSn3)2
_chemical_formula_sum   'Er7 Lu3 Si2 Sn6'
_cell_volume   457.60995413
_cell_formula_units_Z   1
loop_
 _symmetry_equiv_pos_site_id
 _symmetry_equiv_pos_as_xyz
  1  'x, y, z'
loop_
 _atom_site_type_symbol
 _atom_site_label
 _atom_site_symmetry_multiplicity
 _atom_site_fract_x
 _atom_site_fract_y
 _atom_site_fract_z
 _atom_site_occupancy
  Er  Er0  1  0.666667  0.333333  0.000000  1
  Er  Er1  1  0.746203  0.746340  0.750254  1
  Er  Er2  1  0.253660  0.999862  0.750254  1
  Er  Er3  1  0.000138  0.253797  0.750254  1
  Er  Er4  1  0.253660  0.253797  0.249746  1
  Er  Er5  1  0.746203  0.999862  0.249746  1
  Er  Er6  1  0.000138  0.746340  0.249746  1
  Lu  Lu7  1  0.333333  0.666667  0.000000  1
  Lu  Lu8  1  0.333333  0.666667  0.500000  1
  Lu  Lu9  1  0.666667  0.333333  0.500000  1
  Si  Si10  1  0.000000  0.000000  0.000000  1
  Si  Si11  1  0.000000  0.000000  0.500000  1
  Sn  Sn12  1  0.392473  0.393005  0.749772  1
  Sn  Sn13  1  0.606995  0.999468  0.749772  1
  Sn  Sn14  1  0.000532  0.607527  0.749772  1
  Sn  Sn15  1  0.606995  0.607527  0.250228  1
  Sn  Sn16  1  0.392473  0.999468  0.250228  1
  Sn  Sn17  1  0.000532  0.393005  0.250228  1
