# generated using pymatgen
data_LiFe2Br7
_symmetry_space_group_name_H-M   'P 1'
_cell_length_a   7.46509253
_cell_length_b   7.63344814
_cell_length_c   8.87760247
_cell_angle_alpha   58.08877234
_cell_angle_beta   85.53599326
_cell_angle_gamma   99.18778485
_symmetry_Int_Tables_number   1
_chemical_formula_structural   LiFe2Br7
_chemical_formula_sum   'Li1 Fe2 Br7'
_cell_volume   415.89941312
_cell_formula_units_Z   1
loop_
 _symmetry_equiv_pos_site_id
 _symmetry_equiv_pos_as_xyz
  1  'x, y, z'
loop_
 _atom_site_type_symbol
 _atom_site_label
 _atom_site_symmetry_multiplicity
 _atom_site_fract_x
 _atom_site_fract_y
 _atom_site_fract_z
 _atom_site_occupancy
  Li  Li0  1  0.927668  0.039189  0.849096  1
  Fe  Fe1  1  0.454286  0.858138  0.907095  1
  Fe  Fe2  1  0.026738  0.581211  0.326056  1
  Br  Br3  1  0.304060  0.523695  0.197502  1
  Br  Br4  1  0.588359  0.114126  0.958092  1
  Br  Br5  1  0.235515  0.949235  0.720233  1
  Br  Br6  1  0.056300  0.459670  0.625337  1
  Br  Br7  1  0.032724  0.945749  0.157149  1
  Br  Br8  1  0.776107  0.376566  0.312310  1
  Br  Br9  1  0.701611  0.777226  0.794291  1
