# generated using pymatgen
data_Y16MgHg3(PdPt)2
_symmetry_space_group_name_H-M   'P 1'
_cell_length_a   9.71382421
_cell_length_b   9.72715939
_cell_length_c   9.71114700
_cell_angle_alpha   60.05444275
_cell_angle_beta   60.00912004
_cell_angle_gamma   60.12032917
_symmetry_Int_Tables_number   1
_chemical_formula_structural   Y16MgHg3(PdPt)2
_chemical_formula_sum   'Y16 Mg1 Hg3 Pd2 Pt2'
_cell_volume   649.73145223
_cell_formula_units_Z   1
loop_
 _symmetry_equiv_pos_site_id
 _symmetry_equiv_pos_as_xyz
  1  'x, y, z'
loop_
 _atom_site_type_symbol
 _atom_site_label
 _atom_site_symmetry_multiplicity
 _atom_site_fract_x
 _atom_site_fract_y
 _atom_site_fract_z
 _atom_site_occupancy
  Y  Y0  1  0.604038  0.602959  0.597832  1
  Y  Y1  1  0.604038  0.602959  0.195171  1
  Y  Y2  1  0.609635  0.185692  0.602337  1
  Y  Y3  1  0.173549  0.612891  0.606781  1
  Y  Y4  1  0.058076  0.441266  0.441321  1
  Y  Y5  1  0.437413  0.061050  0.062081  1
  Y  Y6  1  0.437413  0.061050  0.439455  1
  Y  Y7  1  0.058076  0.441266  0.059337  1
  Y  Y8  1  0.439138  0.440616  0.060123  1
  Y  Y9  1  0.058816  0.059926  0.440629  1
  Y  Y10  1  0.185091  0.814974  0.814212  1
  Y  Y11  1  0.813953  0.186236  0.185174  1
  Y  Y12  1  0.813953  0.186236  0.814637  1
  Y  Y13  1  0.185091  0.814974  0.185723  1
  Y  Y14  1  0.815076  0.815254  0.184836  1
  Y  Y15  1  0.185424  0.186471  0.814053  1
  Mg  Mg16  1  0.534083  0.819748  0.823084  1
  Hg  Hg17  1  0.832323  0.838195  0.840209  1
  Hg  Hg18  1  0.832323  0.838195  0.489273  1
  Hg  Hg19  1  0.831235  0.489191  0.839787  1
  Pd  Pd20  1  0.391202  0.395058  0.399284  1
  Pd  Pd21  1  0.391202  0.395058  0.814457  1
  Pt  Pt22  1  0.388481  0.819296  0.396112  1
  Pt  Pt23  1  0.820371  0.391442  0.394094  1
