# generated using pymatgen
data_AcYb2(AgSn)3
_symmetry_space_group_name_H-M   'P 1'
_cell_length_a   4.88951300
_cell_length_b   4.88951234
_cell_length_c   11.25560900
_cell_angle_alpha   90.00000000
_cell_angle_beta   90.00000000
_cell_angle_gamma   119.99999768
_symmetry_Int_Tables_number   1
_chemical_formula_structural   AcYb2(AgSn)3
_chemical_formula_sum   'Ac1 Yb2 Ag3 Sn3'
_cell_volume   233.04017183
_cell_formula_units_Z   1
loop_
 _symmetry_equiv_pos_site_id
 _symmetry_equiv_pos_as_xyz
  1  'x, y, z'
loop_
 _atom_site_type_symbol
 _atom_site_label
 _atom_site_symmetry_multiplicity
 _atom_site_fract_x
 _atom_site_fract_y
 _atom_site_fract_z
 _atom_site_occupancy
  Ac  Ac0  1  0.666667  0.333333  0.665074  1
  Yb  Yb1  1  0.666667  0.333333  0.009517  1
  Yb  Yb2  1  0.666667  0.333333  0.322609  1
  Ag  Ag3  1  0.000000  0.000000  0.842993  1
  Ag  Ag4  1  0.000000  0.000000  0.184262  1
  Ag  Ag5  1  0.333333  0.666667  0.471559  1
  Sn  Sn6  1  0.333333  0.666667  0.866237  1
  Sn  Sn7  1  0.000000  0.000000  0.489047  1
  Sn  Sn8  1  0.333333  0.666667  0.148702  1
