# generated using pymatgen
data_Zr2TaW3
_symmetry_space_group_name_H-M   'P 1'
_cell_length_a   5.42393792
_cell_length_b   5.42393894
_cell_length_c   5.49284979
_cell_angle_alpha   60.41414943
_cell_angle_beta   60.41414582
_cell_angle_gamma   60.00000593
_symmetry_Int_Tables_number   1
_chemical_formula_structural   Zr2TaW3
_chemical_formula_sum   'Zr2 Ta1 W3'
_cell_volume   114.97480571
_cell_formula_units_Z   1
loop_
 _symmetry_equiv_pos_site_id
 _symmetry_equiv_pos_as_xyz
  1  'x, y, z'
loop_
 _atom_site_type_symbol
 _atom_site_label
 _atom_site_symmetry_multiplicity
 _atom_site_fract_x
 _atom_site_fract_y
 _atom_site_fract_z
 _atom_site_occupancy
  Zr  Zr0  1  0.749414  0.749414  0.751757  1
  Zr  Zr1  1  0.500586  0.500586  0.498243  1
  Ta  Ta2  1  0.125000  0.125000  0.625000  1
  W  W3  1  0.125000  0.625000  0.125000  1
  W  W4  1  0.625000  0.125000  0.125000  1
  W  W5  1  0.125000  0.125000  0.125000  1
