# generated using pymatgen
data_V(SeF6)2
_symmetry_space_group_name_H-M   'P 1'
_cell_length_a   6.22476400
_cell_length_b   7.72085400
_cell_length_c   9.85716400
_cell_angle_alpha   90.00000000
_cell_angle_beta   90.00000000
_cell_angle_gamma   90.00000000
_symmetry_Int_Tables_number   1
_chemical_formula_structural   V(SeF6)2
_chemical_formula_sum   'V2 Se4 F24'
_cell_volume   473.74017156
_cell_formula_units_Z   2
loop_
 _symmetry_equiv_pos_site_id
 _symmetry_equiv_pos_as_xyz
  1  'x, y, z'
loop_
 _atom_site_type_symbol
 _atom_site_label
 _atom_site_symmetry_multiplicity
 _atom_site_fract_x
 _atom_site_fract_y
 _atom_site_fract_z
 _atom_site_occupancy
  V  V0  1  0.000000  0.500000  0.000000  1
  V  V1  1  0.500000  0.000000  0.500000  1
  Se  Se2  1  0.500000  0.582831  0.239309  1
  Se  Se3  1  0.500000  0.417169  0.760691  1
  Se  Se4  1  0.000000  0.082831  0.260691  1
  Se  Se5  1  0.000000  0.917169  0.739309  1
  F  F6  1  0.216472  0.371848  0.912520  1
  F  F7  1  0.216472  0.628152  0.087480  1
  F  F8  1  0.283528  0.871848  0.587480  1
  F  F9  1  0.283528  0.128152  0.412520  1
  F  F10  1  0.783528  0.628152  0.087480  1
  F  F11  1  0.783528  0.371848  0.912520  1
  F  F12  1  0.797958  0.971897  0.853205  1
  F  F13  1  0.797958  0.028103  0.146795  1
  F  F14  1  0.702042  0.471897  0.646795  1
  F  F15  1  0.702042  0.528103  0.353205  1
  F  F16  1  0.202042  0.028103  0.146795  1
  F  F17  1  0.202042  0.971897  0.853205  1
  F  F18  1  0.297958  0.528103  0.353205  1
  F  F19  1  0.297958  0.471897  0.646795  1
  F  F20  1  0.000000  0.655146  0.850497  1
  F  F21  1  0.000000  0.344854  0.149503  1
  F  F22  1  0.500000  0.155146  0.649503  1
  F  F23  1  0.500000  0.844854  0.350497  1
  F  F24  1  0.500000  0.624684  0.830895  1
  F  F25  1  0.500000  0.375316  0.169105  1
  F  F26  1  0.000000  0.124684  0.669105  1
  F  F27  1  0.000000  0.875316  0.330895  1
  F  F28  1  0.716472  0.871848  0.587480  1
  F  F29  1  0.716472  0.128152  0.412520  1
