# generated using pymatgen
data_Ba4Mn3FeN8
_symmetry_space_group_name_H-M   'P 1'
_cell_length_a   6.43171517
_cell_length_b   6.43171413
_cell_length_c   7.78666559
_cell_angle_alpha   90.19680654
_cell_angle_beta   89.80319109
_cell_angle_gamma   125.75016012
_symmetry_Int_Tables_number   1
_chemical_formula_structural   Ba4Mn3FeN8
_chemical_formula_sum   'Ba4 Mn3 Fe1 N8'
_cell_volume   261.41413568
_cell_formula_units_Z   1
loop_
 _symmetry_equiv_pos_site_id
 _symmetry_equiv_pos_as_xyz
  1  'x, y, z'
loop_
 _atom_site_type_symbol
 _atom_site_label
 _atom_site_symmetry_multiplicity
 _atom_site_fract_x
 _atom_site_fract_y
 _atom_site_fract_z
 _atom_site_occupancy
  Ba  Ba0  1  0.841589  0.158411  0.559156  1
  Ba  Ba1  1  0.155083  0.844917  0.442505  1
  Ba  Ba2  1  0.656754  0.343246  0.056854  1
  Ba  Ba3  1  0.344858  0.655142  0.938874  1
  Mn  Mn4  1  0.452059  0.547941  0.367242  1
  Mn  Mn5  1  0.950166  0.049834  0.135267  1
  Mn  Mn6  1  0.050479  0.949521  0.866617  1
  Fe  Fe7  1  0.550299  0.449701  0.633361  1
  N  N8  1  0.889888  0.110112  0.916940  1
  N  N9  1  0.110516  0.889484  0.085911  1
  N  N10  1  0.610483  0.389517  0.408548  1
  N  N11  1  0.387211  0.612789  0.581407  1
  N  N12  1  0.330548  0.157986  0.754757  1
  N  N13  1  0.165869  0.337815  0.248903  1
  N  N14  1  0.662185  0.834131  0.248903  1
  N  N15  1  0.842014  0.669452  0.754757  1
