# generated using pymatgen
data_Ho8Al2ZnSi3B16
_symmetry_space_group_name_H-M   'P 1'
_cell_length_a   7.13920157
_cell_length_b   7.13920157
_cell_length_c   7.65798900
_cell_angle_alpha   90.00000000
_cell_angle_beta   90.00000000
_cell_angle_gamma   89.69936381
_symmetry_Int_Tables_number   1
_chemical_formula_structural   Ho8Al2ZnSi3B16
_chemical_formula_sum   'Ho8 Al2 Zn1 Si3 B16'
_cell_volume   390.30853463
_cell_formula_units_Z   1
loop_
 _symmetry_equiv_pos_site_id
 _symmetry_equiv_pos_as_xyz
  1  'x, y, z'
loop_
 _atom_site_type_symbol
 _atom_site_label
 _atom_site_symmetry_multiplicity
 _atom_site_fract_x
 _atom_site_fract_y
 _atom_site_fract_z
 _atom_site_occupancy
  Ho  Ho0  1  0.682614  0.182614  0.234831  1
  Ho  Ho1  1  0.319959  0.819959  0.766573  1
  Ho  Ho2  1  0.319959  0.819959  0.233427  1
  Ho  Ho3  1  0.814798  0.682341  0.232925  1
  Ho  Ho4  1  0.814798  0.682341  0.767075  1
  Ho  Ho5  1  0.682614  0.182614  0.765169  1
  Ho  Ho6  1  0.182341  0.314798  0.767075  1
  Ho  Ho7  1  0.182341  0.314798  0.232925  1
  Al  Al8  1  0.000653  0.995996  0.500000  1
  Al  Al9  1  0.495996  0.500653  0.500000  1
  Zn  Zn10  1  0.121049  0.621049  0.500000  1
  Si  Si11  1  0.883366  0.383366  0.500000  1
  Si  Si12  1  0.383357  0.118274  0.500000  1
  Si  Si13  1  0.618274  0.883357  0.500000  1
  B  B14  1  0.173191  0.039798  0.000000  1
  B  B15  1  0.826215  0.960237  0.000000  1
  B  B16  1  0.958424  0.173625  0.000000  1
  B  B17  1  0.326619  0.540870  0.000000  1
  B  B18  1  0.040870  0.826619  0.000000  1
  B  B19  1  0.673625  0.458424  0.000000  1
  B  B20  1  0.539798  0.673191  0.000000  1
  B  B21  1  0.460237  0.326215  0.000000  1
  B  B22  1  0.089729  0.589729  0.000000  1
  B  B23  1  0.910347  0.410347  0.000000  1
  B  B24  1  0.409899  0.089900  0.000000  1
  B  B25  1  0.589900  0.909899  0.000000  1
  B  B26  1  0.999764  0.999749  0.168338  1
  B  B27  1  0.999764  0.999749  0.831662  1
  B  B28  1  0.499749  0.499764  0.831662  1
  B  B29  1  0.499749  0.499764  0.168338  1
