# generated using pymatgen
data_TbSm3Er2(Si3Ru)8
_symmetry_space_group_name_H-M   'P 1'
_cell_length_a   10.13066340
_cell_length_b   10.13066246
_cell_length_c   8.16750631
_cell_angle_alpha   90.05258472
_cell_angle_beta   89.94741550
_cell_angle_gamma   132.47586400
_symmetry_Int_Tables_number   1
_chemical_formula_structural   TbSm3Er2(Si3Ru)8
_chemical_formula_sum   'Tb1 Sm3 Er2 Si24 Ru8'
_cell_volume   618.24903254
_cell_formula_units_Z   1
loop_
 _symmetry_equiv_pos_site_id
 _symmetry_equiv_pos_as_xyz
  1  'x, y, z'
loop_
 _atom_site_type_symbol
 _atom_site_label
 _atom_site_symmetry_multiplicity
 _atom_site_fract_x
 _atom_site_fract_y
 _atom_site_fract_z
 _atom_site_occupancy
  Tb  Tb0  1  0.497667  0.997667  0.250000  1
  Sm  Sm1  1  0.002485  0.502485  0.750000  1
  Sm  Sm2  1  0.502640  0.002640  0.750000  1
  Sm  Sm3  1  0.997270  0.497270  0.250000  1
  Er  Er4  1  0.499979  0.499934  0.499820  1
  Er  Er5  1  0.999934  0.999979  0.000180  1
  Si  Si6  1  0.387024  0.153665  0.005576  1
  Si  Si7  1  0.653665  0.887024  0.494424  1
  Si  Si8  1  0.111487  0.343322  0.503271  1
  Si  Si9  1  0.843322  0.611487  0.996729  1
  Si  Si10  1  0.613146  0.846450  0.994830  1
  Si  Si11  1  0.346450  0.113146  0.505170  1
  Si  Si12  1  0.888499  0.656617  0.495922  1
  Si  Si13  1  0.156617  0.388499  0.004078  1
  Si  Si14  1  0.611180  0.377596  0.228252  1
  Si  Si15  1  0.877596  0.111180  0.271748  1
  Si  Si16  1  0.886621  0.119865  0.728357  1
  Si  Si17  1  0.619865  0.386621  0.771643  1
  Si  Si18  1  0.388908  0.622123  0.771685  1
  Si  Si19  1  0.122123  0.888908  0.728315  1
  Si  Si20  1  0.703614  0.292894  0.000626  1
  Si  Si21  1  0.792894  0.203614  0.499374  1
  Si  Si22  1  0.296412  0.707031  0.001322  1
  Si  Si23  1  0.207031  0.796412  0.498678  1
  Si  Si24  1  0.168631  0.167199  0.332869  1
  Si  Si25  1  0.667199  0.668631  0.167131  1
  Si  Si26  1  0.332215  0.332096  0.832866  1
  Si  Si27  1  0.832096  0.832215  0.667134  1
  Si  Si28  1  0.380009  0.613136  0.228751  1
  Si  Si29  1  0.113136  0.880009  0.271249  1
  Ru  Ru30  1  0.625495  0.625451  0.873570  1
  Ru  Ru31  1  0.125451  0.125495  0.626430  1
  Ru  Ru32  1  0.874273  0.874896  0.373516  1
  Ru  Ru33  1  0.374896  0.374273  0.126484  1
  Ru  Ru34  1  0.330644  0.666247  0.499953  1
  Ru  Ru35  1  0.166247  0.830644  0.000047  1
  Ru  Ru36  1  0.669320  0.333960  0.499195  1
  Ru  Ru37  1  0.833960  0.169320  0.000805  1
