# generated using pymatgen
data_LaPa2(ZnPt)4
_symmetry_space_group_name_H-M   'P 1'
_cell_length_a   8.34171386
_cell_length_b   8.34171380
_cell_length_c   8.34171402
_cell_angle_alpha   153.03641547
_cell_angle_beta   122.74420905
_cell_angle_gamma   64.39373608
_symmetry_Int_Tables_number   1
_chemical_formula_structural   LaPa2(ZnPt)4
_chemical_formula_sum   'La1 Pa2 Zn4 Pt4'
_cell_volume   219.46433056
_cell_formula_units_Z   1
loop_
 _symmetry_equiv_pos_site_id
 _symmetry_equiv_pos_as_xyz
  1  'x, y, z'
loop_
 _atom_site_type_symbol
 _atom_site_label
 _atom_site_symmetry_multiplicity
 _atom_site_fract_x
 _atom_site_fract_y
 _atom_site_fract_z
 _atom_site_occupancy
  La  La0  1  0.500000  0.000000  0.500000  1
  Pa  Pa1  1  0.874065  0.874065  0.000000  1
  Pa  Pa2  1  0.125935  0.125935  0.000000  1
  Zn  Zn3  1  0.474315  0.675000  0.799315  1
  Zn  Zn4  1  0.875685  0.675000  0.200685  1
  Zn  Zn5  1  0.124315  0.325000  0.799315  1
  Zn  Zn6  1  0.525685  0.325000  0.200685  1
  Pt  Pt7  1  0.271978  0.771978  0.500000  1
  Pt  Pt8  1  0.728022  0.228022  0.500000  1
  Pt  Pt9  1  0.818765  0.500000  0.318765  1
  Pt  Pt10  1  0.181235  0.500000  0.681235  1
