# generated using pymatgen
data_Nd3Th5S12
_symmetry_space_group_name_H-M   'P 1'
_cell_length_a   3.99040800
_cell_length_b   10.76292782
_cell_length_c   10.92364777
_cell_angle_alpha   89.95612634
_cell_angle_beta   90.00000000
_cell_angle_gamma   90.00000000
_symmetry_Int_Tables_number   1
_chemical_formula_structural   Nd3Th5S12
_chemical_formula_sum   'Nd3 Th5 S12'
_cell_volume   469.15385677
_cell_formula_units_Z   1
loop_
 _symmetry_equiv_pos_site_id
 _symmetry_equiv_pos_as_xyz
  1  'x, y, z'
loop_
 _atom_site_type_symbol
 _atom_site_label
 _atom_site_symmetry_multiplicity
 _atom_site_fract_x
 _atom_site_fract_y
 _atom_site_fract_z
 _atom_site_occupancy
  Nd  Nd0  1  0.250000  0.009713  0.307662  1
  Nd  Nd1  1  0.750000  0.989174  0.691721  1
  Nd  Nd2  1  0.750000  0.508268  0.193195  1
  Th  Th3  1  0.250000  0.493728  0.805437  1
  Th  Th4  1  0.250000  0.685552  0.485358  1
  Th  Th5  1  0.750000  0.314251  0.515511  1
  Th  Th6  1  0.750000  0.184348  0.016399  1
  Th  Th7  1  0.250000  0.813820  0.985360  1
  S  S8  1  0.250000  0.055370  0.877974  1
  S  S9  1  0.750000  0.943841  0.121423  1
  S  S10  1  0.750000  0.555860  0.623015  1
  S  S11  1  0.250000  0.444748  0.378606  1
  S  S12  1  0.250000  0.127371  0.551007  1
  S  S13  1  0.750000  0.872055  0.449810  1
  S  S14  1  0.750000  0.626143  0.946893  1
  S  S15  1  0.250000  0.374339  0.047064  1
  S  S16  1  0.250000  0.704135  0.223558  1
  S  S17  1  0.750000  0.299841  0.778835  1
  S  S18  1  0.750000  0.205933  0.275479  1
  S  S19  1  0.250000  0.791508  0.725694  1
