# generated using pymatgen
data_DyCo3CuNiP3
_symmetry_space_group_name_H-M   'P 1'
_cell_length_a   3.71674000
_cell_length_b   10.27956100
_cell_length_c   11.93541800
_cell_angle_alpha   90.00000000
_cell_angle_beta   90.00000000
_cell_angle_gamma   90.00000000
_symmetry_Int_Tables_number   1
_chemical_formula_structural   DyCo3CuNiP3
_chemical_formula_sum   'Dy4 Co12 Cu4 Ni4 P12'
_cell_volume   456.01001730
_cell_formula_units_Z   4
loop_
 _symmetry_equiv_pos_site_id
 _symmetry_equiv_pos_as_xyz
  1  'x, y, z'
loop_
 _atom_site_type_symbol
 _atom_site_label
 _atom_site_symmetry_multiplicity
 _atom_site_fract_x
 _atom_site_fract_y
 _atom_site_fract_z
 _atom_site_occupancy
  Dy  Dy0  1  0.250000  0.580396  0.704589  1
  Dy  Dy1  1  0.250000  0.919604  0.204589  1
  Dy  Dy2  1  0.750000  0.419604  0.295411  1
  Dy  Dy3  1  0.750000  0.080396  0.795411  1
  Co  Co4  1  0.250000  0.221799  0.173005  1
  Co  Co5  1  0.250000  0.278201  0.673005  1
  Co  Co6  1  0.750000  0.778201  0.826995  1
  Co  Co7  1  0.750000  0.721799  0.326995  1
  Co  Co8  1  0.250000  0.879794  0.697497  1
  Co  Co9  1  0.250000  0.620206  0.197497  1
  Co  Co10  1  0.750000  0.120206  0.302503  1
  Co  Co11  1  0.750000  0.379794  0.802503  1
  Co  Co12  1  0.250000  0.466103  0.933809  1
  Co  Co13  1  0.250000  0.033897  0.433809  1
  Co  Co14  1  0.750000  0.533897  0.066191  1
  Co  Co15  1  0.750000  0.966103  0.566191  1
  Cu  Cu16  1  0.250000  0.710357  0.990028  1
  Cu  Cu17  1  0.250000  0.789643  0.490028  1
  Cu  Cu18  1  0.750000  0.289643  0.009972  1
  Cu  Cu19  1  0.750000  0.210357  0.509972  1
  Ni  Ni20  1  0.250000  0.406764  0.483857  1
  Ni  Ni21  1  0.250000  0.093236  0.983857  1
  Ni  Ni22  1  0.750000  0.593236  0.516143  1
  Ni  Ni23  1  0.750000  0.906764  0.016143  1
  P  P24  1  0.250000  0.423442  0.115253  1
  P  P25  1  0.250000  0.076558  0.615253  1
  P  P26  1  0.750000  0.576558  0.884747  1
  P  P27  1  0.750000  0.923442  0.384747  1
  P  P28  1  0.250000  0.272427  0.858425  1
  P  P29  1  0.250000  0.227573  0.358425  1
  P  P30  1  0.750000  0.727573  0.141575  1
  P  P31  1  0.750000  0.772427  0.641575  1
  P  P32  1  0.250000  0.602581  0.387150  1
  P  P33  1  0.250000  0.897419  0.887150  1
  P  P34  1  0.750000  0.397419  0.612850  1
  P  P35  1  0.750000  0.102581  0.112850  1
