# generated using pymatgen
data_PrDyTeO6
_symmetry_space_group_name_H-M   'P 1'
_cell_length_a   5.45391300
_cell_length_b   9.32284600
_cell_length_c   10.18356700
_cell_angle_alpha   90.00000000
_cell_angle_beta   90.00000000
_cell_angle_gamma   90.00000000
_symmetry_Int_Tables_number   1
_chemical_formula_structural   PrDyTeO6
_chemical_formula_sum   'Pr4 Dy4 Te4 O24'
_cell_volume   517.79355599
_cell_formula_units_Z   4
loop_
 _symmetry_equiv_pos_site_id
 _symmetry_equiv_pos_as_xyz
  1  'x, y, z'
loop_
 _atom_site_type_symbol
 _atom_site_label
 _atom_site_symmetry_multiplicity
 _atom_site_fract_x
 _atom_site_fract_y
 _atom_site_fract_z
 _atom_site_occupancy
  Pr  Pr0  1  0.532237  0.219848  0.359170  1
  Pr  Pr1  1  0.032237  0.280152  0.640830  1
  Pr  Pr2  1  0.467763  0.719848  0.140830  1
  Pr  Pr3  1  0.967763  0.780152  0.859170  1
  Dy  Dy4  1  0.521946  0.103610  0.956072  1
  Dy  Dy5  1  0.021946  0.396390  0.043928  1
  Dy  Dy6  1  0.478054  0.603610  0.543928  1
  Dy  Dy7  1  0.978054  0.896390  0.456072  1
  Te  Te8  1  0.463980  0.990378  0.642041  1
  Te  Te9  1  0.963980  0.509622  0.357959  1
  Te  Te10  1  0.536020  0.490378  0.857959  1
  Te  Te11  1  0.036020  0.009622  0.142041  1
  O  O12  1  0.308450  0.143214  0.168884  1
  O  O13  1  0.808450  0.356786  0.831116  1
  O  O14  1  0.691550  0.643214  0.331116  1
  O  O15  1  0.191550  0.856786  0.668884  1
  O  O16  1  0.725246  0.107825  0.561612  1
  O  O17  1  0.225246  0.392175  0.438388  1
  O  O18  1  0.274754  0.607825  0.938388  1
  O  O19  1  0.774754  0.892175  0.061612  1
  O  O20  1  0.674745  0.634390  0.742645  1
  O  O21  1  0.174745  0.865610  0.257355  1
  O  O22  1  0.325255  0.134390  0.757355  1
  O  O23  1  0.825255  0.365610  0.242645  1
  O  O24  1  0.665654  0.950006  0.793178  1
  O  O25  1  0.165654  0.549994  0.206822  1
  O  O26  1  0.334346  0.450006  0.706822  1
  O  O27  1  0.834346  0.049994  0.293178  1
  O  O28  1  0.254043  0.076207  0.503467  1
  O  O29  1  0.754043  0.423793  0.496533  1
  O  O30  1  0.745957  0.576207  0.996533  1
  O  O31  1  0.245957  0.923793  0.003467  1
  O  O32  1  0.099791  0.660514  0.468914  1
  O  O33  1  0.599791  0.839486  0.531086  1
  O  O34  1  0.900209  0.160514  0.031086  1
  O  O35  1  0.400209  0.339486  0.968914  1
