# generated using pymatgen
data_Ba3DyEr2LuO9
_symmetry_space_group_name_H-M   'P 1'
_cell_length_a   9.14952940
_cell_length_b   9.14952878
_cell_length_c   9.14952798
_cell_angle_alpha   38.93067459
_cell_angle_beta   38.93067113
_cell_angle_gamma   38.93068068
_symmetry_Int_Tables_number   1
_chemical_formula_structural   Ba3DyEr2LuO9
_chemical_formula_sum   'Ba3 Dy1 Er2 Lu1 O9'
_cell_volume   271.95432181
_cell_formula_units_Z   1
loop_
 _symmetry_equiv_pos_site_id
 _symmetry_equiv_pos_as_xyz
  1  'x, y, z'
loop_
 _atom_site_type_symbol
 _atom_site_label
 _atom_site_symmetry_multiplicity
 _atom_site_fract_x
 _atom_site_fract_y
 _atom_site_fract_z
 _atom_site_occupancy
  Ba  Ba0  1  0.996977  0.996977  0.996977  1
  Ba  Ba1  1  0.162818  0.162818  0.162818  1
  Ba  Ba2  1  0.587782  0.587782  0.587782  1
  Dy  Dy3  1  0.422345  0.422345  0.422345  1
  Er  Er4  1  0.861299  0.861299  0.861299  1
  Er  Er5  1  0.735901  0.735901  0.735901  1
  Lu  Lu6  1  0.297146  0.297146  0.297146  1
  O  O7  1  0.032610  0.127954  0.579665  1
  O  O8  1  0.127954  0.579665  0.032610  1
  O  O9  1  0.579665  0.032610  0.127954  1
  O  O10  1  0.583284  0.116202  0.703008  1
  O  O11  1  0.116202  0.703008  0.583284  1
  O  O12  1  0.703008  0.583284  0.116202  1
  O  O13  1  0.481930  0.031444  0.548335  1
  O  O14  1  0.031444  0.548335  0.481930  1
  O  O15  1  0.548335  0.481930  0.031444  1
