# generated using pymatgen
data_TbTaB6Ru
_symmetry_space_group_name_H-M   'P 1'
_cell_length_a   3.48939600
_cell_length_b   9.00688500
_cell_length_c   11.29041600
_cell_angle_alpha   90.00000000
_cell_angle_beta   90.00000000
_cell_angle_gamma   90.00000000
_symmetry_Int_Tables_number   1
_chemical_formula_structural   TbTaB6Ru
_chemical_formula_sum   'Tb4 Ta4 B24 Ru4'
_cell_volume   354.84183836
_cell_formula_units_Z   4
loop_
 _symmetry_equiv_pos_site_id
 _symmetry_equiv_pos_as_xyz
  1  'x, y, z'
loop_
 _atom_site_type_symbol
 _atom_site_label
 _atom_site_symmetry_multiplicity
 _atom_site_fract_x
 _atom_site_fract_y
 _atom_site_fract_z
 _atom_site_occupancy
  Tb  Tb0  1  0.000000  0.323457  0.413356  1
  Tb  Tb1  1  0.000000  0.676543  0.586644  1
  Tb  Tb2  1  0.000000  0.823457  0.086644  1
  Tb  Tb3  1  0.000000  0.176543  0.913356  1
  Ta  Ta4  1  0.000000  0.946660  0.375217  1
  Ta  Ta5  1  0.000000  0.053340  0.624783  1
  Ta  Ta6  1  0.000000  0.446660  0.124783  1
  Ta  Ta7  1  0.000000  0.553340  0.875217  1
  B  B8  1  0.500000  0.554886  0.433686  1
  B  B9  1  0.500000  0.445114  0.566314  1
  B  B10  1  0.500000  0.054886  0.066314  1
  B  B11  1  0.500000  0.945114  0.933686  1
  B  B12  1  0.500000  0.755124  0.418120  1
  B  B13  1  0.500000  0.244876  0.581880  1
  B  B14  1  0.500000  0.255124  0.081880  1
  B  B15  1  0.500000  0.744876  0.918120  1
  B  B16  1  0.500000  0.798967  0.263035  1
  B  B17  1  0.500000  0.201033  0.736965  1
  B  B18  1  0.500000  0.298967  0.236965  1
  B  B19  1  0.500000  0.701033  0.763035  1
  B  B20  1  0.500000  0.629571  0.181130  1
  B  B21  1  0.500000  0.370429  0.818870  1
  B  B22  1  0.500000  0.129571  0.318870  1
  B  B23  1  0.500000  0.870429  0.681130  1
  B  B24  1  0.500000  0.981439  0.214425  1
  B  B25  1  0.500000  0.018561  0.785575  1
  B  B26  1  0.500000  0.481439  0.285575  1
  B  B27  1  0.500000  0.518561  0.714425  1
  B  B28  1  0.500000  0.599469  0.026215  1
  B  B29  1  0.500000  0.400531  0.973785  1
  B  B30  1  0.500000  0.099469  0.473785  1
  B  B31  1  0.500000  0.900531  0.526215  1
  Ru  Ru32  1  0.000000  0.644540  0.317009  1
  Ru  Ru33  1  0.000000  0.355460  0.682991  1
  Ru  Ru34  1  0.000000  0.144540  0.182991  1
  Ru  Ru35  1  0.000000  0.855460  0.817009  1
