# generated using pymatgen
data_Zr6V7Re4Tc
_symmetry_space_group_name_H-M   'P 1'
_cell_length_a   5.22491927
_cell_length_b   5.23377003
_cell_length_c   12.90298600
_cell_angle_alpha   90.09871073
_cell_angle_beta   89.83197838
_cell_angle_gamma   119.56166393
_symmetry_Int_Tables_number   1
_chemical_formula_structural   Zr6V7Re4Tc
_chemical_formula_sum   'Zr6 V7 Re4 Tc1'
_cell_volume   306.91248518
_cell_formula_units_Z   1
loop_
 _symmetry_equiv_pos_site_id
 _symmetry_equiv_pos_as_xyz
  1  'x, y, z'
loop_
 _atom_site_type_symbol
 _atom_site_label
 _atom_site_symmetry_multiplicity
 _atom_site_fract_x
 _atom_site_fract_y
 _atom_site_fract_z
 _atom_site_occupancy
  Zr  Zr0  1  0.334029  0.664956  0.916957  1
  Zr  Zr1  1  0.000938  0.001167  0.249362  1
  Zr  Zr2  1  0.666754  0.333082  0.583248  1
  Zr  Zr3  1  0.333246  0.666918  0.666752  1
  Zr  Zr4  1  0.999062  0.998833  0.000637  1
  Zr  Zr5  1  0.665971  0.335044  0.333043  1
  V  V6  1  0.167411  0.335436  0.457912  1
  V  V7  1  0.832589  0.664564  0.792088  1
  V  V8  1  0.332975  0.668752  0.293367  1
  V  V9  1  0.667025  0.331248  0.956633  1
  V  V10  1  0.000000  0.500000  0.125000  1
  V  V11  1  0.665486  0.833312  0.458142  1
  V  V12  1  0.334514  0.166688  0.791858  1
  Re  Re13  1  0.500000  0.500000  0.125000  1
  Re  Re14  1  0.167793  0.832308  0.456772  1
  Re  Re15  1  0.832207  0.167692  0.793228  1
  Re  Re16  1  0.500000  0.000000  0.125000  1
  Tc  Tc17  1  0.000000  0.000000  0.625000  1
