# generated using pymatgen
data_La3V(Ga3Pd)8
_symmetry_space_group_name_H-M   'P 1'
_cell_length_a   8.57717151
_cell_length_b   8.57717189
_cell_length_c   8.57717113
_cell_angle_alpha   89.98860613
_cell_angle_beta   89.98860968
_cell_angle_gamma   89.98861130
_symmetry_Int_Tables_number   1
_chemical_formula_structural   La3V(Ga3Pd)8
_chemical_formula_sum   'La3 V1 Ga24 Pd8'
_cell_volume   631.00421035
_cell_formula_units_Z   1
loop_
 _symmetry_equiv_pos_site_id
 _symmetry_equiv_pos_as_xyz
  1  'x, y, z'
loop_
 _atom_site_type_symbol
 _atom_site_label
 _atom_site_symmetry_multiplicity
 _atom_site_fract_x
 _atom_site_fract_y
 _atom_site_fract_z
 _atom_site_occupancy
  La  La0  1  0.000000  0.500000  0.000000  1
  La  La1  1  0.500000  0.000000  0.000000  1
  La  La2  1  0.000000  0.000000  0.500000  1
  V  V3  1  0.500000  0.500000  0.500000  1
  Ga  Ga4  1  0.989210  0.642184  0.642184  1
  Ga  Ga5  1  0.642184  0.642184  0.989210  1
  Ga  Ga6  1  0.642184  0.989210  0.642184  1
  Ga  Ga7  1  0.010790  0.357816  0.357816  1
  Ga  Ga8  1  0.357816  0.357816  0.010790  1
  Ga  Ga9  1  0.357816  0.010790  0.357816  1
  Ga  Ga10  1  0.732585  0.500000  0.267415  1
  Ga  Ga11  1  0.267415  0.500000  0.732585  1
  Ga  Ga12  1  0.500000  0.267415  0.732585  1
  Ga  Ga13  1  0.500000  0.732585  0.267415  1
  Ga  Ga14  1  0.267415  0.732585  0.500000  1
  Ga  Ga15  1  0.732585  0.267415  0.500000  1
  Ga  Ga16  1  0.838560  0.144081  0.838560  1
  Ga  Ga17  1  0.144081  0.838560  0.838560  1
  Ga  Ga18  1  0.838560  0.838560  0.144081  1
  Ga  Ga19  1  0.161440  0.855919  0.161440  1
  Ga  Ga20  1  0.855919  0.161440  0.161440  1
  Ga  Ga21  1  0.161440  0.161440  0.855919  1
  Ga  Ga22  1  0.724296  0.489320  0.724296  1
  Ga  Ga23  1  0.489320  0.724296  0.724296  1
  Ga  Ga24  1  0.724296  0.724296  0.489320  1
  Ga  Ga25  1  0.275704  0.510680  0.275704  1
  Ga  Ga26  1  0.510680  0.275704  0.275704  1
  Ga  Ga27  1  0.275704  0.275704  0.510680  1
  Pd  Pd28  1  0.837287  0.837287  0.837287  1
  Pd  Pd29  1  0.162713  0.162713  0.162713  1
  Pd  Pd30  1  0.663471  0.336529  0.000000  1
  Pd  Pd31  1  0.000000  0.336529  0.663471  1
  Pd  Pd32  1  0.336529  0.000000  0.663471  1
  Pd  Pd33  1  0.336529  0.663471  0.000000  1
  Pd  Pd34  1  0.000000  0.663471  0.336529  1
  Pd  Pd35  1  0.663471  0.000000  0.336529  1
