# generated using pymatgen
data_Yb3Tm2(Ni2Sn5)2
_symmetry_space_group_name_H-M   'P 1'
_cell_length_a   13.92699600
_cell_length_b   13.92699600
_cell_length_c   4.44340100
_cell_angle_alpha   90.00000000
_cell_angle_beta   90.00000000
_cell_angle_gamma   90.00000000
_symmetry_Int_Tables_number   1
_chemical_formula_structural   Yb3Tm2(Ni2Sn5)2
_chemical_formula_sum   'Yb6 Tm4 Ni8 Sn20'
_cell_volume   861.84746817
_cell_formula_units_Z   2
loop_
 _symmetry_equiv_pos_site_id
 _symmetry_equiv_pos_as_xyz
  1  'x, y, z'
loop_
 _atom_site_type_symbol
 _atom_site_label
 _atom_site_symmetry_multiplicity
 _atom_site_fract_x
 _atom_site_fract_y
 _atom_site_fract_z
 _atom_site_occupancy
  Yb  Yb0  1  0.000000  0.000000  0.000000  1
  Yb  Yb1  1  0.500000  0.500000  0.000000  1
  Yb  Yb2  1  0.892466  0.607534  0.500000  1
  Yb  Yb3  1  0.107534  0.392466  0.500000  1
  Yb  Yb4  1  0.392466  0.892466  0.500000  1
  Yb  Yb5  1  0.607534  0.107534  0.500000  1
  Tm  Tm6  1  0.179221  0.679221  0.500000  1
  Tm  Tm7  1  0.820779  0.320779  0.500000  1
  Tm  Tm8  1  0.679221  0.820779  0.500000  1
  Tm  Tm9  1  0.320779  0.179221  0.500000  1
  Ni  Ni10  1  0.253604  0.535348  0.000000  1
  Ni  Ni11  1  0.746396  0.464652  0.000000  1
  Ni  Ni12  1  0.753604  0.964652  0.000000  1
  Ni  Ni13  1  0.246396  0.035348  0.000000  1
  Ni  Ni14  1  0.464652  0.253604  0.000000  1
  Ni  Ni15  1  0.535348  0.746396  0.000000  1
  Ni  Ni16  1  0.035348  0.753604  0.000000  1
  Ni  Ni17  1  0.964652  0.246396  0.000000  1
  Sn  Sn18  1  0.351521  0.700251  0.000000  1
  Sn  Sn19  1  0.648479  0.299749  0.000000  1
  Sn  Sn20  1  0.851521  0.799749  0.000000  1
  Sn  Sn21  1  0.148479  0.200251  0.000000  1
  Sn  Sn22  1  0.299749  0.351521  0.000000  1
  Sn  Sn23  1  0.700251  0.648479  0.000000  1
  Sn  Sn24  1  0.200251  0.851521  0.000000  1
  Sn  Sn25  1  0.799749  0.148479  0.000000  1
  Sn  Sn26  1  0.336868  0.512659  0.500000  1
  Sn  Sn27  1  0.663132  0.487341  0.500000  1
  Sn  Sn28  1  0.836868  0.987341  0.500000  1
  Sn  Sn29  1  0.163132  0.012659  0.500000  1
  Sn  Sn30  1  0.487341  0.336868  0.500000  1
  Sn  Sn31  1  0.512659  0.663132  0.500000  1
  Sn  Sn32  1  0.012659  0.836868  0.500000  1
  Sn  Sn33  1  0.987341  0.163132  0.500000  1
  Sn  Sn34  1  0.071353  0.571353  0.000000  1
  Sn  Sn35  1  0.928647  0.428647  0.000000  1
  Sn  Sn36  1  0.571353  0.928647  0.000000  1
  Sn  Sn37  1  0.428647  0.071353  0.000000  1
