# generated using pymatgen
data_Ta3As(PO4)6
_symmetry_space_group_name_H-M   'P 1'
_cell_length_a   8.79847305
_cell_length_b   9.07413429
_cell_length_c   8.79837800
_cell_angle_alpha   89.99671006
_cell_angle_beta   59.99962656
_cell_angle_gamma   118.99745979
_symmetry_Int_Tables_number   1
_chemical_formula_structural   Ta3As(PO4)6
_chemical_formula_sum   'Ta3 As1 P6 O24'
_cell_volume   504.08462826
_cell_formula_units_Z   1
loop_
 _symmetry_equiv_pos_site_id
 _symmetry_equiv_pos_as_xyz
  1  'x, y, z'
loop_
 _atom_site_type_symbol
 _atom_site_label
 _atom_site_symmetry_multiplicity
 _atom_site_fract_x
 _atom_site_fract_y
 _atom_site_fract_z
 _atom_site_occupancy
  Ta  Ta0  1  0.284208  0.926187  0.357888  1
  Ta  Ta1  1  0.284164  0.426115  0.857914  1
  Ta  Ta2  1  0.714583  0.571799  0.142654  1
  As  As3  1  0.715712  0.073527  0.642084  1
  P  P4  1  0.785018  0.751228  0.748999  1
  P  P5  1  0.493378  0.248964  0.535707  1
  P  P6  1  0.500456  0.751314  0.465869  1
  P  P7  1  0.219990  0.249071  0.244310  1
  P  P8  1  0.784796  0.249017  0.970854  1
  P  P9  1  0.217315  0.751271  0.033600  1
  O  O10  1  0.658176  0.915298  0.476233  1
  O  O11  1  0.000325  0.711765  0.088142  1
  O  O12  1  0.221721  0.584387  0.002444  1
  O  O13  1  0.224896  0.778447  0.205559  1
  O  O14  1  0.986124  0.275535  0.945676  1
  O  O15  1  0.787530  0.415342  0.013437  1
  O  O16  1  0.788819  0.236355  0.798572  1
  O  O17  1  0.800199  0.711968  0.911429  1
  O  O18  1  0.984086  0.778306  0.569460  1
  O  O19  1  0.649171  0.236560  0.552298  1
  O  O20  1  0.780616  0.915068  0.742827  1
  O  O21  1  0.586918  0.584236  0.775953  1
  O  O22  1  0.588960  0.083535  0.145115  1
  O  O23  1  0.614141  0.415214  0.372118  1
  O  O24  1  0.221149  0.275356  0.068220  1
  O  O25  1  0.343678  0.275408  0.710550  1
  O  O26  1  0.623570  0.711918  0.288359  1
  O  O27  1  0.349567  0.083366  0.505422  1
  O  O28  1  0.391547  0.915144  0.865357  1
  O  O29  1  0.360508  0.584442  0.637132  1
  O  O30  1  0.228804  0.083631  0.266033  1
  O  O31  1  0.428967  0.415498  0.198752  1
  O  O32  1  0.347919  0.778241  0.446318  1
  O  O33  1  0.035120  0.236490  0.412583  1
