# generated using pymatgen
data_BaMgScMnH8
_symmetry_space_group_name_H-M   'P 1'
_cell_length_a   4.57654800
_cell_length_b   4.57655038
_cell_length_c   7.09879500
_cell_angle_alpha   90.00000000
_cell_angle_beta   90.00000000
_cell_angle_gamma   119.99999726
_symmetry_Int_Tables_number   1
_chemical_formula_structural   BaMgScMnH8
_chemical_formula_sum   'Ba1 Mg1 Sc1 Mn1 H8'
_cell_volume   128.76313671
_cell_formula_units_Z   1
loop_
 _symmetry_equiv_pos_site_id
 _symmetry_equiv_pos_as_xyz
  1  'x, y, z'
loop_
 _atom_site_type_symbol
 _atom_site_label
 _atom_site_symmetry_multiplicity
 _atom_site_fract_x
 _atom_site_fract_y
 _atom_site_fract_z
 _atom_site_occupancy
  Ba  Ba0  1  0.000000  0.000000  0.505815  1
  Mg  Mg1  1  0.666667  0.333333  0.881400  1
  Sc  Sc2  1  0.333333  0.666667  0.100252  1
  Mn  Mn3  1  0.000000  0.000000  0.003915  1
  H  H4  1  0.332700  0.166349  0.140293  1
  H  H5  1  0.833651  0.667300  0.140293  1
  H  H6  1  0.833651  0.166349  0.140293  1
  H  H7  1  0.669871  0.834936  0.863212  1
  H  H8  1  0.165064  0.330129  0.863212  1
  H  H9  1  0.165064  0.834936  0.863212  1
  H  H10  1  0.666667  0.333333  0.610951  1
  H  H11  1  0.333333  0.666667  0.387154  1
