# generated using pymatgen
data_Sc8Al9Si7Tc12
_symmetry_space_group_name_H-M   'P 1'
_cell_length_a   6.68801962
_cell_length_b   6.74684835
_cell_length_c   12.68699055
_cell_angle_alpha   89.91612978
_cell_angle_beta   90.02469060
_cell_angle_gamma   89.95733719
_symmetry_Int_Tables_number   1
_chemical_formula_structural   Sc8Al9Si7Tc12
_chemical_formula_sum   'Sc8 Al9 Si7 Tc12'
_cell_volume   572.47493615
_cell_formula_units_Z   1
loop_
 _symmetry_equiv_pos_site_id
 _symmetry_equiv_pos_as_xyz
  1  'x, y, z'
loop_
 _atom_site_type_symbol
 _atom_site_label
 _atom_site_symmetry_multiplicity
 _atom_site_fract_x
 _atom_site_fract_y
 _atom_site_fract_z
 _atom_site_occupancy
  Sc  Sc0  1  0.491178  0.333852  0.093110  1
  Sc  Sc1  1  0.984517  0.169855  0.406222  1
  Sc  Sc2  1  0.510238  0.664792  0.595688  1
  Sc  Sc3  1  0.008803  0.833004  0.907927  1
  Sc  Sc4  1  0.520852  0.670852  0.906716  1
  Sc  Sc5  1  0.017584  0.831120  0.595275  1
  Sc  Sc6  1  0.476465  0.332245  0.405893  1
  Sc  Sc7  1  0.979499  0.169392  0.093033  1
  Al  Al8  1  0.661295  0.051049  0.550678  1
  Al  Al9  1  0.164708  0.450170  0.948932  1
  Al  Al10  1  0.337198  0.949027  0.050510  1
  Al  Al11  1  0.833876  0.549588  0.450095  1
  Al  Al12  1  0.338232  0.946468  0.448555  1
  Al  Al13  1  0.520366  0.358233  0.748986  1
  Al  Al14  1  0.019884  0.142544  0.754348  1
  Al  Al15  1  0.479706  0.646035  0.248562  1
  Al  Al16  1  0.986101  0.860442  0.252397  1
  Si  Si17  1  0.842352  0.548712  0.049412  1
  Si  Si18  1  0.658034  0.049197  0.951086  1
  Si  Si19  1  0.157711  0.450126  0.548466  1
  Si  Si20  1  0.808568  0.645135  0.749815  1
  Si  Si21  1  0.307303  0.855802  0.751123  1
  Si  Si22  1  0.192607  0.351277  0.247538  1
  Si  Si23  1  0.691082  0.146654  0.251130  1
  Tc  Tc24  1  0.826639  0.359277  0.626866  1
  Tc  Tc25  1  0.326960  0.140099  0.875170  1
  Tc  Tc26  1  0.172711  0.639430  0.124647  1
  Tc  Tc27  1  0.685664  0.860581  0.372465  1
  Tc  Tc28  1  0.182144  0.631026  0.375639  1
  Tc  Tc29  1  0.693146  0.857381  0.120017  1
  Tc  Tc30  1  0.810851  0.357884  0.880083  1
  Tc  Tc31  1  0.311088  0.146738  0.624298  1
  Tc  Tc32  1  0.663893  0.982245  0.754839  1
  Tc  Tc33  1  0.163616  0.518418  0.746084  1
  Tc  Tc34  1  0.339472  0.018467  0.248997  1
  Tc  Tc35  1  0.835657  0.482883  0.245400  1
