# generated using pymatgen
data_Nb2RuBr12
_symmetry_space_group_name_H-M   'P 1'
_cell_length_a   9.18217881
_cell_length_b   9.18217819
_cell_length_c   7.10496192
_cell_angle_alpha   70.52671041
_cell_angle_beta   70.52671415
_cell_angle_gamma   82.45389867
_symmetry_Int_Tables_number   1
_chemical_formula_structural   Nb2RuBr12
_chemical_formula_sum   'Nb2 Ru1 Br12'
_cell_volume   532.32584188
_cell_formula_units_Z   1
loop_
 _symmetry_equiv_pos_site_id
 _symmetry_equiv_pos_as_xyz
  1  'x, y, z'
loop_
 _atom_site_type_symbol
 _atom_site_label
 _atom_site_symmetry_multiplicity
 _atom_site_fract_x
 _atom_site_fract_y
 _atom_site_fract_z
 _atom_site_occupancy
  Nb  Nb0  1  0.256428  0.256428  0.751577  1
  Nb  Nb1  1  0.743572  0.743572  0.248423  1
  Ru  Ru2  1  0.000000  0.000000  0.000000  1
  Br  Br3  1  0.967766  0.259994  0.744089  1
  Br  Br4  1  0.259994  0.967766  0.744089  1
  Br  Br5  1  0.032234  0.740006  0.255911  1
  Br  Br6  1  0.740006  0.032234  0.255911  1
  Br  Br7  1  0.215322  0.517041  0.791702  1
  Br  Br8  1  0.517041  0.215322  0.791702  1
  Br  Br9  1  0.784678  0.482959  0.208298  1
  Br  Br10  1  0.482959  0.784678  0.208298  1
  Br  Br11  1  0.130093  0.130093  0.161769  1
  Br  Br12  1  0.869907  0.869907  0.838231  1
  Br  Br13  1  0.650173  0.650173  0.636897  1
  Br  Br14  1  0.349827  0.349827  0.363103  1
