# generated using pymatgen
data_Ti2Co6C
_symmetry_space_group_name_H-M   'P 1'
_cell_length_a   3.72730250
_cell_length_b   6.34082916
_cell_length_c   5.13256084
_cell_angle_alpha   90.00726048
_cell_angle_beta   90.01225826
_cell_angle_gamma   54.00407750
_symmetry_Int_Tables_number   1
_chemical_formula_structural   Ti2Co6C
_chemical_formula_sum   'Ti2 Co6 C1'
_cell_volume   98.14199620
_cell_formula_units_Z   1
loop_
 _symmetry_equiv_pos_site_id
 _symmetry_equiv_pos_as_xyz
  1  'x, y, z'
loop_
 _atom_site_type_symbol
 _atom_site_label
 _atom_site_symmetry_multiplicity
 _atom_site_fract_x
 _atom_site_fract_y
 _atom_site_fract_z
 _atom_site_occupancy
  Ti  Ti0  1  0.804975  0.801732  0.333804  1
  Ti  Ti1  1  0.304561  0.302134  0.835047  1
  Co  Co2  1  0.047434  0.059331  0.091602  1
  Co  Co3  1  0.561878  0.544796  0.575867  1
  Co  Co4  1  0.046583  0.060053  0.575804  1
  Co  Co5  1  0.304660  0.301925  0.334119  1
  Co  Co6  1  0.805259  0.802105  0.834377  1
  Co  Co7  1  0.561856  0.544831  0.091133  1
  C  C8  1  0.304849  0.802612  0.833155  1
