# generated using pymatgen
data_Nd7Sm(PCl6)2
_symmetry_space_group_name_H-M   'P 1'
_cell_length_a   4.02570700
_cell_length_b   13.23358413
_cell_length_c   13.96313100
_cell_angle_alpha   89.75996340
_cell_angle_beta   90.00000000
_cell_angle_gamma   90.00000000
_symmetry_Int_Tables_number   1
_chemical_formula_structural   Nd7Sm(PCl6)2
_chemical_formula_sum   'Nd7 Sm1 P2 Cl12'
_cell_volume   743.87274517
_cell_formula_units_Z   1
loop_
 _symmetry_equiv_pos_site_id
 _symmetry_equiv_pos_as_xyz
  1  'x, y, z'
loop_
 _atom_site_type_symbol
 _atom_site_label
 _atom_site_symmetry_multiplicity
 _atom_site_fract_x
 _atom_site_fract_y
 _atom_site_fract_z
 _atom_site_occupancy
  Nd  Nd0  1  0.500000  0.120331  0.338551  1
  Nd  Nd1  1  0.500000  0.879502  0.661338  1
  Nd  Nd2  1  0.500000  0.620347  0.161441  1
  Nd  Nd3  1  0.500000  0.379867  0.838647  1
  Nd  Nd4  1  0.000000  0.880391  0.420314  1
  Nd  Nd5  1  0.000000  0.620518  0.919762  1
  Nd  Nd6  1  0.000000  0.379603  0.080501  1
  Sm  Sm7  1  0.000000  0.119465  0.579617  1
  P  P8  1  0.500000  0.001821  0.501213  1
  P  P9  1  0.500000  0.499943  0.999981  1
  Cl  Cl10  1  0.500000  0.244141  0.165894  1
  Cl  Cl11  1  0.500000  0.755488  0.833802  1
  Cl  Cl12  1  0.500000  0.745356  0.334099  1
  Cl  Cl13  1  0.500000  0.252386  0.664293  1
  Cl  Cl14  1  0.000000  0.248880  0.414036  1
  Cl  Cl15  1  0.000000  0.749808  0.587994  1
  Cl  Cl16  1  0.000000  0.750136  0.087360  1
  Cl  Cl17  1  0.000000  0.250197  0.912695  1
  Cl  Cl18  1  0.000000  0.003239  0.247928  1
  Cl  Cl19  1  0.000000  0.998381  0.750270  1
  Cl  Cl20  1  0.000000  0.502592  0.252245  1
  Cl  Cl21  1  0.000000  0.497605  0.748022  1
