# generated using pymatgen
data_Nd2Al6Ga6Rh
_symmetry_space_group_name_H-M   'P 1'
_cell_length_a   6.01920400
_cell_length_b   6.01920400
_cell_length_c   15.89985600
_cell_angle_alpha   90.00000000
_cell_angle_beta   90.00000000
_cell_angle_gamma   90.00000000
_symmetry_Int_Tables_number   1
_chemical_formula_structural   Nd2Al6Ga6Rh
_chemical_formula_sum   'Nd4 Al12 Ga12 Rh2'
_cell_volume   576.06476978
_cell_formula_units_Z   2
loop_
 _symmetry_equiv_pos_site_id
 _symmetry_equiv_pos_as_xyz
  1  'x, y, z'
loop_
 _atom_site_type_symbol
 _atom_site_label
 _atom_site_symmetry_multiplicity
 _atom_site_fract_x
 _atom_site_fract_y
 _atom_site_fract_z
 _atom_site_occupancy
  Nd  Nd0  1  0.750000  0.250000  0.248238  1
  Nd  Nd1  1  0.250000  0.750000  0.248238  1
  Nd  Nd2  1  0.250000  0.750000  0.750930  1
  Nd  Nd3  1  0.750000  0.250000  0.750930  1
  Al  Al4  1  0.499954  0.999954  0.913856  1
  Al  Al5  1  0.999954  0.000046  0.913856  1
  Al  Al6  1  0.500046  0.499954  0.913856  1
  Al  Al7  1  0.000046  0.500046  0.913856  1
  Al  Al8  1  0.499897  0.999897  0.085876  1
  Al  Al9  1  0.999897  0.000103  0.085876  1
  Al  Al10  1  0.500103  0.499897  0.085876  1
  Al  Al11  1  0.000103  0.500103  0.085876  1
  Al  Al12  1  0.580860  0.080860  0.432447  1
  Al  Al13  1  0.080860  0.919140  0.432447  1
  Al  Al14  1  0.419140  0.580860  0.432447  1
  Al  Al15  1  0.919140  0.419140  0.432447  1
  Ga  Ga16  1  0.250000  0.250000  0.188104  1
  Ga  Ga17  1  0.750000  0.750000  0.188104  1
  Ga  Ga18  1  0.750000  0.750000  0.812018  1
  Ga  Ga19  1  0.250000  0.250000  0.812018  1
  Ga  Ga20  1  0.250000  0.250000  0.343237  1
  Ga  Ga21  1  0.750000  0.750000  0.343237  1
  Ga  Ga22  1  0.750000  0.750000  0.656515  1
  Ga  Ga23  1  0.250000  0.250000  0.656515  1
  Ga  Ga24  1  0.418475  0.918475  0.568285  1
  Ga  Ga25  1  0.918475  0.081525  0.568285  1
  Ga  Ga26  1  0.581525  0.418475  0.568285  1
  Ga  Ga27  1  0.081525  0.581525  0.568285  1
  Rh  Rh28  1  0.750000  0.250000  0.000031  1
  Rh  Rh29  1  0.250000  0.750000  0.000031  1
