# generated using pymatgen
data_ErTmV3Co9As7
_symmetry_space_group_name_H-M   'P 1'
_cell_length_a   3.75183200
_cell_length_b   9.36630196
_cell_length_c   9.36630300
_cell_angle_alpha   119.99999309
_cell_angle_beta   90.00000000
_cell_angle_gamma   90.00000000
_symmetry_Int_Tables_number   1
_chemical_formula_structural   ErTmV3Co9As7
_chemical_formula_sum   'Er1 Tm1 V3 Co9 As7'
_cell_volume   285.04301502
_cell_formula_units_Z   1
loop_
 _symmetry_equiv_pos_site_id
 _symmetry_equiv_pos_as_xyz
  1  'x, y, z'
loop_
 _atom_site_type_symbol
 _atom_site_label
 _atom_site_symmetry_multiplicity
 _atom_site_fract_x
 _atom_site_fract_y
 _atom_site_fract_z
 _atom_site_occupancy
  Er  Er0  1  0.000000  0.666667  0.333333  1
  Tm  Tm1  1  0.500000  0.333333  0.666667  1
  V  V2  1  0.500000  0.782050  0.899524  1
  V  V3  1  0.500000  0.117475  0.217950  1
  V  V4  1  0.500000  0.100476  0.882525  1
  Co  Co5  1  0.000000  0.568440  0.940270  1
  Co  Co6  1  0.000000  0.371828  0.431560  1
  Co  Co7  1  0.000000  0.059730  0.628172  1
  Co  Co8  1  0.000000  0.878043  0.158159  1
  Co  Co9  1  0.000000  0.280116  0.121957  1
  Co  Co10  1  0.000000  0.841841  0.719884  1
  Co  Co11  1  0.500000  0.950168  0.382936  1
  Co  Co12  1  0.500000  0.432767  0.049832  1
  Co  Co13  1  0.500000  0.617064  0.567233  1
  As  As14  1  0.000000  0.000000  0.000000  1
  As  As15  1  0.500000  0.707840  0.118696  1
  As  As16  1  0.500000  0.410856  0.292160  1
  As  As17  1  0.500000  0.881304  0.589144  1
  As  As18  1  0.000000  0.586364  0.702470  1
  As  As19  1  0.000000  0.116107  0.413636  1
  As  As20  1  0.000000  0.297530  0.883893  1
