# generated using pymatgen
data_NaTb3Ho3Co6Sn23
_symmetry_space_group_name_H-M   'P 1'
_cell_length_a   9.70390700
_cell_length_b   9.70390590
_cell_length_c   9.96966700
_cell_angle_alpha   90.00000000
_cell_angle_beta   90.00000000
_cell_angle_gamma   120.00000033
_symmetry_Int_Tables_number   1
_chemical_formula_structural   NaTb3Ho3Co6Sn23
_chemical_formula_sum   'Na1 Tb3 Ho3 Co6 Sn23'
_cell_volume   813.02609521
_cell_formula_units_Z   1
loop_
 _symmetry_equiv_pos_site_id
 _symmetry_equiv_pos_as_xyz
  1  'x, y, z'
loop_
 _atom_site_type_symbol
 _atom_site_label
 _atom_site_symmetry_multiplicity
 _atom_site_fract_x
 _atom_site_fract_y
 _atom_site_fract_z
 _atom_site_occupancy
  Na  Na0  1  0.000000  0.000000  0.000364  1
  Tb  Tb1  1  0.520379  0.479621  0.694452  1
  Tb  Tb2  1  0.520379  0.040757  0.694452  1
  Tb  Tb3  1  0.959243  0.479621  0.694452  1
  Ho  Ho4  1  0.039505  0.519752  0.305120  1
  Ho  Ho5  1  0.480248  0.960495  0.305120  1
  Ho  Ho6  1  0.480248  0.519752  0.305120  1
  Co  Co7  1  0.170552  0.829448  0.799129  1
  Co  Co8  1  0.170552  0.341105  0.799129  1
  Co  Co9  1  0.658895  0.829448  0.799129  1
  Co  Co10  1  0.341242  0.170621  0.201173  1
  Co  Co11  1  0.829379  0.658758  0.201173  1
  Co  Co12  1  0.829379  0.170621  0.201173  1
  Sn  Sn13  1  0.666667  0.333333  0.186041  1
  Sn  Sn14  1  0.666667  0.333333  0.884851  1
  Sn  Sn15  1  0.333333  0.666667  0.117366  1
  Sn  Sn16  1  0.344119  0.344246  0.000091  1
  Sn  Sn17  1  0.000127  0.655881  0.000091  1
  Sn  Sn18  1  0.655754  0.999873  0.000091  1
  Sn  Sn19  1  0.655754  0.655881  0.000091  1
  Sn  Sn20  1  0.333333  0.666667  0.814385  1
  Sn  Sn21  1  0.435875  0.217939  0.454010  1
  Sn  Sn22  1  0.218138  0.781862  0.544765  1
  Sn  Sn23  1  0.218138  0.436274  0.544765  1
  Sn  Sn24  1  0.563726  0.781862  0.544765  1
  Sn  Sn25  1  0.116400  0.883600  0.270955  1
  Sn  Sn26  1  0.782061  0.564125  0.454010  1
  Sn  Sn27  1  0.782061  0.217939  0.454010  1
  Sn  Sn28  1  0.344119  0.999873  0.000091  1
  Sn  Sn29  1  0.116400  0.232800  0.270955  1
  Sn  Sn30  1  0.767200  0.883600  0.270955  1
  Sn  Sn31  1  0.231724  0.115862  0.729288  1
  Sn  Sn32  1  0.884138  0.768276  0.729288  1
  Sn  Sn33  1  0.884138  0.115862  0.729288  1
  Sn  Sn34  1  0.000000  0.000000  0.499771  1
  Sn  Sn35  1  0.000127  0.344246  0.000091  1
