# generated using pymatgen
data_YGaCoNi2B
_symmetry_space_group_name_H-M   'P 1'
_cell_length_a   5.17212589
_cell_length_b   5.15290867
_cell_length_c   6.75868700
_cell_angle_alpha   90.00000000
_cell_angle_beta   90.00000000
_cell_angle_gamma   119.87716498
_symmetry_Int_Tables_number   1
_chemical_formula_structural   YGaCoNi2B
_chemical_formula_sum   'Y2 Ga2 Co2 Ni4 B2'
_cell_volume   156.18910033
_cell_formula_units_Z   2
loop_
 _symmetry_equiv_pos_site_id
 _symmetry_equiv_pos_as_xyz
  1  'x, y, z'
loop_
 _atom_site_type_symbol
 _atom_site_label
 _atom_site_symmetry_multiplicity
 _atom_site_fract_x
 _atom_site_fract_y
 _atom_site_fract_z
 _atom_site_occupancy
  Y  Y0  1  0.000000  0.000000  0.500000  1
  Y  Y1  1  0.000000  0.000000  0.000000  1
  Ga  Ga2  1  0.329289  0.664645  0.000000  1
  Ga  Ga3  1  0.670711  0.335355  0.000000  1
  Co  Co4  1  0.000000  0.500000  0.298824  1
  Co  Co5  1  0.000000  0.500000  0.701176  1
  Ni  Ni6  1  0.500000  0.000000  0.294753  1
  Ni  Ni7  1  0.500000  0.500000  0.294753  1
  Ni  Ni8  1  0.500000  0.000000  0.705247  1
  Ni  Ni9  1  0.500000  0.500000  0.705247  1
  B  B10  1  0.673751  0.336875  0.500000  1
  B  B11  1  0.326249  0.663125  0.500000  1
