# generated using pymatgen
data_Zr3Te3As
_symmetry_space_group_name_H-M   'P 1'
_cell_length_a   11.06533100
_cell_length_b   11.06533060
_cell_length_c   3.82840200
_cell_angle_alpha   90.00000000
_cell_angle_beta   90.00000000
_cell_angle_gamma   120.00000935
_symmetry_Int_Tables_number   1
_chemical_formula_structural   Zr3Te3As
_chemical_formula_sum   'Zr6 Te6 As2'
_cell_volume   405.95409705
_cell_formula_units_Z   2
loop_
 _symmetry_equiv_pos_site_id
 _symmetry_equiv_pos_as_xyz
  1  'x, y, z'
loop_
 _atom_site_type_symbol
 _atom_site_label
 _atom_site_symmetry_multiplicity
 _atom_site_fract_x
 _atom_site_fract_y
 _atom_site_fract_z
 _atom_site_occupancy
  Zr  Zr0  1  0.639029  0.139313  0.750000  1
  Zr  Zr1  1  0.500283  0.360971  0.750000  1
  Zr  Zr2  1  0.360971  0.860687  0.250000  1
  Zr  Zr3  1  0.860687  0.499717  0.750000  1
  Zr  Zr4  1  0.499717  0.639029  0.250000  1
  Zr  Zr5  1  0.139313  0.500283  0.250000  1
  Te  Te6  1  0.706629  0.656027  0.750000  1
  Te  Te7  1  0.293371  0.343973  0.250000  1
  Te  Te8  1  0.656027  0.949397  0.250000  1
  Te  Te9  1  0.949397  0.293371  0.750000  1
  Te  Te10  1  0.050603  0.706629  0.250000  1
  Te  Te11  1  0.343973  0.050603  0.750000  1
  As  As12  1  0.333333  0.666667  0.750000  1
  As  As13  1  0.666667  0.333333  0.250000  1
