# generated using pymatgen
data_Lu4MoRu7
_symmetry_space_group_name_H-M   'P 1'
_cell_length_a   5.40885200
_cell_length_b   5.19185086
_cell_length_c   8.86913700
_cell_angle_alpha   90.00000000
_cell_angle_beta   90.00000000
_cell_angle_gamma   121.39251035
_symmetry_Int_Tables_number   1
_chemical_formula_structural   Lu4MoRu7
_chemical_formula_sum   'Lu4 Mo1 Ru7'
_cell_volume   212.60461643
_cell_formula_units_Z   1
loop_
 _symmetry_equiv_pos_site_id
 _symmetry_equiv_pos_as_xyz
  1  'x, y, z'
loop_
 _atom_site_type_symbol
 _atom_site_label
 _atom_site_symmetry_multiplicity
 _atom_site_fract_x
 _atom_site_fract_y
 _atom_site_fract_z
 _atom_site_occupancy
  Lu  Lu0  1  0.336521  0.673043  0.430620  1
  Lu  Lu1  1  0.671711  0.343421  0.563531  1
  Lu  Lu2  1  0.671711  0.343421  0.936469  1
  Lu  Lu3  1  0.336521  0.673043  0.069380  1
  Mo  Mo4  1  0.164941  0.329884  0.750000  1
  Ru  Ru5  1  0.169218  0.818630  0.750000  1
  Ru  Ru6  1  0.329212  0.162981  0.250000  1
  Ru  Ru7  1  0.816978  0.633954  0.250000  1
  Ru  Ru8  1  0.649411  0.818630  0.750000  1
  Ru  Ru9  1  0.010003  0.020005  0.000338  1
  Ru  Ru10  1  0.833771  0.162981  0.250000  1
  Ru  Ru11  1  0.010003  0.020005  0.499662  1
