# generated using pymatgen
data_Tm2Lu10CoTc3
_symmetry_space_group_name_H-M   'P 1'
_cell_length_a   6.14701500
_cell_length_b   7.20909029
_cell_length_c   8.93896200
_cell_angle_alpha   90.00000000
_cell_angle_beta   90.00000000
_cell_angle_gamma   90.17835408
_symmetry_Int_Tables_number   1
_chemical_formula_structural   Tm2Lu10CoTc3
_chemical_formula_sum   'Tm2 Lu10 Co1 Tc3'
_cell_volume   396.12269469
_cell_formula_units_Z   1
loop_
 _symmetry_equiv_pos_site_id
 _symmetry_equiv_pos_as_xyz
  1  'x, y, z'
loop_
 _atom_site_type_symbol
 _atom_site_label
 _atom_site_symmetry_multiplicity
 _atom_site_fract_x
 _atom_site_fract_y
 _atom_site_fract_z
 _atom_site_occupancy
  Tm  Tm0  1  0.139167  0.458898  0.750000  1
  Tm  Tm1  1  0.376925  0.952077  0.750000  1
  Lu  Lu2  1  0.331849  0.678638  0.062938  1
  Lu  Lu3  1  0.162604  0.175918  0.439552  1
  Lu  Lu4  1  0.663745  0.326707  0.563552  1
  Lu  Lu5  1  0.832870  0.820707  0.938077  1
  Lu  Lu6  1  0.663745  0.326707  0.936448  1
  Lu  Lu7  1  0.832870  0.820707  0.561923  1
  Lu  Lu8  1  0.331849  0.678638  0.437062  1
  Lu  Lu9  1  0.162604  0.175918  0.060448  1
  Lu  Lu10  1  0.875178  0.538566  0.250000  1
  Lu  Lu11  1  0.624969  0.040769  0.250000  1
  Co  Co12  1  0.538956  0.615996  0.750000  1
  Tc  Tc13  1  0.039940  0.886775  0.250000  1
  Tc  Tc14  1  0.459341  0.389576  0.250000  1
  Tc  Tc15  1  0.963388  0.113402  0.750000  1
