# generated using pymatgen
data_Hf4Mn3NiAs4
_symmetry_space_group_name_H-M   'P 1'
_cell_length_a   3.74880300
_cell_length_b   6.55481126
_cell_length_c   7.59450161
_cell_angle_alpha   90.26872406
_cell_angle_beta   90.00000000
_cell_angle_gamma   90.00000000
_symmetry_Int_Tables_number   1
_chemical_formula_structural   Hf4Mn3NiAs4
_chemical_formula_sum   'Hf4 Mn3 Ni1 As4'
_cell_volume   186.61532768
_cell_formula_units_Z   1
loop_
 _symmetry_equiv_pos_site_id
 _symmetry_equiv_pos_as_xyz
  1  'x, y, z'
loop_
 _atom_site_type_symbol
 _atom_site_label
 _atom_site_symmetry_multiplicity
 _atom_site_fract_x
 _atom_site_fract_y
 _atom_site_fract_z
 _atom_site_occupancy
  Hf  Hf0  1  0.250000  0.468030  0.177870  1
  Hf  Hf1  1  0.750000  0.535996  0.821666  1
  Hf  Hf2  1  0.750000  0.029408  0.675076  1
  Hf  Hf3  1  0.250000  0.967678  0.323497  1
  Mn  Mn4  1  0.250000  0.864188  0.937970  1
  Mn  Mn5  1  0.750000  0.136685  0.059941  1
  Mn  Mn6  1  0.750000  0.636865  0.439776  1
  Ni  Ni7  1  0.250000  0.356760  0.563751  1
  As  As8  1  0.250000  0.736673  0.625731  1
  As  As9  1  0.750000  0.266114  0.374326  1
  As  As10  1  0.750000  0.763950  0.128898  1
  As  As11  1  0.250000  0.237654  0.871496  1
