# generated using pymatgen
data_Tb10Sn5BiSe2
_symmetry_space_group_name_H-M   'P 1'
_cell_length_a   9.19404972
_cell_length_b   9.19405050
_cell_length_c   6.73823200
_cell_angle_alpha   90.00000000
_cell_angle_beta   90.00000000
_cell_angle_gamma   120.13850227
_symmetry_Int_Tables_number   1
_chemical_formula_structural   Tb10Sn5BiSe2
_chemical_formula_sum   'Tb10 Sn5 Bi1 Se2'
_cell_volume   492.58650735
_cell_formula_units_Z   1
loop_
 _symmetry_equiv_pos_site_id
 _symmetry_equiv_pos_as_xyz
  1  'x, y, z'
loop_
 _atom_site_type_symbol
 _atom_site_label
 _atom_site_symmetry_multiplicity
 _atom_site_fract_x
 _atom_site_fract_y
 _atom_site_fract_z
 _atom_site_occupancy
  Tb  Tb0  1  0.669360  0.332601  0.001767  1
  Tb  Tb1  1  0.332601  0.669360  0.001767  1
  Tb  Tb2  1  0.332601  0.669360  0.498233  1
  Tb  Tb3  1  0.669360  0.332601  0.498233  1
  Tb  Tb4  1  0.749603  0.749603  0.750000  1
  Tb  Tb5  1  0.251071  0.995256  0.750000  1
  Tb  Tb6  1  0.995256  0.251071  0.750000  1
  Tb  Tb7  1  0.251798  0.251798  0.250000  1
  Tb  Tb8  1  0.746609  0.999769  0.250000  1
  Tb  Tb9  1  0.999769  0.746609  0.250000  1
  Sn  Sn10  1  0.603412  0.000165  0.750000  1
  Sn  Sn11  1  0.000165  0.603412  0.750000  1
  Sn  Sn12  1  0.604541  0.604541  0.250000  1
  Sn  Sn13  1  0.396346  0.000540  0.250000  1
  Sn  Sn14  1  0.000540  0.396346  0.250000  1
  Bi  Bi15  1  0.395264  0.395264  0.750000  1
  Se  Se16  1  0.000852  0.000852  0.999712  1
  Se  Se17  1  0.000852  0.000852  0.500288  1
