# generated using pymatgen
data_Tm4B16Ir3Ru
_symmetry_space_group_name_H-M   'P 1'
_cell_length_a   3.54708800
_cell_length_b   5.94165112
_cell_length_c   11.52184215
_cell_angle_alpha   90.07017709
_cell_angle_beta   90.00000000
_cell_angle_gamma   90.00000000
_symmetry_Int_Tables_number   1
_chemical_formula_structural   Tm4B16Ir3Ru
_chemical_formula_sum   'Tm4 B16 Ir3 Ru1'
_cell_volume   242.82908633
_cell_formula_units_Z   1
loop_
 _symmetry_equiv_pos_site_id
 _symmetry_equiv_pos_as_xyz
  1  'x, y, z'
loop_
 _atom_site_type_symbol
 _atom_site_label
 _atom_site_symmetry_multiplicity
 _atom_site_fract_x
 _atom_site_fract_y
 _atom_site_fract_z
 _atom_site_occupancy
  Tm  Tm0  1  0.500000  0.132330  0.146488  1
  Tm  Tm1  1  0.500000  0.869605  0.851570  1
  Tm  Tm2  1  0.500000  0.631959  0.351635  1
  Tm  Tm3  1  0.500000  0.367209  0.651353  1
  B  B4  1  0.000000  0.472508  0.191818  1
  B  B5  1  0.000000  0.523680  0.807210  1
  B  B6  1  0.000000  0.974779  0.306818  1
  B  B7  1  0.000000  0.024796  0.693217  1
  B  B8  1  0.000000  0.293331  0.312086  1
  B  B9  1  0.000000  0.707701  0.688091  1
  B  B10  1  0.000000  0.793277  0.187461  1
  B  B11  1  0.000000  0.208682  0.813558  1
  B  B12  1  0.000000  0.364337  0.470108  1
  B  B13  1  0.000000  0.635579  0.529825  1
  B  B14  1  0.000000  0.863874  0.029370  1
  B  B15  1  0.000000  0.134717  0.968978  1
  B  B16  1  0.000000  0.385860  0.045617  1
  B  B17  1  0.000000  0.611652  0.951866  1
  B  B18  1  0.000000  0.887366  0.452711  1
  B  B19  1  0.000000  0.112920  0.547737  1
  Ir  Ir20  1  0.500000  0.144978  0.402358  1
  Ir  Ir21  1  0.500000  0.855106  0.596419  1
  Ir  Ir22  1  0.500000  0.644575  0.097730  1
  Ru  Ru23  1  0.500000  0.359180  0.905975  1
