# generated using pymatgen
data_Ho16In4Co3Pd
_symmetry_space_group_name_H-M   'P 1'
_cell_length_a   9.53816458
_cell_length_b   9.57092761
_cell_length_c   9.53816400
_cell_angle_alpha   60.11317551
_cell_angle_beta   60.00000201
_cell_angle_gamma   60.11317484
_symmetry_Int_Tables_number   1
_chemical_formula_structural   Ho16In4Co3Pd
_chemical_formula_sum   'Ho16 In4 Co3 Pd1'
_cell_volume   616.75040868
_cell_formula_units_Z   1
loop_
 _symmetry_equiv_pos_site_id
 _symmetry_equiv_pos_as_xyz
  1  'x, y, z'
loop_
 _atom_site_type_symbol
 _atom_site_label
 _atom_site_symmetry_multiplicity
 _atom_site_fract_x
 _atom_site_fract_y
 _atom_site_fract_z
 _atom_site_occupancy
  Ho  Ho0  1  0.189130  0.185290  0.812790  1
  Ho  Ho1  1  0.603888  0.587192  0.205032  1
  Ho  Ho2  1  0.437964  0.072792  0.437964  1
  Ho  Ho3  1  0.437590  0.439129  0.061640  1
  Ho  Ho4  1  0.812790  0.185290  0.812790  1
  Ho  Ho5  1  0.189640  0.808185  0.189640  1
  Ho  Ho6  1  0.437964  0.072792  0.051279  1
  Ho  Ho7  1  0.189640  0.808185  0.812534  1
  Ho  Ho8  1  0.061640  0.439129  0.061640  1
  Ho  Ho9  1  0.812534  0.808185  0.189640  1
  Ho  Ho10  1  0.205032  0.587192  0.603888  1
  Ho  Ho11  1  0.061640  0.439129  0.437590  1
  Ho  Ho12  1  0.051279  0.072792  0.437964  1
  Ho  Ho13  1  0.812790  0.185290  0.189130  1
  Ho  Ho14  1  0.595666  0.213003  0.595666  1
  Ho  Ho15  1  0.603888  0.587192  0.603888  1
  In  In16  1  0.831769  0.834798  0.831769  1
  In  In17  1  0.831769  0.834798  0.501664  1
  In  In18  1  0.501664  0.834798  0.831769  1
  In  In19  1  0.833103  0.500691  0.833103  1
  Co  Co20  1  0.390166  0.393654  0.390166  1
  Co  Co21  1  0.826013  0.393654  0.390166  1
  Co  Co22  1  0.390166  0.393654  0.826013  1
  Pd  Pd23  1  0.392270  0.823188  0.392270  1
