# generated using pymatgen
data_La3Th(CoB10)2
_symmetry_space_group_name_H-M   'P 1'
_cell_length_a   4.21325900
_cell_length_b   5.66250685
_cell_length_c   11.28611271
_cell_angle_alpha   90.06305025
_cell_angle_beta   90.00000000
_cell_angle_gamma   90.00000000
_symmetry_Int_Tables_number   1
_chemical_formula_structural   La3Th(CoB10)2
_chemical_formula_sum   'La3 Th1 Co2 B20'
_cell_volume   269.25948957
_cell_formula_units_Z   1
loop_
 _symmetry_equiv_pos_site_id
 _symmetry_equiv_pos_as_xyz
  1  'x, y, z'
loop_
 _atom_site_type_symbol
 _atom_site_label
 _atom_site_symmetry_multiplicity
 _atom_site_fract_x
 _atom_site_fract_y
 _atom_site_fract_z
 _atom_site_occupancy
  La  La0  1  0.500000  0.299792  0.865813  1
  La  La1  1  0.500000  0.699353  0.134234  1
  La  La2  1  0.500000  0.801546  0.634818  1
  Th  Th3  1  0.500000  0.200992  0.366732  1
  Co  Co4  1  0.000000  0.496907  0.498593  1
  Co  Co5  1  0.000000  0.999924  0.000279  1
  B  B6  1  0.000000  0.127757  0.539637  1
  B  B7  1  0.000000  0.873297  0.458893  1
  B  B8  1  0.000000  0.627649  0.958993  1
  B  B9  1  0.000000  0.372256  0.041612  1
  B  B10  1  0.000000  0.154671  0.696609  1
  B  B11  1  0.000000  0.847214  0.303071  1
  B  B12  1  0.298243  0.200989  0.113473  1
  B  B13  1  0.297524  0.798988  0.887485  1
  B  B14  1  0.701211  0.701164  0.386663  1
  B  B15  1  0.701699  0.298203  0.612401  1
  B  B16  1  0.702476  0.798988  0.887485  1
  B  B17  1  0.701757  0.200989  0.113473  1
  B  B18  1  0.298301  0.298203  0.612401  1
  B  B19  1  0.298789  0.701164  0.386663  1
  B  B20  1  0.000000  0.036445  0.187886  1
  B  B21  1  0.000000  0.963661  0.812713  1
  B  B22  1  0.000000  0.535682  0.312873  1
  B  B23  1  0.000000  0.464048  0.686615  1
  B  B24  1  0.000000  0.345072  0.197688  1
  B  B25  1  0.000000  0.655047  0.802895  1
