# generated using pymatgen
data_SmY7Mg2(SiB4)4
_symmetry_space_group_name_H-M   'P 1'
_cell_length_a   7.19286004
_cell_length_b   7.19285602
_cell_length_c   7.90616905
_cell_angle_alpha   90.00683028
_cell_angle_beta   90.01089079
_cell_angle_gamma   90.00640406
_symmetry_Int_Tables_number   1
_chemical_formula_structural   SmY7Mg2(SiB4)4
_chemical_formula_sum   'Sm1 Y7 Mg2 Si4 B16'
_cell_volume   409.04308944
_cell_formula_units_Z   1
loop_
 _symmetry_equiv_pos_site_id
 _symmetry_equiv_pos_as_xyz
  1  'x, y, z'
loop_
 _atom_site_type_symbol
 _atom_site_label
 _atom_site_symmetry_multiplicity
 _atom_site_fract_x
 _atom_site_fract_y
 _atom_site_fract_z
 _atom_site_occupancy
  Sm  Sm0  1  0.683497  0.183438  0.236926  1
  Y  Y1  1  0.316526  0.816584  0.766666  1
  Y  Y2  1  0.316499  0.816434  0.233270  1
  Y  Y3  1  0.816902  0.683242  0.233373  1
  Y  Y4  1  0.816845  0.683359  0.766684  1
  Y  Y5  1  0.683179  0.183240  0.766620  1
  Y  Y6  1  0.183370  0.316836  0.766731  1
  Y  Y7  1  0.183228  0.316913  0.233422  1
  Mg  Mg8  1  0.000811  0.999514  0.500756  1
  Mg  Mg9  1  0.499515  0.500808  0.500755  1
  Si  Si10  1  0.116040  0.616041  0.500321  1
  Si  Si11  1  0.886048  0.386049  0.502024  1
  Si  Si12  1  0.383030  0.114393  0.501660  1
  Si  Si13  1  0.614393  0.883024  0.501558  1
  B  B14  1  0.173811  0.039583  0.999286  1
  B  B15  1  0.826861  0.959454  0.999322  1
  B  B16  1  0.960654  0.173089  0.999419  1
  B  B17  1  0.326205  0.540231  0.999478  1
  B  B18  1  0.040242  0.826208  0.999423  1
  B  B19  1  0.673091  0.460669  0.999364  1
  B  B20  1  0.539594  0.673808  0.999380  1
  B  B21  1  0.459441  0.326864  0.999235  1
  B  B22  1  0.089832  0.589831  0.999615  1
  B  B23  1  0.910225  0.410227  0.999795  1
  B  B24  1  0.410025  0.089767  0.998904  1
  B  B25  1  0.589769  0.910028  0.998865  1
  B  B26  1  0.001104  0.999387  0.159943  1
  B  B27  1  0.000174  0.999703  0.838629  1
  B  B28  1  0.499718  0.500134  0.838631  1
  B  B29  1  0.499371  0.501143  0.159948  1
