# generated using pymatgen
data_Ho4Nb2Ir5Ru
_symmetry_space_group_name_H-M   'P 1'
_cell_length_a   5.62111033
_cell_length_b   5.62481964
_cell_length_c   8.26749700
_cell_angle_alpha   90.00000000
_cell_angle_beta   90.00000000
_cell_angle_gamma   120.02219242
_symmetry_Int_Tables_number   1
_chemical_formula_structural   Ho4Nb2Ir5Ru
_chemical_formula_sum   'Ho4 Nb2 Ir5 Ru1'
_cell_volume   226.32796894
_cell_formula_units_Z   1
loop_
 _symmetry_equiv_pos_site_id
 _symmetry_equiv_pos_as_xyz
  1  'x, y, z'
loop_
 _atom_site_type_symbol
 _atom_site_label
 _atom_site_symmetry_multiplicity
 _atom_site_fract_x
 _atom_site_fract_y
 _atom_site_fract_z
 _atom_site_occupancy
  Ho  Ho0  1  0.665991  0.332992  0.562508  1
  Ho  Ho1  1  0.334111  0.667069  0.438543  1
  Ho  Ho2  1  0.334111  0.667069  0.061457  1
  Ho  Ho3  1  0.665991  0.332992  0.937492  1
  Nb  Nb4  1  0.002733  0.001372  0.496950  1
  Nb  Nb5  1  0.002733  0.001372  0.003050  1
  Ir  Ir6  1  0.171924  0.344415  0.750000  1
  Ir  Ir7  1  0.171927  0.827521  0.750000  1
  Ir  Ir8  1  0.655544  0.827787  0.750000  1
  Ir  Ir9  1  0.825062  0.652562  0.250000  1
  Ir  Ir10  1  0.825053  0.172455  0.250000  1
  Ru  Ru11  1  0.344821  0.172395  0.250000  1
