# generated using pymatgen
data_Sr15Pr5Pt16
_symmetry_space_group_name_H-M   'P 1'
_cell_length_a   7.92378128
_cell_length_b   8.09463223
_cell_length_c   15.62580049
_cell_angle_alpha   90.15199040
_cell_angle_beta   90.25095812
_cell_angle_gamma   90.26040128
_symmetry_Int_Tables_number   1
_chemical_formula_structural   Sr15Pr5Pt16
_chemical_formula_sum   'Sr15 Pr5 Pt16'
_cell_volume   1002.21678822
_cell_formula_units_Z   1
loop_
 _symmetry_equiv_pos_site_id
 _symmetry_equiv_pos_as_xyz
  1  'x, y, z'
loop_
 _atom_site_type_symbol
 _atom_site_label
 _atom_site_symmetry_multiplicity
 _atom_site_fract_x
 _atom_site_fract_y
 _atom_site_fract_z
 _atom_site_occupancy
  Sr  Sr0  1  0.164137  0.327910  0.379807  1
  Sr  Sr1  1  0.336973  0.827513  0.619697  1
  Sr  Sr2  1  0.837534  0.672111  0.881448  1
  Sr  Sr3  1  0.492218  0.323168  0.903527  1
  Sr  Sr4  1  0.991252  0.178557  0.597274  1
  Sr  Sr5  1  0.508070  0.679620  0.402746  1
  Sr  Sr6  1  0.008954  0.820953  0.095904  1
  Sr  Sr7  1  0.505951  0.679203  0.095543  1
  Sr  Sr8  1  0.006463  0.819156  0.406663  1
  Sr  Sr9  1  0.494167  0.319405  0.594561  1
  Sr  Sr10  1  0.993470  0.180569  0.904844  1
  Sr  Sr11  1  0.174749  0.487447  0.749819  1
  Sr  Sr12  1  0.675432  0.013599  0.750813  1
  Sr  Sr13  1  0.827540  0.516379  0.250314  1
  Sr  Sr14  1  0.321597  0.985164  0.250616  1
  Pr  Pr15  1  0.336030  0.832404  0.877937  1
  Pr  Pr16  1  0.834540  0.670129  0.623769  1
  Pr  Pr17  1  0.664799  0.170055  0.375695  1
  Pr  Pr18  1  0.163769  0.329189  0.122273  1
  Pr  Pr19  1  0.662525  0.171555  0.121349  1
  Pt  Pt20  1  0.330444  0.042009  0.039316  1
  Pt  Pt21  1  0.820571  0.460619  0.463233  1
  Pt  Pt22  1  0.679161  0.959971  0.535816  1
  Pt  Pt23  1  0.175190  0.541003  0.964296  1
  Pt  Pt24  1  0.652660  0.973683  0.961066  1
  Pt  Pt25  1  0.142803  0.531080  0.543449  1
  Pt  Pt26  1  0.356098  0.031223  0.455702  1
  Pt  Pt27  1  0.844696  0.455323  0.044084  1
  Pt  Pt28  1  0.544721  0.623269  0.754023  1
  Pt  Pt29  1  0.045695  0.878887  0.748756  1
  Pt  Pt30  1  0.459899  0.373232  0.245695  1
  Pt  Pt31  1  0.950223  0.124089  0.243822  1
  Pt  Pt32  1  0.289430  0.121159  0.755377  1
  Pt  Pt33  1  0.787498  0.380197  0.745075  1
  Pt  Pt34  1  0.705801  0.882897  0.250054  1
  Pt  Pt35  1  0.214941  0.617272  0.245637  1
