# generated using pymatgen
data_Dy4ReB16Rh2W
_symmetry_space_group_name_H-M   'P 1'
_cell_length_a   3.58848100
_cell_length_b   5.99048281
_cell_length_c   11.60710306
_cell_angle_alpha   90.28835661
_cell_angle_beta   90.00000000
_cell_angle_gamma   90.00000000
_symmetry_Int_Tables_number   1
_chemical_formula_structural   Dy4ReB16Rh2W
_chemical_formula_sum   'Dy4 Re1 B16 Rh2 W1'
_cell_volume   249.51164425
_cell_formula_units_Z   1
loop_
 _symmetry_equiv_pos_site_id
 _symmetry_equiv_pos_as_xyz
  1  'x, y, z'
loop_
 _atom_site_type_symbol
 _atom_site_label
 _atom_site_symmetry_multiplicity
 _atom_site_fract_x
 _atom_site_fract_y
 _atom_site_fract_z
 _atom_site_occupancy
  Dy  Dy0  1  0.500000  0.371473  0.146567  1
  Dy  Dy1  1  0.500000  0.628903  0.852620  1
  Dy  Dy2  1  0.500000  0.127011  0.651723  1
  Dy  Dy3  1  0.500000  0.871485  0.348110  1
  Re  Re4  1  0.500000  0.630021  0.586407  1
  B  B5  1  0.000000  0.112952  0.046952  1
  B  B6  1  0.000000  0.886929  0.952756  1
  B  B7  1  0.000000  0.387325  0.548618  1
  B  B8  1  0.000000  0.616312  0.454324  1
  B  B9  1  0.000000  0.132676  0.469454  1
  B  B10  1  0.000000  0.865176  0.532988  1
  B  B11  1  0.000000  0.363872  0.969017  1
  B  B12  1  0.000000  0.636208  0.030857  1
  B  B13  1  0.000000  0.022156  0.192093  1
  B  B14  1  0.000000  0.976198  0.807561  1
  B  B15  1  0.000000  0.477142  0.693698  1
  B  B16  1  0.000000  0.525294  0.305889  1
  B  B17  1  0.000000  0.209609  0.311796  1
  B  B18  1  0.000000  0.787912  0.686767  1
  B  B19  1  0.000000  0.288460  0.814123  1
  B  B20  1  0.000000  0.712797  0.185526  1
  Rh  Rh21  1  0.500000  0.141399  0.905377  1
  Rh  Rh22  1  0.500000  0.859654  0.093165  1
  W  W23  1  0.500000  0.369037  0.413611  1
