# generated using pymatgen
data_LaTm2Ni2Ir7
_symmetry_space_group_name_H-M   'P 1'
_cell_length_a   5.30916011
_cell_length_b   5.30916127
_cell_length_c   8.99841081
_cell_angle_alpha   72.84212621
_cell_angle_beta   72.84212018
_cell_angle_gamma   59.99999966
_symmetry_Int_Tables_number   1
_chemical_formula_structural   LaTm2Ni2Ir7
_chemical_formula_sum   'La1 Tm2 Ni2 Ir7'
_cell_volume   206.52138887
_cell_formula_units_Z   1
loop_
 _symmetry_equiv_pos_site_id
 _symmetry_equiv_pos_as_xyz
  1  'x, y, z'
loop_
 _atom_site_type_symbol
 _atom_site_label
 _atom_site_symmetry_multiplicity
 _atom_site_fract_x
 _atom_site_fract_y
 _atom_site_fract_z
 _atom_site_occupancy
  La  La0  1  0.000000  0.000000  0.000000  1
  Tm  Tm1  1  0.140849  0.140849  0.577454  1
  Tm  Tm2  1  0.859151  0.859151  0.422546  1
  Ni  Ni3  1  0.333676  0.333676  0.998972  1
  Ni  Ni4  1  0.666324  0.666324  0.001028  1
  Ir  Ir5  1  0.077926  0.583185  0.755702  1
  Ir  Ir6  1  0.583185  0.583185  0.755702  1
  Ir  Ir7  1  0.583185  0.077926  0.755702  1
  Ir  Ir8  1  0.922074  0.416815  0.244298  1
  Ir  Ir9  1  0.416815  0.416815  0.244298  1
  Ir  Ir10  1  0.416815  0.922074  0.244298  1
  Ir  Ir11  1  0.500000  0.500000  0.500000  1
