# generated using pymatgen
data_Zr4SiAs3Rh4
_symmetry_space_group_name_H-M   'P 1'
_cell_length_a   3.94979900
_cell_length_b   6.66575573
_cell_length_c   7.65162626
_cell_angle_alpha   89.56931277
_cell_angle_beta   90.00000000
_cell_angle_gamma   90.00000000
_symmetry_Int_Tables_number   1
_chemical_formula_structural   Zr4SiAs3Rh4
_chemical_formula_sum   'Zr4 Si1 As3 Rh4'
_cell_volume   201.44934971
_cell_formula_units_Z   1
loop_
 _symmetry_equiv_pos_site_id
 _symmetry_equiv_pos_as_xyz
  1  'x, y, z'
loop_
 _atom_site_type_symbol
 _atom_site_label
 _atom_site_symmetry_multiplicity
 _atom_site_fract_x
 _atom_site_fract_y
 _atom_site_fract_z
 _atom_site_occupancy
  Zr  Zr0  1  0.250000  0.530038  0.183029  1
  Zr  Zr1  1  0.750000  0.472519  0.815657  1
  Zr  Zr2  1  0.250000  0.024774  0.318617  1
  Zr  Zr3  1  0.750000  0.970638  0.683076  1
  Si  Si4  1  0.750000  0.733965  0.382956  1
  As  As5  1  0.250000  0.758714  0.875058  1
  As  As6  1  0.750000  0.240446  0.122216  1
  As  As7  1  0.250000  0.261884  0.620042  1
  Rh  Rh8  1  0.750000  0.851204  0.073769  1
  Rh  Rh9  1  0.250000  0.143105  0.937851  1
  Rh  Rh10  1  0.750000  0.362922  0.436446  1
  Rh  Rh11  1  0.250000  0.649790  0.551282  1
