# generated using pymatgen
data_Tb4RuI4
_symmetry_space_group_name_H-M   'P 1'
_cell_length_a   11.31591308
_cell_length_b   11.31591402
_cell_length_c   6.23421902
_cell_angle_alpha   90.00973043
_cell_angle_beta   90.00973214
_cell_angle_gamma   89.87229790
_symmetry_Int_Tables_number   1
_chemical_formula_structural   Tb4RuI4
_chemical_formula_sum   'Tb8 Ru2 I8'
_cell_volume   798.28911221
_cell_formula_units_Z   2
loop_
 _symmetry_equiv_pos_site_id
 _symmetry_equiv_pos_as_xyz
  1  'x, y, z'
loop_
 _atom_site_type_symbol
 _atom_site_label
 _atom_site_symmetry_multiplicity
 _atom_site_fract_x
 _atom_site_fract_y
 _atom_site_fract_z
 _atom_site_occupancy
  Tb  Tb0  1  0.800811  0.081664  0.000310  1
  Tb  Tb1  1  0.081664  0.800811  0.500310  1
  Tb  Tb2  1  0.081586  0.199043  0.000251  1
  Tb  Tb3  1  0.199043  0.081586  0.500251  1
  Tb  Tb4  1  0.918414  0.800957  0.999749  1
  Tb  Tb5  1  0.918336  0.199189  0.499690  1
  Tb  Tb6  1  0.199189  0.918336  0.999690  1
  Tb  Tb7  1  0.800957  0.918414  0.499749  1
  Ru  Ru8  1  0.000047  0.999953  0.250000  1
  Ru  Ru9  1  0.999953  0.000047  0.750000  1
  I  I10  1  0.643066  0.149991  0.496939  1
  I  I11  1  0.850307  0.643133  0.503117  1
  I  I12  1  0.356867  0.149693  0.996883  1
  I  I13  1  0.149693  0.356867  0.496883  1
  I  I14  1  0.643133  0.850307  0.003117  1
  I  I15  1  0.356934  0.850009  0.503061  1
  I  I16  1  0.149991  0.643066  0.996939  1
  I  I17  1  0.850009  0.356934  0.003061  1
