# generated using pymatgen
data_Dy3Er4Lu3(In2Pt)4
_symmetry_space_group_name_H-M   'P 1'
_cell_length_a   3.60369800
_cell_length_b   8.12623642
_cell_length_c   18.12723436
_cell_angle_alpha   89.90611523
_cell_angle_beta   90.00000000
_cell_angle_gamma   90.00000000
_symmetry_Int_Tables_number   1
_chemical_formula_structural   Dy3Er4Lu3(In2Pt)4
_chemical_formula_sum   'Dy3 Er4 Lu3 In8 Pt4'
_cell_volume   530.84631714
_cell_formula_units_Z   1
loop_
 _symmetry_equiv_pos_site_id
 _symmetry_equiv_pos_as_xyz
  1  'x, y, z'
loop_
 _atom_site_type_symbol
 _atom_site_label
 _atom_site_symmetry_multiplicity
 _atom_site_fract_x
 _atom_site_fract_y
 _atom_site_fract_z
 _atom_site_occupancy
  Dy  Dy0  1  0.000000  0.741889  0.281196  1
  Dy  Dy1  1  0.000000  0.999524  0.999539  1
  Dy  Dy2  1  0.000000  0.500239  0.500199  1
  Er  Er3  1  0.000000  0.617134  0.084948  1
  Er  Er4  1  0.000000  0.243258  0.220191  1
  Er  Er5  1  0.000000  0.757584  0.780091  1
  Er  Er6  1  0.000000  0.257350  0.719163  1
  Lu  Lu7  1  0.000000  0.117095  0.414323  1
  Lu  Lu8  1  0.000000  0.883121  0.586045  1
  Lu  Lu9  1  0.000000  0.383146  0.913629  1
  In  In10  1  0.500000  0.420066  0.351475  1
  In  In11  1  0.500000  0.579195  0.649307  1
  In  In12  1  0.500000  0.079085  0.850389  1
  In  In13  1  0.500000  0.923070  0.149605  1
  In  In14  1  0.500000  0.294309  0.065161  1
  In  In15  1  0.500000  0.704222  0.933447  1
  In  In16  1  0.500000  0.203383  0.564857  1
  In  In17  1  0.500000  0.796936  0.435663  1
  Pt  Pt18  1  0.500000  0.027490  0.305124  1
  Pt  Pt19  1  0.500000  0.973956  0.695271  1
  Pt  Pt20  1  0.500000  0.473314  0.804269  1
  Pt  Pt21  1  0.500000  0.524637  0.196108  1
