# generated using pymatgen
data_TbZr7Ti6Nb5Si16Mo
_symmetry_space_group_name_H-M   'P 1'
_cell_length_a   6.86134459
_cell_length_b   6.86149841
_cell_length_c   12.60185100
_cell_angle_alpha   89.91838384
_cell_angle_beta   90.17386640
_cell_angle_gamma   89.90517955
_symmetry_Int_Tables_number   1
_chemical_formula_structural   TbZr7Ti6Nb5Si16Mo
_chemical_formula_sum   'Tb1 Zr7 Ti6 Nb5 Si16 Mo1'
_cell_volume   593.27971595
_cell_formula_units_Z   1
loop_
 _symmetry_equiv_pos_site_id
 _symmetry_equiv_pos_as_xyz
  1  'x, y, z'
loop_
 _atom_site_type_symbol
 _atom_site_label
 _atom_site_symmetry_multiplicity
 _atom_site_fract_x
 _atom_site_fract_y
 _atom_site_fract_z
 _atom_site_occupancy
  Tb  Tb0  1  0.995779  0.661492  0.030310  1
  Zr  Zr1  1  0.342871  0.997357  0.469915  1
  Zr  Zr2  1  0.500611  0.843617  0.718746  1
  Zr  Zr3  1  0.496465  0.156885  0.220126  1
  Zr  Zr4  1  0.842880  0.501297  0.282480  1
  Zr  Zr5  1  0.159250  0.497860  0.781059  1
  Zr  Zr6  1  0.653211  0.001051  0.967218  1
  Zr  Zr7  1  0.999724  0.342446  0.531921  1
  Ti  Ti8  1  0.503668  0.345763  0.622922  1
  Ti  Ti9  1  0.652904  0.492692  0.874906  1
  Ti  Ti10  1  0.348688  0.504033  0.378372  1
  Ti  Ti11  1  0.847683  0.996119  0.374474  1
  Ti  Ti12  1  0.004659  0.152230  0.129553  1
  Ti  Ti13  1  0.995742  0.847332  0.625917  1
  Nb  Nb14  1  0.330906  0.329083  0.998656  1
  Nb  Nb15  1  0.169259  0.831975  0.251095  1
  Nb  Nb16  1  0.830486  0.170352  0.748568  1
  Nb  Nb17  1  0.671113  0.669692  0.499983  1
  Nb  Nb18  1  0.494351  0.652050  0.124235  1
  Si  Si19  1  0.208730  0.133263  0.675802  1
  Si  Si20  1  0.370502  0.709870  0.923838  1
  Si  Si21  1  0.633912  0.291422  0.426564  1
  Si  Si22  1  0.706016  0.358895  0.072365  1
  Si  Si23  1  0.293578  0.633599  0.573740  1
  Si  Si24  1  0.789813  0.871458  0.180832  1
  Si  Si25  1  0.134856  0.207384  0.325161  1
  Si  Si26  1  0.866237  0.795656  0.818987  1
  Si  Si27  1  0.294633  0.958777  0.062810  1
  Si  Si28  1  0.545270  0.796830  0.315500  1
  Si  Si29  1  0.454433  0.206765  0.810992  1
  Si  Si30  1  0.794027  0.546911  0.686043  1
  Si  Si31  1  0.203585  0.450489  0.189377  1
  Si  Si32  1  0.705871  0.045862  0.562539  1
  Si  Si33  1  0.954081  0.288779  0.936580  1
  Si  Si34  1  0.046870  0.705421  0.437294  1
  Mo  Mo35  1  0.157333  0.005294  0.871118  1
