# generated using pymatgen
data_Ho12ZnInNi4
_symmetry_space_group_name_H-M   'P 1'
_cell_length_a   8.30904722
_cell_length_b   8.30915565
_cell_length_c   8.30904724
_cell_angle_alpha   113.18064674
_cell_angle_beta   109.44898845
_cell_angle_gamma   105.86624825
_symmetry_Int_Tables_number   1
_chemical_formula_structural   Ho12ZnInNi4
_chemical_formula_sum   'Ho12 Zn1 In1 Ni4'
_cell_volume   439.81100889
_cell_formula_units_Z   1
loop_
 _symmetry_equiv_pos_site_id
 _symmetry_equiv_pos_as_xyz
  1  'x, y, z'
loop_
 _atom_site_type_symbol
 _atom_site_label
 _atom_site_symmetry_multiplicity
 _atom_site_fract_x
 _atom_site_fract_y
 _atom_site_fract_z
 _atom_site_occupancy
  Ho  Ho0  1  0.424999  0.228595  0.196401  1
  Ho  Ho1  1  0.575001  0.771405  0.803599  1
  Ho  Ho2  1  0.032193  0.228595  0.803597  1
  Ho  Ho3  1  0.967807  0.771405  0.196403  1
  Ho  Ho4  1  0.180828  0.289961  0.470798  1
  Ho  Ho5  1  0.819172  0.710039  0.529202  1
  Ho  Ho6  1  0.180837  0.710039  0.890867  1
  Ho  Ho7  1  0.819163  0.289961  0.109133  1
  Ho  Ho8  1  0.323916  0.631894  0.307978  1
  Ho  Ho9  1  0.676084  0.368106  0.692022  1
  Ho  Ho10  1  0.323903  0.015937  0.692034  1
  Ho  Ho11  1  0.676097  0.984063  0.307966  1
  Zn  Zn12  1  0.000000  0.000000  0.000000  1
  In  In13  1  0.500000  0.500000  0.000000  1
  Ni  Ni14  1  0.351352  0.000000  0.351352  1
  Ni  Ni15  1  0.648648  0.000000  0.648648  1
  Ni  Ni16  1  0.123450  0.623457  0.500007  1
  Ni  Ni17  1  0.876550  0.376543  0.499993  1
