# generated using pymatgen
data_Sm3Th(GaRh)4
_symmetry_space_group_name_H-M   'P 1'
_cell_length_a   4.36077500
_cell_length_b   7.00535916
_cell_length_c   7.89914496
_cell_angle_alpha   89.87264913
_cell_angle_beta   90.00000000
_cell_angle_gamma   90.00000000
_symmetry_Int_Tables_number   1
_chemical_formula_structural   Sm3Th(GaRh)4
_chemical_formula_sum   'Sm3 Th1 Ga4 Rh4'
_cell_volume   241.30876456
_cell_formula_units_Z   1
loop_
 _symmetry_equiv_pos_site_id
 _symmetry_equiv_pos_as_xyz
  1  'x, y, z'
loop_
 _atom_site_type_symbol
 _atom_site_label
 _atom_site_symmetry_multiplicity
 _atom_site_fract_x
 _atom_site_fract_y
 _atom_site_fract_z
 _atom_site_occupancy
  Sm  Sm0  1  0.250000  0.969135  0.310672  1
  Sm  Sm1  1  0.250000  0.469826  0.194718  1
  Sm  Sm2  1  0.750000  0.029647  0.688633  1
  Th  Th3  1  0.750000  0.530795  0.814475  1
  Ga  Ga4  1  0.250000  0.340117  0.565685  1
  Ga  Ga5  1  0.250000  0.857633  0.932173  1
  Ga  Ga6  1  0.750000  0.654884  0.426610  1
  Ga  Ga7  1  0.750000  0.150026  0.071454  1
  Rh  Rh8  1  0.250000  0.242390  0.889753  1
  Rh  Rh9  1  0.250000  0.722421  0.614756  1
  Rh  Rh10  1  0.750000  0.765187  0.100813  1
  Rh  Rh11  1  0.750000  0.267937  0.390257  1
