# generated using pymatgen
data_Sm2Tm4MgCo17P12
_symmetry_space_group_name_H-M   'P 1'
_cell_length_a   3.71669000
_cell_length_b   10.57440300
_cell_length_c   12.24685500
_cell_angle_alpha   90.00000000
_cell_angle_beta   90.00000000
_cell_angle_gamma   90.00000000
_symmetry_Int_Tables_number   1
_chemical_formula_structural   Sm2Tm4MgCo17P12
_chemical_formula_sum   'Sm2 Tm4 Mg1 Co17 P12'
_cell_volume   481.32317501
_cell_formula_units_Z   1
loop_
 _symmetry_equiv_pos_site_id
 _symmetry_equiv_pos_as_xyz
  1  'x, y, z'
loop_
 _atom_site_type_symbol
 _atom_site_label
 _atom_site_symmetry_multiplicity
 _atom_site_fract_x
 _atom_site_fract_y
 _atom_site_fract_z
 _atom_site_occupancy
  Sm  Sm0  1  0.000000  0.500000  0.526360  1
  Sm  Sm1  1  0.500000  0.000000  0.477091  1
  Tm  Tm2  1  0.500000  0.822069  0.206726  1
  Tm  Tm3  1  0.500000  0.177931  0.206726  1
  Tm  Tm4  1  0.000000  0.682349  0.795199  1
  Tm  Tm5  1  0.000000  0.317651  0.795199  1
  Mg  Mg6  1  0.500000  0.500000  0.152663  1
  Co  Co7  1  0.000000  0.000000  0.839305  1
  Co  Co8  1  0.500000  0.500000  0.707458  1
  Co  Co9  1  0.000000  0.000000  0.293230  1
  Co  Co10  1  0.000000  0.500000  0.986393  1
  Co  Co11  1  0.500000  0.000000  0.011632  1
  Co  Co12  1  0.500000  0.328966  0.993035  1
  Co  Co13  1  0.500000  0.671034  0.993035  1
  Co  Co14  1  0.000000  0.163436  0.001473  1
  Co  Co15  1  0.000000  0.836564  0.001473  1
  Co  Co16  1  0.500000  0.295211  0.432135  1
  Co  Co17  1  0.500000  0.704789  0.432135  1
  Co  Co18  1  0.000000  0.202974  0.571400  1
  Co  Co19  1  0.000000  0.797026  0.571400  1
  Co  Co20  1  0.500000  0.879618  0.710047  1
  Co  Co21  1  0.500000  0.120382  0.710047  1
  Co  Co22  1  0.000000  0.623427  0.291493  1
  Co  Co23  1  0.000000  0.376573  0.291493  1
  P  P24  1  0.500000  0.500000  0.884095  1
  P  P25  1  0.000000  0.000000  0.115724  1
  P  P26  1  0.500000  0.500000  0.352292  1
  P  P27  1  0.000000  0.000000  0.656769  1
  P  P28  1  0.500000  0.308186  0.618969  1
  P  P29  1  0.500000  0.691814  0.618969  1
  P  P30  1  0.000000  0.190741  0.384153  1
  P  P31  1  0.000000  0.809259  0.384153  1
  P  P32  1  0.500000  0.848621  0.889956  1
  P  P33  1  0.500000  0.151379  0.889956  1
  P  P34  1  0.000000  0.663860  0.103909  1
  P  P35  1  0.000000  0.336140  0.103909  1
