# generated using pymatgen
data_ThBe12Cu
_symmetry_space_group_name_H-M   'P 1'
_cell_length_a   7.38196823
_cell_length_b   7.40360836
_cell_length_c   7.35742592
_cell_angle_alpha   60.01204267
_cell_angle_beta   59.77889759
_cell_angle_gamma   59.68357337
_symmetry_Int_Tables_number   1
_chemical_formula_structural   ThBe12Cu
_chemical_formula_sum   'Th2 Be24 Cu2'
_cell_volume   283.19711850
_cell_formula_units_Z   2
loop_
 _symmetry_equiv_pos_site_id
 _symmetry_equiv_pos_as_xyz
  1  'x, y, z'
loop_
 _atom_site_type_symbol
 _atom_site_label
 _atom_site_symmetry_multiplicity
 _atom_site_fract_x
 _atom_site_fract_y
 _atom_site_fract_z
 _atom_site_occupancy
  Th  Th0  1  0.251254  0.248746  0.251254  1
  Th  Th1  1  0.748746  0.751254  0.748746  1
  Be  Be2  1  0.500000  0.500000  0.500000  1
  Be  Be3  1  0.000000  0.000000  0.000000  1
  Be  Be4  1  0.563824  0.790434  0.436176  1
  Be  Be5  1  0.436176  0.209566  0.563824  1
  Be  Be6  1  0.288065  0.937435  0.711935  1
  Be  Be7  1  0.711935  0.062565  0.288065  1
  Be  Be8  1  0.932049  0.278376  0.067951  1
  Be  Be9  1  0.067951  0.721624  0.932049  1
  Be  Be10  1  0.212261  0.794837  0.556973  1
  Be  Be11  1  0.787739  0.205163  0.443027  1
  Be  Be12  1  0.443027  0.564071  0.787739  1
  Be  Be13  1  0.556973  0.435929  0.212261  1
  Be  Be14  1  0.712758  0.285307  0.937821  1
  Be  Be15  1  0.287242  0.714693  0.062179  1
  Be  Be16  1  0.062179  0.935887  0.287242  1
  Be  Be17  1  0.937821  0.064113  0.712758  1
  Be  Be18  1  0.566271  0.208656  0.789041  1
  Be  Be19  1  0.433729  0.791344  0.210959  1
  Be  Be20  1  0.789041  0.436033  0.566271  1
  Be  Be21  1  0.210959  0.563967  0.433729  1
  Be  Be22  1  0.937924  0.715573  0.286484  1
  Be  Be23  1  0.062076  0.284427  0.713516  1
  Be  Be24  1  0.286484  0.060018  0.937924  1
  Be  Be25  1  0.713516  0.939982  0.062076  1
  Cu  Cu26  1  0.801168  0.558170  0.198832  1
  Cu  Cu27  1  0.198832  0.441830  0.801168  1
