# generated using pymatgen
data_Co3Sb12Pt
_symmetry_space_group_name_H-M   'P 1'
_cell_length_a   8.01099155
_cell_length_b   8.01099184
_cell_length_c   8.01099246
_cell_angle_alpha   109.56170174
_cell_angle_beta   109.56169758
_cell_angle_gamma   109.56170673
_symmetry_Int_Tables_number   1
_chemical_formula_structural   Co3Sb12Pt
_chemical_formula_sum   'Co3 Sb12 Pt1'
_cell_volume   394.43327024
_cell_formula_units_Z   1
loop_
 _symmetry_equiv_pos_site_id
 _symmetry_equiv_pos_as_xyz
  1  'x, y, z'
loop_
 _atom_site_type_symbol
 _atom_site_label
 _atom_site_symmetry_multiplicity
 _atom_site_fract_x
 _atom_site_fract_y
 _atom_site_fract_z
 _atom_site_occupancy
  Co  Co0  1  0.500000  0.000000  0.000000  1
  Co  Co1  1  0.000000  0.500000  0.000000  1
  Co  Co2  1  0.000000  0.000000  0.500000  1
  Sb  Sb3  1  0.332305  0.840058  0.172361  1
  Sb  Sb4  1  0.667695  0.159942  0.827639  1
  Sb  Sb5  1  0.329221  0.145813  0.494770  1
  Sb  Sb6  1  0.670779  0.854187  0.505230  1
  Sb  Sb7  1  0.840058  0.172361  0.332305  1
  Sb  Sb8  1  0.159942  0.827639  0.667695  1
  Sb  Sb9  1  0.145813  0.494770  0.329221  1
  Sb  Sb10  1  0.854187  0.505230  0.670779  1
  Sb  Sb11  1  0.172361  0.332305  0.840058  1
  Sb  Sb12  1  0.827639  0.667695  0.159942  1
  Sb  Sb13  1  0.494770  0.329221  0.145813  1
  Sb  Sb14  1  0.505230  0.670779  0.854187  1
  Pt  Pt15  1  0.500000  0.500000  0.500000  1
