# generated using pymatgen
data_PrErV3Ni9As7
_symmetry_space_group_name_H-M   'P 1'
_cell_length_a   9.51167300
_cell_length_b   9.51167286
_cell_length_c   3.83054800
_cell_angle_alpha   90.00000000
_cell_angle_beta   90.00000000
_cell_angle_gamma   120.00000397
_symmetry_Int_Tables_number   1
_chemical_formula_structural   PrErV3Ni9As7
_chemical_formula_sum   'Pr1 Er1 V3 Ni9 As7'
_cell_volume   300.12718815
_cell_formula_units_Z   1
loop_
 _symmetry_equiv_pos_site_id
 _symmetry_equiv_pos_as_xyz
  1  'x, y, z'
loop_
 _atom_site_type_symbol
 _atom_site_label
 _atom_site_symmetry_multiplicity
 _atom_site_fract_x
 _atom_site_fract_y
 _atom_site_fract_z
 _atom_site_occupancy
  Pr  Pr0  1  0.333333  0.666667  0.000000  1
  Er  Er1  1  0.666667  0.333333  0.500000  1
  V  V2  1  0.215444  0.111549  0.500000  1
  V  V3  1  0.888451  0.103897  0.500000  1
  V  V4  1  0.896103  0.784556  0.500000  1
  Ni  Ni5  1  0.127530  0.278998  0.000000  1
  Ni  Ni6  1  0.721002  0.848532  0.000000  1
  Ni  Ni7  1  0.151468  0.872470  0.000000  1
  Ni  Ni8  1  0.432617  0.368397  0.000000  1
  Ni  Ni9  1  0.631603  0.064220  0.000000  1
  Ni  Ni10  1  0.935780  0.567383  0.000000  1
  Ni  Ni11  1  0.050950  0.430968  0.500000  1
  Ni  Ni12  1  0.569032  0.619981  0.500000  1
  Ni  Ni13  1  0.380019  0.949050  0.500000  1
  As  As14  1  0.292863  0.400964  0.500000  1
  As  As15  1  0.599036  0.891899  0.500000  1
  As  As16  1  0.108101  0.707137  0.500000  1
  As  As17  1  0.410177  0.113522  0.000000  1
  As  As18  1  0.886478  0.296654  0.000000  1
  As  As19  1  0.703346  0.589823  0.000000  1
  As  As20  1  0.000000  0.000000  0.000000  1
