# generated using pymatgen
data_Co3Sb7TePt
_symmetry_space_group_name_H-M   'P 1'
_cell_length_a   6.38688132
_cell_length_b   6.57229550
_cell_length_c   6.57171629
_cell_angle_alpha   70.72772308
_cell_angle_beta   89.78934856
_cell_angle_gamma   89.80421634
_symmetry_Int_Tables_number   1
_chemical_formula_structural   Co3Sb7TePt
_chemical_formula_sum   'Co3 Sb7 Te1 Pt1'
_cell_volume   260.39614974
_cell_formula_units_Z   1
loop_
 _symmetry_equiv_pos_site_id
 _symmetry_equiv_pos_as_xyz
  1  'x, y, z'
loop_
 _atom_site_type_symbol
 _atom_site_label
 _atom_site_symmetry_multiplicity
 _atom_site_fract_x
 _atom_site_fract_y
 _atom_site_fract_z
 _atom_site_occupancy
  Co  Co0  1  0.501114  0.748808  0.754499  1
  Co  Co1  1  0.999328  0.748463  0.254741  1
  Co  Co2  1  0.501099  0.251204  0.244974  1
  Sb  Sb3  1  0.145452  0.662678  0.636625  1
  Sb  Sb4  1  0.356998  0.643556  0.147542  1
  Sb  Sb5  1  0.855172  0.365899  0.337382  1
  Sb  Sb6  1  0.371382  0.134396  0.629963  1
  Sb  Sb7  1  0.854263  0.841835  0.871115  1
  Sb  Sb8  1  0.642544  0.856489  0.360297  1
  Sb  Sb9  1  0.146333  0.131607  0.157914  1
  Te  Te10  1  0.623368  0.362769  0.858642  1
  Pt  Pt11  1  0.002946  0.252297  0.746306  1
