# generated using pymatgen
data_TlP8Pd4Pb3O28
_symmetry_space_group_name_H-M   'P 1'
_cell_length_a   5.95273800
_cell_length_b   7.56382705
_cell_length_c   14.05558717
_cell_angle_alpha   88.84182830
_cell_angle_beta   90.00000000
_cell_angle_gamma   90.00000000
_symmetry_Int_Tables_number   1
_chemical_formula_structural   TlP8Pd4Pb3O28
_chemical_formula_sum   'Tl1 P8 Pd4 Pb3 O28'
_cell_volume   632.73027927
_cell_formula_units_Z   1
loop_
 _symmetry_equiv_pos_site_id
 _symmetry_equiv_pos_as_xyz
  1  'x, y, z'
loop_
 _atom_site_type_symbol
 _atom_site_label
 _atom_site_symmetry_multiplicity
 _atom_site_fract_x
 _atom_site_fract_y
 _atom_site_fract_z
 _atom_site_occupancy
  Tl  Tl0  1  0.250000  0.241680  0.741469  1
  P  P1  1  0.250000  0.766683  0.614797  1
  P  P2  1  0.250000  0.714976  0.120228  1
  P  P3  1  0.750000  0.209573  0.377180  1
  P  P4  1  0.750000  0.296357  0.890337  1
  P  P5  1  0.750000  0.171401  0.580589  1
  P  P6  1  0.750000  0.325456  0.093337  1
  P  P7  1  0.250000  0.819009  0.410395  1
  P  P8  1  0.250000  0.696304  0.914374  1
  Pd  Pd9  1  0.997914  0.493253  0.493838  1
  Pd  Pd10  1  0.502019  0.007577  0.005690  1
  Pd  Pd11  1  0.502086  0.493253  0.493838  1
  Pd  Pd12  1  0.997981  0.007577  0.005690  1
  Pb  Pb13  1  0.250000  0.259372  0.243772  1
  Pb  Pb14  1  0.750000  0.759301  0.255925  1
  Pb  Pb15  1  0.750000  0.738597  0.753732  1
  O  O16  1  0.750000  0.023049  0.652169  1
  O  O17  1  0.750000  0.466908  0.166169  1
  O  O18  1  0.250000  0.969880  0.340070  1
  O  O19  1  0.250000  0.555162  0.842726  1
  O  O20  1  0.250000  0.891025  0.518443  1
  O  O21  1  0.250000  0.607818  0.022686  1
  O  O22  1  0.750000  0.089259  0.472899  1
  O  O23  1  0.750000  0.412985  0.987148  1
  O  O24  1  0.966758  0.285791  0.584924  1
  O  O25  1  0.532883  0.209092  0.100133  1
  O  O26  1  0.467538  0.704474  0.401475  1
  O  O27  1  0.030642  0.810738  0.909905  1
  O  O28  1  0.032462  0.704474  0.401475  1
  O  O29  1  0.469358  0.810738  0.909905  1
  O  O30  1  0.533242  0.285791  0.584924  1
  O  O31  1  0.967117  0.209092  0.100133  1
  O  O32  1  0.250000  0.877033  0.701480  1
  O  O33  1  0.250000  0.588205  0.204013  1
  O  O34  1  0.750000  0.090617  0.292764  1
  O  O35  1  0.750000  0.420190  0.805665  1
  O  O36  1  0.031779  0.650914  0.609339  1
  O  O37  1  0.465419  0.833895  0.119869  1
  O  O38  1  0.535415  0.329689  0.378953  1
  O  O39  1  0.965176  0.179160  0.894692  1
  O  O40  1  0.964585  0.329689  0.378953  1
  O  O41  1  0.534824  0.179160  0.894692  1
  O  O42  1  0.468221  0.650914  0.609339  1
  O  O43  1  0.034581  0.833895  0.119869  1
