# generated using pymatgen
data_ErTi2Fe9
_symmetry_space_group_name_H-M   'P 1'
_cell_length_a   8.31374430
_cell_length_b   8.31374398
_cell_length_c   8.31374358
_cell_angle_alpha   34.15479419
_cell_angle_beta   34.15481141
_cell_angle_gamma   34.15479580
_symmetry_Int_Tables_number   1
_chemical_formula_structural   ErTi2Fe9
_chemical_formula_sum   'Er1 Ti2 Fe9'
_cell_volume   161.49363962
_cell_formula_units_Z   1
loop_
 _symmetry_equiv_pos_site_id
 _symmetry_equiv_pos_as_xyz
  1  'x, y, z'
loop_
 _atom_site_type_symbol
 _atom_site_label
 _atom_site_symmetry_multiplicity
 _atom_site_fract_x
 _atom_site_fract_y
 _atom_site_fract_z
 _atom_site_occupancy
  Er  Er0  1  0.000000  0.000000  0.000000  1
  Ti  Ti1  1  0.144582  0.144582  0.144582  1
  Ti  Ti2  1  0.855418  0.855418  0.855418  1
  Fe  Fe3  1  0.411792  0.411792  0.917433  1
  Fe  Fe4  1  0.917433  0.411792  0.411792  1
  Fe  Fe5  1  0.588208  0.082567  0.588208  1
  Fe  Fe6  1  0.588208  0.588208  0.082567  1
  Fe  Fe7  1  0.411792  0.917433  0.411792  1
  Fe  Fe8  1  0.082567  0.588208  0.588208  1
  Fe  Fe9  1  0.333268  0.333268  0.333268  1
  Fe  Fe10  1  0.666732  0.666732  0.666732  1
  Fe  Fe11  1  0.500000  0.500000  0.500000  1
