# generated using pymatgen
data_TlMo(CO3)2
_symmetry_space_group_name_H-M   'P 1'
_cell_length_a   13.98335398
_cell_length_b   13.98317379
_cell_length_c   13.98338800
_cell_angle_alpha   21.07370803
_cell_angle_beta   21.07453011
_cell_angle_gamma   21.07331212
_symmetry_Int_Tables_number   1
_chemical_formula_structural   TlMo(CO3)2
_chemical_formula_sum   'Tl2 Mo2 C4 O12'
_cell_volume   309.59674228
_cell_formula_units_Z   2
loop_
 _symmetry_equiv_pos_site_id
 _symmetry_equiv_pos_as_xyz
  1  'x, y, z'
loop_
 _atom_site_type_symbol
 _atom_site_label
 _atom_site_symmetry_multiplicity
 _atom_site_fract_x
 _atom_site_fract_y
 _atom_site_fract_z
 _atom_site_occupancy
  Tl  Tl0  1  0.249999  0.249997  0.250004  1
  Tl  Tl1  1  0.750001  0.750003  0.749996  1
  Mo  Mo2  1  0.500000  0.500000  0.500000  1
  Mo  Mo3  1  0.000000  0.000000  0.000000  1
  C  C4  1  0.362570  0.362569  0.362615  1
  C  C5  1  0.862597  0.862564  0.862595  1
  C  C6  1  0.637430  0.637431  0.637385  1
  C  C7  1  0.137403  0.137436  0.137405  1
  O  O8  1  0.316052  0.638064  0.136325  1
  O  O9  1  0.136358  0.316064  0.638021  1
  O  O10  1  0.638062  0.136309  0.316069  1
  O  O11  1  0.636303  0.138076  0.816062  1
  O  O12  1  0.816059  0.636331  0.138053  1
  O  O13  1  0.138014  0.816059  0.636367  1
  O  O14  1  0.683948  0.361936  0.863675  1
  O  O15  1  0.863642  0.683936  0.361979  1
  O  O16  1  0.361938  0.863691  0.683931  1
  O  O17  1  0.363697  0.861924  0.183938  1
  O  O18  1  0.183941  0.363669  0.861947  1
  O  O19  1  0.861986  0.183941  0.363633  1
