# generated using pymatgen
data_Cs3KSe24
_symmetry_space_group_name_H-M   'P 1'
_cell_length_a   11.65572433
_cell_length_b   11.65572512
_cell_length_c   11.60143023
_cell_angle_alpha   126.94790060
_cell_angle_beta   122.12704541
_cell_angle_gamma   82.66849960
_symmetry_Int_Tables_number   1
_chemical_formula_structural   Cs3KSe24
_chemical_formula_sum   'Cs3 K1 Se24'
_cell_volume   1022.88044022
_cell_formula_units_Z   1
loop_
 _symmetry_equiv_pos_site_id
 _symmetry_equiv_pos_as_xyz
  1  'x, y, z'
loop_
 _atom_site_type_symbol
 _atom_site_label
 _atom_site_symmetry_multiplicity
 _atom_site_fract_x
 _atom_site_fract_y
 _atom_site_fract_z
 _atom_site_occupancy
  Cs  Cs0  1  0.000000  0.000000  0.000000  1
  Cs  Cs1  1  0.747176  0.247176  0.500000  1
  Cs  Cs2  1  0.252824  0.752824  0.500000  1
  K  K3  1  0.500000  0.500000  0.000000  1
  Se  Se4  1  0.645521  0.749312  0.896819  1
  Se  Se5  1  0.852493  0.748702  0.103181  1
  Se  Se6  1  0.354479  0.250688  0.103181  1
  Se  Se7  1  0.147507  0.251298  0.896819  1
  Se  Se8  1  0.248886  0.158370  0.698976  1
  Se  Se9  1  0.263394  0.948035  0.906765  1
  Se  Se10  1  0.041270  0.356629  0.093235  1
  Se  Se11  1  0.459394  0.549910  0.301024  1
  Se  Se12  1  0.751114  0.841630  0.301024  1
  Se  Se13  1  0.736606  0.051965  0.093235  1
  Se  Se14  1  0.958730  0.643371  0.906765  1
  Se  Se15  1  0.540606  0.450090  0.698976  1
  Se  Se16  1  0.915295  0.816609  0.514591  1
  Se  Se17  1  0.580496  0.100925  0.901390  1
  Se  Se18  1  0.199536  0.679107  0.098610  1
  Se  Se19  1  0.302017  0.400703  0.485409  1
  Se  Se20  1  0.084705  0.183391  0.485409  1
  Se  Se21  1  0.419504  0.899075  0.098610  1
  Se  Se22  1  0.800465  0.320893  0.901390  1
  Se  Se23  1  0.697983  0.599297  0.514591  1
  Se  Se24  1  0.666907  0.076405  0.743311  1
  Se  Se25  1  0.830530  0.572258  0.402788  1
  Se  Se26  1  0.169470  0.427742  0.597212  1
  Se  Se27  1  0.333093  0.923595  0.256689  1
