# generated using pymatgen
data_Sm5PPb3
_symmetry_space_group_name_H-M   'P 1'
_cell_length_a   9.37248300
_cell_length_b   9.37248343
_cell_length_c   6.94028400
_cell_angle_alpha   90.00000000
_cell_angle_beta   90.00000000
_cell_angle_gamma   120.00000909
_symmetry_Int_Tables_number   1
_chemical_formula_structural   Sm5PPb3
_chemical_formula_sum   'Sm10 P2 Pb6'
_cell_volume   527.97964146
_cell_formula_units_Z   2
loop_
 _symmetry_equiv_pos_site_id
 _symmetry_equiv_pos_as_xyz
  1  'x, y, z'
loop_
 _atom_site_type_symbol
 _atom_site_label
 _atom_site_symmetry_multiplicity
 _atom_site_fract_x
 _atom_site_fract_y
 _atom_site_fract_z
 _atom_site_occupancy
  Sm  Sm0  1  0.762894  0.762894  0.750000  1
  Sm  Sm1  1  0.237106  0.000000  0.750000  1
  Sm  Sm2  1  0.000000  0.237106  0.750000  1
  Sm  Sm3  1  0.237106  0.237106  0.250000  1
  Sm  Sm4  1  0.762894  0.000000  0.250000  1
  Sm  Sm5  1  0.000000  0.762894  0.250000  1
  Sm  Sm6  1  0.666667  0.333333  0.000000  1
  Sm  Sm7  1  0.333333  0.666667  0.000000  1
  Sm  Sm8  1  0.333333  0.666667  0.500000  1
  Sm  Sm9  1  0.666667  0.333333  0.500000  1
  P  P10  1  0.000000  0.000000  0.000000  1
  P  P11  1  0.000000  0.000000  0.500000  1
  Pb  Pb12  1  0.400138  0.400138  0.750000  1
  Pb  Pb13  1  0.599862  0.000000  0.750000  1
  Pb  Pb14  1  0.000000  0.599862  0.750000  1
  Pb  Pb15  1  0.599862  0.599862  0.250000  1
  Pb  Pb16  1  0.400138  0.000000  0.250000  1
  Pb  Pb17  1  0.000000  0.400138  0.250000  1
