# generated using pymatgen
data_Er15LuIn4Pt3Rh
_symmetry_space_group_name_H-M   'P 1'
_cell_length_a   9.61060423
_cell_length_b   9.61060590
_cell_length_c   9.61130403
_cell_angle_alpha   60.05688558
_cell_angle_beta   60.05688741
_cell_angle_gamma   60.03768971
_symmetry_Int_Tables_number   1
_chemical_formula_structural   Er15LuIn4Pt3Rh
_chemical_formula_sum   'Er15 Lu1 In4 Pt3 Rh1'
_cell_volume   628.44233338
_cell_formula_units_Z   1
loop_
 _symmetry_equiv_pos_site_id
 _symmetry_equiv_pos_as_xyz
  1  'x, y, z'
loop_
 _atom_site_type_symbol
 _atom_site_label
 _atom_site_symmetry_multiplicity
 _atom_site_fract_x
 _atom_site_fract_y
 _atom_site_fract_z
 _atom_site_occupancy
  Er  Er0  1  0.437864  0.062443  0.061824  1
  Er  Er1  1  0.436801  0.064276  0.437547  1
  Er  Er2  1  0.062443  0.437864  0.061824  1
  Er  Er3  1  0.649818  0.052479  0.650483  1
  Er  Er4  1  0.186857  0.810872  0.810359  1
  Er  Er5  1  0.062166  0.062166  0.438249  1
  Er  Er6  1  0.809070  0.190474  0.190186  1
  Er  Er7  1  0.810539  0.810539  0.186708  1
  Er  Er8  1  0.650254  0.650254  0.052175  1
  Er  Er9  1  0.649141  0.649141  0.649371  1
  Er  Er10  1  0.064276  0.436801  0.437547  1
  Er  Er11  1  0.052479  0.649818  0.650483  1
  Er  Er12  1  0.810872  0.186857  0.810359  1
  Er  Er13  1  0.437087  0.437087  0.064061  1
  Er  Er14  1  0.190474  0.809070  0.190186  1
  Lu  Lu15  1  0.190413  0.190413  0.808807  1
  In  In16  1  0.416682  0.749643  0.416723  1
  In  In17  1  0.416635  0.416635  0.749660  1
  In  In18  1  0.749643  0.416682  0.416723  1
  In  In19  1  0.415994  0.415994  0.416296  1
  Pt  Pt20  1  0.858659  0.426974  0.857515  1
  Pt  Pt21  1  0.857568  0.857568  0.427981  1
  Pt  Pt22  1  0.426974  0.858659  0.857515  1
  Rh  Rh23  1  0.857296  0.857296  0.857418  1
