# generated using pymatgen
data_Tb2YZn3Si2Pd
_symmetry_space_group_name_H-M   'P 1'
_cell_length_a   6.87284663
_cell_length_b   6.88508330
_cell_length_c   4.28763000
_cell_angle_alpha   90.00000000
_cell_angle_beta   90.00000000
_cell_angle_gamma   120.05889849
_symmetry_Int_Tables_number   1
_chemical_formula_structural   Tb2YZn3Si2Pd
_chemical_formula_sum   'Tb2 Y1 Zn3 Si2 Pd1'
_cell_volume   175.60453387
_cell_formula_units_Z   1
loop_
 _symmetry_equiv_pos_site_id
 _symmetry_equiv_pos_as_xyz
  1  'x, y, z'
loop_
 _atom_site_type_symbol
 _atom_site_label
 _atom_site_symmetry_multiplicity
 _atom_site_fract_x
 _atom_site_fract_y
 _atom_site_fract_z
 _atom_site_occupancy
  Tb  Tb0  1  0.585665  0.585573  0.000000  1
  Tb  Tb1  1  0.414335  0.999908  0.000000  1
  Y  Y2  1  0.000000  0.415241  0.000000  1
  Zn  Zn3  1  0.000000  0.757346  0.500000  1
  Zn  Zn4  1  0.242063  0.242426  0.500000  1
  Zn  Zn5  1  0.757937  0.000363  0.500000  1
  Si  Si6  1  0.333200  0.666603  0.500000  1
  Si  Si7  1  0.666800  0.333402  0.500000  1
  Pd  Pd8  1  0.000000  0.999138  0.000000  1
