# generated using pymatgen
data_La6Tb2YbPt6
_symmetry_space_group_name_H-M   'P 1'
_cell_length_a   7.75312213
_cell_length_b   7.75312049
_cell_length_c   7.75312101
_cell_angle_alpha   70.76802003
_cell_angle_beta   70.76802487
_cell_angle_gamma   70.76802530
_symmetry_Int_Tables_number   1
_chemical_formula_structural   La6Tb2YbPt6
_chemical_formula_sum   'La6 Tb2 Yb1 Pt6'
_cell_volume   402.52488363
_cell_formula_units_Z   1
loop_
 _symmetry_equiv_pos_site_id
 _symmetry_equiv_pos_as_xyz
  1  'x, y, z'
loop_
 _atom_site_type_symbol
 _atom_site_label
 _atom_site_symmetry_multiplicity
 _atom_site_fract_x
 _atom_site_fract_y
 _atom_site_fract_z
 _atom_site_occupancy
  La  La0  1  0.327753  0.604951  0.845388  1
  La  La1  1  0.845388  0.327753  0.604951  1
  La  La2  1  0.604951  0.845388  0.327753  1
  La  La3  1  0.672247  0.395049  0.154612  1
  La  La4  1  0.154612  0.672247  0.395049  1
  La  La5  1  0.395049  0.154612  0.672247  1
  Tb  Tb6  1  0.804898  0.804898  0.804898  1
  Tb  Tb7  1  0.195102  0.195102  0.195102  1
  Yb  Yb8  1  0.000000  0.000000  0.000000  1
  Pt  Pt9  1  0.166187  0.957937  0.585518  1
  Pt  Pt10  1  0.585518  0.166187  0.957937  1
  Pt  Pt11  1  0.957937  0.585518  0.166187  1
  Pt  Pt12  1  0.833813  0.042063  0.414482  1
  Pt  Pt13  1  0.414482  0.833813  0.042063  1
  Pt  Pt14  1  0.042063  0.414482  0.833813  1
