# generated using pymatgen
data_Ho3BeCo9SiB4
_symmetry_space_group_name_H-M   'P 1'
_cell_length_a   5.05951503
_cell_length_b   5.05612953
_cell_length_c   9.32345700
_cell_angle_alpha   89.99864265
_cell_angle_beta   89.99956468
_cell_angle_gamma   120.02756230
_symmetry_Int_Tables_number   1
_chemical_formula_structural   Ho3BeCo9SiB4
_chemical_formula_sum   'Ho3 Be1 Co9 Si1 B4'
_cell_volume   206.49712026
_cell_formula_units_Z   1
loop_
 _symmetry_equiv_pos_site_id
 _symmetry_equiv_pos_as_xyz
  1  'x, y, z'
loop_
 _atom_site_type_symbol
 _atom_site_label
 _atom_site_symmetry_multiplicity
 _atom_site_fract_x
 _atom_site_fract_y
 _atom_site_fract_z
 _atom_site_occupancy
  Ho  Ho0  1  0.999996  0.999996  0.000024  1
  Ho  Ho1  1  0.000003  0.000005  0.337895  1
  Ho  Ho2  1  0.000004  0.000007  0.662076  1
  Be  Be3  1  0.666486  0.333156  0.999998  1
  Co  Co4  1  0.499756  0.999516  0.499996  1
  Co  Co5  1  0.499758  0.500256  0.500004  1
  Co  Co6  1  0.000496  0.500256  0.499990  1
  Co  Co7  1  0.500920  0.001853  0.193749  1
  Co  Co8  1  0.500917  0.499067  0.193761  1
  Co  Co9  1  0.998132  0.499065  0.193740  1
  Co  Co10  1  0.500925  0.001849  0.806259  1
  Co  Co11  1  0.500923  0.499074  0.806247  1
  Co  Co12  1  0.998149  0.499072  0.806281  1
  Si  Si13  1  0.333455  0.666836  0.000027  1
  B  B14  1  0.333372  0.666756  0.343091  1
  B  B15  1  0.666614  0.333239  0.343980  1
  B  B16  1  0.666645  0.333241  0.655978  1
  B  B17  1  0.333351  0.666757  0.656902  1
