# generated using pymatgen
data_Lu9Zn(Ni2Sb)2
_symmetry_space_group_name_H-M   'P 1'
_cell_length_a   8.59579153
_cell_length_b   8.59579188
_cell_length_c   8.59579227
_cell_angle_alpha   130.68120053
_cell_angle_beta   130.68120458
_cell_angle_gamma   72.32006840
_symmetry_Int_Tables_number   1
_chemical_formula_structural   Lu9Zn(Ni2Sb)2
_chemical_formula_sum   'Lu9 Zn1 Ni4 Sb2'
_cell_volume   357.04935095
_cell_formula_units_Z   1
loop_
 _symmetry_equiv_pos_site_id
 _symmetry_equiv_pos_as_xyz
  1  'x, y, z'
loop_
 _atom_site_type_symbol
 _atom_site_label
 _atom_site_symmetry_multiplicity
 _atom_site_fract_x
 _atom_site_fract_y
 _atom_site_fract_z
 _atom_site_occupancy
  Lu  Lu0  1  0.500000  0.500000  0.000000  1
  Lu  Lu1  1  0.810105  0.280661  0.834239  1
  Lu  Lu2  1  0.189895  0.719339  0.165761  1
  Lu  Lu3  1  0.446423  0.975866  0.165761  1
  Lu  Lu4  1  0.280661  0.446423  0.470557  1
  Lu  Lu5  1  0.024134  0.189895  0.470557  1
  Lu  Lu6  1  0.553577  0.024134  0.834239  1
  Lu  Lu7  1  0.719339  0.553577  0.529443  1
  Lu  Lu8  1  0.975866  0.810105  0.529443  1
  Zn  Zn9  1  0.000000  0.000000  0.000000  1
  Ni  Ni10  1  0.128727  0.627410  0.756138  1
  Ni  Ni11  1  0.871273  0.372590  0.243862  1
  Ni  Ni12  1  0.627410  0.871273  0.498683  1
  Ni  Ni13  1  0.372590  0.128727  0.501317  1
  Sb  Sb14  1  0.266823  0.266823  0.000000  1
  Sb  Sb15  1  0.733177  0.733177  0.000000  1
