# generated using pymatgen
data_La6ZnCdAg2Pd12Rh
_symmetry_space_group_name_H-M   'P 1'
_cell_length_a   8.52703476
_cell_length_b   8.52703547
_cell_length_c   8.54602300
_cell_angle_alpha   109.51633197
_cell_angle_beta   109.51633366
_cell_angle_gamma   109.42607165
_symmetry_Int_Tables_number   1
_chemical_formula_structural   La6ZnCdAg2Pd12Rh
_chemical_formula_sum   'La6 Zn1 Cd1 Ag2 Pd12 Rh1'
_cell_volume   478.07515086
_cell_formula_units_Z   1
loop_
 _symmetry_equiv_pos_site_id
 _symmetry_equiv_pos_as_xyz
  1  'x, y, z'
loop_
 _atom_site_type_symbol
 _atom_site_label
 _atom_site_symmetry_multiplicity
 _atom_site_fract_x
 _atom_site_fract_y
 _atom_site_fract_z
 _atom_site_occupancy
  La  La0  1  0.698548  0.700134  0.997848  1
  La  La1  1  0.301452  0.001586  0.299301  1
  La  La2  1  0.000000  0.299784  0.299306  1
  La  La3  1  0.301452  0.299866  0.002152  1
  La  La4  1  0.698548  0.998414  0.700699  1
  La  La5  1  0.000000  0.700216  0.700694  1
  Zn  Zn6  1  0.000000  0.000000  0.500000  1
  Cd  Cd7  1  0.000000  0.500000  0.000000  1
  Ag  Ag8  1  0.500000  0.000000  0.000000  1
  Ag  Ag9  1  0.500000  0.500000  0.500000  1
  Pd  Pd10  1  0.332563  0.332281  0.676060  1
  Pd  Pd11  1  0.667437  0.999718  0.343496  1
  Pd  Pd12  1  0.000000  0.667776  0.343482  1
  Pd  Pd13  1  0.655797  0.343920  0.999799  1
  Pd  Pd14  1  0.344203  0.688123  0.344002  1
  Pd  Pd15  1  0.000000  0.332224  0.656518  1
  Pd  Pd16  1  0.344203  0.656080  0.000201  1
  Pd  Pd17  1  0.332563  0.000282  0.656504  1
  Pd  Pd18  1  0.688783  0.344392  0.344392  1
  Pd  Pd19  1  0.667437  0.667719  0.323940  1
  Pd  Pd20  1  0.655797  0.311877  0.655998  1
  Pd  Pd21  1  0.311217  0.655608  0.655608  1
  Rh  Rh22  1  0.000000  0.000000  0.000000  1
