# generated using pymatgen
data_Yb7Ag2GeN2
_symmetry_space_group_name_H-M   'P 1'
_cell_length_a   12.19009553
_cell_length_b   12.19009608
_cell_length_c   4.71951300
_cell_angle_alpha   90.00000000
_cell_angle_beta   90.00000000
_cell_angle_gamma   157.37993801
_symmetry_Int_Tables_number   1
_chemical_formula_structural   Yb7Ag2GeN2
_chemical_formula_sum   'Yb7 Ag2 Ge1 N2'
_cell_volume   269.73770665
_cell_formula_units_Z   1
loop_
 _symmetry_equiv_pos_site_id
 _symmetry_equiv_pos_as_xyz
  1  'x, y, z'
loop_
 _atom_site_type_symbol
 _atom_site_label
 _atom_site_symmetry_multiplicity
 _atom_site_fract_x
 _atom_site_fract_y
 _atom_site_fract_z
 _atom_site_occupancy
  Yb  Yb0  1  0.000000  0.000000  0.000000  1
  Yb  Yb1  1  0.803828  0.196173  0.000000  1
  Yb  Yb2  1  0.590492  0.409509  0.000000  1
  Yb  Yb3  1  0.409509  0.590492  0.000000  1
  Yb  Yb4  1  0.196173  0.803828  0.000000  1
  Yb  Yb5  1  0.905811  0.094190  0.500000  1
  Yb  Yb6  1  0.094190  0.905811  0.500000  1
  Ag  Ag7  1  0.706482  0.293519  0.500000  1
  Ag  Ag8  1  0.293519  0.706482  0.500000  1
  Ge  Ge9  1  0.500000  0.500000  0.500000  1
  N  N10  1  0.896364  0.103637  0.000000  1
  N  N11  1  0.103637  0.896364  0.000000  1
