# generated using pymatgen
data_TlCr5(Te3Se)2
_symmetry_space_group_name_H-M   'P 1'
_cell_length_a   10.18185402
_cell_length_b   10.18185396
_cell_length_c   9.81622300
_cell_angle_alpha   71.12525801
_cell_angle_beta   71.12525814
_cell_angle_gamma   22.41945849
_symmetry_Int_Tables_number   1
_chemical_formula_structural   TlCr5(Te3Se)2
_chemical_formula_sum   'Tl1 Cr5 Te6 Se2'
_cell_volume   366.40185362
_cell_formula_units_Z   1
loop_
 _symmetry_equiv_pos_site_id
 _symmetry_equiv_pos_as_xyz
  1  'x, y, z'
loop_
 _atom_site_type_symbol
 _atom_site_label
 _atom_site_symmetry_multiplicity
 _atom_site_fract_x
 _atom_site_fract_y
 _atom_site_fract_z
 _atom_site_occupancy
  Tl  Tl0  1  0.500000  0.500000  0.500000  1
  Cr  Cr1  1  0.000000  0.000000  0.000000  1
  Cr  Cr2  1  0.344663  0.344663  0.975099  1
  Cr  Cr3  1  0.655337  0.655337  0.024901  1
  Cr  Cr4  1  0.299287  0.299287  0.322059  1
  Cr  Cr5  1  0.700713  0.700713  0.677941  1
  Te  Te6  1  0.075919  0.075919  0.187291  1
  Te  Te7  1  0.924081  0.924081  0.812709  1
  Te  Te8  1  0.166997  0.166997  0.522851  1
  Te  Te9  1  0.833003  0.833003  0.477149  1
  Te  Te10  1  0.241108  0.241108  0.842454  1
  Te  Te11  1  0.758892  0.758892  0.157546  1
  Se  Se12  1  0.577775  0.577775  0.871006  1
  Se  Se13  1  0.422225  0.422225  0.128994  1
