# generated using pymatgen
data_Tb3Pr2Ho3(WO6)4
_symmetry_space_group_name_H-M   'P 1'
_cell_length_a   5.46760228
_cell_length_b   7.78503758
_cell_length_c   11.56077603
_cell_angle_alpha   75.71594384
_cell_angle_beta   90.00294681
_cell_angle_gamma   90.03592170
_symmetry_Int_Tables_number   1
_chemical_formula_structural   Tb3Pr2Ho3(WO6)4
_chemical_formula_sum   'Tb3 Pr2 Ho3 W4 O24'
_cell_volume   476.87674409
_cell_formula_units_Z   1
loop_
 _symmetry_equiv_pos_site_id
 _symmetry_equiv_pos_as_xyz
  1  'x, y, z'
loop_
 _atom_site_type_symbol
 _atom_site_label
 _atom_site_symmetry_multiplicity
 _atom_site_fract_x
 _atom_site_fract_y
 _atom_site_fract_z
 _atom_site_occupancy
  Tb  Tb0  1  0.740898  0.999741  0.750453  1
  Tb  Tb1  1  0.258961  0.999697  0.249457  1
  Tb  Tb2  1  0.813031  0.202260  0.423693  1
  Pr  Pr3  1  0.684857  0.500161  0.750092  1
  Pr  Pr4  1  0.314908  0.500495  0.249534  1
  Ho  Ho5  1  0.186856  0.796831  0.576911  1
  Ho  Ho6  1  0.813519  0.797235  0.076751  1
  Ho  Ho7  1  0.186535  0.202730  0.923346  1
  W  W8  1  0.252759  0.727896  0.884523  1
  W  W9  1  0.747279  0.728123  0.384493  1
  W  W10  1  0.252594  0.272334  0.616010  1
  W  W11  1  0.746950  0.272253  0.115083  1
  O  O12  1  0.043214  0.941555  0.896616  1
  O  O13  1  0.532120  0.845444  0.931323  1
  O  O14  1  0.959002  0.939917  0.396460  1
  O  O15  1  0.453107  0.794065  0.727343  1
  O  O16  1  0.468594  0.846185  0.431276  1
  O  O17  1  0.986562  0.719536  0.769801  1
  O  O18  1  0.547097  0.794460  0.227154  1
  O  O19  1  0.855994  0.642229  0.545374  1
  O  O20  1  0.347016  0.493634  0.887929  1
  O  O21  1  0.013146  0.719122  0.269454  1
  O  O22  1  0.347491  0.506784  0.612518  1
  O  O23  1  0.856197  0.357719  0.954464  1
  O  O24  1  0.143755  0.642474  0.045254  1
  O  O25  1  0.651434  0.494473  0.387800  1
  O  O26  1  0.986022  0.280466  0.730328  1
  O  O27  1  0.653069  0.506569  0.112034  1
  O  O28  1  0.146510  0.358616  0.454926  1
  O  O29  1  0.452943  0.206179  0.773130  1
  O  O30  1  0.013884  0.280701  0.229307  1
  O  O31  1  0.530230  0.153246  0.570126  1
  O  O32  1  0.545300  0.206295  0.271513  1
  O  O33  1  0.043608  0.058033  0.604037  1
  O  O34  1  0.467992  0.154232  0.068111  1
  O  O35  1  0.956564  0.058310  0.103371  1
