# generated using pymatgen
data_Tb10Dy2Fe2Br17
_symmetry_space_group_name_H-M   'P 1'
_cell_length_a   9.23044920
_cell_length_b   11.12786993
_cell_length_c   11.17234162
_cell_angle_alpha   93.53618213
_cell_angle_beta   104.57036645
_cell_angle_gamma   114.01579093
_symmetry_Int_Tables_number   1
_chemical_formula_structural   Tb10Dy2Fe2Br17
_chemical_formula_sum   'Tb10 Dy2 Fe2 Br17'
_cell_volume   996.89352359
_cell_formula_units_Z   1
loop_
 _symmetry_equiv_pos_site_id
 _symmetry_equiv_pos_as_xyz
  1  'x, y, z'
loop_
 _atom_site_type_symbol
 _atom_site_label
 _atom_site_symmetry_multiplicity
 _atom_site_fract_x
 _atom_site_fract_y
 _atom_site_fract_z
 _atom_site_occupancy
  Tb  Tb0  1  0.059184  0.513624  0.321618  1
  Tb  Tb1  1  0.985415  0.810404  0.579705  1
  Tb  Tb2  1  0.645657  0.239569  0.285019  1
  Tb  Tb3  1  0.014971  0.189195  0.421494  1
  Tb  Tb4  1  0.226213  0.671090  0.991160  1
  Tb  Tb5  1  0.257444  0.988148  0.890669  1
  Tb  Tb6  1  0.356217  0.760600  0.714146  1
  Tb  Tb7  1  0.941250  0.487488  0.678497  1
  Tb  Tb8  1  0.741628  0.011004  0.108863  1
  Tb  Tb9  1  0.151474  0.287823  0.150803  1
  Dy  Dy10  1  0.773630  0.328845  0.008749  1
  Dy  Dy11  1  0.847072  0.711874  0.848849  1
  Fe  Fe12  1  0.103890  0.738639  0.785677  1
  Fe  Fe13  1  0.896101  0.261512  0.214275  1
  Br  Br14  1  0.790192  0.526501  0.420409  1
  Br  Br15  1  0.647461  0.422865  0.762628  1
  Br  Br16  1  0.846903  0.900102  0.327502  1
  Br  Br17  1  0.324158  0.213654  0.365135  1
  Br  Br18  1  0.153033  0.099969  0.672474  1
  Br  Br19  1  0.584921  0.052220  0.848085  1
  Br  Br20  1  0.760279  0.187917  0.535862  1
  Br  Br21  1  0.548655  0.710085  0.950986  1
  Br  Br22  1  0.352640  0.577243  0.238486  1
  Br  Br23  1  0.210072  0.473270  0.579345  1
  Br  Br24  1  0.054371  0.371488  0.900583  1
  Br  Br25  1  0.452423  0.290020  0.048631  1
  Br  Br26  1  0.999683  0.999918  0.000096  1
  Br  Br27  1  0.239781  0.812150  0.463773  1
  Br  Br28  1  0.415582  0.948648  0.151997  1
  Br  Br29  1  0.675756  0.786116  0.635477  1
  Br  Br30  1  0.943942  0.628018  0.099006  1
