# generated using pymatgen
data_Pr4Si10OsPt5
_symmetry_space_group_name_H-M   'P 1'
_cell_length_a   8.30390848
_cell_length_b   8.30390924
_cell_length_c   8.30390902
_cell_angle_alpha   137.30981957
_cell_angle_beta   105.19393964
_cell_angle_gamma   90.16513293
_symmetry_Int_Tables_number   1
_chemical_formula_structural   Pr4Si10OsPt5
_chemical_formula_sum   'Pr4 Si10 Os1 Pt5'
_cell_volume   357.54953789
_cell_formula_units_Z   1
loop_
 _symmetry_equiv_pos_site_id
 _symmetry_equiv_pos_as_xyz
  1  'x, y, z'
loop_
 _atom_site_type_symbol
 _atom_site_label
 _atom_site_symmetry_multiplicity
 _atom_site_fract_x
 _atom_site_fract_y
 _atom_site_fract_z
 _atom_site_occupancy
  Pr  Pr0  1  0.862441  0.629359  0.233624  1
  Pr  Pr1  1  0.137559  0.371183  0.766918  1
  Pr  Pr2  1  0.395735  0.128817  0.266376  1
  Pr  Pr3  1  0.604265  0.870641  0.733082  1
  Si  Si4  1  0.500000  0.750000  0.250000  1
  Si  Si5  1  0.500000  0.250000  0.750000  1
  Si  Si6  1  0.224672  0.974672  0.750000  1
  Si  Si7  1  0.775328  0.525328  0.750000  1
  Si  Si8  1  0.769730  0.019730  0.250000  1
  Si  Si9  1  0.230270  0.480270  0.250000  1
  Si  Si10  1  0.040308  0.885448  0.144054  1
  Si  Si11  1  0.959692  0.103746  0.845140  1
  Si  Si12  1  0.741393  0.396254  0.355946  1
  Si  Si13  1  0.258607  0.614552  0.654860  1
  Os  Os14  1  0.000000  0.750000  0.750000  1
  Pt  Pt15  1  0.000000  0.250000  0.250000  1
  Pt  Pt16  1  0.252479  0.865329  0.391257  1
  Pt  Pt17  1  0.747521  0.138777  0.612849  1
  Pt  Pt18  1  0.474072  0.361223  0.108743  1
  Pt  Pt19  1  0.525928  0.634671  0.887151  1
