# generated using pymatgen
data_Y2Ho14In6IrRh
_symmetry_space_group_name_H-M   'P 1'
_cell_length_a   10.39116300
_cell_length_b   10.39116450
_cell_length_c   7.05651000
_cell_angle_alpha   90.00000000
_cell_angle_beta   90.00000000
_cell_angle_gamma   120.00000477
_symmetry_Int_Tables_number   1
_chemical_formula_structural   Y2Ho14In6IrRh
_chemical_formula_sum   'Y2 Ho14 In6 Ir1 Rh1'
_cell_volume   659.85566515
_cell_formula_units_Z   1
loop_
 _symmetry_equiv_pos_site_id
 _symmetry_equiv_pos_as_xyz
  1  'x, y, z'
loop_
 _atom_site_type_symbol
 _atom_site_label
 _atom_site_symmetry_multiplicity
 _atom_site_fract_x
 _atom_site_fract_y
 _atom_site_fract_z
 _atom_site_occupancy
  Y  Y0  1  0.000000  0.000000  0.495811  1
  Y  Y1  1  0.000000  0.000000  0.996384  1
  Ho  Ho2  1  0.466641  0.533359  0.480908  1
  Ho  Ho3  1  0.066717  0.533359  0.480908  1
  Ho  Ho4  1  0.466641  0.933283  0.480908  1
  Ho  Ho5  1  0.533915  0.466085  0.980468  1
  Ho  Ho6  1  0.932169  0.466085  0.980468  1
  Ho  Ho7  1  0.533915  0.067831  0.980468  1
  Ho  Ho8  1  0.823275  0.176725  0.274807  1
  Ho  Ho9  1  0.353451  0.176725  0.274807  1
  Ho  Ho10  1  0.823275  0.646549  0.274807  1
  Ho  Ho11  1  0.176396  0.823604  0.775937  1
  Ho  Ho12  1  0.647207  0.823604  0.775937  1
  Ho  Ho13  1  0.176396  0.352793  0.775937  1
  Ho  Ho14  1  0.333333  0.666667  0.100976  1
  Ho  Ho15  1  0.666667  0.333333  0.599347  1
  In  In16  1  0.162813  0.837187  0.234377  1
  In  In17  1  0.674375  0.837187  0.234377  1
  In  In18  1  0.162813  0.325625  0.234377  1
  In  In19  1  0.836628  0.163372  0.733080  1
  In  In20  1  0.326745  0.163372  0.733080  1
  In  In21  1  0.836628  0.673255  0.733080  1
  Ir  Ir22  1  0.666667  0.333333  0.205316  1
  Rh  Rh23  1  0.333333  0.666667  0.707990  1
