# generated using pymatgen
data_In12Co3Ir
_symmetry_space_group_name_H-M   'P 1'
_cell_length_a   6.94799145
_cell_length_b   6.94799145
_cell_length_c   7.21157300
_cell_angle_alpha   90.00000000
_cell_angle_beta   90.00000000
_cell_angle_gamma   89.87028441
_symmetry_Int_Tables_number   1
_chemical_formula_structural   In12Co3Ir
_chemical_formula_sum   'In12 Co3 Ir1'
_cell_volume   348.13480310
_cell_formula_units_Z   1
loop_
 _symmetry_equiv_pos_site_id
 _symmetry_equiv_pos_as_xyz
  1  'x, y, z'
loop_
 _atom_site_type_symbol
 _atom_site_label
 _atom_site_symmetry_multiplicity
 _atom_site_fract_x
 _atom_site_fract_y
 _atom_site_fract_z
 _atom_site_occupancy
  In  In0  1  0.992626  0.504275  0.000000  1
  In  In1  1  0.999500  0.501463  0.500000  1
  In  In2  1  0.501463  0.999500  0.500000  1
  In  In3  1  0.504275  0.992626  0.000000  1
  In  In4  1  0.149629  0.149629  0.262848  1
  In  In5  1  0.347040  0.658811  0.752640  1
  In  In6  1  0.658811  0.347040  0.752640  1
  In  In7  1  0.658811  0.347040  0.247360  1
  In  In8  1  0.347040  0.658811  0.247360  1
  In  In9  1  0.845494  0.845494  0.258265  1
  In  In10  1  0.149629  0.149629  0.737152  1
  In  In11  1  0.845494  0.845494  0.741735  1
  Co  Co12  1  0.152570  0.847346  0.500000  1
  Co  Co13  1  0.847346  0.152570  0.500000  1
  Co  Co14  1  0.652582  0.652582  0.000000  1
  Ir  Ir15  1  0.347691  0.347691  0.000000  1
