# generated using pymatgen
data_Pr4CdHg7O4
_symmetry_space_group_name_H-M   'P 1'
_cell_length_a   5.87270080
_cell_length_b   5.85147112
_cell_length_c   12.01542900
_cell_angle_alpha   91.55867647
_cell_angle_beta   114.09730003
_cell_angle_gamma   89.75404645
_symmetry_Int_Tables_number   1
_chemical_formula_structural   Pr4CdHg7O4
_chemical_formula_sum   'Pr4 Cd1 Hg7 O4'
_cell_volume   376.76490478
_cell_formula_units_Z   1
loop_
 _symmetry_equiv_pos_site_id
 _symmetry_equiv_pos_as_xyz
  1  'x, y, z'
loop_
 _atom_site_type_symbol
 _atom_site_label
 _atom_site_symmetry_multiplicity
 _atom_site_fract_x
 _atom_site_fract_y
 _atom_site_fract_z
 _atom_site_occupancy
  Pr  Pr0  1  0.661039  0.994957  0.394734  1
  Pr  Pr1  1  0.159862  0.495562  0.394649  1
  Pr  Pr2  1  0.337416  0.006399  0.606723  1
  Pr  Pr3  1  0.836505  0.506273  0.606531  1
  Cd  Cd4  1  0.344110  0.987856  0.075030  1
  Hg  Hg5  1  0.874630  0.480741  0.080795  1
  Hg  Hg6  1  0.145882  0.511543  0.918688  1
  Hg  Hg7  1  0.635421  0.017746  0.920162  1
  Hg  Hg8  1  0.521486  0.482807  0.207641  1
  Hg  Hg9  1  0.996104  0.975667  0.205113  1
  Hg  Hg10  1  0.991170  0.016167  0.793792  1
  Hg  Hg11  1  0.501797  0.521143  0.793135  1
  O  O12  1  0.998896  0.251281  0.500812  1
  O  O13  1  0.498177  0.250822  0.500490  1
  O  O14  1  0.999777  0.750259  0.501615  1
  O  O15  1  0.497735  0.750793  0.500089  1
