# generated using pymatgen
data_DyY11(ThSn2)8
_symmetry_space_group_name_H-M   'P 1'
_cell_length_a   8.12273405
_cell_length_b   8.21839019
_cell_length_c   15.52541000
_cell_angle_alpha   89.99669544
_cell_angle_beta   89.99373627
_cell_angle_gamma   89.98822451
_symmetry_Int_Tables_number   1
_chemical_formula_structural   DyY11(ThSn2)8
_chemical_formula_sum   'Dy1 Y11 Th8 Sn16'
_cell_volume   1036.41110089
_cell_formula_units_Z   1
loop_
 _symmetry_equiv_pos_site_id
 _symmetry_equiv_pos_as_xyz
  1  'x, y, z'
loop_
 _atom_site_type_symbol
 _atom_site_label
 _atom_site_symmetry_multiplicity
 _atom_site_fract_x
 _atom_site_fract_y
 _atom_site_fract_z
 _atom_site_occupancy
  Dy  Dy0  1  0.362658  0.836426  0.876579  1
  Y  Y1  1  0.862561  0.663325  0.623471  1
  Y  Y2  1  0.637416  0.163388  0.376462  1
  Y  Y3  1  0.137386  0.336698  0.123640  1
  Y  Y4  1  0.637404  0.163372  0.123536  1
  Y  Y5  1  0.137422  0.336675  0.376451  1
  Y  Y6  1  0.362522  0.836631  0.623482  1
  Y  Y7  1  0.862534  0.663372  0.876461  1
  Y  Y8  1  0.191558  0.497653  0.749970  1
  Y  Y9  1  0.691533  0.002422  0.750000  1
  Y  Y10  1  0.808407  0.502416  0.250008  1
  Y  Y11  1  0.308399  0.997626  0.250040  1
  Th  Th12  1  0.519018  0.320891  0.903515  1
  Th  Th13  1  0.018911  0.179187  0.596403  1
  Th  Th14  1  0.481029  0.679044  0.403536  1
  Th  Th15  1  0.981069  0.820838  0.096461  1
  Th  Th16  1  0.481090  0.679170  0.096458  1
  Th  Th17  1  0.981034  0.820843  0.403550  1
  Th  Th18  1  0.519034  0.320786  0.596401  1
  Th  Th19  1  0.018977  0.179219  0.903582  1
  Sn  Sn20  1  0.297722  0.038714  0.042067  1
  Sn  Sn21  1  0.797764  0.461299  0.457919  1
  Sn  Sn22  1  0.702229  0.961272  0.542011  1
  Sn  Sn23  1  0.202247  0.538736  0.957955  1
  Sn  Sn24  1  0.702331  0.961327  0.957944  1
  Sn  Sn25  1  0.202270  0.538690  0.542019  1
  Sn  Sn26  1  0.297716  0.038691  0.457922  1
  Sn  Sn27  1  0.797752  0.461272  0.042056  1
  Sn  Sn28  1  0.558410  0.621130  0.750030  1
  Sn  Sn29  1  0.058601  0.878869  0.750031  1
  Sn  Sn30  1  0.441530  0.378883  0.249995  1
  Sn  Sn31  1  0.941494  0.121140  0.250013  1
  Sn  Sn32  1  0.324842  0.142369  0.750054  1
  Sn  Sn33  1  0.824870  0.357563  0.750001  1
  Sn  Sn34  1  0.675122  0.857570  0.249990  1
  Sn  Sn35  1  0.175139  0.642490  0.249985  1
