# generated using pymatgen
data_Dy9Tm(Bi2Te)2
_symmetry_space_group_name_H-M   'P 1'
_cell_length_a   8.17213200
_cell_length_b   9.44303301
_cell_length_c   11.92691200
_cell_angle_alpha   90.03738199
_cell_angle_beta   90.00000000
_cell_angle_gamma   90.00000000
_symmetry_Int_Tables_number   1
_chemical_formula_structural   Dy9Tm(Bi2Te)2
_chemical_formula_sum   'Dy18 Tm2 Bi8 Te4'
_cell_volume   920.39617102
_cell_formula_units_Z   2
loop_
 _symmetry_equiv_pos_site_id
 _symmetry_equiv_pos_as_xyz
  1  'x, y, z'
loop_
 _atom_site_type_symbol
 _atom_site_label
 _atom_site_symmetry_multiplicity
 _atom_site_fract_x
 _atom_site_fract_y
 _atom_site_fract_z
 _atom_site_occupancy
  Dy  Dy0  1  0.353842  0.750409  0.213598  1
  Dy  Dy1  1  0.853842  0.749591  0.286402  1
  Dy  Dy2  1  0.645897  0.250160  0.786597  1
  Dy  Dy3  1  0.145897  0.249840  0.713403  1
  Dy  Dy4  1  0.310779  0.062428  0.942724  1
  Dy  Dy5  1  0.810779  0.437572  0.557276  1
  Dy  Dy6  1  0.310548  0.437925  0.942636  1
  Dy  Dy7  1  0.810548  0.062075  0.557364  1
  Dy  Dy8  1  0.689402  0.937211  0.057489  1
  Dy  Dy9  1  0.189402  0.562789  0.442511  1
  Dy  Dy10  1  0.476327  0.249892  0.488485  1
  Dy  Dy11  1  0.976327  0.250108  0.011515  1
  Dy  Dy12  1  0.523018  0.750447  0.511207  1
  Dy  Dy13  1  0.023018  0.749553  0.988793  1
  Dy  Dy14  1  0.319695  0.249854  0.217916  1
  Dy  Dy15  1  0.819695  0.250146  0.282084  1
  Dy  Dy16  1  0.679984  0.749653  0.782497  1
  Dy  Dy17  1  0.179984  0.750347  0.717503  1
  Tm  Tm18  1  0.689604  0.564349  0.057453  1
  Tm  Tm19  1  0.189604  0.935651  0.442547  1
  Bi  Bi20  1  0.568887  0.995785  0.325216  1
  Bi  Bi21  1  0.068887  0.504215  0.174784  1
  Bi  Bi22  1  0.430880  0.495836  0.674826  1
  Bi  Bi23  1  0.930880  0.004164  0.825174  1
  Bi  Bi24  1  0.430927  0.004413  0.674526  1
  Bi  Bi25  1  0.930927  0.495587  0.825474  1
  Bi  Bi26  1  0.569209  0.504309  0.325052  1
  Bi  Bi27  1  0.069209  0.995691  0.174948  1
  Te  Te28  1  0.406620  0.749623  0.957826  1
  Te  Te29  1  0.906620  0.750377  0.542174  1
  Te  Te30  1  0.594382  0.252305  0.042870  1
  Te  Te31  1  0.094382  0.247695  0.457130  1
