# generated using pymatgen
data_KGdVH9
_symmetry_space_group_name_H-M   'P 1'
_cell_length_a   8.64495500
_cell_length_b   8.64495383
_cell_length_c   5.10576600
_cell_angle_alpha   90.00000000
_cell_angle_beta   90.00000000
_cell_angle_gamma   120.00000832
_symmetry_Int_Tables_number   1
_chemical_formula_structural   KGdVH9
_chemical_formula_sum   'K3 Gd3 V3 H27'
_cell_volume   330.45849239
_cell_formula_units_Z   3
loop_
 _symmetry_equiv_pos_site_id
 _symmetry_equiv_pos_as_xyz
  1  'x, y, z'
loop_
 _atom_site_type_symbol
 _atom_site_label
 _atom_site_symmetry_multiplicity
 _atom_site_fract_x
 _atom_site_fract_y
 _atom_site_fract_z
 _atom_site_occupancy
  K  K0  1  0.000000  0.604389  0.000000  1
  K  K1  1  0.395611  0.395611  0.000000  1
  K  K2  1  0.604389  0.000000  0.000000  1
  Gd  Gd3  1  0.000000  0.276742  0.500000  1
  Gd  Gd4  1  0.723258  0.723258  0.500000  1
  Gd  Gd5  1  0.276742  0.000000  0.500000  1
  V  V6  1  0.666667  0.333333  0.500000  1
  V  V7  1  0.333333  0.666667  0.500000  1
  V  V8  1  0.000000  0.000000  0.000000  1
  H  H9  1  0.809172  0.328621  0.733783  1
  H  H10  1  0.671379  0.480550  0.733783  1
  H  H11  1  0.519450  0.190828  0.733783  1
  H  H12  1  0.190828  0.519450  0.266217  1
  H  H13  1  0.519450  0.190828  0.266217  1
  H  H14  1  0.809172  0.328621  0.266217  1
  H  H15  1  0.671379  0.480550  0.266217  1
  H  H16  1  0.328621  0.809172  0.733783  1
  H  H17  1  0.480550  0.671379  0.733783  1
  H  H18  1  0.199299  0.000000  0.000000  1
  H  H19  1  0.800701  0.800701  0.000000  1
  H  H20  1  0.000000  0.199299  0.000000  1
  H  H21  1  0.862700  0.000000  0.251083  1
  H  H22  1  0.137300  0.137300  0.748917  1
  H  H23  1  0.000000  0.862700  0.748917  1
  H  H24  1  0.000000  0.862700  0.251083  1
  H  H25  1  0.137300  0.137300  0.251083  1
  H  H26  1  0.862700  0.000000  0.748917  1
  H  H27  1  0.143212  0.678722  0.500000  1
  H  H28  1  0.535511  0.856788  0.500000  1
  H  H29  1  0.321278  0.464489  0.500000  1
  H  H30  1  0.464489  0.321278  0.500000  1
  H  H31  1  0.856788  0.535511  0.500000  1
  H  H32  1  0.678722  0.143212  0.500000  1
  H  H33  1  0.190828  0.519450  0.733783  1
  H  H34  1  0.328621  0.809172  0.266217  1
  H  H35  1  0.480550  0.671379  0.266217  1
