# generated using pymatgen
data_Sm3Er5Ge8(BiO5)8
_symmetry_space_group_name_H-M   'P 1'
_cell_length_a   5.41921930
_cell_length_b   11.20160448
_cell_length_c   15.46861807
_cell_angle_alpha   89.97281111
_cell_angle_beta   90.03285800
_cell_angle_gamma   90.01961631
_symmetry_Int_Tables_number   1
_chemical_formula_structural   Sm3Er5Ge8(BiO5)8
_chemical_formula_sum   'Sm3 Er5 Ge8 Bi8 O40'
_cell_volume   939.00592158
_cell_formula_units_Z   1
loop_
 _symmetry_equiv_pos_site_id
 _symmetry_equiv_pos_as_xyz
  1  'x, y, z'
loop_
 _atom_site_type_symbol
 _atom_site_label
 _atom_site_symmetry_multiplicity
 _atom_site_fract_x
 _atom_site_fract_y
 _atom_site_fract_z
 _atom_site_occupancy
  Sm  Sm0  1  0.011918  0.859259  0.552886  1
  Sm  Sm1  1  0.512013  0.140571  0.947437  1
  Sm  Sm2  1  0.488126  0.359332  0.446800  1
  Er  Er3  1  0.490319  0.856816  0.053359  1
  Er  Er4  1  0.991378  0.141144  0.446136  1
  Er  Er5  1  0.508669  0.641076  0.553451  1
  Er  Er6  1  0.008511  0.360722  0.947581  1
  Er  Er7  1  0.990341  0.641466  0.052808  1
  Ge  Ge8  1  0.006843  0.404566  0.596495  1
  Ge  Ge9  1  0.992865  0.597568  0.402613  1
  Ge  Ge10  1  0.506708  0.596212  0.905442  1
  Ge  Ge11  1  0.492411  0.904065  0.402508  1
  Ge  Ge12  1  0.993613  0.094919  0.096497  1
  Ge  Ge13  1  0.006567  0.900172  0.903990  1
  Ge  Ge14  1  0.493872  0.405953  0.096480  1
  Ge  Ge15  1  0.506814  0.097523  0.597147  1
  Bi  Bi16  1  0.545309  0.648855  0.236475  1
  Bi  Bi17  1  0.044770  0.350067  0.260978  1
  Bi  Bi18  1  0.546410  0.146258  0.262575  1
  Bi  Bi19  1  0.455297  0.849298  0.738906  1
  Bi  Bi20  1  0.955664  0.150404  0.762407  1
  Bi  Bi21  1  0.453798  0.354401  0.763217  1
  Bi  Bi22  1  0.953838  0.645667  0.737464  1
  Bi  Bi23  1  0.045080  0.852533  0.235596  1
  O  O24  1  0.198101  0.975828  0.126019  1
  O  O25  1  0.244332  0.238739  0.849242  1
  O  O26  1  0.693833  0.526342  0.126713  1
  O  O27  1  0.751503  0.764288  0.149143  1
  O  O28  1  0.200786  0.962672  0.434962  1
  O  O29  1  0.932476  0.671867  0.301442  1
  O  O30  1  0.799642  0.045837  0.560431  1
  O  O31  1  0.934479  0.168339  0.197752  1
  O  O32  1  0.199675  0.459839  0.061209  1
  O  O33  1  0.756080  0.261680  0.348670  1
  O  O34  1  0.801098  0.541495  0.939758  1
  O  O35  1  0.065307  0.826999  0.802212  1
  O  O36  1  0.249942  0.233051  0.348134  1
  O  O37  1  0.867664  0.308979  0.520046  1
  O  O38  1  0.854058  0.807010  0.979192  1
  O  O39  1  0.435326  0.330717  0.197670  1
  O  O40  1  0.813396  0.022280  0.872291  1
  O  O41  1  0.743811  0.761400  0.651412  1
  O  O42  1  0.701668  0.036077  0.064600  1
  O  O43  1  0.632167  0.809079  0.479328  1
  O  O44  1  0.751103  0.267576  0.849216  1
  O  O45  1  0.695478  0.023855  0.373012  1
  O  O46  1  0.350442  0.188793  0.522270  1
  O  O47  1  0.250108  0.732399  0.651724  1
  O  O48  1  0.066307  0.331092  0.697845  1
  O  O49  1  0.299631  0.953257  0.939695  1
  O  O50  1  0.646646  0.312786  0.022026  1
  O  O51  1  0.131570  0.191862  0.020495  1
  O  O52  1  0.567097  0.669028  0.803797  1
  O  O53  1  0.307111  0.475626  0.874820  1
  O  O54  1  0.700318  0.545782  0.439353  1
  O  O55  1  0.313665  0.975823  0.629019  1
  O  O56  1  0.299265  0.462920  0.564591  1
  O  O57  1  0.186106  0.476012  0.370801  1
  O  O58  1  0.565969  0.172313  0.698352  1
  O  O59  1  0.803599  0.523890  0.626197  1
  O  O60  1  0.355623  0.690272  0.980093  1
  O  O61  1  0.149300  0.688906  0.477357  1
  O  O62  1  0.433541  0.830971  0.300807  1
  O  O63  1  0.250642  0.735471  0.149061  1
