# generated using pymatgen
data_Er19Tm(Bi2Ru)4
_symmetry_space_group_name_H-M   'P 1'
_cell_length_a   7.91715810
_cell_length_b   8.97887915
_cell_length_c   12.41350621
_cell_angle_alpha   89.98332829
_cell_angle_beta   90.01275290
_cell_angle_gamma   89.98693253
_symmetry_Int_Tables_number   1
_chemical_formula_structural   Er19Tm(Bi2Ru)4
_chemical_formula_sum   'Er19 Tm1 Bi8 Ru4'
_cell_volume   882.44138863
_cell_formula_units_Z   1
loop_
 _symmetry_equiv_pos_site_id
 _symmetry_equiv_pos_as_xyz
  1  'x, y, z'
loop_
 _atom_site_type_symbol
 _atom_site_label
 _atom_site_symmetry_multiplicity
 _atom_site_fract_x
 _atom_site_fract_y
 _atom_site_fract_z
 _atom_site_occupancy
  Er  Er0  1  0.661388  0.749967  0.707907  1
  Er  Er1  1  0.338664  0.250047  0.292211  1
  Er  Er2  1  0.161227  0.250128  0.792183  1
  Er  Er3  1  0.838629  0.749960  0.207836  1
  Er  Er4  1  0.127060  0.749864  0.812040  1
  Er  Er5  1  0.872586  0.250234  0.187869  1
  Er  Er6  1  0.627197  0.250059  0.688001  1
  Er  Er7  1  0.372777  0.749948  0.312052  1
  Er  Er8  1  0.555261  0.749776  0.995291  1
  Er  Er9  1  0.445077  0.250163  0.004691  1
  Er  Er10  1  0.055093  0.250021  0.504702  1
  Er  Er11  1  0.944834  0.750003  0.495384  1
  Er  Er12  1  0.172529  0.541479  0.065916  1
  Er  Er13  1  0.327234  0.541640  0.566064  1
  Er  Er14  1  0.172883  0.958394  0.066007  1
  Er  Er15  1  0.672756  0.458455  0.433912  1
  Er  Er16  1  0.827293  0.041553  0.934064  1
  Er  Er17  1  0.672778  0.041552  0.433906  1
  Er  Er18  1  0.327205  0.958401  0.566044  1
  Tm  Tm19  1  0.828088  0.458171  0.934030  1
  Bi  Bi20  1  0.935787  0.005635  0.672706  1
  Bi  Bi21  1  0.064178  0.994439  0.327319  1
  Bi  Bi22  1  0.435772  0.994445  0.827377  1
  Bi  Bi23  1  0.064201  0.505612  0.327338  1
  Bi  Bi24  1  0.564200  0.005651  0.172620  1
  Bi  Bi25  1  0.935703  0.494386  0.672749  1
  Bi  Bi26  1  0.564076  0.494423  0.172668  1
  Bi  Bi27  1  0.436125  0.505546  0.827492  1
  Ru  Ru28  1  0.926764  0.749777  0.990973  1
  Ru  Ru29  1  0.072560  0.250272  0.008731  1
  Ru  Ru30  1  0.426956  0.249993  0.508916  1
  Ru  Ru31  1  0.573120  0.750005  0.491001  1
