# generated using pymatgen
data_Ho3Cd3Hg2Pd
_symmetry_space_group_name_H-M   'P 1'
_cell_length_a   7.99393100
_cell_length_b   7.99393097
_cell_length_c   3.83746200
_cell_angle_alpha   90.00000000
_cell_angle_beta   90.00000000
_cell_angle_gamma   120.00000426
_symmetry_Int_Tables_number   1
_chemical_formula_structural   Ho3Cd3Hg2Pd
_chemical_formula_sum   'Ho3 Cd3 Hg2 Pd1'
_cell_volume   212.37113596
_cell_formula_units_Z   1
loop_
 _symmetry_equiv_pos_site_id
 _symmetry_equiv_pos_as_xyz
  1  'x, y, z'
loop_
 _atom_site_type_symbol
 _atom_site_label
 _atom_site_symmetry_multiplicity
 _atom_site_fract_x
 _atom_site_fract_y
 _atom_site_fract_z
 _atom_site_occupancy
  Ho  Ho0  1  0.611165  0.028301  0.000000  1
  Ho  Ho1  1  0.971699  0.582864  0.000000  1
  Ho  Ho2  1  0.417136  0.388835  0.000000  1
  Cd  Cd3  1  0.277475  0.000804  0.500000  1
  Cd  Cd4  1  0.999196  0.276671  0.500000  1
  Cd  Cd5  1  0.723329  0.722525  0.500000  1
  Hg  Hg6  1  0.333333  0.666667  0.500000  1
  Hg  Hg7  1  0.000000  0.000000  0.000000  1
  Pd  Pd8  1  0.666667  0.333333  0.500000  1
