# generated using pymatgen
data_PrSi4(RuPt)3
_symmetry_space_group_name_H-M   'P 1'
_cell_length_a   7.08196600
_cell_length_b   7.08196510
_cell_length_c   3.89153700
_cell_angle_alpha   90.00000000
_cell_angle_beta   90.00000000
_cell_angle_gamma   119.99999487
_symmetry_Int_Tables_number   1
_chemical_formula_structural   PrSi4(RuPt)3
_chemical_formula_sum   'Pr1 Si4 Ru3 Pt3'
_cell_volume   169.02830546
_cell_formula_units_Z   1
loop_
 _symmetry_equiv_pos_site_id
 _symmetry_equiv_pos_as_xyz
  1  'x, y, z'
loop_
 _atom_site_type_symbol
 _atom_site_label
 _atom_site_symmetry_multiplicity
 _atom_site_fract_x
 _atom_site_fract_y
 _atom_site_fract_z
 _atom_site_occupancy
  Pr  Pr0  1  0.000000  0.000000  0.000000  1
  Si  Si1  1  0.333333  0.666667  0.000000  1
  Si  Si2  1  0.792769  0.207231  0.500000  1
  Si  Si3  1  0.792769  0.585539  0.500000  1
  Si  Si4  1  0.414461  0.207231  0.500000  1
  Ru  Ru5  1  0.532227  0.467773  0.000000  1
  Ru  Ru6  1  0.532227  0.064453  0.000000  1
  Ru  Ru7  1  0.935547  0.467773  0.000000  1
  Pt  Pt8  1  0.196181  0.803819  0.500000  1
  Pt  Pt9  1  0.196181  0.392361  0.500000  1
  Pt  Pt10  1  0.607639  0.803819  0.500000  1
