# generated using pymatgen
data_Pr3Tm2P12Ru19
_symmetry_space_group_name_H-M   'P 1'
_cell_length_a   12.59634600
_cell_length_b   12.59634682
_cell_length_c   4.00853000
_cell_angle_alpha   90.00000000
_cell_angle_beta   90.00000000
_cell_angle_gamma   120.00000310
_symmetry_Int_Tables_number   1
_chemical_formula_structural   Pr3Tm2P12Ru19
_chemical_formula_sum   'Pr3 Tm2 P12 Ru19'
_cell_volume   550.81397129
_cell_formula_units_Z   1
loop_
 _symmetry_equiv_pos_site_id
 _symmetry_equiv_pos_as_xyz
  1  'x, y, z'
loop_
 _atom_site_type_symbol
 _atom_site_label
 _atom_site_symmetry_multiplicity
 _atom_site_fract_x
 _atom_site_fract_y
 _atom_site_fract_z
 _atom_site_occupancy
  Pr  Pr0  1  0.183825  0.183825  0.500000  1
  Pr  Pr1  1  0.816175  0.000000  0.500000  1
  Pr  Pr2  1  0.000000  0.816175  0.500000  1
  Tm  Tm3  1  0.333333  0.666667  0.000000  1
  Tm  Tm4  1  0.666667  0.333333  0.000000  1
  P  P5  1  0.811127  0.811127  0.000000  1
  P  P6  1  0.188873  0.000000  0.000000  1
  P  P7  1  0.000000  0.188873  0.000000  1
  P  P8  1  0.174445  0.479382  0.500000  1
  P  P9  1  0.520618  0.695063  0.500000  1
  P  P10  1  0.304937  0.825555  0.500000  1
  P  P11  1  0.695063  0.520618  0.500000  1
  P  P12  1  0.825555  0.304937  0.500000  1
  P  P13  1  0.479382  0.174445  0.500000  1
  P  P14  1  0.374131  0.374131  0.000000  1
  P  P15  1  0.625869  0.000000  0.000000  1
  P  P16  1  0.000000  0.625869  0.000000  1
  Ru  Ru17  1  0.553744  0.553744  0.000000  1
  Ru  Ru18  1  0.446256  0.000000  0.000000  1
  Ru  Ru19  1  0.000000  0.446256  0.000000  1
  Ru  Ru20  1  0.712409  0.712409  0.500000  1
  Ru  Ru21  1  0.287591  0.000000  0.500000  1
  Ru  Ru22  1  0.000000  0.287591  0.500000  1
  Ru  Ru23  1  0.185607  0.381985  0.000000  1
  Ru  Ru24  1  0.618015  0.803622  0.000000  1
  Ru  Ru25  1  0.196378  0.814393  0.000000  1
  Ru  Ru26  1  0.803622  0.618015  0.000000  1
  Ru  Ru27  1  0.814393  0.196378  0.000000  1
  Ru  Ru28  1  0.381985  0.185607  0.000000  1
  Ru  Ru29  1  0.367922  0.494160  0.500000  1
  Ru  Ru30  1  0.505840  0.873762  0.500000  1
  Ru  Ru31  1  0.126238  0.632078  0.500000  1
  Ru  Ru32  1  0.873762  0.505840  0.500000  1
  Ru  Ru33  1  0.632078  0.126238  0.500000  1
  Ru  Ru34  1  0.494160  0.367922  0.500000  1
  Ru  Ru35  1  0.000000  0.000000  0.000000  1
