# generated using pymatgen
data_Er10Cd3Ru
_symmetry_space_group_name_H-M   'P 1'
_cell_length_a   9.49412300
_cell_length_b   9.49412351
_cell_length_c   9.76682000
_cell_angle_alpha   90.00000000
_cell_angle_beta   90.00000000
_cell_angle_gamma   120.00000172
_symmetry_Int_Tables_number   1
_chemical_formula_structural   Er10Cd3Ru
_chemical_formula_sum   'Er20 Cd6 Ru2'
_cell_volume   762.41869842
_cell_formula_units_Z   2
loop_
 _symmetry_equiv_pos_site_id
 _symmetry_equiv_pos_as_xyz
  1  'x, y, z'
loop_
 _atom_site_type_symbol
 _atom_site_label
 _atom_site_symmetry_multiplicity
 _atom_site_fract_x
 _atom_site_fract_y
 _atom_site_fract_z
 _atom_site_occupancy
  Er  Er0  1  0.000000  0.000000  0.500000  1
  Er  Er1  1  0.000000  0.000000  0.000000  1
  Er  Er2  1  0.209777  0.790223  0.440485  1
  Er  Er3  1  0.209777  0.419555  0.440485  1
  Er  Er4  1  0.580445  0.790223  0.440485  1
  Er  Er5  1  0.790223  0.209777  0.559515  1
  Er  Er6  1  0.790223  0.580445  0.559515  1
  Er  Er7  1  0.419555  0.209777  0.559515  1
  Er  Er8  1  0.790223  0.209777  0.940485  1
  Er  Er9  1  0.790223  0.580445  0.940485  1
  Er  Er10  1  0.419555  0.209777  0.940485  1
  Er  Er11  1  0.209777  0.790223  0.059515  1
  Er  Er12  1  0.209777  0.419555  0.059515  1
  Er  Er13  1  0.580445  0.790223  0.059515  1
  Er  Er14  1  0.541220  0.458780  0.250000  1
  Er  Er15  1  0.541220  0.082440  0.250000  1
  Er  Er16  1  0.917560  0.458780  0.250000  1
  Er  Er17  1  0.458780  0.541220  0.750000  1
  Er  Er18  1  0.458780  0.917560  0.750000  1
  Er  Er19  1  0.082440  0.541220  0.750000  1
  Cd  Cd20  1  0.885334  0.114666  0.250000  1
  Cd  Cd21  1  0.885334  0.770669  0.250000  1
  Cd  Cd22  1  0.229331  0.114666  0.250000  1
  Cd  Cd23  1  0.114666  0.885334  0.750000  1
  Cd  Cd24  1  0.114666  0.229331  0.750000  1
  Cd  Cd25  1  0.770669  0.885334  0.750000  1
  Ru  Ru26  1  0.333333  0.666667  0.250000  1
  Ru  Ru27  1  0.666667  0.333333  0.750000  1
