# generated using pymatgen
data_Eu20Cd3Ag8Hg
_symmetry_space_group_name_H-M   'P 1'
_cell_length_a   8.26991000
_cell_length_b   8.26991000
_cell_length_c   14.99508200
_cell_angle_alpha   90.00000000
_cell_angle_beta   90.00000000
_cell_angle_gamma   90.00000000
_symmetry_Int_Tables_number   1
_chemical_formula_structural   Eu20Cd3Ag8Hg
_chemical_formula_sum   'Eu20 Cd3 Ag8 Hg1'
_cell_volume   1025.53482216
_cell_formula_units_Z   1
loop_
 _symmetry_equiv_pos_site_id
 _symmetry_equiv_pos_as_xyz
  1  'x, y, z'
loop_
 _atom_site_type_symbol
 _atom_site_label
 _atom_site_symmetry_multiplicity
 _atom_site_fract_x
 _atom_site_fract_y
 _atom_site_fract_z
 _atom_site_occupancy
  Eu  Eu0  1  0.000000  0.000000  0.753929  1
  Eu  Eu1  1  0.500000  0.500000  0.250652  1
  Eu  Eu2  1  0.000000  0.000000  0.246071  1
  Eu  Eu3  1  0.500000  0.500000  0.749348  1
  Eu  Eu4  1  0.168525  0.662343  0.104282  1
  Eu  Eu5  1  0.665979  0.165362  0.606386  1
  Eu  Eu6  1  0.831475  0.337657  0.104282  1
  Eu  Eu7  1  0.334021  0.834638  0.606386  1
  Eu  Eu8  1  0.337657  0.168525  0.104282  1
  Eu  Eu9  1  0.834638  0.665979  0.606386  1
  Eu  Eu10  1  0.662343  0.831475  0.104282  1
  Eu  Eu11  1  0.165362  0.334021  0.606386  1
  Eu  Eu12  1  0.337657  0.831475  0.895718  1
  Eu  Eu13  1  0.834638  0.334021  0.393614  1
  Eu  Eu14  1  0.662343  0.168525  0.895718  1
  Eu  Eu15  1  0.165362  0.665979  0.393614  1
  Eu  Eu16  1  0.168525  0.337657  0.895718  1
  Eu  Eu17  1  0.665979  0.834638  0.393614  1
  Eu  Eu18  1  0.831475  0.662343  0.895718  1
  Eu  Eu19  1  0.334021  0.165362  0.393614  1
  Cd  Cd20  1  0.000000  0.000000  0.500000  1
  Cd  Cd21  1  0.000000  0.000000  0.000000  1
  Cd  Cd22  1  0.500000  0.500000  0.500000  1
  Ag  Ag23  1  0.626655  0.125864  0.248697  1
  Ag  Ag24  1  0.125864  0.626655  0.751303  1
  Ag  Ag25  1  0.874136  0.373345  0.751303  1
  Ag  Ag26  1  0.373345  0.874136  0.248697  1
  Ag  Ag27  1  0.373345  0.125864  0.751303  1
  Ag  Ag28  1  0.874136  0.626655  0.248697  1
  Ag  Ag29  1  0.125864  0.373345  0.248697  1
  Ag  Ag30  1  0.626655  0.874136  0.751303  1
  Hg  Hg31  1  0.500000  0.500000  0.000000  1
