# generated using pymatgen
data_Er4Ir3RhO14
_symmetry_space_group_name_H-M   'P 1'
_cell_length_a   7.20276159
_cell_length_b   7.20276144
_cell_length_c   7.20276136
_cell_angle_alpha   60.05490061
_cell_angle_beta   60.05489610
_cell_angle_gamma   60.05489556
_symmetry_Int_Tables_number   1
_chemical_formula_structural   Er4Ir3RhO14
_chemical_formula_sum   'Er4 Ir3 Rh1 O14'
_cell_volume   264.55874753
_cell_formula_units_Z   1
loop_
 _symmetry_equiv_pos_site_id
 _symmetry_equiv_pos_as_xyz
  1  'x, y, z'
loop_
 _atom_site_type_symbol
 _atom_site_label
 _atom_site_symmetry_multiplicity
 _atom_site_fract_x
 _atom_site_fract_y
 _atom_site_fract_z
 _atom_site_occupancy
  Er  Er0  1  0.625000  0.125000  0.125000  1
  Er  Er1  1  0.125000  0.625000  0.125000  1
  Er  Er2  1  0.125000  0.125000  0.625000  1
  Er  Er3  1  0.125000  0.125000  0.125000  1
  Ir  Ir4  1  0.125000  0.625000  0.625000  1
  Ir  Ir5  1  0.625000  0.125000  0.625000  1
  Ir  Ir6  1  0.625000  0.625000  0.125000  1
  Rh  Rh7  1  0.625000  0.625000  0.625000  1
  O  O8  1  0.715255  0.715255  0.282310  1
  O  O9  1  0.288040  0.288040  0.715506  1
  O  O10  1  0.715255  0.282310  0.715255  1
  O  O11  1  0.288040  0.715506  0.288040  1
  O  O12  1  0.282310  0.715255  0.715255  1
  O  O13  1  0.715506  0.288040  0.288040  1
  O  O14  1  0.534745  0.534745  0.967690  1
  O  O15  1  0.961960  0.961960  0.534494  1
  O  O16  1  0.534745  0.967690  0.534745  1
  O  O17  1  0.961960  0.534494  0.961960  1
  O  O18  1  0.967690  0.534745  0.534745  1
  O  O19  1  0.534494  0.961960  0.961960  1
  O  O20  1  0.249402  0.249402  0.249402  1
  O  O21  1  0.000598  0.000598  0.000598  1
