# generated using pymatgen
data_Zr(PS4)2
_symmetry_space_group_name_H-M   'P 1'
_cell_length_a   11.78180600
_cell_length_b   11.78180616
_cell_length_c   10.82198200
_cell_angle_alpha   90.00000000
_cell_angle_beta   90.00000000
_cell_angle_gamma   118.96429862
_symmetry_Int_Tables_number   1
_chemical_formula_structural   Zr(PS4)2
_chemical_formula_sum   'Zr4 P8 S32'
_cell_volume   1314.31571016
_cell_formula_units_Z   4
loop_
 _symmetry_equiv_pos_site_id
 _symmetry_equiv_pos_as_xyz
  1  'x, y, z'
loop_
 _atom_site_type_symbol
 _atom_site_label
 _atom_site_symmetry_multiplicity
 _atom_site_fract_x
 _atom_site_fract_y
 _atom_site_fract_z
 _atom_site_occupancy
  Zr  Zr0  1  0.418565  0.581435  0.500000  1
  Zr  Zr1  1  0.581435  0.418565  0.500000  1
  Zr  Zr2  1  0.918565  0.081435  0.000000  1
  Zr  Zr3  1  0.081435  0.918565  0.000000  1
  P  P4  1  0.498569  0.878836  0.511577  1
  P  P5  1  0.998569  0.378836  0.988423  1
  P  P6  1  0.121164  0.501431  0.488423  1
  P  P7  1  0.621164  0.001431  0.011577  1
  P  P8  1  0.878836  0.498569  0.511577  1
  P  P9  1  0.378836  0.998569  0.988423  1
  P  P10  1  0.001431  0.621164  0.011577  1
  P  P11  1  0.501431  0.121164  0.488423  1
  S  S12  1  0.066498  0.631675  0.573599  1
  S  S13  1  0.808770  0.574414  0.388945  1
  S  S14  1  0.191230  0.425586  0.611055  1
  S  S15  1  0.246888  0.592316  0.350432  1
  S  S16  1  0.407684  0.753112  0.649568  1
  S  S17  1  0.092316  0.746888  0.149568  1
  S  S18  1  0.253112  0.907684  0.850432  1
  S  S19  1  0.515903  0.515903  0.309759  1
  S  S20  1  0.631675  0.066498  0.573599  1
  S  S21  1  0.691230  0.925586  0.888945  1
  S  S22  1  0.361084  0.361084  0.394452  1
  S  S23  1  0.368325  0.933502  0.426401  1
  S  S24  1  0.566498  0.131675  0.926401  1
  S  S25  1  0.484097  0.484097  0.690241  1
  S  S26  1  0.925586  0.691230  0.888945  1
  S  S27  1  0.425586  0.191230  0.611055  1
  S  S28  1  0.138916  0.138916  0.894452  1
  S  S29  1  0.746888  0.092316  0.149568  1
  S  S30  1  0.015903  0.015903  0.190241  1
  S  S31  1  0.638916  0.638916  0.605548  1
  S  S32  1  0.933502  0.368325  0.426401  1
  S  S33  1  0.308770  0.074414  0.111055  1
  S  S34  1  0.574414  0.808770  0.388945  1
  S  S35  1  0.984097  0.984097  0.809759  1
  S  S36  1  0.074414  0.308770  0.111055  1
  S  S37  1  0.433502  0.868325  0.073599  1
  S  S38  1  0.861084  0.861084  0.105548  1
  S  S39  1  0.592316  0.246888  0.350432  1
  S  S40  1  0.907684  0.253112  0.850432  1
  S  S41  1  0.753112  0.407684  0.649568  1
  S  S42  1  0.131675  0.566498  0.926401  1
  S  S43  1  0.868325  0.433502  0.073599  1
