# generated using pymatgen
data_Y4Er3Co6Sn22Hg
_symmetry_space_group_name_H-M   'P 1'
_cell_length_a   9.67025000
_cell_length_b   9.67025173
_cell_length_c   10.00922800
_cell_angle_alpha   90.00000000
_cell_angle_beta   90.00000000
_cell_angle_gamma   120.00000778
_symmetry_Int_Tables_number   1
_chemical_formula_structural   Y4Er3Co6Sn22Hg
_chemical_formula_sum   'Y4 Er3 Co6 Sn22 Hg1'
_cell_volume   810.60011496
_cell_formula_units_Z   1
loop_
 _symmetry_equiv_pos_site_id
 _symmetry_equiv_pos_as_xyz
  1  'x, y, z'
loop_
 _atom_site_type_symbol
 _atom_site_label
 _atom_site_symmetry_multiplicity
 _atom_site_fract_x
 _atom_site_fract_y
 _atom_site_fract_z
 _atom_site_occupancy
  Y  Y0  1  0.000000  0.000000  0.000051  1
  Y  Y1  1  0.956026  0.478013  0.693444  1
  Y  Y2  1  0.521987  0.043974  0.693444  1
  Y  Y3  1  0.521987  0.478013  0.693444  1
  Er  Er4  1  0.043257  0.521629  0.306410  1
  Er  Er5  1  0.478371  0.956743  0.306410  1
  Er  Er6  1  0.478371  0.521629  0.306410  1
  Co  Co7  1  0.167690  0.832310  0.803315  1
  Co  Co8  1  0.664621  0.832310  0.803315  1
  Co  Co9  1  0.167690  0.335379  0.803315  1
  Co  Co10  1  0.832141  0.167859  0.196928  1
  Co  Co11  1  0.335718  0.167859  0.196928  1
  Co  Co12  1  0.832141  0.664282  0.196928  1
  Sn  Sn13  1  0.116729  0.883271  0.270488  1
  Sn  Sn14  1  0.766539  0.883271  0.270488  1
  Sn  Sn15  1  0.116729  0.233461  0.270488  1
  Sn  Sn16  1  0.883562  0.116438  0.729700  1
  Sn  Sn17  1  0.232878  0.116438  0.729700  1
  Sn  Sn18  1  0.883562  0.767122  0.729700  1
  Sn  Sn19  1  0.346019  0.999992  0.000127  1
  Sn  Sn20  1  0.653973  0.653981  0.000127  1
  Sn  Sn21  1  0.000008  0.346027  0.000127  1
  Sn  Sn22  1  0.346019  0.346027  0.000127  1
  Sn  Sn23  1  0.000008  0.653981  0.000127  1
  Sn  Sn24  1  0.653973  0.999992  0.000127  1
  Sn  Sn25  1  0.782299  0.564597  0.451717  1
  Sn  Sn26  1  0.782299  0.217701  0.451717  1
  Sn  Sn27  1  0.435403  0.217701  0.451717  1
  Sn  Sn28  1  0.217731  0.435462  0.547396  1
  Sn  Sn29  1  0.217731  0.782269  0.547396  1
  Sn  Sn30  1  0.564538  0.782269  0.547396  1
  Sn  Sn31  1  0.666667  0.333333  0.181618  1
  Sn  Sn32  1  0.333333  0.666667  0.818390  1
  Sn  Sn33  1  0.666667  0.333333  0.884061  1
  Sn  Sn34  1  0.333333  0.666667  0.116985  1
  Hg  Hg35  1  0.000000  0.000000  0.499931  1
