# generated using pymatgen
data_Cs5RbP4W
_symmetry_space_group_name_H-M   'P 1'
_cell_length_a   10.83054467
_cell_length_b   10.83054424
_cell_length_c   8.66572134
_cell_angle_alpha   89.26282695
_cell_angle_beta   89.26283052
_cell_angle_gamma   120.13778852
_symmetry_Int_Tables_number   1
_chemical_formula_structural   Cs5RbP4W
_chemical_formula_sum   'Cs10 Rb2 P8 W2'
_cell_volume   878.79349780
_cell_formula_units_Z   2
loop_
 _symmetry_equiv_pos_site_id
 _symmetry_equiv_pos_as_xyz
  1  'x, y, z'
loop_
 _atom_site_type_symbol
 _atom_site_label
 _atom_site_symmetry_multiplicity
 _atom_site_fract_x
 _atom_site_fract_y
 _atom_site_fract_z
 _atom_site_occupancy
  Cs  Cs0  1  0.462966  0.535843  0.495609  1
  Cs  Cs1  1  0.070918  0.535787  0.500711  1
  Cs  Cs2  1  0.535843  0.462966  0.995609  1
  Cs  Cs3  1  0.535787  0.070918  0.000711  1
  Cs  Cs4  1  0.851876  0.142364  0.679846  1
  Cs  Cs5  1  0.299468  0.147904  0.694403  1
  Cs  Cs6  1  0.852916  0.708486  0.666376  1
  Cs  Cs7  1  0.142364  0.851876  0.179846  1
  Cs  Cs8  1  0.708486  0.852916  0.166376  1
  Cs  Cs9  1  0.147904  0.299468  0.194403  1
  Rb  Rb10  1  0.465640  0.933321  0.499578  1
  Rb  Rb11  1  0.933321  0.465640  0.999578  1
  P  P12  1  0.672655  0.335009  0.662036  1
  P  P13  1  0.335009  0.672655  0.162036  1
  P  P14  1  0.783683  0.210345  0.306828  1
  P  P15  1  0.429407  0.210743  0.317761  1
  P  P16  1  0.785245  0.566950  0.298435  1
  P  P17  1  0.210345  0.783683  0.806828  1
  P  P18  1  0.566950  0.785245  0.798435  1
  P  P19  1  0.210743  0.429407  0.817761  1
  W  W20  1  0.667744  0.330728  0.392706  1
  W  W21  1  0.330728  0.667744  0.892706  1
