# generated using pymatgen
data_EuDy16Lu3Pb16
_symmetry_space_group_name_H-M   'P 1'
_cell_length_a   8.19668486
_cell_length_b   8.28666504
_cell_length_c   15.66182500
_cell_angle_alpha   90.02268554
_cell_angle_beta   89.58804793
_cell_angle_gamma   89.57571349
_symmetry_Int_Tables_number   1
_chemical_formula_structural   EuDy16Lu3Pb16
_chemical_formula_sum   'Eu1 Dy16 Lu3 Pb16'
_cell_volume   1063.74421795
_cell_formula_units_Z   1
loop_
 _symmetry_equiv_pos_site_id
 _symmetry_equiv_pos_as_xyz
  1  'x, y, z'
loop_
 _atom_site_type_symbol
 _atom_site_label
 _atom_site_symmetry_multiplicity
 _atom_site_fract_x
 _atom_site_fract_y
 _atom_site_fract_z
 _atom_site_occupancy
  Eu  Eu0  1  0.972579  0.820440  0.594603  1
  Dy  Dy1  1  0.628245  0.156288  0.623019  1
  Dy  Dy2  1  0.125036  0.343821  0.881325  1
  Dy  Dy3  1  0.375661  0.842743  0.121237  1
  Dy  Dy4  1  0.871735  0.656432  0.378955  1
  Dy  Dy5  1  0.372227  0.841223  0.376896  1
  Dy  Dy6  1  0.875693  0.656605  0.120254  1
  Dy  Dy7  1  0.622709  0.156664  0.879015  1
  Dy  Dy8  1  0.126226  0.344029  0.621511  1
  Dy  Dy9  1  0.467983  0.675385  0.597928  1
  Dy  Dy10  1  0.964743  0.822914  0.900549  1
  Dy  Dy11  1  0.534789  0.324486  0.099832  1
  Dy  Dy12  1  0.031369  0.180467  0.401880  1
  Dy  Dy13  1  0.531333  0.322593  0.401394  1
  Dy  Dy14  1  0.034959  0.176933  0.099694  1
  Dy  Dy15  1  0.465044  0.676643  0.902367  1
  Dy  Dy16  1  0.706516  0.995752  0.248893  1
  Lu  Lu17  1  0.793008  0.494751  0.750867  1
  Lu  Lu18  1  0.292527  0.004878  0.750439  1
  Lu  Lu19  1  0.207256  0.504580  0.250358  1
  Pb  Pb20  1  0.707831  0.968612  0.453589  1
  Pb  Pb21  1  0.218140  0.533981  0.044787  1
  Pb  Pb22  1  0.280976  0.032096  0.956212  1
  Pb  Pb23  1  0.782828  0.458693  0.543003  1
  Pb  Pb24  1  0.293386  0.042171  0.541757  1
  Pb  Pb25  1  0.781106  0.465547  0.956345  1
  Pb  Pb26  1  0.717928  0.966840  0.043008  1
  Pb  Pb27  1  0.216746  0.534308  0.455221  1
  Pb  Pb28  1  0.430954  0.375736  0.751111  1
  Pb  Pb29  1  0.932855  0.127205  0.752792  1
  Pb  Pb30  1  0.568750  0.623820  0.248186  1
  Pb  Pb31  1  0.068767  0.873239  0.249994  1
  Pb  Pb32  1  0.651342  0.842801  0.750651  1
  Pb  Pb33  1  0.159247  0.653491  0.751991  1
  Pb  Pb34  1  0.344092  0.156970  0.249938  1
  Pb  Pb35  1  0.845414  0.346866  0.250392  1
