# generated using pymatgen
data_Tb8Si16(Mo3W)3
_symmetry_space_group_name_H-M   'P 1'
_cell_length_a   6.79415914
_cell_length_b   6.95987769
_cell_length_c   12.93108200
_cell_angle_alpha   90.00000000
_cell_angle_beta   90.00000000
_cell_angle_gamma   89.96271491
_symmetry_Int_Tables_number   1
_chemical_formula_structural   Tb8Si16(Mo3W)3
_chemical_formula_sum   'Tb8 Si16 Mo9 W3'
_cell_volume   611.46569469
_cell_formula_units_Z   1
loop_
 _symmetry_equiv_pos_site_id
 _symmetry_equiv_pos_as_xyz
  1  'x, y, z'
loop_
 _atom_site_type_symbol
 _atom_site_label
 _atom_site_symmetry_multiplicity
 _atom_site_fract_x
 _atom_site_fract_y
 _atom_site_fract_z
 _atom_site_occupancy
  Tb  Tb0  1  0.496972  0.332836  0.093796  1
  Tb  Tb1  1  0.997156  0.166911  0.406079  1
  Tb  Tb2  1  0.502787  0.666969  0.593981  1
  Tb  Tb3  1  0.003168  0.832967  0.905948  1
  Tb  Tb4  1  0.502787  0.666969  0.906019  1
  Tb  Tb5  1  0.003168  0.832967  0.594052  1
  Tb  Tb6  1  0.496972  0.332836  0.406204  1
  Tb  Tb7  1  0.997156  0.166911  0.093921  1
  Si  Si8  1  0.658945  0.042906  0.547847  1
  Si  Si9  1  0.158787  0.456929  0.952141  1
  Si  Si10  1  0.341087  0.957207  0.047660  1
  Si  Si11  1  0.841541  0.543489  0.452016  1
  Si  Si12  1  0.341087  0.957207  0.452340  1
  Si  Si13  1  0.841541  0.543489  0.047984  1
  Si  Si14  1  0.658945  0.042906  0.952153  1
  Si  Si15  1  0.158787  0.456929  0.547859  1
  Si  Si16  1  0.535110  0.366757  0.750000  1
  Si  Si17  1  0.034703  0.133102  0.750000  1
  Si  Si18  1  0.465330  0.633414  0.250000  1
  Si  Si19  1  0.964643  0.865517  0.250000  1
  Si  Si20  1  0.802653  0.629671  0.750000  1
  Si  Si21  1  0.302849  0.870472  0.750000  1
  Si  Si22  1  0.197063  0.371293  0.250000  1
  Si  Si23  1  0.697102  0.128749  0.250000  1
  Mo  Mo24  1  0.830996  0.335809  0.625964  1
  Mo  Mo25  1  0.330991  0.164205  0.873864  1
  Mo  Mo26  1  0.169714  0.664898  0.125884  1
  Mo  Mo27  1  0.668450  0.835881  0.374049  1
  Mo  Mo28  1  0.169714  0.664898  0.374116  1
  Mo  Mo29  1  0.668450  0.835881  0.125951  1
  Mo  Mo30  1  0.830996  0.335809  0.874036  1
  Mo  Mo31  1  0.330991  0.164205  0.626136  1
  Mo  Mo32  1  0.834839  0.500034  0.250000  1
  W  W33  1  0.664744  0.000922  0.750000  1
  W  W34  1  0.164672  0.499011  0.750000  1
  W  W35  1  0.335103  0.999043  0.250000  1
