# generated using pymatgen
data_ErPa7(BiPt2)4
_symmetry_space_group_name_H-M   'P 1'
_cell_length_a   7.80565800
_cell_length_b   7.80565845
_cell_length_c   7.60496400
_cell_angle_alpha   90.00000000
_cell_angle_beta   90.00000000
_cell_angle_gamma   90.70234367
_symmetry_Int_Tables_number   1
_chemical_formula_structural   ErPa7(BiPt2)4
_chemical_formula_sum   'Er1 Pa7 Bi4 Pt8'
_cell_volume   463.32271786
_cell_formula_units_Z   1
loop_
 _symmetry_equiv_pos_site_id
 _symmetry_equiv_pos_as_xyz
  1  'x, y, z'
loop_
 _atom_site_type_symbol
 _atom_site_label
 _atom_site_symmetry_multiplicity
 _atom_site_fract_x
 _atom_site_fract_y
 _atom_site_fract_z
 _atom_site_occupancy
  Er  Er0  1  0.177432  0.822568  0.500000  1
  Pa  Pa1  1  0.682279  0.679283  0.000000  1
  Pa  Pa2  1  0.341574  0.345028  0.500000  1
  Pa  Pa3  1  0.821795  0.178205  0.500000  1
  Pa  Pa4  1  0.654972  0.658426  0.500000  1
  Pa  Pa5  1  0.320717  0.317721  0.000000  1
  Pa  Pa6  1  0.843323  0.156677  0.000000  1
  Pa  Pa7  1  0.159460  0.840540  0.000000  1
  Bi  Bi8  1  0.493907  0.997717  0.748058  1
  Bi  Bi9  1  0.493907  0.997717  0.251942  1
  Bi  Bi10  1  0.002283  0.506093  0.748058  1
  Bi  Bi11  1  0.002283  0.506093  0.251942  1
  Pt  Pt12  1  0.867817  0.873080  0.732145  1
  Pt  Pt13  1  0.126920  0.132183  0.732145  1
  Pt  Pt14  1  0.631909  0.368091  0.771638  1
  Pt  Pt15  1  0.631909  0.368091  0.228362  1
  Pt  Pt16  1  0.376387  0.623613  0.224349  1
  Pt  Pt17  1  0.126920  0.132183  0.267855  1
  Pt  Pt18  1  0.867817  0.873080  0.267855  1
  Pt  Pt19  1  0.376387  0.623613  0.775651  1
