# generated using pymatgen
data_TbTm3ReRu7
_symmetry_space_group_name_H-M   'P 1'
_cell_length_a   5.19818660
_cell_length_b   5.41961595
_cell_length_c   8.93596301
_cell_angle_alpha   90.00000202
_cell_angle_beta   90.00487582
_cell_angle_gamma   121.41942230
_symmetry_Int_Tables_number   1
_chemical_formula_structural   TbTm3ReRu7
_chemical_formula_sum   'Tb1 Tm3 Re1 Ru7'
_cell_volume   214.83310894
_cell_formula_units_Z   1
loop_
 _symmetry_equiv_pos_site_id
 _symmetry_equiv_pos_as_xyz
  1  'x, y, z'
loop_
 _atom_site_type_symbol
 _atom_site_label
 _atom_site_symmetry_multiplicity
 _atom_site_fract_x
 _atom_site_fract_y
 _atom_site_fract_z
 _atom_site_occupancy
  Tb  Tb0  1  0.327412  0.663707  0.433599  1
  Tm  Tm1  1  0.654209  0.327104  0.566406  1
  Tm  Tm2  1  0.654357  0.327177  0.934604  1
  Tm  Tm3  1  0.328678  0.664340  0.066309  1
  Re  Re4  1  0.685508  0.842754  0.750926  1
  Ru  Ru5  1  0.976541  0.988271  0.499795  1
  Ru  Ru6  1  0.975489  0.987745  0.000469  1
  Ru  Ru7  1  0.836899  0.168015  0.248501  1
  Ru  Ru8  1  0.836899  0.668883  0.248501  1
  Ru  Ru9  1  0.356386  0.178193  0.248576  1
  Ru  Ru10  1  0.183812  0.829606  0.751158  1
  Ru  Ru11  1  0.183812  0.354207  0.751158  1
