# generated using pymatgen
data_Be4CrRu5
_symmetry_space_group_name_H-M   'P 1'
_cell_length_a   6.19185700
_cell_length_b   6.19185700
_cell_length_c   2.90560800
_cell_angle_alpha   90.00000000
_cell_angle_beta   90.00000000
_cell_angle_gamma   90.00000000
_symmetry_Int_Tables_number   1
_chemical_formula_structural   Be4CrRu5
_chemical_formula_sum   'Be4 Cr1 Ru5'
_cell_volume   111.39837565
_cell_formula_units_Z   1
loop_
 _symmetry_equiv_pos_site_id
 _symmetry_equiv_pos_as_xyz
  1  'x, y, z'
loop_
 _atom_site_type_symbol
 _atom_site_label
 _atom_site_symmetry_multiplicity
 _atom_site_fract_x
 _atom_site_fract_y
 _atom_site_fract_z
 _atom_site_occupancy
  Be  Be0  1  0.135688  0.615565  0.000000  1
  Be  Be1  1  0.864312  0.384435  0.000000  1
  Be  Be2  1  0.615565  0.864312  0.000000  1
  Be  Be3  1  0.384435  0.135688  0.000000  1
  Cr  Cr4  1  0.000000  0.000000  0.000000  1
  Ru  Ru5  1  0.500000  0.500000  0.000000  1
  Ru  Ru6  1  0.683382  0.152829  0.500000  1
  Ru  Ru7  1  0.316618  0.847171  0.500000  1
  Ru  Ru8  1  0.152829  0.316618  0.500000  1
  Ru  Ru9  1  0.847171  0.683382  0.500000  1
