# generated using pymatgen
data_Hf6V4Ga11Sb
_symmetry_space_group_name_H-M   'P 1'
_cell_length_a   5.40806100
_cell_length_b   7.83450800
_cell_length_c   8.88950100
_cell_angle_alpha   90.00000000
_cell_angle_beta   90.00000000
_cell_angle_gamma   90.00000000
_symmetry_Int_Tables_number   1
_chemical_formula_structural   Hf6V4Ga11Sb
_chemical_formula_sum   'Hf6 V4 Ga11 Sb1'
_cell_volume   376.64368745
_cell_formula_units_Z   1
loop_
 _symmetry_equiv_pos_site_id
 _symmetry_equiv_pos_as_xyz
  1  'x, y, z'
loop_
 _atom_site_type_symbol
 _atom_site_label
 _atom_site_symmetry_multiplicity
 _atom_site_fract_x
 _atom_site_fract_y
 _atom_site_fract_z
 _atom_site_occupancy
  Hf  Hf0  1  0.500000  0.155574  0.777966  1
  Hf  Hf1  1  0.500000  0.155574  0.222034  1
  Hf  Hf2  1  0.000000  0.851674  0.726272  1
  Hf  Hf3  1  0.000000  0.851674  0.273728  1
  Hf  Hf4  1  0.500000  0.717232  0.500000  1
  Hf  Hf5  1  0.000000  0.285349  0.000000  1
  V  V6  1  0.255675  0.497092  0.247415  1
  V  V7  1  0.255675  0.497092  0.752585  1
  V  V8  1  0.744325  0.497092  0.247415  1
  V  V9  1  0.744325  0.497092  0.752585  1
  Ga  Ga10  1  0.500000  0.771434  0.189000  1
  Ga  Ga11  1  0.500000  0.771434  0.811000  1
  Ga  Ga12  1  0.000000  0.223557  0.304659  1
  Ga  Ga13  1  0.000000  0.223557  0.695341  1
  Ga  Ga14  1  0.500000  0.360881  0.500000  1
  Ga  Ga15  1  0.000000  0.634308  0.000000  1
  Ga  Ga16  1  0.500000  0.433754  0.000000  1
  Ga  Ga17  1  0.259046  0.038414  0.500000  1
  Ga  Ga18  1  0.740954  0.038414  0.500000  1
  Ga  Ga19  1  0.241939  0.963682  0.000000  1
  Ga  Ga20  1  0.758061  0.963682  0.000000  1
  Sb  Sb21  1  0.000000  0.571437  0.500000  1
