# generated using pymatgen
data_CeAsIr2Pt
_symmetry_space_group_name_H-M   'P 1'
_cell_length_a   4.06405900
_cell_length_b   4.06403100
_cell_length_c   11.21242600
_cell_angle_alpha   90.00000000
_cell_angle_beta   90.00000000
_cell_angle_gamma   90.00000000
_symmetry_Int_Tables_number   1
_chemical_formula_structural   CeAsIr2Pt
_chemical_formula_sum   'Ce2 As2 Ir4 Pt2'
_cell_volume   185.18960529
_cell_formula_units_Z   2
loop_
 _symmetry_equiv_pos_site_id
 _symmetry_equiv_pos_as_xyz
  1  'x, y, z'
loop_
 _atom_site_type_symbol
 _atom_site_label
 _atom_site_symmetry_multiplicity
 _atom_site_fract_x
 _atom_site_fract_y
 _atom_site_fract_z
 _atom_site_occupancy
  Ce  Ce0  1  0.000000  0.500000  0.273130  1
  Ce  Ce1  1  0.500000  0.000000  0.726871  1
  As  As2  1  0.000000  0.500000  0.873784  1
  As  As3  1  0.500000  0.000000  0.126216  1
  Ir  Ir4  1  0.000000  0.000000  0.999998  1
  Ir  Ir5  1  0.500000  0.500000  0.999995  1
  Ir  Ir6  1  0.000000  0.500000  0.663798  1
  Ir  Ir7  1  0.500000  0.000000  0.336204  1
  Pt  Pt8  1  0.000000  0.000000  0.500001  1
  Pt  Pt9  1  0.500000  0.500000  0.500004  1
