# generated using pymatgen
data_Ho20PdRh11
_symmetry_space_group_name_H-M   'P 1'
_cell_length_a   10.90262673
_cell_length_b   10.90262682
_cell_length_c   6.31195900
_cell_angle_alpha   90.00483875
_cell_angle_beta   90.00483111
_cell_angle_gamma   89.74449559
_symmetry_Int_Tables_number   1
_chemical_formula_structural   Ho20PdRh11
_chemical_formula_sum   'Ho20 Pd1 Rh11'
_cell_volume   750.27787358
_cell_formula_units_Z   1
loop_
 _symmetry_equiv_pos_site_id
 _symmetry_equiv_pos_as_xyz
  1  'x, y, z'
loop_
 _atom_site_type_symbol
 _atom_site_label
 _atom_site_symmetry_multiplicity
 _atom_site_fract_x
 _atom_site_fract_y
 _atom_site_fract_z
 _atom_site_occupancy
  Ho  Ho0  1  0.290834  0.089954  0.378445  1
  Ho  Ho1  1  0.290533  0.915441  0.878554  1
  Ho  Ho2  1  0.709104  0.089227  0.878378  1
  Ho  Ho3  1  0.709164  0.910845  0.378778  1
  Ho  Ho4  1  0.592761  0.792174  0.879932  1
  Ho  Ho5  1  0.589308  0.208476  0.377352  1
  Ho  Ho6  1  0.412808  0.793473  0.372752  1
  Ho  Ho7  1  0.410435  0.209950  0.878107  1
  Ho  Ho8  1  0.207826  0.407239  0.620068  1
  Ho  Ho9  1  0.206527  0.587192  0.127248  1
  Ho  Ho10  1  0.791524  0.410692  0.122648  1
  Ho  Ho11  1  0.790050  0.589565  0.621893  1
  Ho  Ho12  1  0.910046  0.709166  0.121555  1
  Ho  Ho13  1  0.910773  0.290896  0.621622  1
  Ho  Ho14  1  0.084559  0.709467  0.621446  1
  Ho  Ho15  1  0.089155  0.290836  0.121222  1
  Ho  Ho16  1  0.000097  0.000279  0.499502  1
  Ho  Ho17  1  0.999721  0.999903  0.000498  1
  Ho  Ho18  1  0.502111  0.498003  0.000480  1
  Ho  Ho19  1  0.501997  0.497889  0.499520  1
  Pd  Pd20  1  0.344840  0.655160  0.750000  1
  Rh  Rh21  1  0.845929  0.154071  0.250000  1
  Rh  Rh22  1  0.846148  0.846071  0.749707  1
  Rh  Rh23  1  0.153929  0.153852  0.750293  1
  Rh  Rh24  1  0.155366  0.844634  0.250000  1
  Rh  Rh25  1  0.655111  0.344889  0.750000  1
  Rh  Rh26  1  0.653483  0.654208  0.249467  1
  Rh  Rh27  1  0.345792  0.346517  0.250533  1
  Rh  Rh28  1  0.499450  0.999732  0.123579  1
  Rh  Rh29  1  0.499931  0.999580  0.625193  1
  Rh  Rh30  1  0.000420  0.500069  0.874807  1
  Rh  Rh31  1  0.000268  0.500550  0.376421  1
