# generated using pymatgen
data_Sr6Sc3Cr(WO9)2
_symmetry_space_group_name_H-M   'P 1'
_cell_length_a   9.89462450
_cell_length_b   9.89462487
_cell_length_c   5.68840466
_cell_angle_alpha   73.38318194
_cell_angle_beta   73.38317995
_cell_angle_gamma   48.84299999
_symmetry_Int_Tables_number   1
_chemical_formula_structural   Sr6Sc3Cr(WO9)2
_chemical_formula_sum   'Sr6 Sc3 Cr1 W2 O18'
_cell_volume   398.08957161
_cell_formula_units_Z   1
loop_
 _symmetry_equiv_pos_site_id
 _symmetry_equiv_pos_as_xyz
  1  'x, y, z'
loop_
 _atom_site_type_symbol
 _atom_site_label
 _atom_site_symmetry_multiplicity
 _atom_site_fract_x
 _atom_site_fract_y
 _atom_site_fract_z
 _atom_site_occupancy
  Sr  Sr0  1  0.917906  0.395871  0.847994  1
  Sr  Sr1  1  0.230425  0.769575  0.500000  1
  Sr  Sr2  1  0.604129  0.082094  0.152006  1
  Sr  Sr3  1  0.769575  0.230425  0.500000  1
  Sr  Sr4  1  0.082094  0.604129  0.152006  1
  Sr  Sr5  1  0.395871  0.917906  0.847994  1
  Sc  Sc6  1  0.500000  0.500000  0.000000  1
  Sc  Sc7  1  0.835084  0.835084  0.663265  1
  Sc  Sc8  1  0.164916  0.164916  0.336735  1
  Cr  Cr9  1  0.000000  0.000000  0.000000  1
  W  W10  1  0.332921  0.332921  0.663491  1
  W  W11  1  0.667079  0.667079  0.336509  1
  O  O12  1  0.429420  0.907754  0.331661  1
  O  O13  1  0.750548  0.249452  0.000000  1
  O  O14  1  0.092246  0.570580  0.668339  1
  O  O15  1  0.907754  0.429420  0.331661  1
  O  O16  1  0.249452  0.750548  0.000000  1
  O  O17  1  0.570580  0.092246  0.668339  1
  O  O18  1  0.072476  0.072476  0.209071  1
  O  O19  1  0.396877  0.396877  0.886835  1
  O  O20  1  0.727879  0.727879  0.564635  1
  O  O21  1  0.603123  0.603123  0.113165  1
  O  O22  1  0.927524  0.927524  0.790929  1
  O  O23  1  0.272121  0.272121  0.435365  1
  O  O24  1  0.571256  0.571256  0.618261  1
  O  O25  1  0.903935  0.903935  0.308740  1
  O  O26  1  0.238585  0.238585  0.948887  1
  O  O27  1  0.096065  0.096065  0.691260  1
  O  O28  1  0.428744  0.428744  0.381739  1
  O  O29  1  0.761415  0.761415  0.051113  1
