# generated using pymatgen
data_NdLu7(Si4W3)4
_symmetry_space_group_name_H-M   'P 1'
_cell_length_a   6.72483436
_cell_length_b   6.90500326
_cell_length_c   12.84060131
_cell_angle_alpha   89.87990462
_cell_angle_beta   90.02018085
_cell_angle_gamma   89.91763832
_symmetry_Int_Tables_number   1
_chemical_formula_structural   NdLu7(Si4W3)4
_chemical_formula_sum   'Nd1 Lu7 Si16 W12'
_cell_volume   596.25139847
_cell_formula_units_Z   1
loop_
 _symmetry_equiv_pos_site_id
 _symmetry_equiv_pos_as_xyz
  1  'x, y, z'
loop_
 _atom_site_type_symbol
 _atom_site_label
 _atom_site_symmetry_multiplicity
 _atom_site_fract_x
 _atom_site_fract_y
 _atom_site_fract_z
 _atom_site_occupancy
  Nd  Nd0  1  0.997432  0.833810  0.591992  1
  Lu  Lu1  1  0.495385  0.668129  0.593013  1
  Lu  Lu2  1  0.994724  0.831455  0.906888  1
  Lu  Lu3  1  0.504681  0.331088  0.092978  1
  Lu  Lu4  1  0.005783  0.168404  0.405000  1
  Lu  Lu5  1  0.505637  0.332432  0.405608  1
  Lu  Lu6  1  0.005012  0.168333  0.092989  1
  Lu  Lu7  1  0.494910  0.668497  0.908832  1
  Si  Si8  1  0.661118  0.960033  0.451148  1
  Si  Si9  1  0.162922  0.540613  0.046762  1
  Si  Si10  1  0.335670  0.040307  0.954454  1
  Si  Si11  1  0.835583  0.454544  0.545808  1
  Si  Si12  1  0.342866  0.044281  0.545669  1
  Si  Si13  1  0.836640  0.459687  0.953943  1
  Si  Si14  1  0.663170  0.959666  0.046754  1
  Si  Si15  1  0.163749  0.537948  0.451448  1
  Si  Si16  1  0.465335  0.373884  0.750873  1
  Si  Si17  1  0.964207  0.131466  0.752316  1
  Si  Si18  1  0.533953  0.626538  0.249130  1
  Si  Si19  1  0.034481  0.871771  0.249820  1
  Si  Si20  1  0.693752  0.863940  0.752208  1
  Si  Si21  1  0.200906  0.634445  0.752521  1
  Si  Si22  1  0.302876  0.136103  0.249320  1
  Si  Si23  1  0.801972  0.362251  0.248755  1
  W  W24  1  0.667191  0.164927  0.626056  1
  W  W25  1  0.170357  0.338106  0.876345  1
  W  W26  1  0.329975  0.836481  0.125017  1
  W  W27  1  0.829061  0.660038  0.373161  1
  W  W28  1  0.331826  0.836684  0.373955  1
  W  W29  1  0.830159  0.662278  0.124627  1
  W  W30  1  0.667930  0.163604  0.876126  1
  W  W31  1  0.170088  0.337536  0.625358  1
  W  W32  1  0.832784  0.501256  0.751301  1
  W  W33  1  0.334141  0.000693  0.751847  1
  W  W34  1  0.166511  0.497036  0.249156  1
  W  W35  1  0.667216  0.001739  0.248824  1
