# generated using pymatgen
data_SmMg3P7N12
_symmetry_space_group_name_H-M   'P 1'
_cell_length_a   7.34333273
_cell_length_b   7.34333254
_cell_length_c   7.34333255
_cell_angle_alpha   109.49339497
_cell_angle_beta   109.49340105
_cell_angle_gamma   109.49338830
_symmetry_Int_Tables_number   1
_chemical_formula_structural   SmMg3P7N12
_chemical_formula_sum   'Sm1 Mg3 P7 N12'
_cell_volume   304.57948613
_cell_formula_units_Z   1
loop_
 _symmetry_equiv_pos_site_id
 _symmetry_equiv_pos_as_xyz
  1  'x, y, z'
loop_
 _atom_site_type_symbol
 _atom_site_label
 _atom_site_symmetry_multiplicity
 _atom_site_fract_x
 _atom_site_fract_y
 _atom_site_fract_z
 _atom_site_occupancy
  Sm  Sm0  1  0.325814  0.325814  0.325814  1
  Mg  Mg1  1  0.002134  0.651919  0.002134  1
  Mg  Mg2  1  0.651919  0.002134  0.002134  1
  Mg  Mg3  1  0.002134  0.002134  0.651919  1
  P  P4  1  0.505998  0.251938  0.757529  1
  P  P5  1  0.505998  0.757529  0.251938  1
  P  P6  1  0.757529  0.251938  0.505998  1
  P  P7  1  0.251938  0.505998  0.757529  1
  P  P8  1  0.757529  0.505998  0.251938  1
  P  P9  1  0.251938  0.757529  0.505998  1
  P  P10  1  0.958939  0.958939  0.958939  1
  N  N11  1  0.003267  0.728092  0.430745  1
  N  N12  1  0.284409  0.705721  0.284409  1
  N  N13  1  0.279364  0.575010  0.575010  1
  N  N14  1  0.575010  0.575010  0.279364  1
  N  N15  1  0.575010  0.279364  0.575010  1
  N  N16  1  0.728092  0.003267  0.430745  1
  N  N17  1  0.430745  0.003267  0.728092  1
  N  N18  1  0.728092  0.430745  0.003267  1
  N  N19  1  0.284409  0.284409  0.705721  1
  N  N20  1  0.705721  0.284409  0.284409  1
  N  N21  1  0.003267  0.430745  0.728092  1
  N  N22  1  0.430745  0.728092  0.003267  1
