# generated using pymatgen
data_Zr5Sc(SnRh)6
_symmetry_space_group_name_H-M   'P 1'
_cell_length_a   7.47580097
_cell_length_b   7.47132530
_cell_length_c   7.18349600
_cell_angle_alpha   90.00000000
_cell_angle_beta   90.00000000
_cell_angle_gamma   119.96098226
_symmetry_Int_Tables_number   1
_chemical_formula_structural   Zr5Sc(SnRh)6
_chemical_formula_sum   'Zr5 Sc1 Sn6 Rh6'
_cell_volume   347.61017427
_cell_formula_units_Z   1
loop_
 _symmetry_equiv_pos_site_id
 _symmetry_equiv_pos_as_xyz
  1  'x, y, z'
loop_
 _atom_site_type_symbol
 _atom_site_label
 _atom_site_symmetry_multiplicity
 _atom_site_fract_x
 _atom_site_fract_y
 _atom_site_fract_z
 _atom_site_occupancy
  Zr  Zr0  1  0.389737  0.401648  0.750000  1
  Zr  Zr1  1  0.011233  0.609840  0.750000  1
  Zr  Zr2  1  0.611424  0.011108  0.250000  1
  Zr  Zr3  1  0.400380  0.389636  0.250000  1
  Zr  Zr4  1  0.985909  0.598270  0.250000  1
  Sc  Sc5  1  0.599144  0.989773  0.750000  1
  Sn  Sn6  1  0.273092  0.998950  0.001484  1
  Sn  Sn7  1  0.728045  0.731311  0.502362  1
  Sn  Sn8  1  0.998795  0.269808  0.501543  1
  Sn  Sn9  1  0.998795  0.269808  0.998457  1
  Sn  Sn10  1  0.728045  0.731311  0.997638  1
  Sn  Sn11  1  0.273092  0.998950  0.498516  1
  Rh  Rh12  1  0.667625  0.336117  0.979088  1
  Rh  Rh13  1  0.667625  0.336117  0.520912  1
  Rh  Rh14  1  0.331059  0.663564  0.028995  1
  Rh  Rh15  1  0.331059  0.663564  0.471005  1
  Rh  Rh16  1  0.005967  0.000702  0.750000  1
  Rh  Rh17  1  0.998974  0.999522  0.250000  1
