# generated using pymatgen
data_Pr3Mg(Cu4P3)2
_symmetry_space_group_name_H-M   'P 1'
_cell_length_a   3.94770500
_cell_length_b   11.29725300
_cell_length_c   12.92753400
_cell_angle_alpha   90.00000000
_cell_angle_beta   90.00000000
_cell_angle_gamma   90.00000000
_symmetry_Int_Tables_number   1
_chemical_formula_structural   Pr3Mg(Cu4P3)2
_chemical_formula_sum   'Pr6 Mg2 Cu16 P12'
_cell_volume   576.54503324
_cell_formula_units_Z   2
loop_
 _symmetry_equiv_pos_site_id
 _symmetry_equiv_pos_as_xyz
  1  'x, y, z'
loop_
 _atom_site_type_symbol
 _atom_site_label
 _atom_site_symmetry_multiplicity
 _atom_site_fract_x
 _atom_site_fract_y
 _atom_site_fract_z
 _atom_site_occupancy
  Pr  Pr0  1  0.000000  0.500000  0.523088  1
  Pr  Pr1  1  0.500000  0.000000  0.476912  1
  Pr  Pr2  1  0.500000  0.820244  0.204485  1
  Pr  Pr3  1  0.500000  0.179756  0.204485  1
  Pr  Pr4  1  0.000000  0.679756  0.795515  1
  Pr  Pr5  1  0.000000  0.320244  0.795515  1
  Mg  Mg6  1  0.500000  0.500000  0.150626  1
  Mg  Mg7  1  0.000000  0.000000  0.849374  1
  Cu  Cu8  1  0.500000  0.500000  0.700808  1
  Cu  Cu9  1  0.000000  0.000000  0.299192  1
  Cu  Cu10  1  0.000000  0.500000  0.985957  1
  Cu  Cu11  1  0.500000  0.000000  0.014043  1
  Cu  Cu12  1  0.500000  0.333643  0.994383  1
  Cu  Cu13  1  0.500000  0.666357  0.994383  1
  Cu  Cu14  1  0.000000  0.166357  0.005617  1
  Cu  Cu15  1  0.000000  0.833643  0.005617  1
  Cu  Cu16  1  0.500000  0.294966  0.429420  1
  Cu  Cu17  1  0.500000  0.705034  0.429420  1
  Cu  Cu18  1  0.000000  0.205034  0.570580  1
  Cu  Cu19  1  0.000000  0.794966  0.570580  1
  Cu  Cu20  1  0.500000  0.880585  0.705027  1
  Cu  Cu21  1  0.500000  0.119415  0.705027  1
  Cu  Cu22  1  0.000000  0.619415  0.294973  1
  Cu  Cu23  1  0.000000  0.380585  0.294973  1
  P  P24  1  0.500000  0.500000  0.878331  1
  P  P25  1  0.000000  0.000000  0.121669  1
  P  P26  1  0.500000  0.500000  0.349589  1
  P  P27  1  0.000000  0.000000  0.650411  1
  P  P28  1  0.500000  0.317608  0.616240  1
  P  P29  1  0.500000  0.682392  0.616240  1
  P  P30  1  0.000000  0.182392  0.383760  1
  P  P31  1  0.000000  0.817608  0.383760  1
  P  P32  1  0.500000  0.841446  0.891743  1
  P  P33  1  0.500000  0.158554  0.891743  1
  P  P34  1  0.000000  0.658554  0.108257  1
  P  P35  1  0.000000  0.341446  0.108257  1
