# generated using pymatgen
data_Pu3Al3TcGe2
_symmetry_space_group_name_H-M   'P 1'
_cell_length_a   6.76679545
_cell_length_b   6.79462381
_cell_length_c   4.46973700
_cell_angle_alpha   90.00000000
_cell_angle_beta   90.00000000
_cell_angle_gamma   119.83381832
_symmetry_Int_Tables_number   1
_chemical_formula_structural   Pu3Al3TcGe2
_chemical_formula_sum   'Pu3 Al3 Tc1 Ge2'
_cell_volume   178.27312820
_cell_formula_units_Z   1
loop_
 _symmetry_equiv_pos_site_id
 _symmetry_equiv_pos_as_xyz
  1  'x, y, z'
loop_
 _atom_site_type_symbol
 _atom_site_label
 _atom_site_symmetry_multiplicity
 _atom_site_fract_x
 _atom_site_fract_y
 _atom_site_fract_z
 _atom_site_occupancy
  Pu  Pu0  1  0.414234  0.000549  0.500000  1
  Pu  Pu1  1  0.000550  0.414775  0.500000  1
  Pu  Pu2  1  0.584492  0.584579  0.500000  1
  Al  Al3  1  0.768481  0.999421  0.000000  1
  Al  Al4  1  0.999154  0.768362  0.000000  1
  Al  Al5  1  0.230998  0.231246  0.000000  1
  Tc  Tc6  1  0.001927  0.000791  0.500000  1
  Ge  Ge7  1  0.333504  0.666989  0.000000  1
  Ge  Ge8  1  0.666659  0.333290  0.000000  1
