# generated using pymatgen
data_Tb3Y(CCl)2
_symmetry_space_group_name_H-M   'P 1'
_cell_length_a   3.65771300
_cell_length_b   3.65771242
_cell_length_c   13.68339300
_cell_angle_alpha   90.00000000
_cell_angle_beta   90.00000000
_cell_angle_gamma   119.99999618
_symmetry_Int_Tables_number   1
_chemical_formula_structural   Tb3Y(CCl)2
_chemical_formula_sum   'Tb3 Y1 C2 Cl2'
_cell_volume   158.54174431
_cell_formula_units_Z   1
loop_
 _symmetry_equiv_pos_site_id
 _symmetry_equiv_pos_as_xyz
  1  'x, y, z'
loop_
 _atom_site_type_symbol
 _atom_site_label
 _atom_site_symmetry_multiplicity
 _atom_site_fract_x
 _atom_site_fract_y
 _atom_site_fract_z
 _atom_site_occupancy
  Tb  Tb0  1  0.333333  0.666667  0.594807  1
  Tb  Tb1  1  0.666667  0.333333  0.405935  1
  Tb  Tb2  1  0.666667  0.333333  0.093607  1
  Y  Y3  1  0.333333  0.666667  0.905337  1
  C  C4  1  0.000000  0.000000  0.998885  1
  C  C5  1  0.000000  0.000000  0.500473  1
  Cl  Cl6  1  0.333333  0.666667  0.249199  1
  Cl  Cl7  1  0.666667  0.333333  0.751755  1
