# generated using pymatgen
data_Ce2Y(InRh)3
_symmetry_space_group_name_H-M   'P 1'
_cell_length_a   7.53498000
_cell_length_b   7.69863694
_cell_length_c   3.91404200
_cell_angle_alpha   90.00000000
_cell_angle_beta   90.00000000
_cell_angle_gamma   119.29925052
_symmetry_Int_Tables_number   1
_chemical_formula_structural   Ce2Y(InRh)3
_chemical_formula_sum   'Ce2 Y1 In3 Rh3'
_cell_volume   198.00474466
_cell_formula_units_Z   1
loop_
 _symmetry_equiv_pos_site_id
 _symmetry_equiv_pos_as_xyz
  1  'x, y, z'
loop_
 _atom_site_type_symbol
 _atom_site_label
 _atom_site_symmetry_multiplicity
 _atom_site_fract_x
 _atom_site_fract_y
 _atom_site_fract_z
 _atom_site_occupancy
  Ce  Ce0  1  0.999244  0.412508  0.500000  1
  Ce  Ce1  1  0.586736  0.587492  0.500000  1
  Y  Y2  1  0.407671  0.000000  0.500000  1
  In  In3  1  0.736472  0.000000  0.000000  1
  In  In4  1  0.008797  0.754717  0.000000  1
  In  In5  1  0.254080  0.245283  0.000000  1
  Rh  Rh6  1  0.330778  0.646892  0.000000  1
  Rh  Rh7  1  0.683887  0.353108  0.000000  1
  Rh  Rh8  1  0.992335  0.000000  0.500000  1
