# generated using pymatgen
data_Yb2Rh2O7
_symmetry_space_group_name_H-M   'P 1'
_cell_length_a   7.20171740
_cell_length_b   7.20220884
_cell_length_c   7.20178800
_cell_angle_alpha   60.00185348
_cell_angle_beta   60.00018750
_cell_angle_gamma   60.00187924
_symmetry_Int_Tables_number   1
_chemical_formula_structural   Yb2Rh2O7
_chemical_formula_sum   'Yb4 Rh4 O14'
_cell_volume   264.14353562
_cell_formula_units_Z   2
loop_
 _symmetry_equiv_pos_site_id
 _symmetry_equiv_pos_as_xyz
  1  'x, y, z'
loop_
 _atom_site_type_symbol
 _atom_site_label
 _atom_site_symmetry_multiplicity
 _atom_site_fract_x
 _atom_site_fract_y
 _atom_site_fract_z
 _atom_site_occupancy
  Yb  Yb0  1  0.500013  0.999993  0.000010  1
  Yb  Yb1  1  0.499988  0.000019  0.499983  1
  Yb  Yb2  1  0.000010  0.999988  0.500012  1
  Yb  Yb3  1  0.499986  0.500010  0.499986  1
  Rh  Rh4  1  0.000003  0.999994  0.000001  1
  Rh  Rh5  1  0.999997  0.500003  0.000004  1
  Rh  Rh6  1  0.499994  0.500010  0.999997  1
  Rh  Rh7  1  0.999992  0.500005  0.500000  1
  O  O8  1  0.671408  0.578595  0.078604  1
  O  O9  1  0.671401  0.171341  0.078626  1
  O  O10  1  0.078648  0.171330  0.078651  1
  O  O11  1  0.328595  0.421406  0.328616  1
  O  O12  1  0.921357  0.828664  0.328636  1
  O  O13  1  0.921378  0.421384  0.328622  1
  O  O14  1  0.375005  0.874997  0.375016  1
  O  O15  1  0.624996  0.125001  0.624987  1
  O  O16  1  0.078642  0.171334  0.671369  1
  O  O17  1  0.671404  0.578602  0.671376  1
  O  O18  1  0.078622  0.578615  0.671378  1
  O  O19  1  0.328597  0.421401  0.921391  1
  O  O20  1  0.921365  0.828658  0.921359  1
  O  O21  1  0.328602  0.828656  0.921373  1
