# generated using pymatgen
data_Nb12Al9Fe3CN3
_symmetry_space_group_name_H-M   'P 1'
_cell_length_a   8.24332922
_cell_length_b   8.24326292
_cell_length_c   8.24997644
_cell_angle_alpha   60.02549975
_cell_angle_beta   60.02560138
_cell_angle_gamma   59.99858335
_symmetry_Int_Tables_number   1
_chemical_formula_structural   Nb12Al9Fe3CN3
_chemical_formula_sum   'Nb12 Al9 Fe3 C1 N3'
_cell_volume   396.55412240
_cell_formula_units_Z   1
loop_
 _symmetry_equiv_pos_site_id
 _symmetry_equiv_pos_as_xyz
  1  'x, y, z'
loop_
 _atom_site_type_symbol
 _atom_site_label
 _atom_site_symmetry_multiplicity
 _atom_site_fract_x
 _atom_site_fract_y
 _atom_site_fract_z
 _atom_site_occupancy
  Nb  Nb0  1  0.807295  0.807296  0.190234  1
  Nb  Nb1  1  0.190436  0.190397  0.811106  1
  Nb  Nb2  1  0.808050  0.190417  0.811098  1
  Nb  Nb3  1  0.195174  0.807305  0.190212  1
  Nb  Nb4  1  0.190423  0.808067  0.811112  1
  Nb  Nb5  1  0.807290  0.195167  0.190249  1
  Nb  Nb6  1  0.442705  0.442704  0.059766  1
  Nb  Nb7  1  0.059564  0.059603  0.438894  1
  Nb  Nb8  1  0.441950  0.059583  0.438902  1
  Nb  Nb9  1  0.054826  0.442695  0.059788  1
  Nb  Nb10  1  0.059577  0.441933  0.438888  1
  Nb  Nb11  1  0.442710  0.054833  0.059751  1
  Al  Al12  1  0.625000  0.625000  0.125000  1
  Al  Al13  1  0.749656  0.409581  0.431199  1
  Al  Al14  1  0.409585  0.749661  0.431195  1
  Al  Al15  1  0.416519  0.416509  0.750470  1
  Al  Al16  1  0.409577  0.409566  0.431190  1
  Al  Al17  1  0.500344  0.840419  0.818801  1
  Al  Al18  1  0.840415  0.500339  0.818805  1
  Al  Al19  1  0.833481  0.833491  0.499530  1
  Al  Al20  1  0.840423  0.840434  0.818810  1
  Fe  Fe21  1  0.125000  0.625000  0.625000  1
  Fe  Fe22  1  0.625000  0.125000  0.625000  1
  Fe  Fe23  1  0.625000  0.625000  0.625000  1
  C  C24  1  0.125000  0.125000  0.625000  1
  N  N25  1  0.625000  0.125000  0.125000  1
  N  N26  1  0.125000  0.625000  0.125000  1
  N  N27  1  0.125000  0.125000  0.125000  1
