# generated using pymatgen
data_Ho3Ni9(AsP2)2
_symmetry_space_group_name_H-M   'P 1'
_cell_length_a   3.77690400
_cell_length_b   10.66814600
_cell_length_c   12.38902700
_cell_angle_alpha   90.00000000
_cell_angle_beta   90.00000000
_cell_angle_gamma   90.00000000
_symmetry_Int_Tables_number   1
_chemical_formula_structural   Ho3Ni9(AsP2)2
_chemical_formula_sum   'Ho6 Ni18 As4 P8'
_cell_volume   499.18565462
_cell_formula_units_Z   2
loop_
 _symmetry_equiv_pos_site_id
 _symmetry_equiv_pos_as_xyz
  1  'x, y, z'
loop_
 _atom_site_type_symbol
 _atom_site_label
 _atom_site_symmetry_multiplicity
 _atom_site_fract_x
 _atom_site_fract_y
 _atom_site_fract_z
 _atom_site_occupancy
  Ho  Ho0  1  0.751734  0.000000  0.483980  1
  Ho  Ho1  1  0.251734  0.500000  0.516020  1
  Ho  Ho2  1  0.252408  0.681988  0.798705  1
  Ho  Ho3  1  0.252408  0.318012  0.798705  1
  Ho  Ho4  1  0.752408  0.818012  0.201295  1
  Ho  Ho5  1  0.752408  0.181988  0.201295  1
  Ni  Ni6  1  0.753156  0.000000  0.014265  1
  Ni  Ni7  1  0.253156  0.500000  0.985735  1
  Ni  Ni8  1  0.251864  0.185938  0.582355  1
  Ni  Ni9  1  0.251864  0.814062  0.582355  1
  Ni  Ni10  1  0.751864  0.314062  0.417645  1
  Ni  Ni11  1  0.751864  0.685938  0.417645  1
  Ni  Ni12  1  0.250463  0.617468  0.281023  1
  Ni  Ni13  1  0.250463  0.382532  0.281023  1
  Ni  Ni14  1  0.750463  0.882532  0.718977  1
  Ni  Ni15  1  0.750463  0.117468  0.718977  1
  Ni  Ni16  1  0.253703  0.167281  0.003563  1
  Ni  Ni17  1  0.253703  0.832719  0.003563  1
  Ni  Ni18  1  0.753703  0.332719  0.996437  1
  Ni  Ni19  1  0.753703  0.667281  0.996437  1
  Ni  Ni20  1  0.245098  0.000000  0.845061  1
  Ni  Ni21  1  0.745098  0.500000  0.154939  1
  Ni  Ni22  1  0.252852  0.000000  0.293829  1
  Ni  Ni23  1  0.752852  0.500000  0.706171  1
  As  As24  1  0.251959  0.185909  0.387849  1
  As  As25  1  0.251959  0.814091  0.387849  1
  As  As26  1  0.751959  0.314091  0.612151  1
  As  As27  1  0.751959  0.685909  0.612151  1
  P  P28  1  0.252962  0.000000  0.120070  1
  P  P29  1  0.752962  0.500000  0.879930  1
  P  P30  1  0.252685  0.654231  0.104415  1
  P  P31  1  0.252685  0.345769  0.104415  1
  P  P32  1  0.752685  0.845769  0.895585  1
  P  P33  1  0.752685  0.154231  0.895585  1
  P  P34  1  0.250835  0.000000  0.663035  1
  P  P35  1  0.750835  0.500000  0.336965  1
