# generated using pymatgen
data_Cs2LiDyBi2
_symmetry_space_group_name_H-M   'P 1'
_cell_length_a   11.71742610
_cell_length_b   11.71742463
_cell_length_c   7.49710900
_cell_angle_alpha   90.00000000
_cell_angle_beta   90.00000000
_cell_angle_gamma   100.36121760
_symmetry_Int_Tables_number   1
_chemical_formula_structural   Cs2LiDyBi2
_chemical_formula_sum   'Cs8 Li4 Dy4 Bi8'
_cell_volume   1012.55352540
_cell_formula_units_Z   4
loop_
 _symmetry_equiv_pos_site_id
 _symmetry_equiv_pos_as_xyz
  1  'x, y, z'
loop_
 _atom_site_type_symbol
 _atom_site_label
 _atom_site_symmetry_multiplicity
 _atom_site_fract_x
 _atom_site_fract_y
 _atom_site_fract_z
 _atom_site_occupancy
  Cs  Cs0  1  0.072067  0.427933  0.250000  1
  Cs  Cs1  1  0.427933  0.072067  0.750000  1
  Cs  Cs2  1  0.927933  0.572067  0.750000  1
  Cs  Cs3  1  0.572067  0.927933  0.250000  1
  Cs  Cs4  1  0.675283  0.324717  0.216986  1
  Cs  Cs5  1  0.824717  0.175283  0.716986  1
  Cs  Cs6  1  0.324717  0.675283  0.783014  1
  Cs  Cs7  1  0.175283  0.824717  0.283014  1
  Li  Li8  1  0.377221  0.377221  0.000000  1
  Li  Li9  1  0.122779  0.122779  0.500000  1
  Li  Li10  1  0.622779  0.622779  0.000000  1
  Li  Li11  1  0.877221  0.877221  0.500000  1
  Dy  Dy12  1  0.129814  0.129814  0.000000  1
  Dy  Dy13  1  0.370186  0.370186  0.500000  1
  Dy  Dy14  1  0.870186  0.870186  0.000000  1
  Dy  Dy15  1  0.629814  0.629814  0.500000  1
  Bi  Bi16  1  0.842097  0.657902  0.250000  1
  Bi  Bi17  1  0.657902  0.842097  0.750000  1
  Bi  Bi18  1  0.157902  0.342097  0.750000  1
  Bi  Bi19  1  0.342097  0.157902  0.250000  1
  Bi  Bi20  1  0.909563  0.090437  0.239258  1
  Bi  Bi21  1  0.590437  0.409563  0.739258  1
  Bi  Bi22  1  0.090437  0.909563  0.760742  1
  Bi  Bi23  1  0.409563  0.590437  0.260742  1
