# generated using pymatgen
data_Nd6Al4Pd12Pt
_symmetry_space_group_name_H-M   'P 1'
_cell_length_a   8.40342565
_cell_length_b   8.40342518
_cell_length_c   8.40342500
_cell_angle_alpha   109.47121539
_cell_angle_beta   109.47121424
_cell_angle_gamma   109.47122819
_symmetry_Int_Tables_number   1
_chemical_formula_structural   Nd6Al4Pd12Pt
_chemical_formula_sum   'Nd6 Al4 Pd12 Pt1'
_cell_volume   456.82215608
_cell_formula_units_Z   1
loop_
 _symmetry_equiv_pos_site_id
 _symmetry_equiv_pos_as_xyz
  1  'x, y, z'
loop_
 _atom_site_type_symbol
 _atom_site_label
 _atom_site_symmetry_multiplicity
 _atom_site_fract_x
 _atom_site_fract_y
 _atom_site_fract_z
 _atom_site_occupancy
  Nd  Nd0  1  0.699845  0.699845  0.000000  1
  Nd  Nd1  1  0.300155  0.000000  0.300155  1
  Nd  Nd2  1  0.000000  0.300155  0.300155  1
  Nd  Nd3  1  0.300155  0.300155  0.000000  1
  Nd  Nd4  1  0.699845  0.000000  0.699845  1
  Nd  Nd5  1  0.000000  0.699845  0.699845  1
  Al  Al6  1  0.000000  0.000000  0.500000  1
  Al  Al7  1  0.000000  0.500000  0.000000  1
  Al  Al8  1  0.500000  0.000000  0.000000  1
  Al  Al9  1  0.500000  0.500000  0.500000  1
  Pd  Pd10  1  0.323429  0.323429  0.646857  1
  Pd  Pd11  1  0.676571  0.000000  0.323429  1
  Pd  Pd12  1  0.000000  0.676571  0.323429  1
  Pd  Pd13  1  0.676571  0.323429  0.000000  1
  Pd  Pd14  1  0.323429  0.646857  0.323429  1
  Pd  Pd15  1  0.000000  0.323429  0.676571  1
  Pd  Pd16  1  0.323429  0.676571  0.000000  1
  Pd  Pd17  1  0.323429  0.000000  0.676571  1
  Pd  Pd18  1  0.646857  0.323429  0.323429  1
  Pd  Pd19  1  0.676571  0.676571  0.353143  1
  Pd  Pd20  1  0.676571  0.353143  0.676571  1
  Pd  Pd21  1  0.353143  0.676571  0.676571  1
  Pt  Pt22  1  0.000000  0.000000  0.000000  1
