# generated using pymatgen
data_YbSc(NbS2)6
_symmetry_space_group_name_H-M   'P 1'
_cell_length_a   5.77872600
_cell_length_b   5.77872592
_cell_length_c   13.55986100
_cell_angle_alpha   90.00000000
_cell_angle_beta   90.00000000
_cell_angle_gamma   119.99998902
_symmetry_Int_Tables_number   1
_chemical_formula_structural   YbSc(NbS2)6
_chemical_formula_sum   'Yb1 Sc1 Nb6 S12'
_cell_volume   392.14810144
_cell_formula_units_Z   1
loop_
 _symmetry_equiv_pos_site_id
 _symmetry_equiv_pos_as_xyz
  1  'x, y, z'
loop_
 _atom_site_type_symbol
 _atom_site_label
 _atom_site_symmetry_multiplicity
 _atom_site_fract_x
 _atom_site_fract_y
 _atom_site_fract_z
 _atom_site_occupancy
  Yb  Yb0  1  0.333333  0.666667  0.250000  1
  Sc  Sc1  1  0.666667  0.333333  0.750000  1
  Nb  Nb2  1  0.000000  0.000000  0.511194  1
  Nb  Nb3  1  0.000000  0.000000  0.988806  1
  Nb  Nb4  1  0.333333  0.666667  0.989235  1
  Nb  Nb5  1  0.666667  0.333333  0.988998  1
  Nb  Nb6  1  0.666667  0.333333  0.511002  1
  Nb  Nb7  1  0.333333  0.666667  0.510765  1
  S  S8  1  0.333088  0.329440  0.394556  1
  S  S9  1  0.670560  0.003647  0.394556  1
  S  S10  1  0.996353  0.666912  0.394556  1
  S  S11  1  0.329907  0.333772  0.627878  1
  S  S12  1  0.003864  0.670093  0.627878  1
  S  S13  1  0.666228  0.996136  0.627878  1
  S  S14  1  0.666228  0.670093  0.872122  1
  S  S15  1  0.329907  0.996136  0.872122  1
  S  S16  1  0.003864  0.333772  0.872122  1
  S  S17  1  0.670560  0.666912  0.105444  1
  S  S18  1  0.996353  0.329440  0.105444  1
  S  S19  1  0.333088  0.003647  0.105444  1
