# generated using pymatgen
data_Cs4Na2ScAlSb4
_symmetry_space_group_name_H-M   'P 1'
_cell_length_a   10.25913651
_cell_length_b   10.25913676
_cell_length_c   10.25913700
_cell_angle_alpha   136.96247107
_cell_angle_beta   60.91655144
_cell_angle_gamma   139.04076123
_symmetry_Int_Tables_number   1
_chemical_formula_structural   Cs4Na2ScAlSb4
_chemical_formula_sum   'Cs4 Na2 Sc1 Al1 Sb4'
_cell_volume   477.80116282
_cell_formula_units_Z   1
loop_
 _symmetry_equiv_pos_site_id
 _symmetry_equiv_pos_as_xyz
  1  'x, y, z'
loop_
 _atom_site_type_symbol
 _atom_site_label
 _atom_site_symmetry_multiplicity
 _atom_site_fract_x
 _atom_site_fract_y
 _atom_site_fract_z
 _atom_site_occupancy
  Cs  Cs0  1  0.330594  0.768739  0.096885  1
  Cs  Cs1  1  0.169406  0.266292  0.438145  1
  Cs  Cs2  1  0.828146  0.731262  0.561856  1
  Cs  Cs3  1  0.671854  0.233709  0.903116  1
  Na  Na4  1  0.750000  0.250000  0.500000  1
  Na  Na5  1  0.250000  0.750001  0.500001  1
  Sc  Sc6  1  0.250000  0.250000  0.000000  1
  Al  Al7  1  0.750000  0.750000  0.000000  1
  Sb  Sb8  1  0.901943  0.200157  0.121285  1
  Sb  Sb9  1  0.598057  0.719342  0.298214  1
  Sb  Sb10  1  0.421128  0.299843  0.701787  1
  Sb  Sb11  1  0.078872  0.780659  0.878716  1
