# generated using pymatgen
data_Tb3Co8MoP6
_symmetry_space_group_name_H-M   'P 1'
_cell_length_a   3.72297400
_cell_length_b   10.56230600
_cell_length_c   12.26424100
_cell_angle_alpha   90.00000000
_cell_angle_beta   90.00000000
_cell_angle_gamma   90.00000000
_symmetry_Int_Tables_number   1
_chemical_formula_structural   Tb3Co8MoP6
_chemical_formula_sum   'Tb6 Co16 Mo2 P12'
_cell_volume   482.26908663
_cell_formula_units_Z   2
loop_
 _symmetry_equiv_pos_site_id
 _symmetry_equiv_pos_as_xyz
  1  'x, y, z'
loop_
 _atom_site_type_symbol
 _atom_site_label
 _atom_site_symmetry_multiplicity
 _atom_site_fract_x
 _atom_site_fract_y
 _atom_site_fract_z
 _atom_site_occupancy
  Tb  Tb0  1  0.000000  0.500000  0.524244  1
  Tb  Tb1  1  0.500000  0.000000  0.475756  1
  Tb  Tb2  1  0.500000  0.818921  0.205037  1
  Tb  Tb3  1  0.500000  0.181079  0.205037  1
  Tb  Tb4  1  0.000000  0.681079  0.794963  1
  Tb  Tb5  1  0.000000  0.318921  0.794963  1
  Co  Co6  1  0.500000  0.500000  0.701732  1
  Co  Co7  1  0.000000  0.000000  0.298268  1
  Co  Co8  1  0.000000  0.500000  0.986717  1
  Co  Co9  1  0.500000  0.000000  0.013283  1
  Co  Co10  1  0.500000  0.332451  0.990488  1
  Co  Co11  1  0.500000  0.667549  0.990488  1
  Co  Co12  1  0.000000  0.167549  0.009512  1
  Co  Co13  1  0.000000  0.832451  0.009512  1
  Co  Co14  1  0.500000  0.295850  0.431362  1
  Co  Co15  1  0.500000  0.704150  0.431362  1
  Co  Co16  1  0.000000  0.204150  0.568638  1
  Co  Co17  1  0.000000  0.795850  0.568638  1
  Co  Co18  1  0.500000  0.878480  0.706829  1
  Co  Co19  1  0.500000  0.121520  0.706829  1
  Co  Co20  1  0.000000  0.621520  0.293171  1
  Co  Co21  1  0.000000  0.378480  0.293171  1
  Mo  Mo22  1  0.500000  0.500000  0.156262  1
  Mo  Mo23  1  0.000000  0.000000  0.843738  1
  P  P24  1  0.500000  0.500000  0.881565  1
  P  P25  1  0.000000  0.000000  0.118435  1
  P  P26  1  0.500000  0.500000  0.348779  1
  P  P27  1  0.000000  0.000000  0.651221  1
  P  P28  1  0.500000  0.310687  0.615489  1
  P  P29  1  0.500000  0.689313  0.615489  1
  P  P30  1  0.000000  0.189313  0.384511  1
  P  P31  1  0.000000  0.810687  0.384511  1
  P  P32  1  0.500000  0.845103  0.893256  1
  P  P33  1  0.500000  0.154897  0.893256  1
  P  P34  1  0.000000  0.654897  0.106744  1
  P  P35  1  0.000000  0.345103  0.106744  1
