# generated using pymatgen
data_ErCu2(PPd)2
_symmetry_space_group_name_H-M   'P 1'
_cell_length_a   7.53119300
_cell_length_b   7.35009900
_cell_length_c   3.82892200
_cell_angle_alpha   90.00000000
_cell_angle_beta   90.00000000
_cell_angle_gamma   90.00000000
_symmetry_Int_Tables_number   1
_chemical_formula_structural   ErCu2(PPd)2
_chemical_formula_sum   'Er2 Cu4 P4 Pd4'
_cell_volume   211.95003144
_cell_formula_units_Z   2
loop_
 _symmetry_equiv_pos_site_id
 _symmetry_equiv_pos_as_xyz
  1  'x, y, z'
loop_
 _atom_site_type_symbol
 _atom_site_label
 _atom_site_symmetry_multiplicity
 _atom_site_fract_x
 _atom_site_fract_y
 _atom_site_fract_z
 _atom_site_occupancy
  Er  Er0  1  0.500000  0.500000  0.000000  1
  Er  Er1  1  0.000000  0.000000  0.500000  1
  Cu  Cu2  1  0.161181  0.579254  0.500000  1
  Cu  Cu3  1  0.838819  0.420746  0.500000  1
  Cu  Cu4  1  0.338819  0.079254  0.000000  1
  Cu  Cu5  1  0.661181  0.920746  0.000000  1
  P  P6  1  0.714215  0.720993  0.500000  1
  P  P7  1  0.285785  0.279007  0.500000  1
  P  P8  1  0.214215  0.779007  0.000000  1
  P  P9  1  0.785785  0.220993  0.000000  1
  Pd  Pd10  1  0.587463  0.174326  0.500000  1
  Pd  Pd11  1  0.412537  0.825674  0.500000  1
  Pd  Pd12  1  0.087463  0.325674  0.000000  1
  Pd  Pd13  1  0.912537  0.674326  0.000000  1
