# generated using pymatgen
data_Ho2Tm2MnOs7
_symmetry_space_group_name_H-M   'P 1'
_cell_length_a   5.32063002
_cell_length_b   5.32043497
_cell_length_c   8.71133800
_cell_angle_alpha   89.99937640
_cell_angle_beta   89.99571105
_cell_angle_gamma   60.00118824
_symmetry_Int_Tables_number   1
_chemical_formula_structural   Ho2Tm2MnOs7
_chemical_formula_sum   'Ho2 Tm2 Mn1 Os7'
_cell_volume   213.56540068
_cell_formula_units_Z   1
loop_
 _symmetry_equiv_pos_site_id
 _symmetry_equiv_pos_as_xyz
  1  'x, y, z'
loop_
 _atom_site_type_symbol
 _atom_site_label
 _atom_site_symmetry_multiplicity
 _atom_site_fract_x
 _atom_site_fract_y
 _atom_site_fract_z
 _atom_site_occupancy
  Ho  Ho0  1  0.333339  0.333331  0.569416  1
  Ho  Ho1  1  0.666661  0.666669  0.430584  1
  Tm  Tm2  1  0.666664  0.666668  0.064180  1
  Tm  Tm3  1  0.333336  0.333332  0.935820  1
  Mn  Mn4  1  0.000000  0.000000  0.500000  1
  Os  Os5  1  0.000000  0.000000  0.000000  1
  Os  Os6  1  0.828824  0.342362  0.748542  1
  Os  Os7  1  0.342328  0.828837  0.748538  1
  Os  Os8  1  0.828822  0.828815  0.748542  1
  Os  Os9  1  0.171176  0.657638  0.251458  1
  Os  Os10  1  0.657672  0.171163  0.251462  1
  Os  Os11  1  0.171178  0.171185  0.251458  1
