# generated using pymatgen
data_Ce5Ge2Os
_symmetry_space_group_name_H-M   'P 1'
_cell_length_a   7.84641300
_cell_length_b   8.78693900
_cell_length_c   11.85945400
_cell_angle_alpha   90.00000000
_cell_angle_beta   90.00000000
_cell_angle_gamma   90.00000000
_symmetry_Int_Tables_number   1
_chemical_formula_structural   Ce5Ge2Os
_chemical_formula_sum   'Ce20 Ge8 Os4'
_cell_volume   817.66135097
_cell_formula_units_Z   4
loop_
 _symmetry_equiv_pos_site_id
 _symmetry_equiv_pos_as_xyz
  1  'x, y, z'
loop_
 _atom_site_type_symbol
 _atom_site_label
 _atom_site_symmetry_multiplicity
 _atom_site_fract_x
 _atom_site_fract_y
 _atom_site_fract_z
 _atom_site_occupancy
  Ce  Ce0  1  0.697798  0.463385  0.066995  1
  Ce  Ce1  1  0.197798  0.536615  0.433005  1
  Ce  Ce2  1  0.302202  0.963385  0.933005  1
  Ce  Ce3  1  0.802202  0.036615  0.566995  1
  Ce  Ce4  1  0.302202  0.536615  0.933005  1
  Ce  Ce5  1  0.802202  0.463385  0.566995  1
  Ce  Ce6  1  0.697798  0.036615  0.066995  1
  Ce  Ce7  1  0.197798  0.963385  0.433005  1
  Ce  Ce8  1  0.969576  0.750000  0.002505  1
  Ce  Ce9  1  0.469576  0.250000  0.497495  1
  Ce  Ce10  1  0.030424  0.250000  0.997495  1
  Ce  Ce11  1  0.530424  0.750000  0.502505  1
  Ce  Ce12  1  0.363868  0.750000  0.207112  1
  Ce  Ce13  1  0.863868  0.250000  0.292888  1
  Ce  Ce14  1  0.636132  0.250000  0.792888  1
  Ce  Ce15  1  0.136132  0.750000  0.707112  1
  Ce  Ce16  1  0.842051  0.750000  0.286788  1
  Ce  Ce17  1  0.342051  0.250000  0.213212  1
  Ce  Ce18  1  0.157949  0.250000  0.713212  1
  Ce  Ce19  1  0.657949  0.750000  0.786788  1
  Ge  Ge20  1  0.574037  0.495208  0.327037  1
  Ge  Ge21  1  0.074037  0.504792  0.172963  1
  Ge  Ge22  1  0.425963  0.995208  0.672963  1
  Ge  Ge23  1  0.925963  0.004792  0.827037  1
  Ge  Ge24  1  0.425963  0.504792  0.672963  1
  Ge  Ge25  1  0.925963  0.495208  0.827037  1
  Ge  Ge26  1  0.574037  0.004792  0.327037  1
  Ge  Ge27  1  0.074037  0.995208  0.172963  1
  Os  Os28  1  0.575212  0.750000  0.020222  1
  Os  Os29  1  0.075212  0.250000  0.479778  1
  Os  Os30  1  0.424788  0.250000  0.979778  1
  Os  Os31  1  0.924788  0.750000  0.520222  1
