# generated using pymatgen
data_Sr2GaRuBr
_symmetry_space_group_name_H-M   'P 1'
_cell_length_a   4.31357900
_cell_length_b   4.31357875
_cell_length_c   17.71589700
_cell_angle_alpha   90.00000000
_cell_angle_beta   90.00000000
_cell_angle_gamma   119.99999422
_symmetry_Int_Tables_number   1
_chemical_formula_structural   Sr2GaRuBr
_chemical_formula_sum   'Sr4 Ga2 Ru2 Br2'
_cell_volume   285.47579518
_cell_formula_units_Z   2
loop_
 _symmetry_equiv_pos_site_id
 _symmetry_equiv_pos_as_xyz
  1  'x, y, z'
loop_
 _atom_site_type_symbol
 _atom_site_label
 _atom_site_symmetry_multiplicity
 _atom_site_fract_x
 _atom_site_fract_y
 _atom_site_fract_z
 _atom_site_occupancy
  Sr  Sr0  1  0.000000  0.000000  0.118632  1
  Sr  Sr1  1  0.000000  0.000000  0.381368  1
  Sr  Sr2  1  0.000000  0.000000  0.618112  1
  Sr  Sr3  1  0.000000  0.000000  0.881888  1
  Ga  Ga4  1  0.666667  0.333332  0.500559  1
  Ga  Ga5  1  0.666667  0.333332  0.999441  1
  Ru  Ru6  1  0.333334  0.666667  0.000901  1
  Ru  Ru7  1  0.333334  0.666667  0.499099  1
  Br  Br8  1  0.666667  0.333332  0.250000  1
  Br  Br9  1  0.333334  0.666667  0.750000  1
