# generated using pymatgen
data_Ti6Si2Tc5Ge4Os
_symmetry_space_group_name_H-M   'P 1'
_cell_length_a   6.88827076
_cell_length_b   6.49996150
_cell_length_c   7.61210491
_cell_angle_alpha   115.26103278
_cell_angle_beta   116.95843870
_cell_angle_gamma   90.00232331
_symmetry_Int_Tables_number   1
_chemical_formula_structural   Ti6Si2Tc5Ge4Os
_chemical_formula_sum   'Ti6 Si2 Tc5 Ge4 Os1'
_cell_volume   266.70246524
_cell_formula_units_Z   1
loop_
 _symmetry_equiv_pos_site_id
 _symmetry_equiv_pos_as_xyz
  1  'x, y, z'
loop_
 _atom_site_type_symbol
 _atom_site_label
 _atom_site_symmetry_multiplicity
 _atom_site_fract_x
 _atom_site_fract_y
 _atom_site_fract_z
 _atom_site_occupancy
  Ti  Ti0  1  0.244517  0.450662  0.399402  1
  Ti  Ti1  1  0.849730  0.552382  0.603047  1
  Ti  Ti2  1  0.645055  0.748092  0.997536  1
  Ti  Ti3  1  0.645927  0.249888  0.998323  1
  Ti  Ti4  1  0.850444  0.051265  0.604032  1
  Ti  Ti5  1  0.244807  0.948653  0.398990  1
  Si  Si6  1  0.246896  0.251225  0.000328  1
  Si  Si7  1  0.246185  0.748573  0.999639  1
  Tc  Tc8  1  0.991462  0.000556  0.001124  1
  Tc  Tc9  1  0.989550  0.499413  0.999258  1
  Tc  Tc10  1  0.504521  0.628960  0.257765  1
  Tc  Tc11  1  0.246604  0.371413  0.742889  1
  Tc  Tc12  1  0.247476  0.872520  0.744796  1
  Ge  Ge13  1  0.580301  0.833660  0.666659  1
  Ge  Ge14  1  0.912183  0.166047  0.332879  1
  Ge  Ge15  1  0.913009  0.667069  0.333187  1
  Ge  Ge16  1  0.579274  0.332326  0.664782  1
  Os  Os17  1  0.502457  0.127295  0.255364  1
