# generated using pymatgen
data_Tb3Er5(AlPt)2
_symmetry_space_group_name_H-M   'P 1'
_cell_length_a   9.55969412
_cell_length_b   9.55969363
_cell_length_c   9.55969500
_cell_angle_alpha   59.99999873
_cell_angle_beta   60.00000043
_cell_angle_gamma   59.99999859
_symmetry_Int_Tables_number   1
_chemical_formula_structural   Tb3Er5(AlPt)2
_chemical_formula_sum   'Tb6 Er10 Al4 Pt4'
_cell_volume   617.75604267
_cell_formula_units_Z   2
loop_
 _symmetry_equiv_pos_site_id
 _symmetry_equiv_pos_as_xyz
  1  'x, y, z'
loop_
 _atom_site_type_symbol
 _atom_site_label
 _atom_site_symmetry_multiplicity
 _atom_site_fract_x
 _atom_site_fract_y
 _atom_site_fract_z
 _atom_site_occupancy
  Tb  Tb0  1  0.936086  0.563914  0.563914  1
  Tb  Tb1  1  0.563914  0.936086  0.936086  1
  Tb  Tb2  1  0.563914  0.936086  0.563914  1
  Tb  Tb3  1  0.936086  0.563914  0.936086  1
  Tb  Tb4  1  0.563914  0.563914  0.936086  1
  Tb  Tb5  1  0.936086  0.936086  0.563914  1
  Er  Er6  1  0.353576  0.353576  0.353576  1
  Er  Er7  1  0.353576  0.353576  0.939271  1
  Er  Er8  1  0.353576  0.939271  0.353576  1
  Er  Er9  1  0.939271  0.353576  0.353576  1
  Er  Er10  1  0.807370  0.192630  0.192630  1
  Er  Er11  1  0.192630  0.807370  0.807370  1
  Er  Er12  1  0.192630  0.807370  0.192630  1
  Er  Er13  1  0.807370  0.192630  0.807370  1
  Er  Er14  1  0.192630  0.192630  0.807370  1
  Er  Er15  1  0.807370  0.807370  0.192630  1
  Al  Al16  1  0.576989  0.576989  0.576989  1
  Al  Al17  1  0.576989  0.576989  0.269031  1
  Al  Al18  1  0.576989  0.269031  0.576989  1
  Al  Al19  1  0.269031  0.576989  0.576989  1
  Pt  Pt20  1  0.143065  0.143065  0.143065  1
  Pt  Pt21  1  0.143065  0.143065  0.570805  1
  Pt  Pt22  1  0.143065  0.570805  0.143065  1
  Pt  Pt23  1  0.570805  0.143065  0.143065  1
