# generated using pymatgen
data_TbYTa3P7Rh9
_symmetry_space_group_name_H-M   'P 1'
_cell_length_a   3.92543000
_cell_length_b   9.63700178
_cell_length_c   9.63704800
_cell_angle_alpha   120.00264388
_cell_angle_beta   90.00157637
_cell_angle_gamma   89.99907501
_symmetry_Int_Tables_number   1
_chemical_formula_structural   TbYTa3P7Rh9
_chemical_formula_sum   'Tb1 Y1 Ta3 P7 Rh9'
_cell_volume   315.71285041
_cell_formula_units_Z   1
loop_
 _symmetry_equiv_pos_site_id
 _symmetry_equiv_pos_as_xyz
  1  'x, y, z'
loop_
 _atom_site_type_symbol
 _atom_site_label
 _atom_site_symmetry_multiplicity
 _atom_site_fract_x
 _atom_site_fract_y
 _atom_site_fract_z
 _atom_site_occupancy
  Tb  Tb0  1  0.260787  0.666677  0.333359  1
  Y  Y1  1  0.762392  0.333352  0.666665  1
  Ta  Ta2  1  0.762140  0.094870  0.872924  1
  Ta  Ta3  1  0.762111  0.127079  0.221955  1
  Ta  Ta4  1  0.762144  0.778015  0.905135  1
  P  P5  1  0.262062  0.999971  0.999997  1
  P  P6  1  0.761554  0.877392  0.589064  1
  P  P7  1  0.761516  0.410932  0.288271  1
  P  P8  1  0.761550  0.711712  0.122644  1
  P  P9  1  0.262033  0.117237  0.415823  1
  P  P10  1  0.262030  0.584190  0.701442  1
  P  P11  1  0.262008  0.298585  0.882771  1
  Rh  Rh12  1  0.261787  0.885355  0.161060  1
  Rh  Rh13  1  0.261776  0.838982  0.724312  1
  Rh  Rh14  1  0.261735  0.275675  0.114634  1
  Rh  Rh15  1  0.761849  0.611757  0.557936  1
  Rh  Rh16  1  0.761828  0.442022  0.053791  1
  Rh  Rh17  1  0.761867  0.946236  0.388250  1
  Rh  Rh18  1  0.262239  0.367535  0.438368  1
  Rh  Rh19  1  0.262289  0.561594  0.929167  1
  Rh  Rh20  1  0.262303  0.070833  0.632431  1
