# generated using pymatgen
data_Tb4Ga4Ir2PdPt
_symmetry_space_group_name_H-M   'P 1'
_cell_length_a   4.40861700
_cell_length_b   6.89431112
_cell_length_c   7.77441822
_cell_angle_alpha   89.81200727
_cell_angle_beta   90.00000000
_cell_angle_gamma   90.00000000
_symmetry_Int_Tables_number   1
_chemical_formula_structural   Tb4Ga4Ir2PdPt
_chemical_formula_sum   'Tb4 Ga4 Ir2 Pd1 Pt1'
_cell_volume   236.29732793
_cell_formula_units_Z   1
loop_
 _symmetry_equiv_pos_site_id
 _symmetry_equiv_pos_as_xyz
  1  'x, y, z'
loop_
 _atom_site_type_symbol
 _atom_site_label
 _atom_site_symmetry_multiplicity
 _atom_site_fract_x
 _atom_site_fract_y
 _atom_site_fract_z
 _atom_site_occupancy
  Tb  Tb0  1  0.250000  0.472323  0.189692  1
  Tb  Tb1  1  0.750000  0.518735  0.812564  1
  Tb  Tb2  1  0.250000  0.982056  0.309613  1
  Tb  Tb3  1  0.750000  0.031948  0.688416  1
  Ga  Ga4  1  0.250000  0.848532  0.930423  1
  Ga  Ga5  1  0.750000  0.160063  0.069359  1
  Ga  Ga6  1  0.250000  0.337890  0.569285  1
  Ga  Ga7  1  0.750000  0.652076  0.433274  1
  Ir  Ir8  1  0.250000  0.230990  0.889582  1
  Ir  Ir9  1  0.750000  0.268843  0.388796  1
  Pd  Pd10  1  0.250000  0.725794  0.609012  1
  Pt  Pt11  1  0.750000  0.770750  0.109984  1
