# generated using pymatgen
data_Ca5Er3(Ni4As3)4
_symmetry_space_group_name_H-M   'P 1'
_cell_length_a   12.93923500
_cell_length_b   12.93923420
_cell_length_c   3.98384900
_cell_angle_alpha   90.00000000
_cell_angle_beta   90.00000000
_cell_angle_gamma   120.00000461
_symmetry_Int_Tables_number   1
_chemical_formula_structural   Ca5Er3(Ni4As3)4
_chemical_formula_sum   'Ca5 Er3 Ni16 As12'
_cell_volume   577.63121536
_cell_formula_units_Z   1
loop_
 _symmetry_equiv_pos_site_id
 _symmetry_equiv_pos_as_xyz
  1  'x, y, z'
loop_
 _atom_site_type_symbol
 _atom_site_label
 _atom_site_symmetry_multiplicity
 _atom_site_fract_x
 _atom_site_fract_y
 _atom_site_fract_z
 _atom_site_occupancy
  Ca  Ca0  1  0.182261  0.182261  0.500000  1
  Ca  Ca1  1  0.817739  0.000000  0.500000  1
  Ca  Ca2  1  0.000000  0.817739  0.500000  1
  Ca  Ca3  1  0.333333  0.666667  0.000000  1
  Ca  Ca4  1  0.666667  0.333333  0.000000  1
  Er  Er5  1  0.564425  0.564425  0.000000  1
  Er  Er6  1  0.435575  0.000000  0.000000  1
  Er  Er7  1  0.000000  0.435575  0.000000  1
  Ni  Ni8  1  0.724711  0.724711  0.500000  1
  Ni  Ni9  1  0.275289  0.000000  0.500000  1
  Ni  Ni10  1  0.000000  0.275289  0.500000  1
  Ni  Ni11  1  0.186437  0.377885  0.000000  1
  Ni  Ni12  1  0.622115  0.808553  0.000000  1
  Ni  Ni13  1  0.191447  0.813563  0.000000  1
  Ni  Ni14  1  0.808553  0.622115  0.000000  1
  Ni  Ni15  1  0.813563  0.191447  0.000000  1
  Ni  Ni16  1  0.377885  0.186437  0.000000  1
  Ni  Ni17  1  0.361670  0.480187  0.500000  1
  Ni  Ni18  1  0.519813  0.881484  0.500000  1
  Ni  Ni19  1  0.118516  0.638330  0.500000  1
  Ni  Ni20  1  0.881484  0.519813  0.500000  1
  Ni  Ni21  1  0.638330  0.118516  0.500000  1
  Ni  Ni22  1  0.480187  0.361670  0.500000  1
  Ni  Ni23  1  0.000000  0.000000  0.000000  1
  As  As24  1  0.821168  0.821168  0.000000  1
  As  As25  1  0.178832  0.000000  0.000000  1
  As  As26  1  0.000000  0.178832  0.000000  1
  As  As27  1  0.174803  0.476402  0.500000  1
  As  As28  1  0.523598  0.698401  0.500000  1
  As  As29  1  0.301599  0.825197  0.500000  1
  As  As30  1  0.698401  0.523598  0.500000  1
  As  As31  1  0.825197  0.301599  0.500000  1
  As  As32  1  0.476402  0.174803  0.500000  1
  As  As33  1  0.352121  0.352121  0.000000  1
  As  As34  1  0.647879  0.000000  0.000000  1
  As  As35  1  0.000000  0.647879  0.000000  1
