# generated using pymatgen
data_TbTmGa(PRh2)6
_symmetry_space_group_name_H-M   'P 1'
_cell_length_a   3.87786601
_cell_length_b   9.66112079
_cell_length_c   9.66092501
_cell_angle_alpha   119.98562388
_cell_angle_beta   89.99595023
_cell_angle_gamma   89.99174833
_symmetry_Int_Tables_number   1
_chemical_formula_structural   TbTmGa(PRh2)6
_chemical_formula_sum   'Tb1 Tm1 Ga1 P6 Rh12'
_cell_volume   313.49638585
_cell_formula_units_Z   1
loop_
 _symmetry_equiv_pos_site_id
 _symmetry_equiv_pos_as_xyz
  1  'x, y, z'
loop_
 _atom_site_type_symbol
 _atom_site_label
 _atom_site_symmetry_multiplicity
 _atom_site_fract_x
 _atom_site_fract_y
 _atom_site_fract_z
 _atom_site_occupancy
  Tb  Tb0  1  0.750641  0.333200  0.666479  1
  Tm  Tm1  1  0.249507  0.666808  0.333512  1
  Ga  Ga2  1  0.499422  0.999983  0.999992  1
  P  P3  1  0.749500  0.882309  0.596588  1
  P  P4  1  0.749726  0.403669  0.285799  1
  P  P5  1  0.749745  0.714260  0.117902  1
  P  P6  1  0.250496  0.117085  0.402478  1
  P  P7  1  0.250282  0.597216  0.714477  1
  P  P8  1  0.250269  0.285434  0.882721  1
  Rh  Rh9  1  0.752010  0.122847  0.842890  1
  Rh  Rh10  1  0.752308  0.157278  0.279684  1
  Rh  Rh11  1  0.752001  0.720152  0.877400  1
  Rh  Rh12  1  0.248126  0.876884  0.157276  1
  Rh  Rh13  1  0.247836  0.842777  0.719917  1
  Rh  Rh14  1  0.248198  0.280286  0.123009  1
  Rh  Rh15  1  0.750130  0.615234  0.546850  1
  Rh  Rh16  1  0.750217  0.453288  0.068605  1
  Rh  Rh17  1  0.750221  0.931684  0.384805  1
  Rh  Rh18  1  0.249863  0.385463  0.451102  1
  Rh  Rh19  1  0.249738  0.548514  0.934092  1
  Rh  Rh20  1  0.249765  0.065631  0.614420  1
