# generated using pymatgen
data_La2CdHgRh
_symmetry_space_group_name_H-M   'P 1'
_cell_length_a   8.11034800
_cell_length_b   8.28773700
_cell_length_c   3.97743400
_cell_angle_alpha   90.00000000
_cell_angle_beta   90.00000000
_cell_angle_gamma   90.00000000
_symmetry_Int_Tables_number   1
_chemical_formula_structural   La2CdHgRh
_chemical_formula_sum   'La4 Cd2 Hg2 Rh2'
_cell_volume   267.34891882
_cell_formula_units_Z   2
loop_
 _symmetry_equiv_pos_site_id
 _symmetry_equiv_pos_as_xyz
  1  'x, y, z'
loop_
 _atom_site_type_symbol
 _atom_site_label
 _atom_site_symmetry_multiplicity
 _atom_site_fract_x
 _atom_site_fract_y
 _atom_site_fract_z
 _atom_site_occupancy
  La  La0  1  0.823369  0.697946  0.500000  1
  La  La1  1  0.323369  0.802054  0.500000  1
  La  La2  1  0.680909  0.129500  0.500000  1
  La  La3  1  0.180909  0.370500  0.500000  1
  Cd  Cd4  1  0.000330  0.990524  0.000000  1
  Cd  Cd5  1  0.500330  0.509476  0.000000  1
  Hg  Hg6  1  0.862940  0.380797  0.000000  1
  Hg  Hg7  1  0.362940  0.119203  0.000000  1
  Rh  Rh8  1  0.632453  0.873655  0.000000  1
  Rh  Rh9  1  0.132453  0.626345  0.000000  1
