# generated using pymatgen
data_Y2LuB6Ir7Os
_symmetry_space_group_name_H-M   'P 1'
_cell_length_a   9.98375224
_cell_length_b   9.16473974
_cell_length_c   5.56760628
_cell_angle_alpha   81.36870263
_cell_angle_beta   65.17155683
_cell_angle_gamma   33.45974270
_symmetry_Int_Tables_number   1
_chemical_formula_structural   Y2LuB6Ir7Os
_chemical_formula_sum   'Y2 Lu1 B6 Ir7 Os1'
_cell_volume   233.61234669
_cell_formula_units_Z   1
loop_
 _symmetry_equiv_pos_site_id
 _symmetry_equiv_pos_as_xyz
  1  'x, y, z'
loop_
 _atom_site_type_symbol
 _atom_site_label
 _atom_site_symmetry_multiplicity
 _atom_site_fract_x
 _atom_site_fract_y
 _atom_site_fract_z
 _atom_site_occupancy
  Y  Y0  1  0.178581  0.178581  0.821419  1
  Y  Y1  1  0.821419  0.821419  0.178581  1
  Lu  Lu2  1  0.000000  0.000000  0.000000  1
  B  B3  1  0.821248  0.528937  0.482914  1
  B  B4  1  0.166902  0.482914  0.528937  1
  B  B5  1  0.482914  0.166902  0.821248  1
  B  B6  1  0.670511  0.329489  0.670511  1
  B  B7  1  0.528937  0.821248  0.166902  1
  B  B8  1  0.329489  0.670511  0.329489  1
  Ir  Ir9  1  0.414668  0.414668  0.585332  1
  Ir  Ir10  1  0.585274  0.585274  0.914726  1
  Ir  Ir11  1  0.085531  0.085531  0.414469  1
  Ir  Ir12  1  0.914726  0.914726  0.585274  1
  Ir  Ir13  1  0.585332  0.585332  0.414668  1
  Ir  Ir14  1  0.250000  0.250000  0.250000  1
  Ir  Ir15  1  0.414469  0.414469  0.085531  1
  Os  Os16  1  0.750000  0.750000  0.750000  1
