# generated using pymatgen
data_Ce2Si(PRu2)6
_symmetry_space_group_name_H-M   'P 1'
_cell_length_a   9.48937000
_cell_length_b   9.48936858
_cell_length_c   3.95132400
_cell_angle_alpha   90.00000000
_cell_angle_beta   90.00000000
_cell_angle_gamma   119.99999705
_symmetry_Int_Tables_number   1
_chemical_formula_structural   Ce2Si(PRu2)6
_chemical_formula_sum   'Ce2 Si1 P6 Ru12'
_cell_volume   308.13993245
_cell_formula_units_Z   1
loop_
 _symmetry_equiv_pos_site_id
 _symmetry_equiv_pos_as_xyz
  1  'x, y, z'
loop_
 _atom_site_type_symbol
 _atom_site_label
 _atom_site_symmetry_multiplicity
 _atom_site_fract_x
 _atom_site_fract_y
 _atom_site_fract_z
 _atom_site_occupancy
  Ce  Ce0  1  0.666667  0.333333  0.500000  1
  Ce  Ce1  1  0.333333  0.666667  0.000000  1
  Si  Si2  1  0.000000  0.000000  0.000000  1
  P  P3  1  0.606089  0.717759  0.500000  1
  P  P4  1  0.282241  0.888331  0.500000  1
  P  P5  1  0.111669  0.393911  0.500000  1
  P  P6  1  0.891106  0.578666  0.000000  1
  P  P7  1  0.421334  0.312438  0.000000  1
  P  P8  1  0.687562  0.108894  0.000000  1
  Ru  Ru9  1  0.555197  0.948876  0.500000  1
  Ru  Ru10  1  0.393681  0.444803  0.500000  1
  Ru  Ru11  1  0.910133  0.118904  0.500000  1
  Ru  Ru12  1  0.208771  0.089867  0.500000  1
  Ru  Ru13  1  0.881096  0.791229  0.500000  1
  Ru  Ru14  1  0.720732  0.885244  0.000000  1
  Ru  Ru15  1  0.114756  0.835487  0.000000  1
  Ru  Ru16  1  0.164513  0.279268  0.000000  1
  Ru  Ru17  1  0.425908  0.070477  0.000000  1
  Ru  Ru18  1  0.929523  0.355432  0.000000  1
  Ru  Ru19  1  0.644568  0.574092  0.000000  1
  Ru  Ru20  1  0.051124  0.606319  0.500000  1
