# generated using pymatgen
data_CeNd3Ni4(SnH)4
_symmetry_space_group_name_H-M   'P 1'
_cell_length_a   7.25524888
_cell_length_b   8.50880923
_cell_length_c   4.37271525
_cell_angle_alpha   90.03754858
_cell_angle_beta   89.99350859
_cell_angle_gamma   89.88000542
_symmetry_Int_Tables_number   1
_chemical_formula_structural   CeNd3Ni4(SnH)4
_chemical_formula_sum   'Ce1 Nd3 Ni4 Sn4 H4'
_cell_volume   269.94249058
_cell_formula_units_Z   1
loop_
 _symmetry_equiv_pos_site_id
 _symmetry_equiv_pos_as_xyz
  1  'x, y, z'
loop_
 _atom_site_type_symbol
 _atom_site_label
 _atom_site_symmetry_multiplicity
 _atom_site_fract_x
 _atom_site_fract_y
 _atom_site_fract_z
 _atom_site_occupancy
  Ce  Ce0  1  0.488778  0.811528  0.742742  1
  Nd  Nd1  1  0.512629  0.187576  0.242581  1
  Nd  Nd2  1  0.012390  0.312236  0.242584  1
  Nd  Nd3  1  0.987002  0.688435  0.742635  1
  Ni  Ni4  1  0.282787  0.604799  0.242967  1
  Ni  Ni5  1  0.779581  0.899186  0.242546  1
  Ni  Ni6  1  0.219028  0.099301  0.742918  1
  Ni  Ni7  1  0.718061  0.401232  0.742540  1
  Sn  Sn8  1  0.658030  0.569428  0.242662  1
  Sn  Sn9  1  0.160002  0.929668  0.242801  1
  Sn  Sn10  1  0.841718  0.069741  0.742709  1
  Sn  Sn11  1  0.341335  0.429705  0.742812  1
  H  H12  1  0.062624  0.580376  0.242699  1
  H  H13  1  0.558373  0.917395  0.242901  1
  H  H14  1  0.439513  0.079675  0.742691  1
  H  H15  1  0.938147  0.419717  0.742819  1
