# generated using pymatgen
data_Gd2Sn5Rh3
_symmetry_space_group_name_H-M   'P 1'
_cell_length_a   4.41595536
_cell_length_b   7.36774600
_cell_length_c   13.54045426
_cell_angle_alpha   90.00000000
_cell_angle_beta   80.61514638
_cell_angle_gamma   90.00000000
_symmetry_Int_Tables_number   1
_chemical_formula_structural   Gd2Sn5Rh3
_chemical_formula_sum   'Gd4 Sn10 Rh6'
_cell_volume   434.65071839
_cell_formula_units_Z   2
loop_
 _symmetry_equiv_pos_site_id
 _symmetry_equiv_pos_as_xyz
  1  'x, y, z'
loop_
 _atom_site_type_symbol
 _atom_site_label
 _atom_site_symmetry_multiplicity
 _atom_site_fract_x
 _atom_site_fract_y
 _atom_site_fract_z
 _atom_site_occupancy
  Gd  Gd0  1  0.475209  0.736269  0.049581  1
  Gd  Gd1  1  0.826177  0.255580  0.347647  1
  Gd  Gd2  1  0.173823  0.755580  0.652353  1
  Gd  Gd3  1  0.524790  0.236268  0.950419  1
  Sn  Sn4  1  0.951734  0.395667  0.096532  1
  Sn  Sn5  1  0.403906  0.116612  0.192186  1
  Sn  Sn6  1  0.880202  0.729854  0.239597  1
  Sn  Sn7  1  0.294897  0.552051  0.410206  1
  Sn  Sn8  1  0.290431  0.976590  0.419136  1
  Sn  Sn9  1  0.709568  0.476591  0.580864  1
  Sn  Sn10  1  0.705103  0.052051  0.589794  1
  Sn  Sn11  1  0.119798  0.229854  0.760403  1
  Sn  Sn12  1  0.596093  0.616612  0.807814  1
  Sn  Sn13  1  0.048266  0.895667  0.903468  1
  Rh  Rh14  1  0.949674  0.017805  0.100650  1
  Rh  Rh15  1  0.393563  0.482064  0.212874  1
  Rh  Rh16  1  0.776487  0.765507  0.447027  1
  Rh  Rh17  1  0.223513  0.265507  0.552973  1
  Rh  Rh18  1  0.606437  0.982063  0.787126  1
  Rh  Rh19  1  0.050326  0.517805  0.899350  1
