# generated using pymatgen
data_YScAlB6
_symmetry_space_group_name_H-M   'P 1'
_cell_length_a   3.51435400
_cell_length_b   9.06708900
_cell_length_c   11.42583300
_cell_angle_alpha   90.00000000
_cell_angle_beta   90.00000000
_cell_angle_gamma   90.00000000
_symmetry_Int_Tables_number   1
_chemical_formula_structural   YScAlB6
_chemical_formula_sum   'Y4 Sc4 Al4 B24'
_cell_volume   364.08371717
_cell_formula_units_Z   4
loop_
 _symmetry_equiv_pos_site_id
 _symmetry_equiv_pos_as_xyz
  1  'x, y, z'
loop_
 _atom_site_type_symbol
 _atom_site_label
 _atom_site_symmetry_multiplicity
 _atom_site_fract_x
 _atom_site_fract_y
 _atom_site_fract_z
 _atom_site_occupancy
  Y  Y0  1  0.000000  0.820708  0.085585  1
  Y  Y1  1  0.000000  0.179292  0.914415  1
  Y  Y2  1  0.000000  0.320708  0.414415  1
  Y  Y3  1  0.000000  0.679292  0.585585  1
  Sc  Sc4  1  0.000000  0.444443  0.128036  1
  Sc  Sc5  1  0.000000  0.555557  0.871964  1
  Sc  Sc6  1  0.000000  0.944443  0.371964  1
  Sc  Sc7  1  0.000000  0.055557  0.628036  1
  Al  Al8  1  0.000000  0.142026  0.181946  1
  Al  Al9  1  0.000000  0.857974  0.818054  1
  Al  Al10  1  0.000000  0.642026  0.318054  1
  Al  Al11  1  0.000000  0.357974  0.681946  1
  B  B12  1  0.500000  0.051801  0.065053  1
  B  B13  1  0.500000  0.948199  0.934947  1
  B  B14  1  0.500000  0.551801  0.434947  1
  B  B15  1  0.500000  0.448199  0.565053  1
  B  B16  1  0.500000  0.255494  0.081058  1
  B  B17  1  0.500000  0.744506  0.918942  1
  B  B18  1  0.500000  0.755494  0.418942  1
  B  B19  1  0.500000  0.244506  0.581058  1
  B  B20  1  0.500000  0.298141  0.236513  1
  B  B21  1  0.500000  0.701859  0.763487  1
  B  B22  1  0.500000  0.798141  0.263487  1
  B  B23  1  0.500000  0.201859  0.736513  1
  B  B24  1  0.500000  0.129050  0.318767  1
  B  B25  1  0.500000  0.870950  0.681233  1
  B  B26  1  0.500000  0.629050  0.181233  1
  B  B27  1  0.500000  0.370950  0.818767  1
  B  B28  1  0.500000  0.479605  0.285759  1
  B  B29  1  0.500000  0.520395  0.714241  1
  B  B30  1  0.500000  0.979605  0.214241  1
  B  B31  1  0.500000  0.020395  0.785759  1
  B  B32  1  0.500000  0.097246  0.473594  1
  B  B33  1  0.500000  0.902754  0.526406  1
  B  B34  1  0.500000  0.597246  0.026406  1
  B  B35  1  0.500000  0.402754  0.973594  1
