# generated using pymatgen
data_Sm6CoBr10
_symmetry_space_group_name_H-M   'P 1'
_cell_length_a   7.51513826
_cell_length_b   9.37449015
_cell_length_c   9.26249734
_cell_angle_alpha   108.47129125
_cell_angle_beta   96.70838250
_cell_angle_gamma   106.28365087
_symmetry_Int_Tables_number   1
_chemical_formula_structural   Sm6CoBr10
_chemical_formula_sum   'Sm6 Co1 Br10'
_cell_volume   578.74748018
_cell_formula_units_Z   1
loop_
 _symmetry_equiv_pos_site_id
 _symmetry_equiv_pos_as_xyz
  1  'x, y, z'
loop_
 _atom_site_type_symbol
 _atom_site_label
 _atom_site_symmetry_multiplicity
 _atom_site_fract_x
 _atom_site_fract_y
 _atom_site_fract_z
 _atom_site_occupancy
  Sm  Sm0  1  0.119883  0.042590  0.760618  1
  Sm  Sm1  1  0.880117  0.957410  0.239382  1
  Sm  Sm2  1  0.974612  0.300258  0.096144  1
  Sm  Sm3  1  0.025388  0.699742  0.903856  1
  Sm  Sm4  1  0.362390  0.137978  0.180370  1
  Sm  Sm5  1  0.637610  0.862022  0.819630  1
  Co  Co6  1  0.000000  0.000000  0.000000  1
  Br  Br7  1  0.548472  0.177668  0.913933  1
  Br  Br8  1  0.451528  0.822332  0.086067  1
  Br  Br9  1  0.360179  0.459430  0.273686  1
  Br  Br10  1  0.639821  0.540570  0.726314  1
  Br  Br11  1  0.255091  0.085283  0.458699  1
  Br  Br12  1  0.744909  0.914717  0.541301  1
  Br  Br13  1  0.793283  0.261006  0.352913  1
  Br  Br14  1  0.206717  0.738994  0.647087  1
  Br  Br15  1  0.086595  0.366995  0.824287  1
  Br  Br16  1  0.913405  0.633005  0.175713  1
