# generated using pymatgen
data_Sm4Dy2Al15Si9Os8
_symmetry_space_group_name_H-M   'P 1'
_cell_length_a   8.73437639
_cell_length_b   8.73299635
_cell_length_c   9.42673400
_cell_angle_alpha   90.00000000
_cell_angle_beta   90.00000000
_cell_angle_gamma   120.08930572
_symmetry_Int_Tables_number   1
_chemical_formula_structural   Sm4Dy2Al15Si9Os8
_chemical_formula_sum   'Sm4 Dy2 Al15 Si9 Os8'
_cell_volume   622.15062052
_cell_formula_units_Z   1
loop_
 _symmetry_equiv_pos_site_id
 _symmetry_equiv_pos_as_xyz
  1  'x, y, z'
loop_
 _atom_site_type_symbol
 _atom_site_label
 _atom_site_symmetry_multiplicity
 _atom_site_fract_x
 _atom_site_fract_y
 _atom_site_fract_z
 _atom_site_occupancy
  Sm  Sm0  1  0.616182  0.809213  0.250000  1
  Sm  Sm1  1  0.383047  0.190285  0.750000  1
  Sm  Sm2  1  0.192660  0.807610  0.250000  1
  Sm  Sm3  1  0.808085  0.191969  0.750000  1
  Dy  Dy4  1  0.193109  0.387946  0.250000  1
  Dy  Dy5  1  0.808239  0.613298  0.750000  1
  Al  Al6  1  0.166006  0.329747  0.575694  1
  Al  Al7  1  0.835677  0.670498  0.422238  1
  Al  Al8  1  0.670731  0.833614  0.577084  1
  Al  Al9  1  0.835677  0.670498  0.077762  1
  Al  Al10  1  0.328775  0.164405  0.421019  1
  Al  Al11  1  0.166006  0.329747  0.924306  1
  Al  Al12  1  0.163828  0.835177  0.577063  1
  Al  Al13  1  0.328775  0.164405  0.078981  1
  Al  Al14  1  0.835912  0.165266  0.421956  1
  Al  Al15  1  0.670731  0.833614  0.922916  1
  Al  Al16  1  0.835912  0.165266  0.078044  1
  Al  Al17  1  0.163828  0.835177  0.922937  1
  Al  Al18  1  0.435816  0.564758  0.750000  1
  Al  Al19  1  0.002359  0.002854  0.250000  1
  Al  Al20  1  0.998206  0.996896  0.750000  1
  Si  Si21  1  0.334120  0.665014  0.038793  1
  Si  Si22  1  0.666331  0.334616  0.960474  1
  Si  Si23  1  0.666331  0.334616  0.539526  1
  Si  Si24  1  0.334120  0.665014  0.461207  1
  Si  Si25  1  0.563084  0.127198  0.250000  1
  Si  Si26  1  0.434118  0.873080  0.750000  1
  Si  Si27  1  0.875404  0.437195  0.250000  1
  Si  Si28  1  0.125189  0.565915  0.750000  1
  Si  Si29  1  0.561628  0.436237  0.250000  1
  Os  Os30  1  0.500267  0.001005  0.000528  1
  Os  Os31  1  0.999191  0.499828  0.000587  1
  Os  Os32  1  0.500267  0.001005  0.499472  1
  Os  Os33  1  0.500813  0.498773  0.006791  1
  Os  Os34  1  0.999191  0.499828  0.499413  1
  Os  Os35  1  0.500813  0.498773  0.493209  1
  Os  Os36  1  0.999786  0.999830  0.999990  1
  Os  Os37  1  0.999786  0.999830  0.500010  1
