# generated using pymatgen
data_ZrTa2(NbN3)2
_symmetry_space_group_name_H-M   'P 1'
_cell_length_a   5.30067297
_cell_length_b   5.29513936
_cell_length_c   10.52061003
_cell_angle_alpha   90.00880552
_cell_angle_beta   89.99559703
_cell_angle_gamma   119.96547973
_symmetry_Int_Tables_number   1
_chemical_formula_structural   ZrTa2(NbN3)2
_chemical_formula_sum   'Zr2 Ta4 Nb4 N12'
_cell_volume   255.81789347
_cell_formula_units_Z   2
loop_
 _symmetry_equiv_pos_site_id
 _symmetry_equiv_pos_as_xyz
  1  'x, y, z'
loop_
 _atom_site_type_symbol
 _atom_site_label
 _atom_site_symmetry_multiplicity
 _atom_site_fract_x
 _atom_site_fract_y
 _atom_site_fract_z
 _atom_site_occupancy
  Zr  Zr0  1  0.330269  0.665135  0.500000  1
  Zr  Zr1  1  0.666559  0.333279  0.000000  1
  Ta  Ta2  1  0.666572  0.333286  0.500000  1
  Ta  Ta3  1  0.330839  0.665420  0.000000  1
  Ta  Ta4  1  0.676921  0.999907  0.749924  1
  Ta  Ta5  1  0.676921  0.677014  0.250076  1
  Nb  Nb6  1  0.999889  0.324183  0.249924  1
  Nb  Nb7  1  0.999889  0.675706  0.750076  1
  Nb  Nb8  1  0.324433  0.324580  0.750004  1
  Nb  Nb9  1  0.324433  0.999853  0.249996  1
  N  N10  1  0.352152  0.341740  0.376252  1
  N  N11  1  0.662661  0.005991  0.376775  1
  N  N12  1  0.986530  0.653765  0.376904  1
  N  N13  1  0.006216  0.342289  0.876873  1
  N  N14  1  0.652227  0.986061  0.123130  1
  N  N15  1  0.652227  0.666167  0.876870  1
  N  N16  1  0.341851  0.990082  0.876175  1
  N  N17  1  0.662661  0.656670  0.623225  1
  N  N18  1  0.986530  0.332764  0.623096  1
  N  N19  1  0.006216  0.663928  0.123127  1
  N  N20  1  0.352152  0.010411  0.623748  1
  N  N21  1  0.341851  0.351770  0.123825  1
