# generated using pymatgen
data_YHo3Al18(IrPd2)2
_symmetry_space_group_name_H-M   'P 1'
_cell_length_a   7.60756400
_cell_length_b   7.60751202
_cell_length_c   9.44756900
_cell_angle_alpha   90.00000000
_cell_angle_beta   90.00000000
_cell_angle_gamma   119.63676320
_symmetry_Int_Tables_number   1
_chemical_formula_structural   YHo3Al18(IrPd2)2
_chemical_formula_sum   'Y1 Ho3 Al18 Ir2 Pd4'
_cell_volume   475.24435721
_cell_formula_units_Z   1
loop_
 _symmetry_equiv_pos_site_id
 _symmetry_equiv_pos_as_xyz
  1  'x, y, z'
loop_
 _atom_site_type_symbol
 _atom_site_label
 _atom_site_symmetry_multiplicity
 _atom_site_fract_x
 _atom_site_fract_y
 _atom_site_fract_z
 _atom_site_occupancy
  Y  Y0  1  0.994355  0.668807  0.250000  1
  Ho  Ho1  1  0.005721  0.331105  0.750000  1
  Ho  Ho2  1  0.668892  0.994318  0.250000  1
  Ho  Ho3  1  0.331173  0.005776  0.750000  1
  Al  Al4  1  0.127792  0.127979  0.250000  1
  Al  Al5  1  0.872274  0.872275  0.750000  1
  Al  Al6  1  0.999707  0.331191  0.076179  1
  Al  Al7  1  0.000287  0.668526  0.923373  1
  Al  Al8  1  0.000287  0.668526  0.576627  1
  Al  Al9  1  0.331738  0.999996  0.423829  1
  Al  Al10  1  0.999707  0.331191  0.423821  1
  Al  Al11  1  0.668522  0.000284  0.576406  1
  Al  Al12  1  0.668522  0.000284  0.923594  1
  Al  Al13  1  0.331738  0.999996  0.076171  1
  Al  Al14  1  0.330664  0.330648  0.557018  1
  Al  Al15  1  0.669116  0.669362  0.443265  1
  Al  Al16  1  0.669116  0.669362  0.056735  1
  Al  Al17  1  0.330664  0.330648  0.942982  1
  Al  Al18  1  0.340663  0.547727  0.250000  1
  Al  Al19  1  0.659462  0.452069  0.750000  1
  Al  Al20  1  0.547436  0.340179  0.250000  1
  Al  Al21  1  0.452076  0.659465  0.750000  1
  Ir  Ir22  1  0.000022  0.000223  0.999848  1
  Ir  Ir23  1  0.000022  0.000223  0.500152  1
  Pd  Pd24  1  0.672355  0.327509  0.000012  1
  Pd  Pd25  1  0.327667  0.672411  0.999999  1
  Pd  Pd26  1  0.327667  0.672411  0.500001  1
  Pd  Pd27  1  0.672355  0.327509  0.499988  1
