# generated using pymatgen
data_HfTh2NpN6
_symmetry_space_group_name_H-M   'P 1'
_cell_length_a   5.81066259
_cell_length_b   5.92142700
_cell_length_c   8.34581218
_cell_angle_alpha   90.00000000
_cell_angle_beta   90.19645029
_cell_angle_gamma   90.00000000
_symmetry_Int_Tables_number   1
_chemical_formula_structural   HfTh2NpN6
_chemical_formula_sum   'Hf2 Th4 Np2 N12'
_cell_volume   287.15613021
_cell_formula_units_Z   2
loop_
 _symmetry_equiv_pos_site_id
 _symmetry_equiv_pos_as_xyz
  1  'x, y, z'
loop_
 _atom_site_type_symbol
 _atom_site_label
 _atom_site_symmetry_multiplicity
 _atom_site_fract_x
 _atom_site_fract_y
 _atom_site_fract_z
 _atom_site_occupancy
  Hf  Hf0  1  0.000000  0.500000  0.000000  1
  Hf  Hf1  1  0.500000  0.000000  0.500000  1
  Th  Th2  1  0.508818  0.546017  0.248158  1
  Th  Th3  1  0.991182  0.046017  0.251842  1
  Th  Th4  1  0.491182  0.453983  0.751842  1
  Th  Th5  1  0.008818  0.953983  0.748158  1
  Np  Np6  1  0.000000  0.500000  0.500000  1
  Np  Np7  1  0.500000  0.000000  0.000000  1
  N  N8  1  0.388905  0.959585  0.249785  1
  N  N9  1  0.111095  0.459585  0.250215  1
  N  N10  1  0.611095  0.040415  0.750215  1
  N  N11  1  0.888905  0.540415  0.749785  1
  N  N12  1  0.795537  0.806225  0.056588  1
  N  N13  1  0.704463  0.306225  0.443412  1
  N  N14  1  0.198518  0.199417  0.558726  1
  N  N15  1  0.301482  0.699417  0.941274  1
  N  N16  1  0.204463  0.193775  0.943412  1
  N  N17  1  0.295537  0.693775  0.556588  1
  N  N18  1  0.801482  0.800583  0.441274  1
  N  N19  1  0.698518  0.300583  0.058726  1
