# generated using pymatgen
data_Y2SnB2Rh5
_symmetry_space_group_name_H-M   'P 1'
_cell_length_a   9.58401500
_cell_length_b   9.58401500
_cell_length_c   3.30228600
_cell_angle_alpha   90.00000000
_cell_angle_beta   90.00000000
_cell_angle_gamma   90.00000000
_symmetry_Int_Tables_number   1
_chemical_formula_structural   Y2SnB2Rh5
_chemical_formula_sum   'Y4 Sn2 B4 Rh10'
_cell_volume   303.32601036
_cell_formula_units_Z   2
loop_
 _symmetry_equiv_pos_site_id
 _symmetry_equiv_pos_as_xyz
  1  'x, y, z'
loop_
 _atom_site_type_symbol
 _atom_site_label
 _atom_site_symmetry_multiplicity
 _atom_site_fract_x
 _atom_site_fract_y
 _atom_site_fract_z
 _atom_site_occupancy
  Y  Y0  1  0.675552  0.175552  0.000000  1
  Y  Y1  1  0.324448  0.824448  0.000000  1
  Y  Y2  1  0.175552  0.324448  0.000000  1
  Y  Y3  1  0.824448  0.675552  0.000000  1
  Sn  Sn4  1  0.000000  0.000000  0.000000  1
  Sn  Sn5  1  0.500000  0.500000  0.000000  1
  B  B6  1  0.120143  0.620143  0.000000  1
  B  B7  1  0.879857  0.379857  0.000000  1
  B  B8  1  0.620143  0.879857  0.000000  1
  B  B9  1  0.379857  0.120143  0.000000  1
  Rh  Rh10  1  0.500000  0.000000  0.500000  1
  Rh  Rh11  1  0.000000  0.500000  0.500000  1
  Rh  Rh12  1  0.225190  0.070626  0.500000  1
  Rh  Rh13  1  0.774810  0.929374  0.500000  1
  Rh  Rh14  1  0.070626  0.774810  0.500000  1
  Rh  Rh15  1  0.725190  0.429374  0.500000  1
  Rh  Rh16  1  0.929374  0.225190  0.500000  1
  Rh  Rh17  1  0.274810  0.570626  0.500000  1
  Rh  Rh18  1  0.570626  0.725190  0.500000  1
  Rh  Rh19  1  0.429374  0.274810  0.500000  1
