# generated using pymatgen
data_Hf8Ta12Si15Pt
_symmetry_space_group_name_H-M   'P 1'
_cell_length_a   6.67523053
_cell_length_b   6.83433343
_cell_length_c   13.14855556
_cell_angle_alpha   89.84256634
_cell_angle_beta   89.94877952
_cell_angle_gamma   90.05845601
_symmetry_Int_Tables_number   1
_chemical_formula_structural   Hf8Ta12Si15Pt
_chemical_formula_sum   'Hf8 Ta12 Si15 Pt1'
_cell_volume   599.84416409
_cell_formula_units_Z   1
loop_
 _symmetry_equiv_pos_site_id
 _symmetry_equiv_pos_as_xyz
  1  'x, y, z'
loop_
 _atom_site_type_symbol
 _atom_site_label
 _atom_site_symmetry_multiplicity
 _atom_site_fract_x
 _atom_site_fract_y
 _atom_site_fract_z
 _atom_site_occupancy
  Hf  Hf0  1  0.491641  0.666137  0.595921  1
  Hf  Hf1  1  0.996562  0.827362  0.906550  1
  Hf  Hf2  1  0.506224  0.327903  0.091645  1
  Hf  Hf3  1  0.007488  0.171642  0.405986  1
  Hf  Hf4  1  0.505057  0.331383  0.405501  1
  Hf  Hf5  1  0.004547  0.171990  0.091477  1
  Hf  Hf6  1  0.492580  0.674194  0.907567  1
  Hf  Hf7  1  0.002004  0.823400  0.595420  1
  Ta  Ta8  1  0.662453  0.178317  0.627283  1
  Ta  Ta9  1  0.159461  0.328969  0.877151  1
  Ta  Ta10  1  0.337126  0.827841  0.122770  1
  Ta  Ta11  1  0.844373  0.669980  0.373267  1
  Ta  Ta12  1  0.327359  0.829572  0.374144  1
  Ta  Ta13  1  0.837762  0.670265  0.123490  1
  Ta  Ta14  1  0.664396  0.173316  0.877687  1
  Ta  Ta15  1  0.163726  0.327676  0.624594  1
  Ta  Ta16  1  0.835803  0.497337  0.751419  1
  Ta  Ta17  1  0.337038  0.003411  0.752672  1
  Ta  Ta18  1  0.162879  0.502981  0.247872  1
  Ta  Ta19  1  0.661446  0.994302  0.244440  1
  Si  Si20  1  0.171328  0.536022  0.037868  1
  Si  Si21  1  0.327936  0.037782  0.961575  1
  Si  Si22  1  0.828579  0.465420  0.537486  1
  Si  Si23  1  0.331563  0.033334  0.539636  1
  Si  Si24  1  0.826715  0.466421  0.961991  1
  Si  Si25  1  0.672069  0.961887  0.037733  1
  Si  Si26  1  0.173332  0.535769  0.462771  1
  Si  Si27  1  0.458275  0.388539  0.752495  1
  Si  Si28  1  0.961169  0.110854  0.750483  1
  Si  Si29  1  0.539790  0.612873  0.250591  1
  Si  Si30  1  0.038494  0.890975  0.247545  1
  Si  Si31  1  0.701320  0.860341  0.750428  1
  Si  Si32  1  0.202044  0.639426  0.751047  1
  Si  Si33  1  0.299211  0.140889  0.250083  1
  Si  Si34  1  0.796884  0.356170  0.248747  1
  Pt  Pt35  1  0.671367  0.965320  0.462664  1
