# generated using pymatgen
data_Nd7Gd10Er3Sn16
_symmetry_space_group_name_H-M   'P 1'
_cell_length_a   8.06483011
_cell_length_b   8.21650479
_cell_length_c   15.58396900
_cell_angle_alpha   90.00271957
_cell_angle_beta   90.00928545
_cell_angle_gamma   90.03769698
_symmetry_Int_Tables_number   1
_chemical_formula_structural   Nd7Gd10Er3Sn16
_chemical_formula_sum   'Nd7 Gd10 Er3 Sn16'
_cell_volume   1032.66702887
_cell_formula_units_Z   1
loop_
 _symmetry_equiv_pos_site_id
 _symmetry_equiv_pos_as_xyz
  1  'x, y, z'
loop_
 _atom_site_type_symbol
 _atom_site_label
 _atom_site_symmetry_multiplicity
 _atom_site_fract_x
 _atom_site_fract_y
 _atom_site_fract_z
 _atom_site_occupancy
  Nd  Nd0  1  0.016709  0.180467  0.597439  1
  Nd  Nd1  1  0.483540  0.680798  0.403530  1
  Nd  Nd2  1  0.983772  0.819256  0.096321  1
  Nd  Nd3  1  0.482977  0.680123  0.096362  1
  Nd  Nd4  1  0.984109  0.819469  0.403447  1
  Nd  Nd5  1  0.515696  0.319429  0.596149  1
  Nd  Nd6  1  0.016928  0.180550  0.902909  1
  Gd  Gd7  1  0.363510  0.836916  0.877487  1
  Gd  Gd8  1  0.863502  0.662418  0.621909  1
  Gd  Gd9  1  0.635549  0.163136  0.378267  1
  Gd  Gd10  1  0.135171  0.336372  0.121588  1
  Gd  Gd11  1  0.635255  0.163376  0.122031  1
  Gd  Gd12  1  0.135887  0.337315  0.378237  1
  Gd  Gd13  1  0.363885  0.837126  0.622532  1
  Gd  Gd14  1  0.864589  0.662973  0.878271  1
  Gd  Gd15  1  0.518087  0.318919  0.903136  1
  Gd  Gd16  1  0.304126  0.003509  0.250287  1
  Er  Er17  1  0.195967  0.503275  0.750243  1
  Er  Er18  1  0.695645  0.996204  0.750222  1
  Er  Er19  1  0.804307  0.495693  0.249951  1
  Sn  Sn20  1  0.298839  0.038753  0.041477  1
  Sn  Sn21  1  0.799109  0.462518  0.456559  1
  Sn  Sn22  1  0.701834  0.961972  0.542929  1
  Sn  Sn23  1  0.204842  0.535414  0.956392  1
  Sn  Sn24  1  0.700480  0.963839  0.956844  1
  Sn  Sn25  1  0.201554  0.538263  0.542530  1
  Sn  Sn26  1  0.298023  0.040017  0.458631  1
  Sn  Sn27  1  0.796777  0.461558  0.042260  1
  Sn  Sn28  1  0.561372  0.617373  0.749890  1
  Sn  Sn29  1  0.060970  0.880825  0.749758  1
  Sn  Sn30  1  0.438638  0.383150  0.250333  1
  Sn  Sn31  1  0.936358  0.120213  0.250568  1
  Sn  Sn32  1  0.325251  0.146986  0.751107  1
  Sn  Sn33  1  0.821997  0.355264  0.750451  1
  Sn  Sn34  1  0.679000  0.854533  0.249864  1
  Sn  Sn35  1  0.175748  0.641998  0.250091  1
