# generated using pymatgen
data_Pm2Re2BrO12
_symmetry_space_group_name_H-M   'P 1'
_cell_length_a   7.36066584
_cell_length_b   7.06152730
_cell_length_c   11.04012900
_cell_angle_alpha   75.33734729
_cell_angle_beta   85.07629168
_cell_angle_gamma   110.66702501
_symmetry_Int_Tables_number   1
_chemical_formula_structural   Pm2Re2BrO12
_chemical_formula_sum   'Pm4 Re4 Br2 O24'
_cell_volume   509.60636609
_cell_formula_units_Z   2
loop_
 _symmetry_equiv_pos_site_id
 _symmetry_equiv_pos_as_xyz
  1  'x, y, z'
loop_
 _atom_site_type_symbol
 _atom_site_label
 _atom_site_symmetry_multiplicity
 _atom_site_fract_x
 _atom_site_fract_y
 _atom_site_fract_z
 _atom_site_occupancy
  Pm  Pm0  1  0.218230  0.448873  0.576283  1
  Pm  Pm1  1  0.781770  0.551127  0.423717  1
  Pm  Pm2  1  0.533021  0.804772  0.903908  1
  Pm  Pm3  1  0.466979  0.195228  0.096092  1
  Re  Re4  1  0.712387  0.011757  0.531963  1
  Re  Re5  1  0.287613  0.988243  0.468037  1
  Re  Re6  1  0.632754  0.336441  0.772401  1
  Re  Re7  1  0.367246  0.663559  0.227599  1
  Br  Br8  1  0.071680  0.318457  0.925379  1
  Br  Br9  1  0.928320  0.681543  0.074621  1
  O  O10  1  0.565182  0.470948  0.622124  1
  O  O11  1  0.434818  0.529052  0.377876  1
  O  O12  1  0.541071  0.459634  0.877209  1
  O  O13  1  0.458929  0.540366  0.122791  1
  O  O14  1  0.488882  0.084697  0.748737  1
  O  O15  1  0.511118  0.915303  0.251263  1
  O  O16  1  0.891207  0.453953  0.714496  1
  O  O17  1  0.108793  0.546047  0.285504  1
  O  O18  1  0.664336  0.154465  0.926852  1
  O  O19  1  0.335664  0.845535  0.073148  1
  O  O20  1  0.902661  0.277353  0.519506  1
  O  O21  1  0.097339  0.722647  0.480494  1
  O  O22  1  0.422824  0.816934  0.558338  1
  O  O23  1  0.577176  0.183066  0.441662  1
  O  O24  1  0.196650  0.582890  0.899882  1
  O  O25  1  0.803350  0.417110  0.100118  1
  O  O26  1  0.167713  0.269856  0.796946  1
  O  O27  1  0.832287  0.730144  0.203054  1
  O  O28  1  0.712277  0.878789  0.693102  1
  O  O29  1  0.287723  0.121211  0.306898  1
  O  O30  1  0.850547  0.812211  0.954279  1
  O  O31  1  0.149453  0.187789  0.045721  1
  O  O32  1  0.185315  0.092526  0.570793  1
  O  O33  1  0.814685  0.907474  0.429207  1
