# generated using pymatgen
data_Na3Al(SO4)3
_symmetry_space_group_name_H-M   'P 1'
_cell_length_a   8.38820145
_cell_length_b   8.38820201
_cell_length_c   8.38820323
_cell_angle_alpha   107.99494432
_cell_angle_beta   107.99494203
_cell_angle_gamma   107.99493942
_symmetry_Int_Tables_number   1
_chemical_formula_structural   Na3Al(SO4)3
_chemical_formula_sum   'Na6 Al2 S6 O24'
_cell_volume   477.56435849
_cell_formula_units_Z   2
loop_
 _symmetry_equiv_pos_site_id
 _symmetry_equiv_pos_as_xyz
  1  'x, y, z'
loop_
 _atom_site_type_symbol
 _atom_site_label
 _atom_site_symmetry_multiplicity
 _atom_site_fract_x
 _atom_site_fract_y
 _atom_site_fract_z
 _atom_site_occupancy
  Na  Na0  1  0.610076  0.140235  0.764699  1
  Na  Na1  1  0.764699  0.610076  0.140235  1
  Na  Na2  1  0.140235  0.764699  0.610076  1
  Na  Na3  1  0.389924  0.859765  0.235301  1
  Na  Na4  1  0.235301  0.389924  0.859765  1
  Na  Na5  1  0.859765  0.235301  0.389924  1
  Al  Al6  1  0.000000  0.000000  0.000000  1
  Al  Al7  1  0.500000  0.500000  0.500000  1
  S  S8  1  0.895084  0.557069  0.766304  1
  S  S9  1  0.766304  0.895084  0.557069  1
  S  S10  1  0.557069  0.766304  0.895084  1
  S  S11  1  0.104916  0.442931  0.233696  1
  S  S12  1  0.233696  0.104916  0.442931  1
  S  S13  1  0.442931  0.233696  0.104916  1
  O  O14  1  0.744193  0.518723  0.585853  1
  O  O15  1  0.585853  0.744193  0.518723  1
  O  O16  1  0.518723  0.585853  0.744193  1
  O  O17  1  0.255807  0.481277  0.414147  1
  O  O18  1  0.414147  0.255807  0.481277  1
  O  O19  1  0.481277  0.414147  0.255807  1
  O  O20  1  0.816534  0.468186  0.867272  1
  O  O21  1  0.867272  0.816534  0.468186  1
  O  O22  1  0.468186  0.867272  0.816534  1
  O  O23  1  0.183466  0.531814  0.132728  1
  O  O24  1  0.132728  0.183466  0.531814  1
  O  O25  1  0.531814  0.132728  0.183466  1
  O  O26  1  0.024561  0.492865  0.713075  1
  O  O27  1  0.713075  0.024561  0.492865  1
  O  O28  1  0.492865  0.713075  0.024561  1
  O  O29  1  0.975439  0.507135  0.286925  1
  O  O30  1  0.286925  0.975439  0.507135  1
  O  O31  1  0.507135  0.286925  0.975439  1
  O  O32  1  0.004007  0.767393  0.882227  1
  O  O33  1  0.882227  0.004007  0.767393  1
  O  O34  1  0.767393  0.882227  0.004007  1
  O  O35  1  0.995993  0.232607  0.117773  1
  O  O36  1  0.117773  0.995993  0.232607  1
  O  O37  1  0.232607  0.117773  0.995993  1
