# generated using pymatgen
data_Tb3(GaRh)2
_symmetry_space_group_name_H-M   'P 1'
_cell_length_a   5.57369200
_cell_length_b   7.88998900
_cell_length_c   13.59058900
_cell_angle_alpha   90.00000000
_cell_angle_beta   90.00000000
_cell_angle_gamma   90.00000000
_symmetry_Int_Tables_number   1
_chemical_formula_structural   Tb3(GaRh)2
_chemical_formula_sum   'Tb12 Ga8 Rh8'
_cell_volume   597.66475094
_cell_formula_units_Z   4
loop_
 _symmetry_equiv_pos_site_id
 _symmetry_equiv_pos_as_xyz
  1  'x, y, z'
loop_
 _atom_site_type_symbol
 _atom_site_label
 _atom_site_symmetry_multiplicity
 _atom_site_fract_x
 _atom_site_fract_y
 _atom_site_fract_z
 _atom_site_occupancy
  Tb  Tb0  1  0.631248  0.263649  0.250000  1
  Tb  Tb1  1  0.368752  0.736351  0.750000  1
  Tb  Tb2  1  0.368752  0.763649  0.250000  1
  Tb  Tb3  1  0.631248  0.236351  0.750000  1
  Tb  Tb4  1  0.151301  0.399829  0.097460  1
  Tb  Tb5  1  0.848699  0.600171  0.902540  1
  Tb  Tb6  1  0.848699  0.600171  0.597460  1
  Tb  Tb7  1  0.848699  0.899829  0.402540  1
  Tb  Tb8  1  0.151301  0.399829  0.402540  1
  Tb  Tb9  1  0.151301  0.100171  0.597460  1
  Tb  Tb10  1  0.151301  0.100171  0.902540  1
  Tb  Tb11  1  0.848699  0.899829  0.097460  1
  Ga  Ga12  1  0.126408  0.110516  0.250000  1
  Ga  Ga13  1  0.873592  0.889484  0.750000  1
  Ga  Ga14  1  0.873592  0.610516  0.250000  1
  Ga  Ga15  1  0.126408  0.389484  0.750000  1
  Ga  Ga16  1  0.647756  0.250000  0.000000  1
  Ga  Ga17  1  0.352244  0.750000  0.000000  1
  Ga  Ga18  1  0.352244  0.750000  0.500000  1
  Ga  Ga19  1  0.647756  0.250000  0.500000  1
  Rh  Rh20  1  0.360100  0.038752  0.093461  1
  Rh  Rh21  1  0.639900  0.961248  0.906539  1
  Rh  Rh22  1  0.639900  0.961248  0.593461  1
  Rh  Rh23  1  0.639900  0.538752  0.406539  1
  Rh  Rh24  1  0.360100  0.038752  0.406539  1
  Rh  Rh25  1  0.360100  0.461248  0.593461  1
  Rh  Rh26  1  0.360100  0.461248  0.906539  1
  Rh  Rh27  1  0.639900  0.538752  0.093461  1
