# generated using pymatgen
data_TbSeBrO3
_symmetry_space_group_name_H-M   'P 1'
_cell_length_a   7.02430100
_cell_length_b   7.64541600
_cell_length_c   9.07212700
_cell_angle_alpha   90.00000000
_cell_angle_beta   90.00000000
_cell_angle_gamma   90.00000000
_symmetry_Int_Tables_number   1
_chemical_formula_structural   TbSeBrO3
_chemical_formula_sum   'Tb4 Se4 Br4 O12'
_cell_volume   487.20681629
_cell_formula_units_Z   4
loop_
 _symmetry_equiv_pos_site_id
 _symmetry_equiv_pos_as_xyz
  1  'x, y, z'
loop_
 _atom_site_type_symbol
 _atom_site_label
 _atom_site_symmetry_multiplicity
 _atom_site_fract_x
 _atom_site_fract_y
 _atom_site_fract_z
 _atom_site_occupancy
  Tb  Tb0  1  0.250000  0.894889  0.027505  1
  Tb  Tb1  1  0.750000  0.105111  0.972495  1
  Tb  Tb2  1  0.750000  0.605111  0.527505  1
  Tb  Tb3  1  0.250000  0.394889  0.472495  1
  Se  Se4  1  0.250000  0.782405  0.627583  1
  Se  Se5  1  0.750000  0.217595  0.372417  1
  Se  Se6  1  0.750000  0.717595  0.127583  1
  Se  Se7  1  0.250000  0.282405  0.872417  1
  Br  Br8  1  0.250000  0.555113  0.178470  1
  Br  Br9  1  0.750000  0.444887  0.821530  1
  Br  Br10  1  0.750000  0.944887  0.678470  1
  Br  Br11  1  0.250000  0.055113  0.321530  1
  O  O12  1  0.073006  0.636707  0.567174  1
  O  O13  1  0.926994  0.363293  0.432826  1
  O  O14  1  0.926994  0.863293  0.067174  1
  O  O15  1  0.573006  0.363293  0.432826  1
  O  O16  1  0.073006  0.136707  0.932826  1
  O  O17  1  0.426994  0.636707  0.567174  1
  O  O18  1  0.426994  0.136707  0.932826  1
  O  O19  1  0.573006  0.863293  0.067174  1
  O  O20  1  0.250000  0.753882  0.813696  1
  O  O21  1  0.750000  0.246118  0.186304  1
  O  O22  1  0.750000  0.746118  0.313696  1
  O  O23  1  0.250000  0.253882  0.686304  1
