# generated using pymatgen
data_Er4MnOs7
_symmetry_space_group_name_H-M   'P 1'
_cell_length_a   5.32273300
_cell_length_b   5.32273325
_cell_length_c   8.70503600
_cell_angle_alpha   90.00000000
_cell_angle_beta   90.00000000
_cell_angle_gamma   120.00000464
_symmetry_Int_Tables_number   1
_chemical_formula_structural   Er4MnOs7
_chemical_formula_sum   'Er4 Mn1 Os7'
_cell_volume   213.58491032
_cell_formula_units_Z   1
loop_
 _symmetry_equiv_pos_site_id
 _symmetry_equiv_pos_as_xyz
  1  'x, y, z'
loop_
 _atom_site_type_symbol
 _atom_site_label
 _atom_site_symmetry_multiplicity
 _atom_site_fract_x
 _atom_site_fract_y
 _atom_site_fract_z
 _atom_site_occupancy
  Er  Er0  1  0.333333  0.666667  0.431521  1
  Er  Er1  1  0.666667  0.333333  0.568479  1
  Er  Er2  1  0.666667  0.333333  0.934896  1
  Er  Er3  1  0.333333  0.666667  0.065104  1
  Mn  Mn4  1  0.000000  0.000000  0.500000  1
  Os  Os5  1  0.000000  0.000000  0.000000  1
  Os  Os6  1  0.829095  0.170905  0.252890  1
  Os  Os7  1  0.829095  0.658189  0.252890  1
  Os  Os8  1  0.341811  0.170905  0.252890  1
  Os  Os9  1  0.170905  0.829095  0.747110  1
  Os  Os10  1  0.170905  0.341811  0.747110  1
  Os  Os11  1  0.658189  0.829095  0.747110  1
