# generated using pymatgen
data_Tb3Ho5In2IrRh
_symmetry_space_group_name_H-M   'P 1'
_cell_length_a   9.65521032
_cell_length_b   9.67251966
_cell_length_c   9.65710934
_cell_angle_alpha   59.84217442
_cell_angle_beta   59.85310796
_cell_angle_gamma   59.91481108
_symmetry_Int_Tables_number   1
_chemical_formula_structural   Tb3Ho5In2IrRh
_chemical_formula_sum   'Tb6 Ho10 In4 Ir2 Rh2'
_cell_volume   635.84377514
_cell_formula_units_Z   2
loop_
 _symmetry_equiv_pos_site_id
 _symmetry_equiv_pos_as_xyz
  1  'x, y, z'
loop_
 _atom_site_type_symbol
 _atom_site_label
 _atom_site_symmetry_multiplicity
 _atom_site_fract_x
 _atom_site_fract_y
 _atom_site_fract_z
 _atom_site_occupancy
  Tb  Tb0  1  0.439420  0.061060  0.060460  1
  Tb  Tb1  1  0.437124  0.061966  0.437277  1
  Tb  Tb2  1  0.060011  0.438603  0.059609  1
  Tb  Tb3  1  0.649402  0.649010  0.049292  1
  Tb  Tb4  1  0.189481  0.811776  0.189846  1
  Tb  Tb5  1  0.060780  0.436529  0.440045  1
  Ho  Ho6  1  0.810444  0.810583  0.190398  1
  Ho  Ho7  1  0.810214  0.191150  0.809987  1
  Ho  Ho8  1  0.189372  0.190885  0.811253  1
  Ho  Ho9  1  0.649432  0.048683  0.649232  1
  Ho  Ho10  1  0.059187  0.059569  0.440869  1
  Ho  Ho11  1  0.441090  0.437575  0.059514  1
  Ho  Ho12  1  0.652526  0.651461  0.652168  1
  Ho  Ho13  1  0.811335  0.190594  0.189418  1
  Ho  Ho14  1  0.190868  0.810052  0.809560  1
  Ho  Ho15  1  0.048074  0.649224  0.649957  1
  In  In16  1  0.416978  0.416426  0.417219  1
  In  In17  1  0.417937  0.417422  0.748426  1
  In  In18  1  0.417264  0.747998  0.418741  1
  In  In19  1  0.747831  0.416818  0.418625  1
  Ir  Ir20  1  0.858573  0.424870  0.858088  1
  Ir  Ir21  1  0.859577  0.859510  0.856808  1
  Rh  Rh22  1  0.858126  0.859310  0.425647  1
  Rh  Rh23  1  0.424951  0.858928  0.857557  1
