# generated using pymatgen
data_Hf9TaRe3Ir
_symmetry_space_group_name_H-M   'P 1'
_cell_length_a   8.73632300
_cell_length_b   8.73632355
_cell_length_c   8.50547500
_cell_angle_alpha   90.00000000
_cell_angle_beta   90.00000000
_cell_angle_gamma   120.00000170
_symmetry_Int_Tables_number   1
_chemical_formula_structural   Hf9TaRe3Ir
_chemical_formula_sum   'Hf18 Ta2 Re6 Ir2'
_cell_volume   562.19449518
_cell_formula_units_Z   2
loop_
 _symmetry_equiv_pos_site_id
 _symmetry_equiv_pos_as_xyz
  1  'x, y, z'
loop_
 _atom_site_type_symbol
 _atom_site_label
 _atom_site_symmetry_multiplicity
 _atom_site_fract_x
 _atom_site_fract_y
 _atom_site_fract_z
 _atom_site_occupancy
  Hf  Hf0  1  0.197662  0.802338  0.445932  1
  Hf  Hf1  1  0.197662  0.395324  0.445932  1
  Hf  Hf2  1  0.604676  0.802338  0.445932  1
  Hf  Hf3  1  0.802338  0.197662  0.554068  1
  Hf  Hf4  1  0.802338  0.604676  0.554068  1
  Hf  Hf5  1  0.395324  0.197662  0.554068  1
  Hf  Hf6  1  0.802338  0.197662  0.945932  1
  Hf  Hf7  1  0.802338  0.604676  0.945932  1
  Hf  Hf8  1  0.395324  0.197662  0.945932  1
  Hf  Hf9  1  0.197662  0.802338  0.054068  1
  Hf  Hf10  1  0.197662  0.395324  0.054068  1
  Hf  Hf11  1  0.604676  0.802338  0.054068  1
  Hf  Hf12  1  0.541457  0.458543  0.250000  1
  Hf  Hf13  1  0.541457  0.082914  0.250000  1
  Hf  Hf14  1  0.917086  0.458543  0.250000  1
  Hf  Hf15  1  0.458543  0.541457  0.750000  1
  Hf  Hf16  1  0.458543  0.917086  0.750000  1
  Hf  Hf17  1  0.082914  0.541457  0.750000  1
  Ta  Ta18  1  0.000000  0.000000  0.500000  1
  Ta  Ta19  1  0.000000  0.000000  0.000000  1
  Re  Re20  1  0.886321  0.113679  0.250000  1
  Re  Re21  1  0.886321  0.772642  0.250000  1
  Re  Re22  1  0.227358  0.113679  0.250000  1
  Re  Re23  1  0.113679  0.886321  0.750000  1
  Re  Re24  1  0.113679  0.227358  0.750000  1
  Re  Re25  1  0.772642  0.886321  0.750000  1
  Ir  Ir26  1  0.333333  0.666667  0.250000  1
  Ir  Ir27  1  0.666667  0.333333  0.750000  1
