# generated using pymatgen
data_Dy8TmZr3Ga20
_symmetry_space_group_name_H-M   'P 1'
_cell_length_a   6.03245018
_cell_length_b   9.45130500
_cell_length_c   11.36948858
_cell_angle_alpha   90.00000000
_cell_angle_beta   90.13356611
_cell_angle_gamma   90.00000000
_symmetry_Int_Tables_number   1
_chemical_formula_structural   Dy8TmZr3Ga20
_chemical_formula_sum   'Dy8 Tm1 Zr3 Ga20'
_cell_volume   648.22424719
_cell_formula_units_Z   1
loop_
 _symmetry_equiv_pos_site_id
 _symmetry_equiv_pos_as_xyz
  1  'x, y, z'
loop_
 _atom_site_type_symbol
 _atom_site_label
 _atom_site_symmetry_multiplicity
 _atom_site_fract_x
 _atom_site_fract_y
 _atom_site_fract_z
 _atom_site_occupancy
  Dy  Dy0  1  0.886445  0.509377  0.351952  1
  Dy  Dy1  1  0.615647  0.988394  0.852812  1
  Dy  Dy2  1  0.112520  0.010137  0.649060  1
  Dy  Dy3  1  0.387731  0.489777  0.148312  1
  Dy  Dy4  1  0.112520  0.489863  0.649060  1
  Dy  Dy5  1  0.387731  0.010223  0.148312  1
  Dy  Dy6  1  0.886445  0.990623  0.351952  1
  Dy  Dy7  1  0.615647  0.511606  0.852812  1
  Tm  Tm8  1  0.349357  0.250000  0.422348  1
  Zr  Zr9  1  0.859895  0.750000  0.075445  1
  Zr  Zr10  1  0.640221  0.750000  0.578764  1
  Zr  Zr11  1  0.144596  0.250000  0.923193  1
  Ga  Ga12  1  0.873405  0.050685  0.086981  1
  Ga  Ga13  1  0.624679  0.449976  0.590602  1
  Ga  Ga14  1  0.127272  0.553021  0.912727  1
  Ga  Ga15  1  0.374789  0.939733  0.411891  1
  Ga  Ga16  1  0.127272  0.946979  0.912727  1
  Ga  Ga17  1  0.374789  0.560267  0.411891  1
  Ga  Ga18  1  0.873405  0.449315  0.086981  1
  Ga  Ga19  1  0.624679  0.050024  0.590602  1
  Ga  Ga20  1  0.163779  0.750000  0.253067  1
  Ga  Ga21  1  0.333735  0.750000  0.753569  1
  Ga  Ga22  1  0.835194  0.250000  0.748822  1
  Ga  Ga23  1  0.673505  0.250000  0.245070  1
  Ga  Ga24  1  0.389591  0.750000  0.004844  1
  Ga  Ga25  1  0.104806  0.750000  0.505559  1
  Ga  Ga26  1  0.614850  0.250000  0.992890  1
  Ga  Ga27  1  0.876828  0.250000  0.498809  1
  Ga  Ga28  1  0.603000  0.750000  0.288891  1
  Ga  Ga29  1  0.901064  0.750000  0.793504  1
  Ga  Ga30  1  0.403138  0.250000  0.710592  1
  Ga  Ga31  1  0.101456  0.250000  0.195960  1
