# generated using pymatgen
data_EuY6PtBr12
_symmetry_space_group_name_H-M   'P 1'
_cell_length_a   9.28582437
_cell_length_b   9.28582431
_cell_length_c   9.28582529
_cell_angle_alpha   106.44218520
_cell_angle_beta   106.44218707
_cell_angle_gamma   106.44218880
_symmetry_Int_Tables_number   1
_chemical_formula_structural   EuY6PtBr12
_chemical_formula_sum   'Eu1 Y6 Pt1 Br12'
_cell_volume   676.70805888
_cell_formula_units_Z   1
loop_
 _symmetry_equiv_pos_site_id
 _symmetry_equiv_pos_as_xyz
  1  'x, y, z'
loop_
 _atom_site_type_symbol
 _atom_site_label
 _atom_site_symmetry_multiplicity
 _atom_site_fract_x
 _atom_site_fract_y
 _atom_site_fract_z
 _atom_site_occupancy
  Eu  Eu0  1  0.500000  0.500000  0.500000  1
  Y  Y1  1  0.101997  0.024360  0.313929  1
  Y  Y2  1  0.313929  0.101997  0.024360  1
  Y  Y3  1  0.024360  0.313929  0.101997  1
  Y  Y4  1  0.898003  0.975640  0.686071  1
  Y  Y5  1  0.686071  0.898003  0.975640  1
  Y  Y6  1  0.975640  0.686071  0.898003  1
  Pt  Pt7  1  0.000000  0.000000  0.000000  1
  Br  Br8  1  0.072896  0.676972  0.220310  1
  Br  Br9  1  0.220310  0.072896  0.676972  1
  Br  Br10  1  0.676972  0.220310  0.072896  1
  Br  Br11  1  0.927104  0.323028  0.779690  1
  Br  Br12  1  0.779690  0.927104  0.323028  1
  Br  Br13  1  0.323028  0.779690  0.927104  1
  Br  Br14  1  0.451112  0.144666  0.372564  1
  Br  Br15  1  0.372564  0.451112  0.144666  1
  Br  Br16  1  0.144666  0.372564  0.451112  1
  Br  Br17  1  0.548888  0.855334  0.627436  1
  Br  Br18  1  0.627436  0.548888  0.855334  1
  Br  Br19  1  0.855334  0.627436  0.548888  1
