# generated using pymatgen
data_Ho3P6Ir3Pd17
_symmetry_space_group_name_H-M   'P 1'
_cell_length_a   8.65546598
_cell_length_b   8.65546614
_cell_length_c   8.68282899
_cell_angle_alpha   59.77603976
_cell_angle_beta   59.77604192
_cell_angle_gamma   59.68270886
_symmetry_Int_Tables_number   1
_chemical_formula_structural   Ho3P6Ir3Pd17
_chemical_formula_sum   'Ho3 P6 Ir3 Pd17'
_cell_volume   457.30244516
_cell_formula_units_Z   1
loop_
 _symmetry_equiv_pos_site_id
 _symmetry_equiv_pos_as_xyz
  1  'x, y, z'
loop_
 _atom_site_type_symbol
 _atom_site_label
 _atom_site_symmetry_multiplicity
 _atom_site_fract_x
 _atom_site_fract_y
 _atom_site_fract_z
 _atom_site_occupancy
  Ho  Ho0  1  0.258676  0.258676  0.245017  1
  Ho  Ho1  1  0.742849  0.742849  0.748444  1
  Ho  Ho2  1  0.999622  0.999622  0.000900  1
  P  P3  1  0.728339  0.268047  0.265422  1
  P  P4  1  0.274683  0.726362  0.731944  1
  P  P5  1  0.268047  0.728339  0.265422  1
  P  P6  1  0.726362  0.274683  0.731944  1
  P  P7  1  0.271559  0.271559  0.728073  1
  P  P8  1  0.733172  0.733172  0.270481  1
  Ir  Ir9  1  0.388612  0.388612  0.389952  1
  Ir  Ir10  1  0.613190  0.613190  0.606284  1
  Ir  Ir11  1  0.383499  0.383499  0.841261  1
  Pd  Pd12  1  0.377362  0.855532  0.379402  1
  Pd  Pd13  1  0.620016  0.620016  0.150040  1
  Pd  Pd14  1  0.624490  0.143444  0.617373  1
  Pd  Pd15  1  0.855532  0.377362  0.379402  1
  Pd  Pd16  1  0.143444  0.624490  0.617373  1
  Pd  Pd17  1  0.342304  0.001031  0.001826  1
  Pd  Pd18  1  0.654795  0.000227  0.002808  1
  Pd  Pd19  1  0.999757  0.343658  0.659134  1
  Pd  Pd20  1  0.998027  0.654523  0.348937  1
  Pd  Pd21  1  0.001031  0.342304  0.001826  1
  Pd  Pd22  1  0.654523  0.998027  0.348937  1
  Pd  Pd23  1  0.000227  0.654795  0.002808  1
  Pd  Pd24  1  0.343658  0.999757  0.659134  1
  Pd  Pd25  1  0.998530  0.998530  0.346278  1
  Pd  Pd26  1  0.999200  0.999200  0.658960  1
  Pd  Pd27  1  0.654385  0.344107  0.000310  1
  Pd  Pd28  1  0.344107  0.654385  0.000310  1
