# generated using pymatgen
data_Nd2Zn21Cu
_symmetry_space_group_name_H-M   'P 1'
_cell_length_a   8.26521531
_cell_length_b   8.27303188
_cell_length_c   8.27299136
_cell_angle_alpha   99.80645639
_cell_angle_beta   100.02906417
_cell_angle_gamma   131.02004716
_symmetry_Int_Tables_number   1
_chemical_formula_structural   Nd2Zn21Cu
_chemical_formula_sum   'Nd2 Zn21 Cu1'
_cell_volume   388.21982284
_cell_formula_units_Z   1
loop_
 _symmetry_equiv_pos_site_id
 _symmetry_equiv_pos_as_xyz
  1  'x, y, z'
loop_
 _atom_site_type_symbol
 _atom_site_label
 _atom_site_symmetry_multiplicity
 _atom_site_fract_x
 _atom_site_fract_y
 _atom_site_fract_z
 _atom_site_occupancy
  Nd  Nd0  1  0.251402  0.752508  0.498895  1
  Nd  Nd1  1  0.998597  0.997492  0.001105  1
  Zn  Zn2  1  0.422157  0.093169  0.913710  1
  Zn  Zn3  1  0.180139  0.505375  0.078251  1
  Zn  Zn4  1  0.492702  0.497606  0.995096  1
  Zn  Zn5  1  0.757298  0.252394  0.504904  1
  Zn  Zn6  1  0.625000  0.375000  0.750000  1
  Zn  Zn7  1  0.625000  0.375000  0.250000  1
  Zn  Zn8  1  0.625000  0.875000  0.250000  1
  Zn  Zn9  1  0.180139  0.101889  0.674764  1
  Zn  Zn10  1  0.761844  0.934479  0.587304  1
  Zn  Zn11  1  0.345959  0.173299  0.415833  1
  Zn  Zn12  1  0.422157  0.508447  0.328987  1
  Zn  Zn13  1  0.904040  0.819873  0.327338  1
  Zn  Zn14  1  0.488158  0.575460  0.672637  1
  Zn  Zn15  1  0.069861  0.244624  0.421749  1
  Zn  Zn16  1  0.827843  0.656831  0.586290  1
  Zn  Zn17  1  0.069861  0.648111  0.825236  1
  Zn  Zn18  1  0.488156  0.815520  0.912696  1
  Zn  Zn19  1  0.904042  0.576701  0.084167  1
  Zn  Zn20  1  0.827844  0.241553  0.171013  1
  Zn  Zn21  1  0.345959  0.930127  0.172662  1
  Zn  Zn22  1  0.761842  0.174540  0.827363  1
  Cu  Cu23  1  0.125000  0.375001  0.749999  1
