# generated using pymatgen
data_HoEr9Tm10FeCo3Bi8
_symmetry_space_group_name_H-M   'P 1'
_cell_length_a   7.88888072
_cell_length_b   8.85816500
_cell_length_c   12.31847258
_cell_angle_alpha   90.00000000
_cell_angle_beta   90.02993374
_cell_angle_gamma   90.00000000
_symmetry_Int_Tables_number   1
_chemical_formula_structural   HoEr9Tm10FeCo3Bi8
_chemical_formula_sum   'Ho1 Er9 Tm10 Fe1 Co3 Bi8'
_cell_volume   860.82715206
_cell_formula_units_Z   1
loop_
 _symmetry_equiv_pos_site_id
 _symmetry_equiv_pos_as_xyz
  1  'x, y, z'
loop_
 _atom_site_type_symbol
 _atom_site_label
 _atom_site_symmetry_multiplicity
 _atom_site_fract_x
 _atom_site_fract_y
 _atom_site_fract_z
 _atom_site_occupancy
  Ho  Ho0  1  0.556216  0.250000  0.003060  1
  Er  Er1  1  0.848720  0.250000  0.799919  1
  Er  Er2  1  0.151063  0.750000  0.199348  1
  Er  Er3  1  0.887458  0.750000  0.812950  1
  Er  Er4  1  0.113751  0.250000  0.187531  1
  Er  Er5  1  0.385803  0.250000  0.686706  1
  Er  Er6  1  0.613328  0.750000  0.314139  1
  Er  Er7  1  0.055548  0.750000  0.496789  1
  Er  Er8  1  0.945364  0.250000  0.502627  1
  Er  Er9  1  0.443923  0.750000  0.996244  1
  Tm  Tm10  1  0.347697  0.750000  0.699987  1
  Tm  Tm11  1  0.651140  0.250000  0.301564  1
  Tm  Tm12  1  0.673641  0.537280  0.563411  1
  Tm  Tm13  1  0.326246  0.461662  0.436692  1
  Tm  Tm14  1  0.172473  0.465176  0.937613  1
  Tm  Tm15  1  0.326246  0.038338  0.436692  1
  Tm  Tm16  1  0.825961  0.539438  0.062831  1
  Tm  Tm17  1  0.673641  0.962720  0.563411  1
  Tm  Tm18  1  0.825961  0.960562  0.062831  1
  Tm  Tm19  1  0.172473  0.034824  0.937613  1
  Fe  Fe20  1  0.068297  0.750000  0.991815  1
  Co  Co21  1  0.934165  0.250000  0.007510  1
  Co  Co22  1  0.565240  0.250000  0.507580  1
  Co  Co23  1  0.434774  0.750000  0.493351  1
  Bi  Bi24  1  0.570957  0.508923  0.826275  1
  Bi  Bi25  1  0.429886  0.491327  0.173200  1
  Bi  Bi26  1  0.071294  0.491680  0.672625  1
  Bi  Bi27  1  0.429886  0.008673  0.173200  1
  Bi  Bi28  1  0.928298  0.508683  0.326792  1
  Bi  Bi29  1  0.570957  0.991077  0.826275  1
  Bi  Bi30  1  0.928298  0.991317  0.326792  1
  Bi  Bi31  1  0.071294  0.008320  0.672625  1
