# generated using pymatgen
data_Th3Zn2Pd3Au
_symmetry_space_group_name_H-M   'P 1'
_cell_length_a   7.59754050
_cell_length_b   7.76973017
_cell_length_c   3.84637900
_cell_angle_alpha   90.00000000
_cell_angle_beta   90.00000000
_cell_angle_gamma   120.75258211
_symmetry_Int_Tables_number   1
_chemical_formula_structural   Th3Zn2Pd3Au
_chemical_formula_sum   'Th3 Zn2 Pd3 Au1'
_cell_volume   195.12727520
_cell_formula_units_Z   1
loop_
 _symmetry_equiv_pos_site_id
 _symmetry_equiv_pos_as_xyz
  1  'x, y, z'
loop_
 _atom_site_type_symbol
 _atom_site_label
 _atom_site_symmetry_multiplicity
 _atom_site_fract_x
 _atom_site_fract_y
 _atom_site_fract_z
 _atom_site_occupancy
  Th  Th0  1  0.000000  0.401576  0.000000  1
  Th  Th1  1  0.608887  0.603086  0.000000  1
  Th  Th2  1  0.391113  0.994198  0.000000  1
  Zn  Zn3  1  0.258142  0.259836  0.500000  1
  Zn  Zn4  1  0.741858  0.001694  0.500000  1
  Pd  Pd5  1  0.000000  0.023242  0.000000  1
  Pd  Pd6  1  0.652837  0.317311  0.500000  1
  Pd  Pd7  1  0.347163  0.664474  0.500000  1
  Au  Au8  1  0.000000  0.734584  0.500000  1
