# generated using pymatgen
data_Hf6Si5AsRu6
_symmetry_space_group_name_H-M   'P 1'
_cell_length_a   7.61835336
_cell_length_b   7.62033794
_cell_length_c   7.62094502
_cell_angle_alpha   128.05164967
_cell_angle_beta   121.47713469
_cell_angle_gamma   82.05195662
_symmetry_Int_Tables_number   1
_chemical_formula_structural   Hf6Si5AsRu6
_chemical_formula_sum   'Hf6 Si5 As1 Ru6'
_cell_volume   285.81181273
_cell_formula_units_Z   1
loop_
 _symmetry_equiv_pos_site_id
 _symmetry_equiv_pos_as_xyz
  1  'x, y, z'
loop_
 _atom_site_type_symbol
 _atom_site_label
 _atom_site_symmetry_multiplicity
 _atom_site_fract_x
 _atom_site_fract_y
 _atom_site_fract_z
 _atom_site_occupancy
  Hf  Hf0  1  0.467404  0.700152  0.727719  1
  Hf  Hf1  1  0.526594  0.255112  0.223962  1
  Hf  Hf2  1  0.746813  0.834102  0.582126  1
  Hf  Hf3  1  0.256314  0.837907  0.087058  1
  Hf  Hf4  1  0.053023  0.253027  0.704185  1
  Hf  Hf5  1  0.949165  0.653268  0.208799  1
  Si  Si6  1  0.274773  0.270563  0.496031  1
  Si  Si7  1  0.724750  0.221097  0.995211  1
  Si  Si8  1  0.328413  0.587355  0.250139  1
  Si  Si9  1  0.673295  0.921924  0.259633  1
  Si  Si10  1  0.161284  0.921890  0.749635  1
  As  As11  1  0.838563  0.587590  0.760010  1
  Ru  Ru12  1  0.499558  0.498603  0.998294  1
  Ru  Ru13  1  0.002404  0.499262  0.495946  1
  Ru  Ru14  1  0.096851  0.252930  0.102520  1
  Ru  Ru15  1  0.903655  0.011355  0.161747  1
  Ru  Ru16  1  0.349060  0.006041  0.603222  1
  Ru  Ru17  1  0.648081  0.247422  0.653363  1
