# generated using pymatgen
data_Dy3Er2Bi2Os
_symmetry_space_group_name_H-M   'P 1'
_cell_length_a   7.92606800
_cell_length_b   9.01727000
_cell_length_c   12.51337500
_cell_angle_alpha   90.00000000
_cell_angle_beta   90.00000000
_cell_angle_gamma   90.00000000
_symmetry_Int_Tables_number   1
_chemical_formula_structural   Dy3Er2Bi2Os
_chemical_formula_sum   'Dy12 Er8 Bi8 Os4'
_cell_volume   894.34962118
_cell_formula_units_Z   4
loop_
 _symmetry_equiv_pos_site_id
 _symmetry_equiv_pos_as_xyz
  1  'x, y, z'
loop_
 _atom_site_type_symbol
 _atom_site_label
 _atom_site_symmetry_multiplicity
 _atom_site_fract_x
 _atom_site_fract_y
 _atom_site_fract_z
 _atom_site_occupancy
  Dy  Dy0  1  0.662444  0.750000  0.709115  1
  Dy  Dy1  1  0.337556  0.250000  0.290885  1
  Dy  Dy2  1  0.162444  0.250000  0.790885  1
  Dy  Dy3  1  0.837556  0.750000  0.209115  1
  Dy  Dy4  1  0.129310  0.750000  0.812025  1
  Dy  Dy5  1  0.870690  0.250000  0.187975  1
  Dy  Dy6  1  0.629310  0.250000  0.687975  1
  Dy  Dy7  1  0.370690  0.750000  0.312025  1
  Dy  Dy8  1  0.557174  0.750000  0.994943  1
  Dy  Dy9  1  0.442826  0.250000  0.005057  1
  Dy  Dy10  1  0.057174  0.250000  0.505057  1
  Dy  Dy11  1  0.942826  0.750000  0.494943  1
  Er  Er12  1  0.828712  0.458615  0.933498  1
  Er  Er13  1  0.171288  0.541385  0.066502  1
  Er  Er14  1  0.328712  0.541385  0.566502  1
  Er  Er15  1  0.171288  0.958615  0.066502  1
  Er  Er16  1  0.671288  0.458615  0.433498  1
  Er  Er17  1  0.828712  0.041385  0.933498  1
  Er  Er18  1  0.671288  0.041385  0.433498  1
  Er  Er19  1  0.328712  0.958615  0.566502  1
  Bi  Bi20  1  0.937823  0.004687  0.672672  1
  Bi  Bi21  1  0.062177  0.995313  0.327328  1
  Bi  Bi22  1  0.437823  0.995313  0.827328  1
  Bi  Bi23  1  0.062177  0.504687  0.327328  1
  Bi  Bi24  1  0.562177  0.004687  0.172672  1
  Bi  Bi25  1  0.937823  0.495313  0.672672  1
  Bi  Bi26  1  0.562177  0.495313  0.172672  1
  Bi  Bi27  1  0.437823  0.504687  0.827328  1
  Os  Os28  1  0.926160  0.750000  0.991861  1
  Os  Os29  1  0.073840  0.250000  0.008139  1
  Os  Os30  1  0.426160  0.250000  0.508139  1
  Os  Os31  1  0.573840  0.750000  0.491861  1
