# generated using pymatgen
data_Ba3SrPt2O9
_symmetry_space_group_name_H-M   'P 1'
_cell_length_a   6.05776507
_cell_length_b   6.05776458
_cell_length_c   15.43465518
_cell_angle_alpha   88.05503821
_cell_angle_beta   88.05503808
_cell_angle_gamma   119.39640979
_symmetry_Int_Tables_number   1
_chemical_formula_structural   Ba3SrPt2O9
_chemical_formula_sum   'Ba6 Sr2 Pt4 O18'
_cell_volume   492.35354566
_cell_formula_units_Z   2
loop_
 _symmetry_equiv_pos_site_id
 _symmetry_equiv_pos_as_xyz
  1  'x, y, z'
loop_
 _atom_site_type_symbol
 _atom_site_label
 _atom_site_symmetry_multiplicity
 _atom_site_fract_x
 _atom_site_fract_y
 _atom_site_fract_z
 _atom_site_occupancy
  Ba  Ba0  1  0.345622  0.676334  0.909056  1
  Ba  Ba1  1  0.323666  0.654378  0.590944  1
  Ba  Ba2  1  0.654378  0.323666  0.090944  1
  Ba  Ba3  1  0.676334  0.345622  0.409056  1
  Ba  Ba4  1  0.990195  0.009805  0.750000  1
  Ba  Ba5  1  0.009805  0.990195  0.250000  1
  Sr  Sr6  1  0.000000  0.000000  0.500000  1
  Sr  Sr7  1  0.000000  0.000000  0.000000  1
  Pt  Pt8  1  0.696488  0.363745  0.838615  1
  Pt  Pt9  1  0.636255  0.303512  0.661385  1
  Pt  Pt10  1  0.363745  0.696488  0.338615  1
  Pt  Pt11  1  0.303512  0.636255  0.161385  1
  O  O12  1  0.879265  0.692215  0.892428  1
  O  O13  1  0.307785  0.120735  0.607572  1
  O  O14  1  0.120735  0.307785  0.107572  1
  O  O15  1  0.692215  0.879265  0.392428  1
  O  O16  1  0.884449  0.234160  0.904610  1
  O  O17  1  0.765840  0.115551  0.595390  1
  O  O18  1  0.115551  0.765840  0.095390  1
  O  O19  1  0.234160  0.884449  0.404610  1
  O  O20  1  0.422382  0.234776  0.931058  1
  O  O21  1  0.765224  0.577618  0.568942  1
  O  O22  1  0.577618  0.765224  0.068942  1
  O  O23  1  0.234776  0.422382  0.431058  1
  O  O24  1  0.482900  0.517100  0.250000  1
  O  O25  1  0.517100  0.482900  0.750000  1
  O  O26  1  0.478398  0.953593  0.231899  1
  O  O27  1  0.046407  0.521602  0.268101  1
  O  O28  1  0.521602  0.046407  0.768101  1
  O  O29  1  0.953593  0.478398  0.731899  1
