# generated using pymatgen
data_Dy6Al24Ir5Ru3
_symmetry_space_group_name_H-M   'P 1'
_cell_length_a   8.82808989
_cell_length_b   8.81763533
_cell_length_c   9.50585053
_cell_angle_alpha   90.00000229
_cell_angle_beta   90.10686319
_cell_angle_gamma   119.96083301
_symmetry_Int_Tables_number   1
_chemical_formula_structural   Dy6Al24Ir5Ru3
_chemical_formula_sum   'Dy6 Al24 Ir5 Ru3'
_cell_volume   641.07782559
_cell_formula_units_Z   1
loop_
 _symmetry_equiv_pos_site_id
 _symmetry_equiv_pos_as_xyz
  1  'x, y, z'
loop_
 _atom_site_type_symbol
 _atom_site_label
 _atom_site_symmetry_multiplicity
 _atom_site_fract_x
 _atom_site_fract_y
 _atom_site_fract_z
 _atom_site_occupancy
  Dy  Dy0  1  0.193862  0.805719  0.248986  1
  Dy  Dy1  1  0.193862  0.388143  0.248986  1
  Dy  Dy2  1  0.611537  0.805768  0.250266  1
  Dy  Dy3  1  0.806138  0.194281  0.751014  1
  Dy  Dy4  1  0.806138  0.611857  0.751014  1
  Dy  Dy5  1  0.388463  0.194232  0.749734  1
  Al  Al6  1  0.562120  0.437315  0.250344  1
  Al  Al7  1  0.562120  0.124805  0.250344  1
  Al  Al8  1  0.876023  0.438011  0.248909  1
  Al  Al9  1  0.437880  0.562685  0.749656  1
  Al  Al10  1  0.437880  0.875195  0.749656  1
  Al  Al11  1  0.123977  0.561989  0.751091  1
  Al  Al12  1  0.325160  0.162580  0.422886  1
  Al  Al13  1  0.837393  0.162905  0.423640  1
  Al  Al14  1  0.837393  0.674487  0.423640  1
  Al  Al15  1  0.674840  0.837420  0.577114  1
  Al  Al16  1  0.162607  0.837095  0.576360  1
  Al  Al17  1  0.162607  0.325513  0.576360  1
  Al  Al18  1  0.674360  0.837180  0.923580  1
  Al  Al19  1  0.162420  0.836378  0.922732  1
  Al  Al20  1  0.162420  0.326042  0.922732  1
  Al  Al21  1  0.325640  0.162820  0.076420  1
  Al  Al22  1  0.837580  0.163622  0.077268  1
  Al  Al23  1  0.837580  0.673958  0.077268  1
  Al  Al24  1  0.666944  0.333471  0.526722  1
  Al  Al25  1  0.333056  0.666529  0.473278  1
  Al  Al26  1  0.331373  0.665687  0.025211  1
  Al  Al27  1  0.668627  0.334313  0.974789  1
  Al  Al28  1  0.999087  0.999543  0.250048  1
  Al  Al29  1  0.000913  0.000457  0.749952  1
  Ir  Ir30  1  0.500000  0.500000  0.500000  1
  Ir  Ir31  1  0.500000  0.000000  0.500000  1
  Ir  Ir32  1  0.000000  0.500000  0.500000  1
  Ir  Ir33  1  0.500000  0.500000  0.000000  1
  Ir  Ir34  1  0.500000  0.000000  0.000000  1
  Ru  Ru35  1  0.000000  0.000000  0.500000  1
  Ru  Ru36  1  0.000000  0.000000  0.000000  1
  Ru  Ru37  1  0.000000  0.500000  0.000000  1
