# generated using pymatgen
data_TbNd17(SmSn8)2
_symmetry_space_group_name_H-M   'P 1'
_cell_length_a   8.29030401
_cell_length_b   8.43906515
_cell_length_c   15.98408300
_cell_angle_alpha   90.00000000
_cell_angle_beta   90.00000000
_cell_angle_gamma   89.99182756
_symmetry_Int_Tables_number   1
_chemical_formula_structural   TbNd17(SmSn8)2
_chemical_formula_sum   'Tb1 Nd17 Sm2 Sn16'
_cell_volume   1118.28504796
_cell_formula_units_Z   1
loop_
 _symmetry_equiv_pos_site_id
 _symmetry_equiv_pos_as_xyz
  1  'x, y, z'
loop_
 _atom_site_type_symbol
 _atom_site_label
 _atom_site_symmetry_multiplicity
 _atom_site_fract_x
 _atom_site_fract_y
 _atom_site_fract_z
 _atom_site_occupancy
  Tb  Tb0  1  0.300996  0.002295  0.750000  1
  Nd  Nd1  1  0.017837  0.181052  0.401054  1
  Nd  Nd2  1  0.368241  0.837012  0.120568  1
  Nd  Nd3  1  0.132199  0.336552  0.620578  1
  Nd  Nd4  1  0.481671  0.681423  0.901269  1
  Nd  Nd5  1  0.868126  0.663035  0.121093  1
  Nd  Nd6  1  0.132199  0.336552  0.879422  1
  Nd  Nd7  1  0.481671  0.681423  0.598731  1
  Nd  Nd8  1  0.631192  0.162918  0.620364  1
  Nd  Nd9  1  0.802372  0.497839  0.750000  1
  Nd  Nd10  1  0.868126  0.663035  0.378907  1
  Nd  Nd11  1  0.017837  0.181052  0.098946  1
  Nd  Nd12  1  0.982382  0.819470  0.901156  1
  Nd  Nd13  1  0.631192  0.162918  0.879636  1
  Nd  Nd14  1  0.518005  0.319008  0.099139  1
  Nd  Nd15  1  0.368241  0.837012  0.379432  1
  Nd  Nd16  1  0.982382  0.819470  0.598844  1
  Nd  Nd17  1  0.518005  0.319008  0.400861  1
  Sm  Sm18  1  0.198658  0.502212  0.250000  1
  Sm  Sm19  1  0.698837  0.997947  0.250000  1
  Sn  Sn20  1  0.791548  0.463765  0.541791  1
  Sn  Sn21  1  0.708540  0.964459  0.456824  1
  Sn  Sn22  1  0.674848  0.857887  0.750000  1
  Sn  Sn23  1  0.208452  0.535274  0.456888  1
  Sn  Sn24  1  0.291550  0.035264  0.956671  1
  Sn  Sn25  1  0.824228  0.355040  0.250000  1
  Sn  Sn26  1  0.791548  0.463765  0.958209  1
  Sn  Sn27  1  0.565851  0.616831  0.250000  1
  Sn  Sn28  1  0.208452  0.535274  0.043112  1
  Sn  Sn29  1  0.431848  0.382379  0.750000  1
  Sn  Sn30  1  0.177481  0.646213  0.750000  1
  Sn  Sn31  1  0.935335  0.115188  0.750000  1
  Sn  Sn32  1  0.291550  0.035264  0.543329  1
  Sn  Sn33  1  0.708540  0.964459  0.043176  1
  Sn  Sn34  1  0.323878  0.144520  0.250000  1
  Sn  Sn35  1  0.066182  0.883188  0.250000  1
