# generated using pymatgen
data_La8Yb7Y5Si16
_symmetry_space_group_name_H-M   'P 1'
_cell_length_a   7.54846854
_cell_length_b   7.95250703
_cell_length_c   15.18517260
_cell_angle_alpha   89.96145517
_cell_angle_beta   90.24778968
_cell_angle_gamma   90.09301107
_symmetry_Int_Tables_number   1
_chemical_formula_structural   La8Yb7Y5Si16
_chemical_formula_sum   'La8 Yb7 Y5 Si16'
_cell_volume   911.54458154
_cell_formula_units_Z   1
loop_
 _symmetry_equiv_pos_site_id
 _symmetry_equiv_pos_as_xyz
  1  'x, y, z'
loop_
 _atom_site_type_symbol
 _atom_site_label
 _atom_site_symmetry_multiplicity
 _atom_site_fract_x
 _atom_site_fract_y
 _atom_site_fract_z
 _atom_site_occupancy
  La  La0  1  0.022684  0.182033  0.400416  1
  La  La1  1  0.521929  0.316916  0.401287  1
  La  La2  1  0.477175  0.681787  0.900561  1
  La  La3  1  0.478108  0.682879  0.599853  1
  La  La4  1  0.978295  0.817547  0.600526  1
  La  La5  1  0.977097  0.818493  0.901486  1
  La  La6  1  0.523470  0.318469  0.096899  1
  La  La7  1  0.023305  0.182800  0.097651  1
  Yb  Yb8  1  0.321712  0.179987  0.623407  1
  Yb  Yb9  1  0.677314  0.820274  0.376757  1
  Yb  Yb10  1  0.652041  0.991205  0.749242  1
  Yb  Yb11  1  0.177703  0.679789  0.377529  1
  Yb  Yb12  1  0.846483  0.494314  0.252494  1
  Yb  Yb13  1  0.347070  0.005451  0.251907  1
  Yb  Yb14  1  0.157013  0.507729  0.749057  1
  Y  Y15  1  0.823910  0.317987  0.877051  1
  Y  Y16  1  0.822721  0.320613  0.625155  1
  Y  Y17  1  0.322776  0.181560  0.877215  1
  Y  Y18  1  0.175292  0.683510  0.122547  1
  Y  Y19  1  0.675057  0.815897  0.122274  1
  Si  Si20  1  0.263344  0.885786  0.752264  1
  Si  Si21  1  0.464323  0.603601  0.244959  1
  Si  Si22  1  0.031221  0.106967  0.752757  1
  Si  Si23  1  0.536235  0.395106  0.751845  1
  Si  Si24  1  0.138905  0.470038  0.538065  1
  Si  Si25  1  0.964640  0.896435  0.245105  1
  Si  Si26  1  0.736925  0.115420  0.246538  1
  Si  Si27  1  0.853102  0.532016  0.034916  1
  Si  Si28  1  0.353418  0.968724  0.035481  1
  Si  Si29  1  0.148043  0.468426  0.965029  1
  Si  Si30  1  0.648327  0.033887  0.537075  1
  Si  Si31  1  0.357976  0.973088  0.463686  1
  Si  Si32  1  0.852190  0.525737  0.465870  1
  Si  Si33  1  0.767065  0.610471  0.751218  1
  Si  Si34  1  0.236280  0.384059  0.247136  1
  Si  Si35  1  0.646850  0.030997  0.964746  1
