# generated using pymatgen
data_Pr2Gd4PtCl10
_symmetry_space_group_name_H-M   'P 1'
_cell_length_a   7.24025871
_cell_length_b   9.10445943
_cell_length_c   9.32603400
_cell_angle_alpha   107.50923985
_cell_angle_beta   96.00437549
_cell_angle_gamma   105.82872839
_symmetry_Int_Tables_number   1
_chemical_formula_structural   Pr2Gd4PtCl10
_chemical_formula_sum   'Pr2 Gd4 Pt1 Cl10'
_cell_volume   552.24895591
_cell_formula_units_Z   1
loop_
 _symmetry_equiv_pos_site_id
 _symmetry_equiv_pos_as_xyz
  1  'x, y, z'
loop_
 _atom_site_type_symbol
 _atom_site_label
 _atom_site_symmetry_multiplicity
 _atom_site_fract_x
 _atom_site_fract_y
 _atom_site_fract_z
 _atom_site_occupancy
  Pr  Pr0  1  0.854604  0.939700  0.250775  1
  Pr  Pr1  1  0.145396  0.060300  0.749225  1
  Gd  Gd2  1  0.370011  0.142540  0.185595  1
  Gd  Gd3  1  0.629989  0.857460  0.814405  1
  Gd  Gd4  1  0.966546  0.308868  0.098189  1
  Gd  Gd5  1  0.033454  0.691132  0.901811  1
  Pt  Pt6  1  0.000000  0.000000  0.000000  1
  Cl  Cl7  1  0.341184  0.444872  0.261117  1
  Cl  Cl8  1  0.658816  0.555128  0.738883  1
  Cl  Cl9  1  0.918015  0.625843  0.161231  1
  Cl  Cl10  1  0.081985  0.374157  0.838769  1
  Cl  Cl11  1  0.447664  0.828425  0.075173  1
  Cl  Cl12  1  0.552336  0.171575  0.924827  1
  Cl  Cl13  1  0.243203  0.075115  0.438422  1
  Cl  Cl14  1  0.756797  0.924885  0.561578  1
  Cl  Cl15  1  0.778299  0.250038  0.332965  1
  Cl  Cl16  1  0.221701  0.749962  0.667035  1
