# generated using pymatgen
data_Cu2SbIr(RhS4)2
_symmetry_space_group_name_H-M   'P 1'
_cell_length_a   7.13645620
_cell_length_b   7.10337620
_cell_length_c   7.10337658
_cell_angle_alpha   59.84057904
_cell_angle_beta   60.02355941
_cell_angle_gamma   60.02356207
_symmetry_Int_Tables_number   1
_chemical_formula_structural   Cu2SbIr(RhS4)2
_chemical_formula_sum   'Cu2 Sb1 Ir1 Rh2 S8'
_cell_volume   254.40490397
_cell_formula_units_Z   1
loop_
 _symmetry_equiv_pos_site_id
 _symmetry_equiv_pos_as_xyz
  1  'x, y, z'
loop_
 _atom_site_type_symbol
 _atom_site_label
 _atom_site_symmetry_multiplicity
 _atom_site_fract_x
 _atom_site_fract_y
 _atom_site_fract_z
 _atom_site_occupancy
  Cu  Cu0  1  0.372410  0.371227  0.371227  1
  Cu  Cu1  1  0.627590  0.628773  0.628773  1
  Sb  Sb2  1  0.000000  0.000000  0.000000  1
  Ir  Ir3  1  0.500000  0.000000  0.000000  1
  Rh  Rh4  1  0.000000  0.000000  0.500000  1
  Rh  Rh5  1  0.000000  0.500000  0.000000  1
  S  S6  1  0.239526  0.238682  0.238682  1
  S  S7  1  0.772367  0.252418  0.252418  1
  S  S8  1  0.252628  0.251422  0.774530  1
  S  S9  1  0.252628  0.774530  0.251422  1
  S  S10  1  0.760474  0.761318  0.761318  1
  S  S11  1  0.227633  0.747582  0.747582  1
  S  S12  1  0.747372  0.748578  0.225470  1
  S  S13  1  0.747372  0.225470  0.748578  1
