# generated using pymatgen
data_NaHg5F18
_symmetry_space_group_name_H-M   'P 1'
_cell_length_a   8.36559271
_cell_length_b   8.27732801
_cell_length_c   8.61062099
_cell_angle_alpha   89.19622356
_cell_angle_beta   88.37864370
_cell_angle_gamma   116.74517926
_symmetry_Int_Tables_number   1
_chemical_formula_structural   NaHg5F18
_chemical_formula_sum   'Na1 Hg5 F18'
_cell_volume   532.00024388
_cell_formula_units_Z   1
loop_
 _symmetry_equiv_pos_site_id
 _symmetry_equiv_pos_as_xyz
  1  'x, y, z'
loop_
 _atom_site_type_symbol
 _atom_site_label
 _atom_site_symmetry_multiplicity
 _atom_site_fract_x
 _atom_site_fract_y
 _atom_site_fract_z
 _atom_site_occupancy
  Na  Na0  1  0.500000  0.500000  0.000000  1
  Hg  Hg1  1  0.000000  0.500000  0.500000  1
  Hg  Hg2  1  0.000000  0.500000  0.000000  1
  Hg  Hg3  1  0.500000  0.000000  0.500000  1
  Hg  Hg4  1  0.500000  0.000000  0.000000  1
  Hg  Hg5  1  0.500000  0.500000  0.500000  1
  F  F6  1  0.807056  0.573257  0.046603  1
  F  F7  1  0.192944  0.426743  0.953397  1
  F  F8  1  0.187331  0.412894  0.542947  1
  F  F9  1  0.812669  0.587106  0.457053  1
  F  F10  1  0.576633  0.808067  0.958181  1
  F  F11  1  0.423367  0.191933  0.041819  1
  F  F12  1  0.432573  0.211933  0.458980  1
  F  F13  1  0.567427  0.788067  0.541020  1
  F  F14  1  0.804301  0.245122  0.546299  1
  F  F15  1  0.195699  0.754878  0.453701  1
  F  F16  1  0.249383  0.811612  0.055564  1
  F  F17  1  0.750617  0.188388  0.944436  1
  F  F18  1  0.994128  0.424030  0.223548  1
  F  F19  1  0.005872  0.575970  0.776452  1
  F  F20  1  0.417515  0.987545  0.724854  1
  F  F21  1  0.582485  0.012455  0.275146  1
  F  F22  1  0.528338  0.460964  0.728454  1
  F  F23  1  0.471662  0.539036  0.271546  1
