# generated using pymatgen
data_Th4Ge3Pd4Au
_symmetry_space_group_name_H-M   'P 1'
_cell_length_a   4.45594700
_cell_length_b   7.75928062
_cell_length_c   7.86361300
_cell_angle_alpha   90.13526319
_cell_angle_beta   90.00000000
_cell_angle_gamma   90.00000000
_symmetry_Int_Tables_number   1
_chemical_formula_structural   Th4Ge3Pd4Au
_chemical_formula_sum   'Th4 Ge3 Pd4 Au1'
_cell_volume   271.88321527
_cell_formula_units_Z   1
loop_
 _symmetry_equiv_pos_site_id
 _symmetry_equiv_pos_as_xyz
  1  'x, y, z'
loop_
 _atom_site_type_symbol
 _atom_site_label
 _atom_site_symmetry_multiplicity
 _atom_site_fract_x
 _atom_site_fract_y
 _atom_site_fract_z
 _atom_site_occupancy
  Th  Th0  1  0.750000  0.999225  0.747684  1
  Th  Th1  1  0.750000  0.503019  0.749420  1
  Th  Th2  1  0.250000  0.994165  0.254677  1
  Th  Th3  1  0.250000  0.496651  0.247972  1
  Ge  Ge4  1  0.250000  0.724345  0.928379  1
  Ge  Ge5  1  0.250000  0.232416  0.582399  1
  Ge  Ge6  1  0.750000  0.221070  0.080761  1
  Pd  Pd7  1  0.750000  0.781475  0.062714  1
  Pd  Pd8  1  0.250000  0.758991  0.610593  1
  Pd  Pd9  1  0.250000  0.279481  0.914044  1
  Pd  Pd10  1  0.750000  0.270639  0.412215  1
  Au  Au11  1  0.750000  0.738520  0.409141  1
