# generated using pymatgen
data_YEr2Tm(LuPt)4
_symmetry_space_group_name_H-M   'P 1'
_cell_length_a   4.73095900
_cell_length_b   7.07742212
_cell_length_c   8.59140416
_cell_angle_alpha   90.02133042
_cell_angle_beta   90.00000000
_cell_angle_gamma   90.00000000
_symmetry_Int_Tables_number   1
_chemical_formula_structural   YEr2Tm(LuPt)4
_chemical_formula_sum   'Y1 Er2 Tm1 Lu4 Pt4'
_cell_volume   287.66591289
_cell_formula_units_Z   1
loop_
 _symmetry_equiv_pos_site_id
 _symmetry_equiv_pos_as_xyz
  1  'x, y, z'
loop_
 _atom_site_type_symbol
 _atom_site_label
 _atom_site_symmetry_multiplicity
 _atom_site_fract_x
 _atom_site_fract_y
 _atom_site_fract_z
 _atom_site_occupancy
  Y  Y0  1  0.750000  0.513498  0.828091  1
  Er  Er1  1  0.250000  0.985858  0.329087  1
  Er  Er2  1  0.250000  0.485844  0.170904  1
  Tm  Tm3  1  0.750000  0.014063  0.669676  1
  Lu  Lu4  1  0.250000  0.355321  0.575295  1
  Lu  Lu5  1  0.250000  0.855969  0.923708  1
  Lu  Lu6  1  0.750000  0.644736  0.423671  1
  Lu  Lu7  1  0.750000  0.143915  0.076430  1
  Pt  Pt8  1  0.250000  0.252264  0.905002  1
  Pt  Pt9  1  0.250000  0.755137  0.595544  1
  Pt  Pt10  1  0.750000  0.747149  0.098052  1
  Pt  Pt11  1  0.750000  0.246243  0.404543  1
