# generated using pymatgen
data_La2HoTm3(IrO7)2
_symmetry_space_group_name_H-M   'P 1'
_cell_length_a   6.44191612
_cell_length_b   6.44712374
_cell_length_c   7.48516500
_cell_angle_alpha   90.00000000
_cell_angle_beta   90.00000000
_cell_angle_gamma   109.35801842
_symmetry_Int_Tables_number   1
_chemical_formula_structural   La2HoTm3(IrO7)2
_chemical_formula_sum   'La2 Ho1 Tm3 Ir2 O14'
_cell_volume   293.29766433
_cell_formula_units_Z   1
loop_
 _symmetry_equiv_pos_site_id
 _symmetry_equiv_pos_as_xyz
  1  'x, y, z'
loop_
 _atom_site_type_symbol
 _atom_site_label
 _atom_site_symmetry_multiplicity
 _atom_site_fract_x
 _atom_site_fract_y
 _atom_site_fract_z
 _atom_site_occupancy
  La  La0  1  0.999392  0.999709  0.500788  1
  La  La1  1  0.999392  0.999709  0.999212  1
  Ho  Ho2  1  0.060953  0.515030  0.250000  1
  Tm  Tm3  1  0.513915  0.058781  0.250000  1
  Tm  Tm4  1  0.939509  0.486699  0.750000  1
  Tm  Tm5  1  0.486483  0.940700  0.750000  1
  Ir  Ir6  1  0.498786  0.498967  0.500710  1
  Ir  Ir7  1  0.498786  0.498967  0.999290  1
  O  O8  1  0.442944  0.178983  0.534037  1
  O  O9  1  0.820111  0.557324  0.467641  1
  O  O10  1  0.442944  0.178983  0.965963  1
  O  O11  1  0.820111  0.557324  0.032359  1
  O  O12  1  0.555638  0.820119  0.466472  1
  O  O13  1  0.179569  0.441712  0.536241  1
  O  O14  1  0.555638  0.820119  0.033528  1
  O  O15  1  0.179569  0.441712  0.963759  1
  O  O16  1  0.163172  0.878365  0.250000  1
  O  O17  1  0.125511  0.836364  0.750000  1
  O  O18  1  0.836438  0.125724  0.750000  1
  O  O19  1  0.874047  0.161418  0.250000  1
  O  O20  1  0.410572  0.407499  0.250000  1
  O  O21  1  0.596519  0.595791  0.750000  1
