# generated using pymatgen
data_NdIn4PtAu
_symmetry_space_group_name_H-M   'P 1'
_cell_length_a   4.64932600
_cell_length_b   7.43516699
_cell_length_c   18.69540545
_cell_angle_alpha   90.10252459
_cell_angle_beta   90.00000000
_cell_angle_gamma   90.00000000
_symmetry_Int_Tables_number   1
_chemical_formula_structural   NdIn4PtAu
_chemical_formula_sum   'Nd4 In16 Pt4 Au4'
_cell_volume   646.27137273
_cell_formula_units_Z   4
loop_
 _symmetry_equiv_pos_site_id
 _symmetry_equiv_pos_as_xyz
  1  'x, y, z'
loop_
 _atom_site_type_symbol
 _atom_site_label
 _atom_site_symmetry_multiplicity
 _atom_site_fract_x
 _atom_site_fract_y
 _atom_site_fract_z
 _atom_site_occupancy
  Nd  Nd0  1  0.750000  0.973226  0.642624  1
  Nd  Nd1  1  0.250000  0.475131  0.855981  1
  Nd  Nd2  1  0.750000  0.525962  0.143289  1
  Nd  Nd3  1  0.250000  0.023572  0.358368  1
  In  In4  1  0.250000  0.235071  0.191312  1
  In  In5  1  0.250000  0.500623  0.428459  1
  In  In6  1  0.250000  0.006076  0.928374  1
  In  In7  1  0.250000  0.827939  0.189304  1
  In  In8  1  0.250000  0.678051  0.684238  1
  In  In9  1  0.250000  0.258757  0.689489  1
  In  In10  1  0.250000  0.135810  0.534642  1
  In  In11  1  0.750000  0.992566  0.072807  1
  In  In12  1  0.750000  0.167972  0.813898  1
  In  In13  1  0.250000  0.356384  0.035710  1
  In  In14  1  0.750000  0.850660  0.465416  1
  In  In15  1  0.750000  0.642895  0.964968  1
  In  In16  1  0.750000  0.768023  0.811206  1
  In  In17  1  0.750000  0.520344  0.568170  1
  In  In18  1  0.750000  0.328693  0.311676  1
  In  In19  1  0.750000  0.735699  0.309347  1
  Pt  Pt20  1  0.250000  0.963719  0.781486  1
  Pt  Pt21  1  0.750000  0.035004  0.219021  1
  Pt  Pt22  1  0.250000  0.534838  0.281386  1
  Pt  Pt23  1  0.250000  0.750731  0.539268  1
  Au  Au24  1  0.250000  0.749137  0.041100  1
  Au  Au25  1  0.750000  0.248578  0.459471  1
  Au  Au26  1  0.750000  0.250262  0.960318  1
  Au  Au27  1  0.750000  0.464277  0.718672  1
