# generated using pymatgen
data_Nd8SbPd23Pt
_symmetry_space_group_name_H-M   'P 1'
_cell_length_a   8.55510200
_cell_length_b   8.54750800
_cell_length_c   8.54750800
_cell_angle_alpha   90.00000000
_cell_angle_beta   90.00000000
_cell_angle_gamma   90.00000000
_symmetry_Int_Tables_number   1
_chemical_formula_structural   Nd8SbPd23Pt
_chemical_formula_sum   'Nd8 Sb1 Pd23 Pt1'
_cell_volume   625.03483681
_cell_formula_units_Z   1
loop_
 _symmetry_equiv_pos_site_id
 _symmetry_equiv_pos_as_xyz
  1  'x, y, z'
loop_
 _atom_site_type_symbol
 _atom_site_label
 _atom_site_symmetry_multiplicity
 _atom_site_fract_x
 _atom_site_fract_y
 _atom_site_fract_z
 _atom_site_occupancy
  Nd  Nd0  1  0.747923  0.747980  0.252020  1
  Nd  Nd1  1  0.747923  0.252020  0.747980  1
  Nd  Nd2  1  0.252081  0.747730  0.747730  1
  Nd  Nd3  1  0.747923  0.747980  0.747980  1
  Nd  Nd4  1  0.747923  0.252020  0.252020  1
  Nd  Nd5  1  0.252081  0.252270  0.747730  1
  Nd  Nd6  1  0.252081  0.747730  0.252270  1
  Nd  Nd7  1  0.252081  0.252270  0.252270  1
  Sb  Sb8  1  0.000036  0.000000  0.000000  1
  Pd  Pd9  1  0.999931  0.000000  0.310701  1
  Pd  Pd10  1  0.733743  0.000000  0.500000  1
  Pd  Pd11  1  0.733743  0.500000  0.000000  1
  Pd  Pd12  1  0.500085  0.000000  0.733942  1
  Pd  Pd13  1  0.000053  0.733834  0.500000  1
  Pd  Pd14  1  0.500085  0.000000  0.266058  1
  Pd  Pd15  1  0.000053  0.266166  0.500000  1
  Pd  Pd16  1  0.500085  0.733942  0.000000  1
  Pd  Pd17  1  0.499954  0.500000  0.745117  1
  Pd  Pd18  1  0.499954  0.500000  0.254883  1
  Pd  Pd19  1  0.499954  0.254883  0.500000  1
  Pd  Pd20  1  0.499954  0.745117  0.500000  1
  Pd  Pd21  1  0.745217  0.500000  0.500000  1
  Pd  Pd22  1  0.310647  0.000000  0.000000  1
  Pd  Pd23  1  0.999931  0.000000  0.689299  1
  Pd  Pd24  1  0.000053  0.500000  0.266166  1
  Pd  Pd25  1  0.999931  0.310701  0.000000  1
  Pd  Pd26  1  0.999931  0.689299  0.000000  1
  Pd  Pd27  1  0.689465  0.000000  0.000000  1
  Pd  Pd28  1  0.266173  0.500000  0.000000  1
  Pd  Pd29  1  0.266173  0.000000  0.500000  1
  Pd  Pd30  1  0.000053  0.500000  0.733834  1
  Pd  Pd31  1  0.500085  0.266058  0.000000  1
  Pt  Pt32  1  0.254698  0.500000  0.500000  1
