# generated using pymatgen
data_Hf5(GaSb)2
_symmetry_space_group_name_H-M   'P 1'
_cell_length_a   8.52587256
_cell_length_b   8.52587483
_cell_length_c   5.76036000
_cell_angle_alpha   90.00000000
_cell_angle_beta   90.00000000
_cell_angle_gamma   119.84722890
_symmetry_Int_Tables_number   1
_chemical_formula_structural   Hf5(GaSb)2
_chemical_formula_sum   'Hf10 Ga4 Sb4'
_cell_volume   363.18219825
_cell_formula_units_Z   2
loop_
 _symmetry_equiv_pos_site_id
 _symmetry_equiv_pos_as_xyz
  1  'x, y, z'
loop_
 _atom_site_type_symbol
 _atom_site_label
 _atom_site_symmetry_multiplicity
 _atom_site_fract_x
 _atom_site_fract_y
 _atom_site_fract_z
 _atom_site_occupancy
  Hf  Hf0  1  0.733608  0.733608  0.750000  1
  Hf  Hf1  1  0.263646  0.998203  0.750000  1
  Hf  Hf2  1  0.998203  0.263646  0.750000  1
  Hf  Hf3  1  0.270312  0.270312  0.250000  1
  Hf  Hf4  1  0.728962  0.014278  0.250000  1
  Hf  Hf5  1  0.014278  0.728962  0.250000  1
  Hf  Hf6  1  0.667486  0.329678  0.004820  1
  Hf  Hf7  1  0.329678  0.667486  0.004820  1
  Hf  Hf8  1  0.329678  0.667486  0.495180  1
  Hf  Hf9  1  0.667486  0.329678  0.495180  1
  Ga  Ga10  1  0.998178  0.998178  0.012653  1
  Ga  Ga11  1  0.998178  0.998178  0.487347  1
  Ga  Ga12  1  0.387625  0.002873  0.250000  1
  Ga  Ga13  1  0.002873  0.387625  0.250000  1
  Sb  Sb14  1  0.389289  0.389289  0.750000  1
  Sb  Sb15  1  0.605286  0.998547  0.750000  1
  Sb  Sb16  1  0.998547  0.605286  0.750000  1
  Sb  Sb17  1  0.616686  0.616686  0.250000  1
