# generated using pymatgen
data_Ac8Mn(CrN4)3
_symmetry_space_group_name_H-M   'P 1'
_cell_length_a   6.42150262
_cell_length_b   6.42150328
_cell_length_c   12.54871929
_cell_angle_alpha   89.84441529
_cell_angle_beta   90.15558666
_cell_angle_gamma   127.39042997
_symmetry_Int_Tables_number   1
_chemical_formula_structural   Ac8Mn(CrN4)3
_chemical_formula_sum   'Ac8 Mn1 Cr3 N12'
_cell_volume   411.12460017
_cell_formula_units_Z   1
loop_
 _symmetry_equiv_pos_site_id
 _symmetry_equiv_pos_as_xyz
  1  'x, y, z'
loop_
 _atom_site_type_symbol
 _atom_site_label
 _atom_site_symmetry_multiplicity
 _atom_site_fract_x
 _atom_site_fract_y
 _atom_site_fract_z
 _atom_site_occupancy
  Ac  Ac0  1  0.565419  0.434581  0.649746  1
  Ac  Ac1  1  0.437806  0.562194  0.358538  1
  Ac  Ac2  1  0.939707  0.060293  0.144170  1
  Ac  Ac3  1  0.057893  0.942107  0.859774  1
  Ac  Ac4  1  0.858949  0.141051  0.576705  1
  Ac  Ac5  1  0.141608  0.858392  0.424278  1
  Ac  Ac6  1  0.643238  0.356762  0.072227  1
  Ac  Ac7  1  0.354746  0.645254  0.919959  1
  Mn  Mn8  1  0.741734  0.258266  0.840676  1
  Cr  Cr9  1  0.261317  0.738683  0.162580  1
  Cr  Cr10  1  0.758850  0.241150  0.338192  1
  Cr  Cr11  1  0.238528  0.761472  0.661020  1
  N  N12  1  0.852412  0.147588  0.961577  1
  N  N13  1  0.155013  0.844987  0.047933  1
  N  N14  1  0.655701  0.344299  0.456405  1
  N  N15  1  0.342025  0.657975  0.543578  1
  N  N16  1  0.567895  0.432105  0.869098  1
  N  N17  1  0.423857  0.576143  0.129920  1
  N  N18  1  0.923956  0.076044  0.370348  1
  N  N19  1  0.075877  0.924123  0.629224  1
  N  N20  1  0.507953  0.991164  0.741730  1
  N  N21  1  0.994161  0.507481  0.250296  1
  N  N22  1  0.492519  0.005839  0.250296  1
  N  N23  1  0.008836  0.492047  0.741730  1
