# generated using pymatgen
data_ErCo2O5
_symmetry_space_group_name_H-M   'P 1'
_cell_length_a   5.60612000
_cell_length_b   7.16309400
_cell_length_c   8.43100100
_cell_angle_alpha   90.00000000
_cell_angle_beta   90.00000000
_cell_angle_gamma   90.00000000
_symmetry_Int_Tables_number   1
_chemical_formula_structural   ErCo2O5
_chemical_formula_sum   'Er4 Co8 O20'
_cell_volume   338.56509435
_cell_formula_units_Z   4
loop_
 _symmetry_equiv_pos_site_id
 _symmetry_equiv_pos_as_xyz
  1  'x, y, z'
loop_
 _atom_site_type_symbol
 _atom_site_label
 _atom_site_symmetry_multiplicity
 _atom_site_fract_x
 _atom_site_fract_y
 _atom_site_fract_z
 _atom_site_occupancy
  Er  Er0  1  0.000000  0.141632  0.173532  1
  Er  Er1  1  0.000000  0.858368  0.826468  1
  Er  Er2  1  0.000000  0.641632  0.326468  1
  Er  Er3  1  0.000000  0.358368  0.673532  1
  Co  Co4  1  0.255679  0.000000  0.500000  1
  Co  Co5  1  0.744321  0.500000  0.000000  1
  Co  Co6  1  0.744321  0.000000  0.500000  1
  Co  Co7  1  0.255679  0.500000  0.000000  1
  Co  Co8  1  0.500000  0.403949  0.353109  1
  Co  Co9  1  0.500000  0.596051  0.646891  1
  Co  Co10  1  0.500000  0.903949  0.146891  1
  Co  Co11  1  0.500000  0.096051  0.853109  1
  O  O12  1  0.273206  0.000000  0.000000  1
  O  O13  1  0.726794  0.500000  0.500000  1
  O  O14  1  0.726794  0.000000  0.000000  1
  O  O15  1  0.273206  0.500000  0.500000  1
  O  O16  1  0.000000  0.163571  0.446865  1
  O  O17  1  0.000000  0.836429  0.553135  1
  O  O18  1  0.000000  0.663571  0.053135  1
  O  O19  1  0.000000  0.336429  0.946865  1
  O  O20  1  0.500000  0.154971  0.441885  1
  O  O21  1  0.500000  0.845029  0.558115  1
  O  O22  1  0.500000  0.654971  0.058115  1
  O  O23  1  0.500000  0.345029  0.941885  1
  O  O24  1  0.243491  0.401906  0.211482  1
  O  O25  1  0.243491  0.598094  0.788518  1
  O  O26  1  0.756509  0.901906  0.288518  1
  O  O27  1  0.756509  0.098094  0.711482  1
  O  O28  1  0.756509  0.598094  0.788518  1
  O  O29  1  0.756509  0.401906  0.211482  1
  O  O30  1  0.243491  0.098094  0.711482  1
  O  O31  1  0.243491  0.901906  0.288518  1
