# generated using pymatgen
data_LaYAl2(WO6)2
_symmetry_space_group_name_H-M   'P 1'
_cell_length_a   5.31576915
_cell_length_b   7.40137036
_cell_length_c   10.83184300
_cell_angle_alpha   90.00000000
_cell_angle_beta   90.00000000
_cell_angle_gamma   90.07240035
_symmetry_Int_Tables_number   1
_chemical_formula_structural   LaYAl2(WO6)2
_chemical_formula_sum   'La2 Y2 Al4 W4 O24'
_cell_volume   426.16743350
_cell_formula_units_Z   2
loop_
 _symmetry_equiv_pos_site_id
 _symmetry_equiv_pos_as_xyz
  1  'x, y, z'
loop_
 _atom_site_type_symbol
 _atom_site_label
 _atom_site_symmetry_multiplicity
 _atom_site_fract_x
 _atom_site_fract_y
 _atom_site_fract_z
 _atom_site_occupancy
  La  La0  1  0.540428  0.252160  0.041659  1
  La  La1  1  0.040427  0.752160  0.458342  1
  Y  Y2  1  0.949319  0.251569  0.545830  1
  Y  Y3  1  0.449318  0.751569  0.954170  1
  Al  Al4  1  0.043897  0.995542  0.135591  1
  Al  Al5  1  0.543897  0.495542  0.364409  1
  Al  Al6  1  0.453830  0.000377  0.638330  1
  Al  Al7  1  0.953831  0.500377  0.861670  1
  W  W8  1  0.050517  0.509043  0.143270  1
  W  W9  1  0.550517  0.009042  0.356729  1
  W  W10  1  0.447089  0.502159  0.646075  1
  W  W11  1  0.947090  0.002158  0.853925  1
  O  O12  1  0.768236  0.957327  0.021822  1
  O  O13  1  0.770415  0.547737  0.021812  1
  O  O14  1  0.163155  0.755763  0.123237  1
  O  O15  1  0.965472  0.253308  0.138201  1
  O  O16  1  0.365541  0.450351  0.218294  1
  O  O17  1  0.356178  0.057225  0.217300  1
  O  O18  1  0.856179  0.557225  0.282700  1
  O  O19  1  0.865542  0.950351  0.281706  1
  O  O20  1  0.465472  0.753309  0.361799  1
  O  O21  1  0.663156  0.255763  0.376764  1
  O  O22  1  0.270414  0.047737  0.478188  1
  O  O23  1  0.268237  0.457327  0.478178  1
  O  O24  1  0.730987  0.973581  0.526009  1
  O  O25  1  0.727920  0.530907  0.524827  1
  O  O26  1  0.357873  0.752528  0.624764  1
  O  O27  1  0.554007  0.250456  0.649269  1
  O  O28  1  0.123412  0.442910  0.711703  1
  O  O29  1  0.131720  0.057258  0.710008  1
  O  O30  1  0.631721  0.557258  0.789992  1
  O  O31  1  0.623413  0.942910  0.788297  1
  O  O32  1  0.054006  0.750457  0.850731  1
  O  O33  1  0.857872  0.252528  0.875237  1
  O  O34  1  0.227921  0.030907  0.975173  1
  O  O35  1  0.230987  0.473581  0.973991  1
