# generated using pymatgen
data_PrNd5Al4(SnAu2)6
_symmetry_space_group_name_H-M   'P 1'
_cell_length_a   4.54709400
_cell_length_b   10.04866000
_cell_length_c   13.70877200
_cell_angle_alpha   90.00000000
_cell_angle_beta   90.00000000
_cell_angle_gamma   90.00000000
_symmetry_Int_Tables_number   1
_chemical_formula_structural   PrNd5Al4(SnAu2)6
_chemical_formula_sum   'Pr1 Nd5 Al4 Sn6 Au12'
_cell_volume   626.38397383
_cell_formula_units_Z   1
loop_
 _symmetry_equiv_pos_site_id
 _symmetry_equiv_pos_as_xyz
  1  'x, y, z'
loop_
 _atom_site_type_symbol
 _atom_site_label
 _atom_site_symmetry_multiplicity
 _atom_site_fract_x
 _atom_site_fract_y
 _atom_site_fract_z
 _atom_site_occupancy
  Pr  Pr0  1  0.500000  0.260737  0.000000  1
  Nd  Nd1  1  0.000000  0.742150  0.809559  1
  Nd  Nd2  1  0.000000  0.742150  0.190441  1
  Nd  Nd3  1  0.500000  0.257885  0.690384  1
  Nd  Nd4  1  0.500000  0.257885  0.309616  1
  Nd  Nd5  1  0.000000  0.739016  0.500000  1
  Al  Al6  1  0.000000  0.393464  0.831560  1
  Al  Al7  1  0.000000  0.393464  0.168440  1
  Al  Al8  1  0.500000  0.606600  0.668306  1
  Al  Al9  1  0.500000  0.606600  0.331694  1
  Sn  Sn10  1  0.000000  0.018609  0.355371  1
  Sn  Sn11  1  0.000000  0.018609  0.644629  1
  Sn  Sn12  1  0.500000  0.981121  0.144807  1
  Sn  Sn13  1  0.500000  0.981121  0.855193  1
  Sn  Sn14  1  0.000000  0.275623  0.500000  1
  Sn  Sn15  1  0.500000  0.724385  0.000000  1
  Au  Au16  1  0.000000  0.143345  0.841558  1
  Au  Au17  1  0.000000  0.143345  0.158442  1
  Au  Au18  1  0.500000  0.856507  0.658153  1
  Au  Au19  1  0.500000  0.856507  0.341847  1
  Au  Au20  1  0.000000  0.506194  0.000000  1
  Au  Au21  1  0.500000  0.494232  0.500000  1
  Au  Au22  1  0.000000  0.479474  0.350911  1
  Au  Au23  1  0.000000  0.479474  0.649089  1
  Au  Au24  1  0.500000  0.520774  0.149217  1
  Au  Au25  1  0.500000  0.520774  0.850783  1
  Au  Au26  1  0.000000  0.933390  0.000000  1
  Au  Au27  1  0.500000  0.066564  0.500000  1
