# generated using pymatgen
data_Y2Ho6Re(B8Ir)3
_symmetry_space_group_name_H-M   'P 1'
_cell_length_a   3.65702400
_cell_length_b   9.17959927
_cell_length_c   11.51347600
_cell_angle_alpha   90.12251511
_cell_angle_beta   90.00000000
_cell_angle_gamma   90.00000000
_symmetry_Int_Tables_number   1
_chemical_formula_structural   Y2Ho6Re(B8Ir)3
_chemical_formula_sum   'Y2 Ho6 Re1 B24 Ir3'
_cell_volume   386.50667661
_cell_formula_units_Z   1
loop_
 _symmetry_equiv_pos_site_id
 _symmetry_equiv_pos_as_xyz
  1  'x, y, z'
loop_
 _atom_site_type_symbol
 _atom_site_label
 _atom_site_symmetry_multiplicity
 _atom_site_fract_x
 _atom_site_fract_y
 _atom_site_fract_z
 _atom_site_occupancy
  Y  Y0  1  0.000000  0.321090  0.413404  1
  Y  Y1  1  0.000000  0.682762  0.590712  1
  Ho  Ho2  1  0.000000  0.821188  0.082825  1
  Ho  Ho3  1  0.000000  0.175438  0.912062  1
  Ho  Ho4  1  0.000000  0.943842  0.373068  1
  Ho  Ho5  1  0.000000  0.053825  0.626247  1
  Ho  Ho6  1  0.000000  0.443647  0.125910  1
  Ho  Ho7  1  0.000000  0.557172  0.875310  1
  Re  Re8  1  0.000000  0.862657  0.821709  1
  B  B9  1  0.500000  0.553486  0.433910  1
  B  B10  1  0.500000  0.447627  0.566964  1
  B  B11  1  0.500000  0.053098  0.066355  1
  B  B12  1  0.500000  0.946926  0.933249  1
  B  B13  1  0.500000  0.750099  0.420360  1
  B  B14  1  0.500000  0.250814  0.579299  1
  B  B15  1  0.500000  0.248547  0.078829  1
  B  B16  1  0.500000  0.752454  0.920239  1
  B  B17  1  0.500000  0.792066  0.265393  1
  B  B18  1  0.500000  0.207820  0.733114  1
  B  B19  1  0.500000  0.292655  0.234263  1
  B  B20  1  0.500000  0.708269  0.766861  1
  B  B21  1  0.500000  0.631506  0.184711  1
  B  B22  1  0.500000  0.367877  0.815515  1
  B  B23  1  0.500000  0.132171  0.314982  1
  B  B24  1  0.500000  0.868821  0.686038  1
  B  B25  1  0.500000  0.981812  0.212683  1
  B  B26  1  0.500000  0.017219  0.786641  1
  B  B27  1  0.500000  0.481664  0.287161  1
  B  B28  1  0.500000  0.517687  0.714439  1
  B  B29  1  0.500000  0.610180  0.031782  1
  B  B30  1  0.500000  0.387433  0.969624  1
  B  B31  1  0.500000  0.110463  0.468878  1
  B  B32  1  0.500000  0.890533  0.529043  1
  Ir  Ir33  1  0.000000  0.637449  0.322391  1
  Ir  Ir34  1  0.000000  0.362514  0.678226  1
  Ir  Ir35  1  0.000000  0.137192  0.177805  1
