# generated using pymatgen
data_Tb3Lu2In2Sb
_symmetry_space_group_name_H-M   'P 1'
_cell_length_a   8.95863003
_cell_length_b   8.92119878
_cell_length_c   6.52794900
_cell_angle_alpha   90.00000000
_cell_angle_beta   90.00000000
_cell_angle_gamma   119.86187768
_symmetry_Int_Tables_number   1
_chemical_formula_structural   Tb3Lu2In2Sb
_chemical_formula_sum   'Tb6 Lu4 In4 Sb2'
_cell_volume   452.45456850
_cell_formula_units_Z   2
loop_
 _symmetry_equiv_pos_site_id
 _symmetry_equiv_pos_as_xyz
  1  'x, y, z'
loop_
 _atom_site_type_symbol
 _atom_site_label
 _atom_site_symmetry_multiplicity
 _atom_site_fract_x
 _atom_site_fract_y
 _atom_site_fract_z
 _atom_site_occupancy
  Tb  Tb0  1  0.003304  0.764742  0.750000  1
  Tb  Tb1  1  0.003304  0.238561  0.250000  1
  Tb  Tb2  1  0.762724  0.758847  0.250000  1
  Tb  Tb3  1  0.762724  0.003877  0.750000  1
  Tb  Tb4  1  0.236467  0.237532  0.750000  1
  Tb  Tb5  1  0.236467  0.998935  0.250000  1
  Lu  Lu6  1  0.330020  0.665010  0.500000  1
  Lu  Lu7  1  0.665959  0.332979  0.000000  1
  Lu  Lu8  1  0.665959  0.332979  0.500000  1
  Lu  Lu9  1  0.330020  0.665010  0.000000  1
  In  In10  1  0.399751  0.000460  0.750000  1
  In  In11  1  0.399751  0.399292  0.250000  1
  In  In12  1  0.998494  0.596130  0.250000  1
  In  In13  1  0.998494  0.402364  0.750000  1
  Sb  Sb14  1  0.603281  0.604667  0.750000  1
  Sb  Sb15  1  0.603281  0.998614  0.250000  1
