# generated using pymatgen
data_Ba8ReIr2WO20
_symmetry_space_group_name_H-M   'P 1'
_cell_length_a   5.77930000
_cell_length_b   7.49711884
_cell_length_c   11.72965706
_cell_angle_alpha   89.64643094
_cell_angle_beta   90.00000000
_cell_angle_gamma   90.00000000
_symmetry_Int_Tables_number   1
_chemical_formula_structural   Ba8ReIr2WO20
_chemical_formula_sum   'Ba8 Re1 Ir2 W1 O20'
_cell_volume   508.21406450
_cell_formula_units_Z   1
loop_
 _symmetry_equiv_pos_site_id
 _symmetry_equiv_pos_as_xyz
  1  'x, y, z'
loop_
 _atom_site_type_symbol
 _atom_site_label
 _atom_site_symmetry_multiplicity
 _atom_site_fract_x
 _atom_site_fract_y
 _atom_site_fract_z
 _atom_site_occupancy
  Ba  Ba0  1  0.750000  0.484224  0.282315  1
  Ba  Ba1  1  0.250000  0.530123  0.712323  1
  Ba  Ba2  1  0.750000  0.982200  0.212286  1
  Ba  Ba3  1  0.250000  0.023625  0.789737  1
  Ba  Ba4  1  0.750000  0.153055  0.586233  1
  Ba  Ba5  1  0.250000  0.826944  0.420675  1
  Ba  Ba6  1  0.750000  0.656846  0.918459  1
  Ba  Ba7  1  0.250000  0.328363  0.075347  1
  Re  Re8  1  0.250000  0.329012  0.437969  1
  Ir  Ir9  1  0.750000  0.169584  0.938236  1
  Ir  Ir10  1  0.750000  0.668614  0.558909  1
  W  W11  1  0.250000  0.827058  0.066518  1
  O  O12  1  0.483749  0.179806  0.388989  1
  O  O13  1  0.992367  0.825285  0.612655  1
  O  O14  1  0.008508  0.678207  0.118014  1
  O  O15  1  0.507548  0.322925  0.882889  1
  O  O16  1  0.507633  0.825285  0.612655  1
  O  O17  1  0.016251  0.179806  0.388989  1
  O  O18  1  0.992452  0.322925  0.882889  1
  O  O19  1  0.491492  0.678207  0.118014  1
  O  O20  1  0.491651  0.497405  0.496529  1
  O  O21  1  0.008349  0.497405  0.496529  1
  O  O22  1  0.003715  0.001332  0.001839  1
  O  O23  1  0.496285  0.001332  0.001839  1
  O  O24  1  0.750000  0.287840  0.090794  1
  O  O25  1  0.250000  0.719946  0.912012  1
  O  O26  1  0.750000  0.783863  0.405229  1
  O  O27  1  0.250000  0.225579  0.588825  1
  O  O28  1  0.750000  0.025577  0.804300  1
  O  O29  1  0.250000  0.974907  0.198626  1
  O  O30  1  0.750000  0.526204  0.693994  1
  O  O31  1  0.250000  0.466512  0.305380  1
