# generated using pymatgen
data_Na3Cr3(PO4)4
_symmetry_space_group_name_H-M   'P 1'
_cell_length_a   6.36762200
_cell_length_b   10.13567909
_cell_length_c   10.52435500
_cell_angle_alpha   91.77505655
_cell_angle_beta   90.00000000
_cell_angle_gamma   108.30764647
_symmetry_Int_Tables_number   1
_chemical_formula_structural   Na3Cr3(PO4)4
_chemical_formula_sum   'Na6 Cr6 P8 O32'
_cell_volume   644.51947143
_cell_formula_units_Z   2
loop_
 _symmetry_equiv_pos_site_id
 _symmetry_equiv_pos_as_xyz
  1  'x, y, z'
loop_
 _atom_site_type_symbol
 _atom_site_label
 _atom_site_symmetry_multiplicity
 _atom_site_fract_x
 _atom_site_fract_y
 _atom_site_fract_z
 _atom_site_occupancy
  Na  Na0  1  0.774746  0.830319  0.027233  1
  Na  Na1  1  0.356497  0.000000  0.250000  1
  Na  Na2  1  0.944428  0.169681  0.472767  1
  Na  Na3  1  0.055572  0.830319  0.527233  1
  Na  Na4  1  0.643503  0.000000  0.750000  1
  Na  Na5  1  0.225253  0.169680  0.972767  1
  Cr  Cr6  1  0.000000  0.500000  0.000000  1
  Cr  Cr7  1  0.682362  0.313231  0.249197  1
  Cr  Cr8  1  0.369132  0.686770  0.250803  1
  Cr  Cr9  1  0.500000  0.500000  0.500000  1
  Cr  Cr10  1  0.630868  0.313230  0.749198  1
  Cr  Cr11  1  0.317638  0.686770  0.750802  1
  P  P12  1  0.251266  0.831313  0.008988  1
  P  P13  1  0.223105  0.400234  0.241638  1
  P  P14  1  0.822872  0.599766  0.258362  1
  P  P15  1  0.419952  0.168686  0.491013  1
  P  P16  1  0.580048  0.831313  0.508988  1
  P  P17  1  0.177129  0.400234  0.741638  1
  P  P18  1  0.776895  0.599766  0.758362  1
  P  P19  1  0.748734  0.168687  0.991012  1
  O  O20  1  0.042400  0.699484  0.006292  1
  O  O21  1  0.177847  0.955043  0.046605  1
  O  O22  1  0.421403  0.814578  0.110444  1
  O  O23  1  0.632808  0.158501  0.122324  1
  O  O24  1  0.237676  0.509547  0.133821  1
  O  O25  1  0.799958  0.486953  0.145962  1
  O  O26  1  0.369341  0.310061  0.209880  1
  O  O27  1  0.682358  0.690887  0.225294  1
  O  O28  1  0.991473  0.309113  0.274706  1
  O  O29  1  0.059279  0.689938  0.290119  1
  O  O30  1  0.313005  0.513047  0.354039  1
  O  O31  1  0.728129  0.490452  0.366179  1
  O  O32  1  0.474306  0.841499  0.377676  1
  O  O33  1  0.606826  0.185422  0.389557  1
  O  O34  1  0.222804  0.044957  0.453396  1
  O  O35  1  0.342915  0.300515  0.493708  1
  O  O36  1  0.657085  0.699484  0.506292  1
  O  O37  1  0.777196  0.955043  0.546605  1
  O  O38  1  0.393174  0.814578  0.610444  1
  O  O39  1  0.525693  0.158501  0.622324  1
  O  O40  1  0.271871  0.509548  0.633821  1
  O  O41  1  0.686995  0.486953  0.645962  1
  O  O42  1  0.940721  0.310062  0.709881  1
  O  O43  1  0.008529  0.690887  0.725294  1
  O  O44  1  0.317641  0.309113  0.774706  1
  O  O45  1  0.630658  0.689938  0.790119  1
  O  O46  1  0.200042  0.513047  0.854038  1
  O  O47  1  0.762324  0.490452  0.866179  1
  O  O48  1  0.367192  0.841499  0.877676  1
  O  O49  1  0.578597  0.185422  0.889556  1
  O  O50  1  0.822153  0.044957  0.953395  1
  O  O51  1  0.957600  0.300516  0.993709  1
