# generated using pymatgen
data_HoPa3(GePt)4
_symmetry_space_group_name_H-M   'P 1'
_cell_length_a   4.40501900
_cell_length_b   7.03136833
_cell_length_c   7.66547436
_cell_angle_alpha   89.96499080
_cell_angle_beta   90.00000000
_cell_angle_gamma   90.00000000
_symmetry_Int_Tables_number   1
_chemical_formula_structural   HoPa3(GePt)4
_chemical_formula_sum   'Ho1 Pa3 Ge4 Pt4'
_cell_volume   237.42507755
_cell_formula_units_Z   1
loop_
 _symmetry_equiv_pos_site_id
 _symmetry_equiv_pos_as_xyz
  1  'x, y, z'
loop_
 _atom_site_type_symbol
 _atom_site_label
 _atom_site_symmetry_multiplicity
 _atom_site_fract_x
 _atom_site_fract_y
 _atom_site_fract_z
 _atom_site_occupancy
  Ho  Ho0  1  0.750000  0.003045  0.202748  1
  Pa  Pa1  1  0.250000  0.494176  0.705253  1
  Pa  Pa2  1  0.250000  0.995898  0.794099  1
  Pa  Pa3  1  0.750000  0.502939  0.296902  1
  Ge  Ge4  1  0.250000  0.804148  0.408640  1
  Ge  Ge5  1  0.250000  0.307192  0.092068  1
  Ge  Ge6  1  0.750000  0.193667  0.588261  1
  Ge  Ge7  1  0.750000  0.693400  0.911791  1
  Pt  Pt8  1  0.250000  0.209621  0.417835  1
  Pt  Pt9  1  0.250000  0.713895  0.082710  1
  Pt  Pt10  1  0.750000  0.789169  0.583142  1
  Pt  Pt11  1  0.750000  0.292850  0.916552  1
