# generated using pymatgen
data_Ba14InSb11
_symmetry_space_group_name_H-M   'P 1'
_cell_length_a   17.94240912
_cell_length_b   17.94240996
_cell_length_c   17.94241000
_cell_angle_alpha   117.77309710
_cell_angle_beta   117.77309850
_cell_angle_gamma   93.90242304
_symmetry_Int_Tables_number   1
_chemical_formula_structural   Ba14InSb11
_chemical_formula_sum   'Ba56 In4 Sb44'
_cell_volume   4211.30316161
_cell_formula_units_Z   4
loop_
 _symmetry_equiv_pos_site_id
 _symmetry_equiv_pos_as_xyz
  1  'x, y, z'
loop_
 _atom_site_type_symbol
 _atom_site_label
 _atom_site_symmetry_multiplicity
 _atom_site_fract_x
 _atom_site_fract_y
 _atom_site_fract_z
 _atom_site_occupancy
  Ba  Ba0  1  0.350468  0.688417  0.975835  1
  Ba  Ba1  1  0.938339  0.100489  0.475843  1
  Ba  Ba2  1  0.776023  0.498279  0.367467  1
  Ba  Ba3  1  0.125053  0.521373  0.896537  1
  Ba  Ba4  1  0.625165  0.228627  0.103680  1
  Ba  Ba5  1  0.712666  0.374536  0.024040  1
  Ba  Ba6  1  0.001645  0.723955  0.632527  1
  Ba  Ba7  1  0.850496  0.874536  0.661870  1
  Ba  Ba8  1  0.124646  0.600489  0.162150  1
  Ba  Ba9  1  0.496169  0.144282  0.394976  1
  Ba  Ba10  1  0.894144  0.999093  0.147977  1
  Ba  Ba11  1  0.355691  0.003794  0.604856  1
  Ba  Ba12  1  0.973977  0.751721  0.132533  1
  Ba  Ba13  1  0.037334  0.875464  0.475960  1
  Ba  Ba14  1  0.537418  0.061583  0.162051  1
  Ba  Ba15  1  0.473957  0.341377  0.222386  1
  Ba  Ba16  1  0.398884  0.750907  0.395052  1
  Ba  Ba17  1  0.394309  0.246206  0.895144  1
  Ba  Ba18  1  0.899504  0.375464  0.838130  1
  Ba  Ba19  1  0.351116  0.499093  0.104948  1
  Ba  Ba20  1  0.478684  0.375000  0.603684  1
  Ba  Ba21  1  0.438411  0.962640  0.837988  1
  Ba  Ba22  1  0.630812  0.998279  0.722256  1
  Ba  Ba23  1  0.753809  0.648816  0.147984  1
  Ba  Ba24  1  0.311589  0.287360  0.662012  1
  Ba  Ba25  1  0.125348  0.787360  0.975771  1
  Ba  Ba26  1  0.248252  0.380841  0.222243  1
  Ba  Ba27  1  0.500694  0.605718  0.851887  1
  Ba  Ba28  1  0.811661  0.149511  0.024157  1
  Ba  Ba29  1  0.771253  0.875000  0.396253  1
  Ba  Ba30  1  0.658599  0.880841  0.132589  1
  Ba  Ba31  1  0.158574  0.026045  0.777690  1
  Ba  Ba32  1  0.996191  0.601184  0.352016  1
  Ba  Ba33  1  0.591426  0.223955  0.722310  1
  Ba  Ba34  1  0.851061  0.746206  0.851896  1
  Ba  Ba35  1  0.618992  0.841377  0.867421  1
  Ba  Ba36  1  0.624652  0.462640  0.524229  1
  Ba  Ba37  1  0.271316  0.875000  0.896316  1
  Ba  Ba38  1  0.276043  0.908623  0.277614  1
  Ba  Ba39  1  0.748355  0.526045  0.867473  1
  Ba  Ba40  1  0.898939  0.503794  0.648104  1
  Ba  Ba41  1  0.124835  0.021373  0.396320  1
  Ba  Ba42  1  0.249306  0.644282  0.648113  1
  Ba  Ba43  1  0.749168  0.101184  0.604993  1
  Ba  Ba44  1  0.978747  0.375000  0.103747  1
  Ba  Ba45  1  0.000832  0.148816  0.895007  1
  Ba  Ba46  1  0.212582  0.188417  0.337949  1
  Ba  Ba47  1  0.624947  0.728627  0.603463  1
  Ba  Ba48  1  0.855856  0.250907  0.352023  1
  Ba  Ba49  1  0.119188  0.251721  0.777744  1
  Ba  Ba50  1  0.501748  0.869159  0.277757  1
  Ba  Ba51  1  0.131008  0.408623  0.632579  1
  Ba  Ba52  1  0.625354  0.649511  0.337850  1
  Ba  Ba53  1  0.253831  0.105718  0.105024  1
  Ba  Ba54  1  0.091401  0.369159  0.367411  1
  Ba  Ba55  1  0.399532  0.561583  0.524165  1
  In  In56  1  0.500109  0.499592  0.000041  1
  In  In57  1  0.750449  0.250408  0.500517  1
  In  In58  1  0.249891  0.750408  0.499959  1
  In  In59  1  0.999551  0.999592  0.999483  1
  Sb  Sb60  1  0.896905  0.540242  0.093436  1
  Sb  Sb61  1  0.448408  0.809143  0.632836  1
  Sb  Sb62  1  0.853095  0.709758  0.406564  1
  Sb  Sb63  1  0.690790  0.051591  0.367180  1
  Sb  Sb64  1  0.553341  0.146836  0.856513  1
  Sb  Sb65  1  0.559262  0.426457  0.860780  1
  Sb  Sb66  1  0.879719  0.879702  0.259458  1
  Sb  Sb67  1  0.803192  0.209758  0.856662  1
  Sb  Sb68  1  0.499923  0.000161  0.500034  1
  Sb  Sb69  1  0.676307  0.309143  0.360735  1
  Sb  Sb70  1  0.073693  0.940857  0.139265  1
  Sb  Sb71  1  0.290392  0.696910  0.143525  1
  Sb  Sb72  1  0.573728  0.434434  0.132897  1
  Sb  Sb73  1  0.196659  0.103164  0.643487  1
  Sb  Sb74  1  0.749873  0.749839  0.999763  1
  Sb  Sb75  1  0.120243  0.379702  0.999983  1
  Sb  Sb76  1  0.065677  0.926457  0.867195  1
  Sb  Sb77  1  0.176272  0.815566  0.367103  1
  Sb  Sb78  1  0.801536  0.934434  0.860706  1
  Sb  Sb79  1  0.459608  0.553090  0.356475  1
  Sb  Sb80  1  0.190738  0.823543  0.639220  1
  Sb  Sb81  1  0.946808  0.040242  0.643338  1
  Sb  Sb82  1  0.250077  0.249839  0.999966  1
  Sb  Sb83  1  0.059210  0.198409  0.132820  1
  Sb  Sb84  1  0.129726  0.629679  0.759298  1
  Sb  Sb85  1  0.184411  0.551591  0.360802  1
  Sb  Sb86  1  0.959679  0.603164  0.906506  1
  Sb  Sb87  1  0.565589  0.698409  0.139198  1
  Sb  Sb88  1  0.303183  0.446572  0.593399  1
  Sb  Sb89  1  0.870281  0.370298  0.240542  1
  Sb  Sb90  1  0.620274  0.620321  0.740702  1
  Sb  Sb91  1  0.353173  0.946572  0.143389  1
  Sb  Sb92  1  0.370380  0.129679  0.499953  1
  Sb  Sb93  1  0.396827  0.303428  0.356611  1
  Sb  Sb94  1  0.301592  0.440857  0.867164  1
  Sb  Sb95  1  0.696616  0.053090  0.093483  1
  Sb  Sb96  1  0.446817  0.803428  0.906601  1
  Sb  Sb97  1  0.629757  0.870298  0.500017  1
  Sb  Sb98  1  0.000127  0.500161  0.500237  1
  Sb  Sb99  1  0.379620  0.120321  0.000047  1
  Sb  Sb100  1  0.948464  0.315566  0.639294  1
  Sb  Sb101  1  0.053384  0.196910  0.406517  1
  Sb  Sb102  1  0.684323  0.323543  0.632805  1
  Sb  Sb103  1  0.790321  0.646836  0.593494  1
