# generated using pymatgen
data_Mg5Si16Pd7RuPt2
_symmetry_space_group_name_H-M   'P 1'
_cell_length_a   8.92406052
_cell_length_b   8.92955224
_cell_length_c   8.94776068
_cell_angle_alpha   59.89189613
_cell_angle_beta   59.95276432
_cell_angle_gamma   60.13807098
_symmetry_Int_Tables_number   1
_chemical_formula_structural   Mg5Si16Pd7RuPt2
_chemical_formula_sum   'Mg5 Si16 Pd7 Ru1 Pt2'
_cell_volume   504.11603370
_cell_formula_units_Z   1
loop_
 _symmetry_equiv_pos_site_id
 _symmetry_equiv_pos_as_xyz
  1  'x, y, z'
loop_
 _atom_site_type_symbol
 _atom_site_label
 _atom_site_symmetry_multiplicity
 _atom_site_fract_x
 _atom_site_fract_y
 _atom_site_fract_z
 _atom_site_occupancy
  Mg  Mg0  1  0.197896  0.603016  0.599490  1
  Mg  Mg1  1  0.600062  0.600170  0.200686  1
  Mg  Mg2  1  0.600170  0.600062  0.599081  1
  Mg  Mg3  1  0.603016  0.197896  0.599599  1
  Mg  Mg4  1  0.245128  0.245128  0.254872  1
  Si  Si5  1  0.205391  0.662793  0.204608  1
  Si  Si6  1  0.928088  0.664839  0.203685  1
  Si  Si7  1  0.200616  0.200646  0.666718  1
  Si  Si8  1  0.662660  0.205739  0.204858  1
  Si  Si9  1  0.925971  0.199415  0.660066  1
  Si  Si10  1  0.205739  0.662660  0.926744  1
  Si  Si11  1  0.925496  0.199659  0.214975  1
  Si  Si12  1  0.664839  0.928088  0.203386  1
  Si  Si13  1  0.199415  0.925971  0.214549  1
  Si  Si14  1  0.199659  0.925496  0.659869  1
  Si  Si15  1  0.536821  0.822629  0.820895  1
  Si  Si16  1  0.829153  0.829879  0.813000  1
  Si  Si17  1  0.662793  0.205391  0.927209  1
  Si  Si18  1  0.829879  0.829153  0.527967  1
  Si  Si19  1  0.822629  0.536821  0.819655  1
  Si  Si20  1  0.200646  0.200616  0.932018  1
  Pd  Pd21  1  0.377964  0.376798  0.864950  1
  Pd  Pd22  1  0.376798  0.377964  0.380287  1
  Pd  Pd23  1  0.860327  0.384919  0.378106  1
  Pd  Pd24  1  0.986237  0.513263  0.513766  1
  Pd  Pd25  1  0.513367  0.513367  0.986633  1
  Pd  Pd26  1  0.384919  0.860327  0.376648  1
  Pd  Pd27  1  0.513263  0.986237  0.986733  1
  Ru  Ru28  1  0.991597  0.991597  0.508403  1
  Pt  Pt29  1  0.514657  0.984800  0.515137  1
  Pt  Pt30  1  0.984800  0.514657  0.985405  1
