# generated using pymatgen
data_SmScFe3P7Ru9
_symmetry_space_group_name_H-M   'P 1'
_cell_length_a   9.29271600
_cell_length_b   9.29271539
_cell_length_c   3.84691100
_cell_angle_alpha   90.00000000
_cell_angle_beta   90.00000000
_cell_angle_gamma   119.99999505
_symmetry_Int_Tables_number   1
_chemical_formula_structural   SmScFe3P7Ru9
_chemical_formula_sum   'Sm1 Sc1 Fe3 P7 Ru9'
_cell_volume   287.69220375
_cell_formula_units_Z   1
loop_
 _symmetry_equiv_pos_site_id
 _symmetry_equiv_pos_as_xyz
  1  'x, y, z'
loop_
 _atom_site_type_symbol
 _atom_site_label
 _atom_site_symmetry_multiplicity
 _atom_site_fract_x
 _atom_site_fract_y
 _atom_site_fract_z
 _atom_site_occupancy
  Sm  Sm0  1  0.333333  0.666667  0.000000  1
  Sc  Sc1  1  0.666667  0.333333  0.500000  1
  Fe  Fe2  1  0.731657  0.891081  0.000000  1
  Fe  Fe3  1  0.108919  0.840575  0.000000  1
  Fe  Fe4  1  0.159425  0.268343  0.000000  1
  P  P5  1  0.606376  0.722534  0.500000  1
  P  P6  1  0.000000  0.000000  0.000000  1
  P  P7  1  0.277466  0.883842  0.500000  1
  P  P8  1  0.116158  0.393624  0.500000  1
  P  P9  1  0.888978  0.580939  0.000000  1
  P  P10  1  0.419061  0.308040  0.000000  1
  P  P11  1  0.691960  0.111022  0.000000  1
  Ru  Ru12  1  0.563086  0.953121  0.500000  1
  Ru  Ru13  1  0.390035  0.436914  0.500000  1
  Ru  Ru14  1  0.912448  0.115394  0.500000  1
  Ru  Ru15  1  0.202946  0.087552  0.500000  1
  Ru  Ru16  1  0.884606  0.797054  0.500000  1
  Ru  Ru17  1  0.421266  0.064930  0.000000  1
  Ru  Ru18  1  0.935070  0.356337  0.000000  1
  Ru  Ru19  1  0.643663  0.578734  0.000000  1
  Ru  Ru20  1  0.046879  0.609965  0.500000  1
