# generated using pymatgen
data_Ta4Al6CoPd
_symmetry_space_group_name_H-M   'P 1'
_cell_length_a   5.15634300
_cell_length_b   5.15634409
_cell_length_c   7.93453100
_cell_angle_alpha   90.00000000
_cell_angle_beta   90.00000000
_cell_angle_gamma   119.99999941
_symmetry_Int_Tables_number   1
_chemical_formula_structural   Ta4Al6CoPd
_chemical_formula_sum   'Ta4 Al6 Co1 Pd1'
_cell_volume   182.69875390
_cell_formula_units_Z   1
loop_
 _symmetry_equiv_pos_site_id
 _symmetry_equiv_pos_as_xyz
  1  'x, y, z'
loop_
 _atom_site_type_symbol
 _atom_site_label
 _atom_site_symmetry_multiplicity
 _atom_site_fract_x
 _atom_site_fract_y
 _atom_site_fract_z
 _atom_site_occupancy
  Ta  Ta0  1  0.666666  0.333333  0.069309  1
  Ta  Ta1  1  0.666666  0.333333  0.429949  1
  Ta  Ta2  1  0.333334  0.666667  0.570049  1
  Ta  Ta3  1  0.333334  0.666667  0.930691  1
  Al  Al4  1  0.168892  0.337786  0.258230  1
  Al  Al5  1  0.168892  0.831107  0.258230  1
  Al  Al6  1  0.662213  0.831107  0.258230  1
  Al  Al7  1  0.337786  0.168891  0.741770  1
  Al  Al8  1  0.831106  0.168891  0.741770  1
  Al  Al9  1  0.831107  0.662214  0.741770  1
  Co  Co10  1  0.000000  0.000000  0.499999  1
  Pd  Pd11  1  0.000000  0.000000  0.000000  1
