# generated using pymatgen
data_Y3Ho9Co4BiRh
_symmetry_space_group_name_H-M   'P 1'
_cell_length_a   8.33505884
_cell_length_b   8.33499225
_cell_length_c   8.32396974
_cell_angle_alpha   110.84429675
_cell_angle_beta   110.64182109
_cell_angle_gamma   107.01298251
_symmetry_Int_Tables_number   1
_chemical_formula_structural   Y3Ho9Co4BiRh
_chemical_formula_sum   'Y3 Ho9 Co4 Bi1 Rh1'
_cell_volume   444.22917948
_cell_formula_units_Z   1
loop_
 _symmetry_equiv_pos_site_id
 _symmetry_equiv_pos_as_xyz
  1  'x, y, z'
loop_
 _atom_site_type_symbol
 _atom_site_label
 _atom_site_symmetry_multiplicity
 _atom_site_fract_x
 _atom_site_fract_y
 _atom_site_fract_z
 _atom_site_occupancy
  Y  Y0  1  0.814327  0.710194  0.524517  1
  Y  Y1  1  0.185379  0.289407  0.474786  1
  Y  Y2  1  0.185286  0.709820  0.895108  1
  Ho  Ho3  1  0.816059  0.289974  0.106055  1
  Ho  Ho4  1  0.688994  0.378895  0.690871  1
  Ho  Ho5  1  0.310885  0.620665  0.309559  1
  Ho  Ho6  1  0.688937  0.998754  0.309589  1
  Ho  Ho7  1  0.312044  0.001965  0.690914  1
  Ho  Ho8  1  0.595159  0.792337  0.803641  1
  Ho  Ho9  1  0.406218  0.208536  0.197087  1
  Ho  Ho10  1  0.988570  0.790874  0.197103  1
  Ho  Ho11  1  0.011304  0.208482  0.803648  1
  Co  Co12  1  0.622242  0.000133  0.622361  1
  Co  Co13  1  0.377745  0.000201  0.377931  1
  Co  Co14  1  0.109693  0.610439  0.497785  1
  Co  Co15  1  0.887209  0.387965  0.497782  1
  Bi  Bi16  1  0.499737  0.500192  0.999899  1
  Rh  Rh17  1  0.000212  0.001166  0.001364  1
