# generated using pymatgen
data_HoLu4P12Ru19
_symmetry_space_group_name_H-M   'P 1'
_cell_length_a   12.49098900
_cell_length_b   12.49098893
_cell_length_c   3.96330700
_cell_angle_alpha   90.00000000
_cell_angle_beta   90.00000000
_cell_angle_gamma   119.99999754
_symmetry_Int_Tables_number   1
_chemical_formula_structural   HoLu4P12Ru19
_chemical_formula_sum   'Ho1 Lu4 P12 Ru19'
_cell_volume   535.52778222
_cell_formula_units_Z   1
loop_
 _symmetry_equiv_pos_site_id
 _symmetry_equiv_pos_as_xyz
  1  'x, y, z'
loop_
 _atom_site_type_symbol
 _atom_site_label
 _atom_site_symmetry_multiplicity
 _atom_site_fract_x
 _atom_site_fract_y
 _atom_site_fract_z
 _atom_site_occupancy
  Ho  Ho0  1  0.333333  0.666667  0.000000  1
  Lu  Lu1  1  0.817121  0.000006  0.500000  1
  Lu  Lu2  1  0.999994  0.817115  0.500000  1
  Lu  Lu3  1  0.182885  0.182879  0.500000  1
  Lu  Lu4  1  0.666667  0.333333  0.000000  1
  P  P5  1  0.183521  0.000057  0.000000  1
  P  P6  1  0.999943  0.183464  0.000000  1
  P  P7  1  0.816536  0.816479  0.000000  1
  P  P8  1  0.522042  0.693502  0.500000  1
  P  P9  1  0.306498  0.828540  0.500000  1
  P  P10  1  0.171460  0.477958  0.500000  1
  P  P11  1  0.478388  0.171791  0.500000  1
  P  P12  1  0.693403  0.521612  0.500000  1
  P  P13  1  0.828209  0.306597  0.500000  1
  P  P14  1  0.627846  0.999930  0.000000  1
  P  P15  1  0.000070  0.627916  0.000000  1
  P  P16  1  0.372084  0.372154  0.000000  1
  Ru  Ru17  1  0.445420  0.999963  0.000000  1
  Ru  Ru18  1  0.000037  0.445457  0.000000  1
  Ru  Ru19  1  0.554543  0.554580  0.000000  1
  Ru  Ru20  1  0.282120  0.000101  0.500000  1
  Ru  Ru21  1  0.999899  0.282019  0.500000  1
  Ru  Ru22  1  0.717981  0.717880  0.500000  1
  Ru  Ru23  1  0.623933  0.808880  0.000000  1
  Ru  Ru24  1  0.191120  0.815053  0.000000  1
  Ru  Ru25  1  0.184947  0.376067  0.000000  1
  Ru  Ru26  1  0.376522  0.185230  0.000000  1
  Ru  Ru27  1  0.808708  0.623478  0.000000  1
  Ru  Ru28  1  0.814770  0.191292  0.000000  1
  Ru  Ru29  1  0.508090  0.873890  0.500000  1
  Ru  Ru30  1  0.126110  0.634200  0.500000  1
  Ru  Ru31  1  0.365800  0.491910  0.500000  1
  Ru  Ru32  1  0.492668  0.365728  0.500000  1
  Ru  Ru33  1  0.873061  0.507332  0.500000  1
  Ru  Ru34  1  0.634272  0.126939  0.500000  1
  Ru  Ru35  1  0.000000  0.000000  0.000000  1
