# generated using pymatgen
data_Ho6TcRu
_symmetry_space_group_name_H-M   'P 1'
_cell_length_a   6.26653100
_cell_length_b   7.35491800
_cell_length_c   9.09671900
_cell_angle_alpha   90.00000000
_cell_angle_beta   90.00000000
_cell_angle_gamma   90.00000000
_symmetry_Int_Tables_number   1
_chemical_formula_structural   Ho6TcRu
_chemical_formula_sum   'Ho12 Tc2 Ru2'
_cell_volume   419.26615631
_cell_formula_units_Z   2
loop_
 _symmetry_equiv_pos_site_id
 _symmetry_equiv_pos_as_xyz
  1  'x, y, z'
loop_
 _atom_site_type_symbol
 _atom_site_label
 _atom_site_symmetry_multiplicity
 _atom_site_fract_x
 _atom_site_fract_y
 _atom_site_fract_z
 _atom_site_occupancy
  Ho  Ho0  1  0.333619  0.675519  0.063271  1
  Ho  Ho1  1  0.166381  0.175519  0.436729  1
  Ho  Ho2  1  0.664561  0.324587  0.562448  1
  Ho  Ho3  1  0.835439  0.824587  0.937552  1
  Ho  Ho4  1  0.664561  0.324587  0.937552  1
  Ho  Ho5  1  0.835439  0.824587  0.562448  1
  Ho  Ho6  1  0.333619  0.675519  0.436729  1
  Ho  Ho7  1  0.166381  0.175519  0.063271  1
  Ho  Ho8  1  0.873912  0.539825  0.250000  1
  Ho  Ho9  1  0.626088  0.039825  0.250000  1
  Ho  Ho10  1  0.132594  0.456335  0.750000  1
  Ho  Ho11  1  0.367406  0.956334  0.750000  1
  Tc  Tc12  1  0.038237  0.886392  0.250000  1
  Tc  Tc13  1  0.461763  0.386392  0.250000  1
  Ru  Ru14  1  0.960748  0.117237  0.750000  1
  Ru  Ru15  1  0.539252  0.617237  0.750000  1
