# generated using pymatgen
data_Pr3Nd17(IrPt2)4
_symmetry_space_group_name_H-M   'P 1'
_cell_length_a   11.46963313
_cell_length_b   11.46758723
_cell_length_c   6.54485706
_cell_angle_alpha   89.98421421
_cell_angle_beta   89.99730567
_cell_angle_gamma   89.98321366
_symmetry_Int_Tables_number   1
_chemical_formula_structural   Pr3Nd17(IrPt2)4
_chemical_formula_sum   'Pr3 Nd17 Ir4 Pt8'
_cell_volume   860.83855457
_cell_formula_units_Z   1
loop_
 _symmetry_equiv_pos_site_id
 _symmetry_equiv_pos_as_xyz
  1  'x, y, z'
loop_
 _atom_site_type_symbol
 _atom_site_label
 _atom_site_symmetry_multiplicity
 _atom_site_fract_x
 _atom_site_fract_y
 _atom_site_fract_z
 _atom_site_occupancy
  Pr  Pr0  1  0.909952  0.294431  0.628313  1
  Pr  Pr1  1  0.089624  0.705870  0.628202  1
  Pr  Pr2  1  0.090023  0.294276  0.128246  1
  Nd  Nd3  1  0.295766  0.088822  0.372863  1
  Nd  Nd4  1  0.295867  0.911110  0.872988  1
  Nd  Nd5  1  0.704179  0.088818  0.872835  1
  Nd  Nd6  1  0.704512  0.910760  0.372718  1
  Nd  Nd7  1  0.589434  0.795319  0.872819  1
  Nd  Nd8  1  0.589206  0.204598  0.372470  1
  Nd  Nd9  1  0.410788  0.795453  0.372536  1
  Nd  Nd10  1  0.410888  0.204667  0.872479  1
  Nd  Nd11  1  0.204988  0.410950  0.627332  1
  Nd  Nd12  1  0.204760  0.589437  0.127438  1
  Nd  Nd13  1  0.794850  0.411335  0.127480  1
  Nd  Nd14  1  0.795019  0.589627  0.627444  1
  Nd  Nd15  1  0.910088  0.704753  0.127459  1
  Nd  Nd16  1  0.999878  0.999837  0.499372  1
  Nd  Nd17  1  0.999786  0.999453  0.999495  1
  Nd  Nd18  1  0.499942  0.500169  0.000003  1
  Nd  Nd19  1  0.500256  0.500153  0.499641  1
  Ir  Ir20  1  0.500077  0.999933  0.113835  1
  Ir  Ir21  1  0.500043  0.999941  0.613822  1
  Ir  Ir22  1  0.999615  0.500769  0.887133  1
  Ir  Ir23  1  0.999764  0.500587  0.385780  1
  Pt  Pt24  1  0.845082  0.152370  0.248693  1
  Pt  Pt25  1  0.845406  0.846895  0.750407  1
  Pt  Pt26  1  0.154813  0.152365  0.748588  1
  Pt  Pt27  1  0.154281  0.847204  0.248023  1
  Pt  Pt28  1  0.652302  0.346531  0.750602  1
  Pt  Pt29  1  0.653541  0.653630  0.249932  1
  Pt  Pt30  1  0.347627  0.346506  0.250705  1
  Pt  Pt31  1  0.347643  0.653429  0.750349  1
