# generated using pymatgen
data_Ac3Ga4Cl
_symmetry_space_group_name_H-M   'P 1'
_cell_length_a   8.43918479
_cell_length_b   8.43918492
_cell_length_c   8.43918516
_cell_angle_alpha   90.65341082
_cell_angle_beta   119.62347521
_cell_angle_gamma   119.62347240
_symmetry_Int_Tables_number   1
_chemical_formula_structural   Ac3Ga4Cl
_chemical_formula_sum   'Ac6 Ga8 Cl2'
_cell_volume   427.38628375
_cell_formula_units_Z   2
loop_
 _symmetry_equiv_pos_site_id
 _symmetry_equiv_pos_as_xyz
  1  'x, y, z'
loop_
 _atom_site_type_symbol
 _atom_site_label
 _atom_site_symmetry_multiplicity
 _atom_site_fract_x
 _atom_site_fract_y
 _atom_site_fract_z
 _atom_site_occupancy
  Ac  Ac0  1  0.820761  0.660381  0.160381  1
  Ac  Ac1  1  0.000000  0.250000  0.250000  1
  Ac  Ac2  1  0.500000  0.160381  0.339620  1
  Ac  Ac3  1  0.500000  0.839620  0.660381  1
  Ac  Ac4  1  0.000000  0.750000  0.750000  1
  Ac  Ac5  1  0.179240  0.339619  0.839620  1
  Ga  Ga6  1  0.500000  0.840367  0.057706  1
  Ga  Ga7  1  0.217340  0.659634  0.159633  1
  Ga  Ga8  1  0.500000  0.557707  0.340367  1
  Ga  Ga9  1  0.782661  0.942294  0.442294  1
  Ga  Ga10  1  0.217340  0.057706  0.557707  1
  Ga  Ga11  1  0.500000  0.442294  0.659634  1
  Ga  Ga12  1  0.782661  0.340367  0.840367  1
  Ga  Ga13  1  0.500000  0.159633  0.942294  1
  Cl  Cl14  1  0.000000  0.000000  0.000000  1
  Cl  Cl15  1  0.000000  0.500000  0.500000  1
