# generated using pymatgen
data_Tm6LuSc9(In3Co)2
_symmetry_space_group_name_H-M   'P 1'
_cell_length_a   9.88925300
_cell_length_b   9.88925210
_cell_length_c   6.78109900
_cell_angle_alpha   90.00000000
_cell_angle_beta   90.00000000
_cell_angle_gamma   120.00000634
_symmetry_Int_Tables_number   1
_chemical_formula_structural   Tm6LuSc9(In3Co)2
_chemical_formula_sum   'Tm6 Lu1 Sc9 In6 Co2'
_cell_volume   574.32487266
_cell_formula_units_Z   1
loop_
 _symmetry_equiv_pos_site_id
 _symmetry_equiv_pos_as_xyz
  1  'x, y, z'
loop_
 _atom_site_type_symbol
 _atom_site_label
 _atom_site_symmetry_multiplicity
 _atom_site_fract_x
 _atom_site_fract_y
 _atom_site_fract_z
 _atom_site_occupancy
  Tm  Tm0  1  0.532990  0.065980  0.519223  1
  Tm  Tm1  1  0.934020  0.467010  0.519223  1
  Tm  Tm2  1  0.532990  0.467010  0.519223  1
  Tm  Tm3  1  0.466941  0.933880  0.019411  1
  Tm  Tm4  1  0.066120  0.533059  0.019411  1
  Tm  Tm5  1  0.466941  0.533059  0.019411  1
  Lu  Lu6  1  0.000000  0.000000  0.011109  1
  Sc  Sc7  1  0.178778  0.357556  0.726613  1
  Sc  Sc8  1  0.642444  0.821222  0.726613  1
  Sc  Sc9  1  0.178778  0.821222  0.726613  1
  Sc  Sc10  1  0.820943  0.641886  0.228435  1
  Sc  Sc11  1  0.358114  0.179057  0.228435  1
  Sc  Sc12  1  0.820943  0.179057  0.228435  1
  Sc  Sc13  1  0.666667  0.333333  0.916556  1
  Sc  Sc14  1  0.333333  0.666667  0.417440  1
  Sc  Sc15  1  0.000000  0.000000  0.511024  1
  In  In16  1  0.837980  0.675959  0.773236  1
  In  In17  1  0.324041  0.162020  0.773236  1
  In  In18  1  0.837980  0.162020  0.773236  1
  In  In19  1  0.161606  0.323213  0.276894  1
  In  In20  1  0.676787  0.838394  0.276894  1
  In  In21  1  0.161606  0.838394  0.276894  1
  Co  Co22  1  0.666667  0.333333  0.283587  1
  Co  Co23  1  0.333333  0.666667  0.784524  1
