# generated using pymatgen
data_LiTcSn4
_symmetry_space_group_name_H-M   'P 1'
_cell_length_a   7.40772518
_cell_length_b   7.40772470
_cell_length_c   7.40772457
_cell_angle_alpha   125.45191652
_cell_angle_beta   125.45191050
_cell_angle_gamma   80.79083927
_symmetry_Int_Tables_number   1
_chemical_formula_structural   LiTcSn4
_chemical_formula_sum   'Li2 Tc2 Sn8'
_cell_volume   260.03688428
_cell_formula_units_Z   2
loop_
 _symmetry_equiv_pos_site_id
 _symmetry_equiv_pos_as_xyz
  1  'x, y, z'
loop_
 _atom_site_type_symbol
 _atom_site_label
 _atom_site_symmetry_multiplicity
 _atom_site_fract_x
 _atom_site_fract_y
 _atom_site_fract_z
 _atom_site_occupancy
  Li  Li0  1  0.000000  0.000000  0.000000  1
  Li  Li1  1  0.500000  0.500000  0.000000  1
  Tc  Tc2  1  0.250000  0.250000  0.000000  1
  Tc  Tc3  1  0.750000  0.750000  0.000000  1
  Sn  Sn4  1  0.700586  0.522000  0.500000  1
  Sn  Sn5  1  0.522000  0.022000  0.821414  1
  Sn  Sn6  1  0.200586  0.700586  0.178586  1
  Sn  Sn7  1  0.799414  0.299414  0.821414  1
  Sn  Sn8  1  0.478000  0.978000  0.178586  1
  Sn  Sn9  1  0.299414  0.478000  0.500000  1
  Sn  Sn10  1  0.978000  0.799414  0.500000  1
  Sn  Sn11  1  0.022000  0.200586  0.500000  1
