# generated using pymatgen
data_MnBi(TeBr2)4
_symmetry_space_group_name_H-M   'P 1'
_cell_length_a   7.26982913
_cell_length_b   7.82254270
_cell_length_c   9.50187863
_cell_angle_alpha   94.22792899
_cell_angle_beta   100.55926562
_cell_angle_gamma   97.69685916
_symmetry_Int_Tables_number   1
_chemical_formula_structural   MnBi(TeBr2)4
_chemical_formula_sum   'Mn1 Bi1 Te4 Br8'
_cell_volume   523.73675864
_cell_formula_units_Z   1
loop_
 _symmetry_equiv_pos_site_id
 _symmetry_equiv_pos_as_xyz
  1  'x, y, z'
loop_
 _atom_site_type_symbol
 _atom_site_label
 _atom_site_symmetry_multiplicity
 _atom_site_fract_x
 _atom_site_fract_y
 _atom_site_fract_z
 _atom_site_occupancy
  Mn  Mn0  1  0.291502  0.072649  0.608376  1
  Bi  Bi1  1  0.720742  0.934110  0.410801  1
  Te  Te2  1  0.890275  0.575535  0.815199  1
  Te  Te3  1  0.111600  0.416069  0.175983  1
  Te  Te4  1  0.780157  0.318071  0.974718  1
  Te  Te5  1  0.222766  0.665515  0.011262  1
  Br  Br6  1  0.543359  0.586188  0.303535  1
  Br  Br7  1  0.454065  0.367915  0.678752  1
  Br  Br8  1  0.759098  0.973936  0.122105  1
  Br  Br9  1  0.212538  0.053469  0.843099  1
  Br  Br10  1  0.599421  0.912762  0.686038  1
  Br  Br11  1  0.369524  0.079999  0.358789  1
  Br  Br12  1  0.073818  0.791533  0.516646  1
  Br  Br13  1  0.971134  0.252250  0.494698  1
