# generated using pymatgen
data_Er8MgInIrPd
_symmetry_space_group_name_H-M   'P 1'
_cell_length_a   9.62647883
_cell_length_b   9.66101980
_cell_length_c   9.64961853
_cell_angle_alpha   60.05270019
_cell_angle_beta   60.09584742
_cell_angle_gamma   59.88193023
_symmetry_Int_Tables_number   1
_chemical_formula_structural   Er8MgInIrPd
_chemical_formula_sum   'Er16 Mg2 In2 Ir2 Pd2'
_cell_volume   634.72004501
_cell_formula_units_Z   2
loop_
 _symmetry_equiv_pos_site_id
 _symmetry_equiv_pos_as_xyz
  1  'x, y, z'
loop_
 _atom_site_type_symbol
 _atom_site_label
 _atom_site_symmetry_multiplicity
 _atom_site_fract_x
 _atom_site_fract_y
 _atom_site_fract_z
 _atom_site_occupancy
  Er  Er0  1  0.063507  0.063230  0.433300  1
  Er  Er1  1  0.648643  0.055177  0.641773  1
  Er  Er2  1  0.187387  0.808421  0.196047  1
  Er  Er3  1  0.438926  0.063445  0.433275  1
  Er  Er4  1  0.185147  0.193414  0.811667  1
  Er  Er5  1  0.656773  0.651766  0.651028  1
  Er  Er6  1  0.050486  0.646280  0.645329  1
  Er  Er7  1  0.435626  0.064658  0.064136  1
  Er  Er8  1  0.646421  0.641156  0.057942  1
  Er  Er9  1  0.191979  0.808855  0.810278  1
  Er  Er10  1  0.813604  0.192691  0.811176  1
  Er  Er11  1  0.812775  0.188617  0.188649  1
  Er  Er12  1  0.811642  0.809020  0.195502  1
  Er  Er13  1  0.065355  0.435475  0.433871  1
  Er  Er14  1  0.436989  0.432719  0.064306  1
  Er  Er15  1  0.063364  0.433640  0.062512  1
  Mg  Mg16  1  0.739025  0.421095  0.420505  1
  Mg  Mg17  1  0.420319  0.422054  0.737653  1
  In  In18  1  0.417480  0.748649  0.418144  1
  In  In19  1  0.416652  0.416303  0.417253  1
  Ir  Ir20  1  0.857462  0.860312  0.427021  1
  Ir  Ir21  1  0.857526  0.427346  0.861453  1
  Pd  Pd22  1  0.854592  0.856998  0.857924  1
  Pd  Pd23  1  0.428323  0.858680  0.859258  1
