# generated using pymatgen
data_Tb8Hf7Sc5Ga16
_symmetry_space_group_name_H-M   'P 1'
_cell_length_a   7.19251756
_cell_length_b   7.55742935
_cell_length_c   14.34845443
_cell_angle_alpha   89.99689745
_cell_angle_beta   89.97218664
_cell_angle_gamma   89.96473408
_symmetry_Int_Tables_number   1
_chemical_formula_structural   Tb8Hf7Sc5Ga16
_chemical_formula_sum   'Tb8 Hf7 Sc5 Ga16'
_cell_volume   779.93788342
_cell_formula_units_Z   1
loop_
 _symmetry_equiv_pos_site_id
 _symmetry_equiv_pos_as_xyz
  1  'x, y, z'
loop_
 _atom_site_type_symbol
 _atom_site_label
 _atom_site_symmetry_multiplicity
 _atom_site_fract_x
 _atom_site_fract_y
 _atom_site_fract_z
 _atom_site_occupancy
  Tb  Tb0  1  0.009570  0.175746  0.093298  1
  Tb  Tb1  1  0.990481  0.824728  0.906249  1
  Tb  Tb2  1  0.490974  0.674721  0.905837  1
  Tb  Tb3  1  0.990690  0.825248  0.593426  1
  Tb  Tb4  1  0.509729  0.324143  0.093647  1
  Tb  Tb5  1  0.009438  0.175262  0.406664  1
  Tb  Tb6  1  0.509361  0.325088  0.406526  1
  Tb  Tb7  1  0.490936  0.674617  0.593621  1
  Hf  Hf8  1  0.327966  0.175500  0.623733  1
  Hf  Hf9  1  0.671443  0.824086  0.376131  1
  Hf  Hf10  1  0.171630  0.675681  0.376549  1
  Hf  Hf11  1  0.671406  0.826132  0.124296  1
  Hf  Hf12  1  0.828329  0.324322  0.623628  1
  Hf  Hf13  1  0.327767  0.174909  0.876455  1
  Hf  Hf14  1  0.828671  0.325435  0.876464  1
  Sc  Sc15  1  0.161471  0.504432  0.749958  1
  Sc  Sc16  1  0.838311  0.495612  0.249696  1
  Sc  Sc17  1  0.337922  0.004104  0.249682  1
  Sc  Sc18  1  0.661447  0.995892  0.750102  1
  Sc  Sc19  1  0.172398  0.674536  0.123037  1
  Ga  Ga20  1  0.030745  0.121818  0.749830  1
  Ga  Ga21  1  0.968524  0.879184  0.250795  1
  Ga  Ga22  1  0.469795  0.621569  0.251002  1
  Ga  Ga23  1  0.530894  0.377851  0.749930  1
  Ga  Ga24  1  0.286193  0.876306  0.749774  1
  Ga  Ga25  1  0.714435  0.123952  0.250457  1
  Ga  Ga26  1  0.214868  0.374778  0.251325  1
  Ga  Ga27  1  0.785870  0.623851  0.749801  1
  Ga  Ga28  1  0.160981  0.461585  0.540016  1
  Ga  Ga29  1  0.838503  0.538667  0.460192  1
  Ga  Ga30  1  0.339113  0.961653  0.460091  1
  Ga  Ga31  1  0.836675  0.537718  0.039671  1
  Ga  Ga32  1  0.660938  0.038532  0.539935  1
  Ga  Ga33  1  0.159915  0.460705  0.958355  1
  Ga  Ga34  1  0.661534  0.038041  0.959842  1
  Ga  Ga35  1  0.341076  0.963598  0.039985  1
