# generated using pymatgen
data_HfZr7Co16Si11P
_symmetry_space_group_name_H-M   'P 1'
_cell_length_a   12.31510820
_cell_length_b   12.31510899
_cell_length_c   3.71348000
_cell_angle_alpha   90.00000000
_cell_angle_beta   90.00000000
_cell_angle_gamma   120.00628356
_symmetry_Int_Tables_number   1
_chemical_formula_structural   HfZr7Co16Si11P
_chemical_formula_sum   'Hf1 Zr7 Co16 Si11 P1'
_cell_volume   487.70893331
_cell_formula_units_Z   1
loop_
 _symmetry_equiv_pos_site_id
 _symmetry_equiv_pos_as_xyz
  1  'x, y, z'
loop_
 _atom_site_type_symbol
 _atom_site_label
 _atom_site_symmetry_multiplicity
 _atom_site_fract_x
 _atom_site_fract_y
 _atom_site_fract_z
 _atom_site_occupancy
  Hf  Hf0  1  0.438402  0.438402  0.000000  1
  Zr  Zr1  1  0.562273  0.000055  0.000000  1
  Zr  Zr2  1  0.000055  0.562273  0.000000  1
  Zr  Zr3  1  0.665811  0.333272  0.000000  1
  Zr  Zr4  1  0.333272  0.665811  0.000000  1
  Zr  Zr5  1  0.816575  0.816575  0.500000  1
  Zr  Zr6  1  0.184593  0.000665  0.500000  1
  Zr  Zr7  1  0.000665  0.184593  0.500000  1
  Co  Co8  1  0.193489  0.368387  0.000000  1
  Co  Co9  1  0.179947  0.807325  0.000000  1
  Co  Co10  1  0.820487  0.627678  0.000000  1
  Co  Co11  1  0.807325  0.179947  0.000000  1
  Co  Co12  1  0.368387  0.193489  0.000000  1
  Co  Co13  1  0.121518  0.479650  0.500000  1
  Co  Co14  1  0.360106  0.879985  0.500000  1
  Co  Co15  1  0.518690  0.638473  0.500000  1
  Co  Co16  1  0.638473  0.518690  0.500000  1
  Co  Co17  1  0.879985  0.360106  0.500000  1
  Co  Co18  1  0.479650  0.121518  0.500000  1
  Co  Co19  1  0.004284  0.004284  0.000000  1
  Co  Co20  1  0.723388  0.000261  0.500000  1
  Co  Co21  1  0.000261  0.723388  0.500000  1
  Co  Co22  1  0.627678  0.820487  0.000000  1
  Co  Co23  1  0.272864  0.272864  0.500000  1
  Si  Si24  1  0.649556  0.649556  0.000000  1
  Si  Si25  1  0.350447  0.000785  0.000000  1
  Si  Si26  1  0.000785  0.350447  0.000000  1
  Si  Si27  1  0.479993  0.303952  0.500000  1
  Si  Si28  1  0.696983  0.178539  0.500000  1
  Si  Si29  1  0.821476  0.518881  0.500000  1
  Si  Si30  1  0.518881  0.821476  0.500000  1
  Si  Si31  1  0.178539  0.696983  0.500000  1
  Si  Si32  1  0.822879  0.000227  0.000000  1
  Si  Si33  1  0.000227  0.822879  0.000000  1
  Si  Si34  1  0.303952  0.479993  0.500000  1
  P  P35  1  0.178098  0.178098  0.000000  1
