# generated using pymatgen
data_Ti2Be9Tc
_symmetry_space_group_name_H-M   'P 1'
_cell_length_a   7.42131315
_cell_length_b   7.42131270
_cell_length_c   7.42131204
_cell_angle_alpha   34.62150598
_cell_angle_beta   34.62151134
_cell_angle_gamma   34.62149773
_symmetry_Int_Tables_number   1
_chemical_formula_structural   Ti2Be9Tc
_chemical_formula_sum   'Ti2 Be9 Tc1'
_cell_volume   117.72974589
_cell_formula_units_Z   1
loop_
 _symmetry_equiv_pos_site_id
 _symmetry_equiv_pos_as_xyz
  1  'x, y, z'
loop_
 _atom_site_type_symbol
 _atom_site_label
 _atom_site_symmetry_multiplicity
 _atom_site_fract_x
 _atom_site_fract_y
 _atom_site_fract_z
 _atom_site_occupancy
  Ti  Ti0  1  0.144135  0.144135  0.144135  1
  Ti  Ti1  1  0.996432  0.996432  0.996432  1
  Be  Be2  1  0.416109  0.918829  0.416109  1
  Be  Be3  1  0.416109  0.416109  0.918829  1
  Be  Be4  1  0.918829  0.416109  0.416109  1
  Be  Be5  1  0.586259  0.076708  0.586259  1
  Be  Be6  1  0.586259  0.586259  0.076708  1
  Be  Be7  1  0.076708  0.586259  0.586259  1
  Be  Be8  1  0.666934  0.666934  0.666934  1
  Be  Be9  1  0.335607  0.335607  0.335607  1
  Be  Be10  1  0.500281  0.500281  0.500281  1
  Tc  Tc11  1  0.856339  0.856339  0.856339  1
