# generated using pymatgen
data_Ho9Er11(Ir2Ru)4
_symmetry_space_group_name_H-M   'P 1'
_cell_length_a   10.75218802
_cell_length_b   10.75225701
_cell_length_c   6.38941000
_cell_angle_alpha   90.00035511
_cell_angle_beta   90.00306275
_cell_angle_gamma   90.00596818
_symmetry_Int_Tables_number   1
_chemical_formula_structural   Ho9Er11(Ir2Ru)4
_chemical_formula_sum   'Ho9 Er11 Ir8 Ru4'
_cell_volume   738.68153211
_cell_formula_units_Z   1
loop_
 _symmetry_equiv_pos_site_id
 _symmetry_equiv_pos_as_xyz
  1  'x, y, z'
loop_
 _atom_site_type_symbol
 _atom_site_label
 _atom_site_symmetry_multiplicity
 _atom_site_fract_x
 _atom_site_fract_y
 _atom_site_fract_z
 _atom_site_occupancy
  Ho  Ho0  1  0.293218  0.086427  0.377012  1
  Ho  Ho1  1  0.293192  0.913571  0.877019  1
  Ho  Ho2  1  0.706801  0.086467  0.877009  1
  Ho  Ho3  1  0.706779  0.913559  0.377053  1
  Ho  Ho4  1  0.586474  0.793228  0.877001  1
  Ho  Ho5  1  0.586450  0.206814  0.377045  1
  Ho  Ho6  1  0.413560  0.793241  0.377018  1
  Ho  Ho7  1  0.413606  0.206731  0.877051  1
  Ho  Ho8  1  0.206461  0.413679  0.622976  1
  Er  Er9  1  0.206284  0.586344  0.122690  1
  Er  Er10  1  0.793718  0.413719  0.122773  1
  Er  Er11  1  0.793695  0.586244  0.622758  1
  Er  Er12  1  0.913752  0.706274  0.122771  1
  Er  Er13  1  0.913629  0.293612  0.622825  1
  Er  Er14  1  0.086236  0.706395  0.622863  1
  Er  Er15  1  0.086197  0.293676  0.122807  1
  Er  Er16  1  0.999982  0.999964  0.500043  1
  Er  Er17  1  0.999983  0.000015  0.999949  1
  Er  Er18  1  0.500047  0.500007  0.000033  1
  Er  Er19  1  0.500100  0.500044  0.499934  1
  Ir  Ir20  1  0.847832  0.152645  0.250208  1
  Ir  Ir21  1  0.847863  0.847284  0.750161  1
  Ir  Ir22  1  0.152114  0.152502  0.750292  1
  Ir  Ir23  1  0.152158  0.847359  0.250205  1
  Ir  Ir24  1  0.652648  0.347867  0.750174  1
  Ir  Ir25  1  0.652657  0.652203  0.250226  1
  Ir  Ir26  1  0.347439  0.347759  0.249917  1
  Ir  Ir27  1  0.347405  0.652260  0.750242  1
  Ru  Ru28  1  0.500002  0.000003  0.122263  1
  Ru  Ru29  1  0.499963  0.999984  0.622180  1
  Ru  Ru30  1  0.999884  0.500096  0.877883  1
  Ru  Ru31  1  0.999868  0.500026  0.377618  1
