# generated using pymatgen
data_Tb2Ga4AgPd
_symmetry_space_group_name_H-M   'P 1'
_cell_length_a   4.32901700
_cell_length_b   6.87562005
_cell_length_c   10.33543756
_cell_angle_alpha   89.45256672
_cell_angle_beta   90.00000000
_cell_angle_gamma   90.00000000
_symmetry_Int_Tables_number   1
_chemical_formula_structural   Tb2Ga4AgPd
_chemical_formula_sum   'Tb4 Ga8 Ag2 Pd2'
_cell_volume   307.61690992
_cell_formula_units_Z   2
loop_
 _symmetry_equiv_pos_site_id
 _symmetry_equiv_pos_as_xyz
  1  'x, y, z'
loop_
 _atom_site_type_symbol
 _atom_site_label
 _atom_site_symmetry_multiplicity
 _atom_site_fract_x
 _atom_site_fract_y
 _atom_site_fract_z
 _atom_site_occupancy
  Tb  Tb0  1  0.250000  0.767170  0.834198  1
  Tb  Tb1  1  0.750000  0.232830  0.165802  1
  Tb  Tb2  1  0.750000  0.721987  0.328421  1
  Tb  Tb3  1  0.250000  0.278013  0.671579  1
  Ga  Ga4  1  0.250000  0.923724  0.150191  1
  Ga  Ga5  1  0.750000  0.076276  0.849809  1
  Ga  Ga6  1  0.750000  0.572359  0.658418  1
  Ga  Ga7  1  0.250000  0.427641  0.341582  1
  Ga  Ga8  1  0.250000  0.703131  0.537242  1
  Ga  Ga9  1  0.750000  0.296869  0.462758  1
  Ga  Ga10  1  0.750000  0.772601  0.037292  1
  Ga  Ga11  1  0.250000  0.227399  0.962708  1
  Ag  Ag12  1  0.750000  0.956014  0.599013  1
  Ag  Ag13  1  0.250000  0.043986  0.400987  1
  Pd  Pd14  1  0.250000  0.548868  0.101652  1
  Pd  Pd15  1  0.750000  0.451132  0.898348  1
