# generated using pymatgen
data_Ba3Er2TeO9
_symmetry_space_group_name_H-M   'P 1'
_cell_length_a   6.06012700
_cell_length_b   6.06012681
_cell_length_c   14.80223200
_cell_angle_alpha   90.00000000
_cell_angle_beta   90.00000000
_cell_angle_gamma   119.99999559
_symmetry_Int_Tables_number   1
_chemical_formula_structural   Ba3Er2TeO9
_chemical_formula_sum   'Ba6 Er4 Te2 O18'
_cell_volume   470.78356722
_cell_formula_units_Z   2
loop_
 _symmetry_equiv_pos_site_id
 _symmetry_equiv_pos_as_xyz
  1  'x, y, z'
loop_
 _atom_site_type_symbol
 _atom_site_label
 _atom_site_symmetry_multiplicity
 _atom_site_fract_x
 _atom_site_fract_y
 _atom_site_fract_z
 _atom_site_occupancy
  Ba  Ba0  1  0.333333  0.666667  0.091410  1
  Ba  Ba1  1  0.666667  0.333333  0.908590  1
  Ba  Ba2  1  0.333333  0.666667  0.591410  1
  Ba  Ba3  1  0.666667  0.333333  0.408590  1
  Ba  Ba4  1  0.000000  0.000000  0.250000  1
  Ba  Ba5  1  0.000000  0.000000  0.750000  1
  Er  Er6  1  0.333333  0.666667  0.833480  1
  Er  Er7  1  0.666667  0.333333  0.166520  1
  Er  Er8  1  0.333333  0.666667  0.333480  1
  Er  Er9  1  0.666667  0.333333  0.666520  1
  Te  Te10  1  0.000000  0.000000  0.000000  1
  Te  Te11  1  0.000000  0.000000  0.500000  1
  O  O12  1  0.878376  0.693204  0.575564  1
  O  O13  1  0.000000  0.545568  0.250000  1
  O  O14  1  0.185172  0.306796  0.924436  1
  O  O15  1  0.878376  0.185172  0.075564  1
  O  O16  1  0.814828  0.121624  0.575564  1
  O  O17  1  0.814828  0.693204  0.075564  1
  O  O18  1  0.693204  0.814828  0.424436  1
  O  O19  1  0.454432  0.000000  0.750000  1
  O  O20  1  0.545568  0.545568  0.750000  1
  O  O21  1  0.306796  0.185172  0.575564  1
  O  O22  1  0.121624  0.306796  0.424436  1
  O  O23  1  0.185172  0.878376  0.424436  1
  O  O24  1  0.306796  0.121624  0.075564  1
  O  O25  1  0.545568  0.000000  0.250000  1
  O  O26  1  0.454432  0.454432  0.250000  1
  O  O27  1  0.000000  0.454432  0.750000  1
  O  O28  1  0.121624  0.814828  0.924436  1
  O  O29  1  0.693204  0.878376  0.924436  1
