# generated using pymatgen
data_Y4Ho2P13Rh20
_symmetry_space_group_name_H-M   'P 1'
_cell_length_a   13.33871503
_cell_length_b   13.33725925
_cell_length_c   3.92463600
_cell_angle_alpha   89.99948938
_cell_angle_beta   89.99955762
_cell_angle_gamma   119.99635169
_symmetry_Int_Tables_number   1
_chemical_formula_structural   Y4Ho2P13Rh20
_chemical_formula_sum   'Y4 Ho2 P13 Rh20'
_cell_volume   604.68134021
_cell_formula_units_Z   1
loop_
 _symmetry_equiv_pos_site_id
 _symmetry_equiv_pos_as_xyz
  1  'x, y, z'
loop_
 _atom_site_type_symbol
 _atom_site_label
 _atom_site_symmetry_multiplicity
 _atom_site_fract_x
 _atom_site_fract_y
 _atom_site_fract_z
 _atom_site_occupancy
  Y  Y0  1  0.529257  0.717493  0.248591  1
  Y  Y1  1  0.282504  0.811766  0.248583  1
  Y  Y2  1  0.188220  0.470736  0.248582  1
  Y  Y3  1  0.470782  0.282515  0.751413  1
  Ho  Ho4  1  0.717548  0.188271  0.751411  1
  Ho  Ho5  1  0.811745  0.529285  0.751416  1
  P  P6  1  0.526366  0.139211  0.250216  1
  P  P7  1  0.860666  0.386937  0.250239  1
  P  P8  1  0.613310  0.473973  0.250208  1
  P  P9  1  0.944756  0.714474  0.254401  1
  P  P10  1  0.285193  0.230154  0.254365  1
  P  P11  1  0.769717  0.055255  0.254403  1
  P  P12  1  0.386926  0.526093  0.749782  1
  P  P13  1  0.473901  0.860810  0.749783  1
  P  P14  1  0.139181  0.613082  0.749788  1
  P  P15  1  0.714784  0.769870  0.745638  1
  P  P16  1  0.230155  0.944955  0.745641  1
  P  P17  1  0.055073  0.285213  0.745634  1
  P  P18  1  0.000001  0.999996  0.000032  1
  Rh  Rh19  1  0.333333  0.666663  0.751744  1
  Rh  Rh20  1  0.921041  0.250366  0.253636  1
  Rh  Rh21  1  0.749680  0.670720  0.253636  1
  Rh  Rh22  1  0.329053  0.078542  0.253630  1
  Rh  Rh23  1  0.438602  0.022431  0.751317  1
  Rh  Rh24  1  0.977424  0.416023  0.751324  1
  Rh  Rh25  1  0.584055  0.561563  0.751343  1
  Rh  Rh26  1  0.667119  0.333459  0.248214  1
  Rh  Rh27  1  0.094379  0.186937  0.247532  1
  Rh  Rh28  1  0.813051  0.907480  0.247542  1
  Rh  Rh29  1  0.092490  0.905546  0.247518  1
  Rh  Rh30  1  0.022012  0.583814  0.248635  1
  Rh  Rh31  1  0.416106  0.438420  0.248666  1
  Rh  Rh32  1  0.561809  0.977976  0.248635  1
  Rh  Rh33  1  0.670998  0.921600  0.746375  1
  Rh  Rh34  1  0.078397  0.749394  0.746374  1
  Rh  Rh35  1  0.250491  0.329019  0.746382  1
  Rh  Rh36  1  0.905555  0.812969  0.752452  1
  Rh  Rh37  1  0.186916  0.092537  0.752461  1
  Rh  Rh38  1  0.907405  0.094453  0.752460  1
