# generated using pymatgen
data_Ho20TcNi3Sb8
_symmetry_space_group_name_H-M   'P 1'
_cell_length_a   7.87105410
_cell_length_b   8.82400100
_cell_length_c   12.12413332
_cell_angle_alpha   90.00000000
_cell_angle_beta   89.69826058
_cell_angle_gamma   90.00000000
_symmetry_Int_Tables_number   1
_chemical_formula_structural   Ho20TcNi3Sb8
_chemical_formula_sum   'Ho20 Tc1 Ni3 Sb8'
_cell_volume   842.06017304
_cell_formula_units_Z   1
loop_
 _symmetry_equiv_pos_site_id
 _symmetry_equiv_pos_as_xyz
  1  'x, y, z'
loop_
 _atom_site_type_symbol
 _atom_site_label
 _atom_site_symmetry_multiplicity
 _atom_site_fract_x
 _atom_site_fract_y
 _atom_site_fract_z
 _atom_site_occupancy
  Ho  Ho0  1  0.320815  0.539554  0.433201  1
  Ho  Ho1  1  0.874839  0.250000  0.802670  1
  Ho  Ho2  1  0.179204  0.541015  0.935505  1
  Ho  Ho3  1  0.320815  0.960446  0.433201  1
  Ho  Ho4  1  0.127098  0.750000  0.199950  1
  Ho  Ho5  1  0.843654  0.750000  0.792489  1
  Ho  Ho6  1  0.374838  0.750000  0.694482  1
  Ho  Ho7  1  0.954498  0.750000  0.501041  1
  Ho  Ho8  1  0.453920  0.250000  0.997557  1
  Ho  Ho9  1  0.679418  0.459603  0.565594  1
  Ho  Ho10  1  0.819413  0.041035  0.066193  1
  Ho  Ho11  1  0.665069  0.750000  0.285937  1
  Ho  Ho12  1  0.545482  0.750000  0.001846  1
  Ho  Ho13  1  0.045650  0.250000  0.500024  1
  Ho  Ho14  1  0.679418  0.040397  0.565594  1
  Ho  Ho15  1  0.179204  0.958985  0.935505  1
  Ho  Ho16  1  0.624618  0.250000  0.305152  1
  Ho  Ho17  1  0.339356  0.250000  0.708683  1
  Ho  Ho18  1  0.819413  0.458965  0.066193  1
  Ho  Ho19  1  0.156055  0.250000  0.205235  1
  Tc  Tc20  1  0.921278  0.750000  0.016593  1
  Ni  Ni21  1  0.572527  0.750000  0.508612  1
  Ni  Ni22  1  0.078674  0.250000  0.985466  1
  Ni  Ni23  1  0.427564  0.250000  0.489874  1
  Sb  Sb24  1  0.928402  0.489454  0.329670  1
  Sb  Sb25  1  0.429339  0.506852  0.173843  1
  Sb  Sb26  1  0.429339  0.993148  0.173843  1
  Sb  Sb27  1  0.569315  0.491629  0.826143  1
  Sb  Sb28  1  0.071534  0.508538  0.672044  1
  Sb  Sb29  1  0.569315  0.008371  0.826143  1
  Sb  Sb30  1  0.928402  0.010546  0.329670  1
  Sb  Sb31  1  0.071534  0.991462  0.672044  1
