# generated using pymatgen
data_LiHo16Cd2Ni4Hg
_symmetry_space_group_name_H-M   'P 1'
_cell_length_a   9.48890044
_cell_length_b   9.48890047
_cell_length_c   9.48550788
_cell_angle_alpha   59.89238627
_cell_angle_beta   59.89238719
_cell_angle_gamma   60.25313889
_symmetry_Int_Tables_number   1
_chemical_formula_structural   LiHo16Cd2Ni4Hg
_chemical_formula_sum   'Li1 Ho16 Cd2 Ni4 Hg1'
_cell_volume   604.07418774
_cell_formula_units_Z   1
loop_
 _symmetry_equiv_pos_site_id
 _symmetry_equiv_pos_as_xyz
  1  'x, y, z'
loop_
 _atom_site_type_symbol
 _atom_site_label
 _atom_site_symmetry_multiplicity
 _atom_site_fract_x
 _atom_site_fract_y
 _atom_site_fract_z
 _atom_site_occupancy
  Li  Li0  1  0.570937  0.570937  0.566304  1
  Ho  Ho1  1  0.346886  0.346886  0.347780  1
  Ho  Ho2  1  0.348643  0.348643  0.954790  1
  Ho  Ho3  1  0.350043  0.951895  0.349074  1
  Ho  Ho4  1  0.951895  0.350043  0.349074  1
  Ho  Ho5  1  0.811536  0.191459  0.191962  1
  Ho  Ho6  1  0.186773  0.814433  0.814681  1
  Ho  Ho7  1  0.191459  0.811536  0.191962  1
  Ho  Ho8  1  0.814433  0.186773  0.814681  1
  Ho  Ho9  1  0.190680  0.190680  0.812503  1
  Ho  Ho10  1  0.814142  0.814142  0.187455  1
  Ho  Ho11  1  0.935285  0.564289  0.564919  1
  Ho  Ho12  1  0.563223  0.936284  0.937705  1
  Ho  Ho13  1  0.564289  0.935285  0.564919  1
  Ho  Ho14  1  0.936284  0.563223  0.937705  1
  Ho  Ho15  1  0.563904  0.563904  0.937241  1
  Ho  Ho16  1  0.937055  0.937055  0.563553  1
  Cd  Cd17  1  0.581046  0.255646  0.582030  1
  Cd  Cd18  1  0.255646  0.581046  0.582030  1
  Ni  Ni19  1  0.143769  0.143769  0.144797  1
  Ni  Ni20  1  0.141043  0.141043  0.573305  1
  Ni  Ni21  1  0.140939  0.573842  0.142815  1
  Ni  Ni22  1  0.573842  0.140939  0.142815  1
  Hg  Hg23  1  0.586249  0.586249  0.245900  1
