# generated using pymatgen
data_Li4Nd3PaPt4
_symmetry_space_group_name_H-M   'P 1'
_cell_length_a   4.03001300
_cell_length_b   7.23731435
_cell_length_c   8.68611066
_cell_angle_alpha   90.51915431
_cell_angle_beta   90.00000000
_cell_angle_gamma   90.00000000
_symmetry_Int_Tables_number   1
_chemical_formula_structural   Li4Nd3PaPt4
_chemical_formula_sum   'Li4 Nd3 Pa1 Pt4'
_cell_volume   253.33279432
_cell_formula_units_Z   1
loop_
 _symmetry_equiv_pos_site_id
 _symmetry_equiv_pos_as_xyz
  1  'x, y, z'
loop_
 _atom_site_type_symbol
 _atom_site_label
 _atom_site_symmetry_multiplicity
 _atom_site_fract_x
 _atom_site_fract_y
 _atom_site_fract_z
 _atom_site_occupancy
  Li  Li0  1  0.250000  0.113819  0.047756  1
  Li  Li1  1  0.250000  0.630149  0.445969  1
  Li  Li2  1  0.750000  0.874431  0.945296  1
  Li  Li3  1  0.750000  0.384233  0.559032  1
  Nd  Nd4  1  0.250000  0.551332  0.817545  1
  Nd  Nd5  1  0.750000  0.950399  0.313094  1
  Nd  Nd6  1  0.750000  0.439974  0.185487  1
  Pa  Pa7  1  0.250000  0.053968  0.681052  1
  Pt  Pt8  1  0.250000  0.244801  0.395389  1
  Pt  Pt9  1  0.250000  0.735147  0.123890  1
  Pt  Pt10  1  0.750000  0.783701  0.628256  1
  Pt  Pt11  1  0.750000  0.238045  0.857235  1
