# generated using pymatgen
data_TbPr3(CuP2)4
_symmetry_space_group_name_H-M   'P 1'
_cell_length_a   3.76420200
_cell_length_b   3.87604471
_cell_length_c   20.07005347
_cell_angle_alpha   90.38012312
_cell_angle_beta   90.00000000
_cell_angle_gamma   90.00000000
_symmetry_Int_Tables_number   1
_chemical_formula_structural   TbPr3(CuP2)4
_chemical_formula_sum   'Tb1 Pr3 Cu4 P8'
_cell_volume   292.81995597
_cell_formula_units_Z   1
loop_
 _symmetry_equiv_pos_site_id
 _symmetry_equiv_pos_as_xyz
  1  'x, y, z'
loop_
 _atom_site_type_symbol
 _atom_site_label
 _atom_site_symmetry_multiplicity
 _atom_site_fract_x
 _atom_site_fract_y
 _atom_site_fract_z
 _atom_site_occupancy
  Tb  Tb0  1  0.250000  0.717886  0.380280  1
  Pr  Pr1  1  0.250000  0.783683  0.881078  1
  Pr  Pr2  1  0.750000  0.280724  0.615780  1
  Pr  Pr3  1  0.750000  0.217074  0.120848  1
  Cu  Cu4  1  0.250000  0.223145  0.253190  1
  Cu  Cu5  1  0.750000  0.777562  0.749312  1
  Cu  Cu6  1  0.250000  0.277906  0.748554  1
  Cu  Cu7  1  0.750000  0.723346  0.253519  1
  P  P8  1  0.750000  0.815420  0.497290  1
  P  P9  1  0.750000  0.682714  0.003263  1
  P  P10  1  0.250000  0.182922  0.492514  1
  P  P11  1  0.250000  0.317387  0.998560  1
  P  P12  1  0.250000  0.719177  0.180642  1
  P  P13  1  0.750000  0.220131  0.327500  1
  P  P14  1  0.750000  0.281179  0.821360  1
  P  P15  1  0.250000  0.779743  0.676308  1
