# generated using pymatgen
data_ScZn4Ir
_symmetry_space_group_name_H-M   'P 1'
_cell_length_a   4.99535900
_cell_length_b   4.99535943
_cell_length_c   8.19493900
_cell_angle_alpha   90.00000000
_cell_angle_beta   90.00000000
_cell_angle_gamma   120.00000379
_symmetry_Int_Tables_number   1
_chemical_formula_structural   ScZn4Ir
_chemical_formula_sum   'Sc2 Zn8 Ir2'
_cell_volume   177.09642222
_cell_formula_units_Z   2
loop_
 _symmetry_equiv_pos_site_id
 _symmetry_equiv_pos_as_xyz
  1  'x, y, z'
loop_
 _atom_site_type_symbol
 _atom_site_label
 _atom_site_symmetry_multiplicity
 _atom_site_fract_x
 _atom_site_fract_y
 _atom_site_fract_z
 _atom_site_occupancy
  Sc  Sc0  1  0.666667  0.333333  0.435168  1
  Sc  Sc1  1  0.333333  0.666667  0.935168  1
  Zn  Zn2  1  0.000000  0.000000  0.000078  1
  Zn  Zn3  1  0.000000  0.000000  0.500078  1
  Zn  Zn4  1  0.170601  0.341202  0.248616  1
  Zn  Zn5  1  0.829399  0.170601  0.748616  1
  Zn  Zn6  1  0.341202  0.170601  0.748616  1
  Zn  Zn7  1  0.658798  0.829399  0.248616  1
  Zn  Zn8  1  0.170601  0.829399  0.248616  1
  Zn  Zn9  1  0.829399  0.658798  0.748616  1
  Ir  Ir10  1  0.333333  0.666667  0.568907  1
  Ir  Ir11  1  0.666667  0.333333  0.068907  1
