# generated using pymatgen
data_Y9Tm(Ga2Sb)2
_symmetry_space_group_name_H-M   'P 1'
_cell_length_a   8.69767309
_cell_length_b   8.73096599
_cell_length_c   6.56695202
_cell_angle_alpha   90.00847166
_cell_angle_beta   89.99574945
_cell_angle_gamma   120.12669887
_symmetry_Int_Tables_number   1
_chemical_formula_structural   Y9Tm(Ga2Sb)2
_chemical_formula_sum   'Y9 Tm1 Ga4 Sb2'
_cell_volume   431.32433875
_cell_formula_units_Z   1
loop_
 _symmetry_equiv_pos_site_id
 _symmetry_equiv_pos_as_xyz
  1  'x, y, z'
loop_
 _atom_site_type_symbol
 _atom_site_label
 _atom_site_symmetry_multiplicity
 _atom_site_fract_x
 _atom_site_fract_y
 _atom_site_fract_z
 _atom_site_occupancy
  Y  Y0  1  0.668445  0.334222  0.500000  1
  Y  Y1  1  0.668210  0.334105  0.000000  1
  Y  Y2  1  0.314959  0.657479  0.500000  1
  Y  Y3  1  0.235503  0.999918  0.249767  1
  Y  Y4  1  0.235503  0.235583  0.750233  1
  Y  Y5  1  0.013134  0.764102  0.750374  1
  Y  Y6  1  0.013134  0.249032  0.249626  1
  Y  Y7  1  0.762118  0.750140  0.249864  1
  Y  Y8  1  0.762118  0.011978  0.750136  1
  Tm  Tm9  1  0.314152  0.657076  0.000000  1
  Ga  Ga10  1  0.999119  0.399004  0.750816  1
  Ga  Ga11  1  0.999119  0.600115  0.249184  1
  Ga  Ga12  1  0.402591  0.398538  0.249575  1
  Ga  Ga13  1  0.402591  0.004053  0.750425  1
  Sb  Sb14  1  0.604654  0.994945  0.249457  1
  Sb  Sb15  1  0.604654  0.609708  0.750543  1
