# generated using pymatgen
data_Dy16CdHg3(RuRh)2
_symmetry_space_group_name_H-M   'P 1'
_cell_length_a   9.62665734
_cell_length_b   9.61589051
_cell_length_c   9.69084500
_cell_angle_alpha   59.74180802
_cell_angle_beta   59.77918463
_cell_angle_gamma   59.60750089
_symmetry_Int_Tables_number   1
_chemical_formula_structural   Dy16CdHg3(RuRh)2
_chemical_formula_sum   'Dy16 Cd1 Hg3 Ru2 Rh2'
_cell_volume   630.13612802
_cell_formula_units_Z   1
loop_
 _symmetry_equiv_pos_site_id
 _symmetry_equiv_pos_as_xyz
  1  'x, y, z'
loop_
 _atom_site_type_symbol
 _atom_site_label
 _atom_site_symmetry_multiplicity
 _atom_site_fract_x
 _atom_site_fract_y
 _atom_site_fract_z
 _atom_site_occupancy
  Dy  Dy0  1  0.560504  0.561475  0.939010  1
  Dy  Dy1  1  0.150723  0.548864  0.150207  1
  Dy  Dy2  1  0.687537  0.312462  0.310015  1
  Dy  Dy3  1  0.940260  0.563016  0.561018  1
  Dy  Dy4  1  0.940260  0.563016  0.935705  1
  Dy  Dy5  1  0.690616  0.690794  0.309295  1
  Dy  Dy6  1  0.562219  0.940350  0.935483  1
  Dy  Dy7  1  0.151027  0.150383  0.150703  1
  Dy  Dy8  1  0.311330  0.688416  0.309570  1
  Dy  Dy9  1  0.545160  0.151437  0.151702  1
  Dy  Dy10  1  0.311742  0.312285  0.687987  1
  Dy  Dy11  1  0.311330  0.688416  0.690683  1
  Dy  Dy12  1  0.151027  0.150383  0.547887  1
  Dy  Dy13  1  0.687537  0.312462  0.689987  1
  Dy  Dy14  1  0.936544  0.937326  0.563065  1
  Dy  Dy15  1  0.562219  0.940350  0.561947  1
  Cd  Cd16  1  0.920753  0.239450  0.919899  1
  Hg  Hg17  1  0.914782  0.916929  0.914134  1
  Hg  Hg18  1  0.254249  0.917240  0.914255  1
  Hg  Hg19  1  0.914782  0.916929  0.254153  1
  Ru  Ru20  1  0.357290  0.358502  0.923065  1
  Ru  Ru21  1  0.357290  0.358502  0.361142  1
  Rh  Rh22  1  0.924928  0.356151  0.359460  1
  Rh  Rh23  1  0.355889  0.924858  0.359626  1
