# generated using pymatgen
data_Se(OF3)2
_symmetry_space_group_name_H-M   'P 1'
_cell_length_a   5.33496389
_cell_length_b   5.42958768
_cell_length_c   5.52062960
_cell_angle_alpha   91.49869223
_cell_angle_beta   99.89301596
_cell_angle_gamma   102.09749756
_symmetry_Int_Tables_number   1
_chemical_formula_structural   Se(OF3)2
_chemical_formula_sum   'Se1 O2 F6'
_cell_volume   153.71670919
_cell_formula_units_Z   1
loop_
 _symmetry_equiv_pos_site_id
 _symmetry_equiv_pos_as_xyz
  1  'x, y, z'
loop_
 _atom_site_type_symbol
 _atom_site_label
 _atom_site_symmetry_multiplicity
 _atom_site_fract_x
 _atom_site_fract_y
 _atom_site_fract_z
 _atom_site_occupancy
  Se  Se0  1  0.000000  0.000000  0.000000  1
  O  O1  1  0.429372  0.560449  0.541133  1
  O  O2  1  0.570628  0.439551  0.458867  1
  F  F3  1  0.733236  0.081119  0.818277  1
  F  F4  1  0.266764  0.918881  0.181723  1
  F  F5  1  0.056248  0.836604  0.746787  1
  F  F6  1  0.943752  0.163396  0.253213  1
  F  F7  1  0.200703  0.272583  0.926116  1
  F  F8  1  0.799297  0.727417  0.073884  1
