# generated using pymatgen
data_Ba2ErCoO5
_symmetry_space_group_name_H-M   'P 1'
_cell_length_a   6.14243100
_cell_length_b   7.93975039
_cell_length_c   12.45164723
_cell_angle_alpha   91.63835275
_cell_angle_beta   90.00000000
_cell_angle_gamma   90.00000000
_symmetry_Int_Tables_number   1
_chemical_formula_structural   Ba2ErCoO5
_chemical_formula_sum   'Ba8 Er4 Co4 O20'
_cell_volume   607.01073067
_cell_formula_units_Z   4
loop_
 _symmetry_equiv_pos_site_id
 _symmetry_equiv_pos_as_xyz
  1  'x, y, z'
loop_
 _atom_site_type_symbol
 _atom_site_label
 _atom_site_symmetry_multiplicity
 _atom_site_fract_x
 _atom_site_fract_y
 _atom_site_fract_z
 _atom_site_occupancy
  Ba  Ba0  1  0.757894  0.492010  0.360199  1
  Ba  Ba1  1  0.742106  0.992010  0.860199  1
  Ba  Ba2  1  0.242106  0.507990  0.639801  1
  Ba  Ba3  1  0.257894  0.007990  0.139801  1
  Ba  Ba4  1  0.753126  0.992627  0.384322  1
  Ba  Ba5  1  0.746874  0.492627  0.884322  1
  Ba  Ba6  1  0.246874  0.007373  0.615678  1
  Ba  Ba7  1  0.253126  0.507373  0.115678  1
  Er  Er8  1  0.747863  0.263497  0.629832  1
  Er  Er9  1  0.752137  0.763497  0.129832  1
  Er  Er10  1  0.252137  0.736503  0.370168  1
  Er  Er11  1  0.247863  0.236503  0.870168  1
  Co  Co12  1  0.741387  0.746291  0.592806  1
  Co  Co13  1  0.758613  0.246291  0.092806  1
  Co  Co14  1  0.258613  0.253709  0.407194  1
  Co  Co15  1  0.241387  0.753709  0.907194  1
  O  O16  1  0.754270  0.973189  0.632708  1
  O  O17  1  0.745730  0.473189  0.132708  1
  O  O18  1  0.245730  0.026811  0.367292  1
  O  O19  1  0.254270  0.526811  0.867292  1
  O  O20  1  0.738728  0.055204  0.171395  1
  O  O21  1  0.761272  0.555204  0.671395  1
  O  O22  1  0.261272  0.944796  0.828605  1
  O  O23  1  0.238728  0.444796  0.328605  1
  O  O24  1  0.538894  0.746478  0.269143  1
  O  O25  1  0.961106  0.246478  0.769143  1
  O  O26  1  0.461106  0.253522  0.730857  1
  O  O27  1  0.038894  0.753522  0.230857  1
  O  O28  1  0.527436  0.228789  0.988725  1
  O  O29  1  0.972564  0.728789  0.488725  1
  O  O30  1  0.472564  0.771211  0.011275  1
  O  O31  1  0.027436  0.271211  0.511275  1
  O  O32  1  0.029739  0.233091  0.017699  1
  O  O33  1  0.470261  0.733091  0.517699  1
  O  O34  1  0.970261  0.766909  0.982301  1
  O  O35  1  0.529739  0.266909  0.482301  1
