# generated using pymatgen
data_Pu4O7F5
_symmetry_space_group_name_H-M   'P 1'
_cell_length_a   6.21759989
_cell_length_b   5.97340596
_cell_length_c   10.26194168
_cell_angle_alpha   76.57318635
_cell_angle_beta   92.55107192
_cell_angle_gamma   59.78907667
_symmetry_Int_Tables_number   1
_chemical_formula_structural   Pu4O7F5
_chemical_formula_sum   'Pu4 O7 F5'
_cell_volume   314.40530371
_cell_formula_units_Z   1
loop_
 _symmetry_equiv_pos_site_id
 _symmetry_equiv_pos_as_xyz
  1  'x, y, z'
loop_
 _atom_site_type_symbol
 _atom_site_label
 _atom_site_symmetry_multiplicity
 _atom_site_fract_x
 _atom_site_fract_y
 _atom_site_fract_z
 _atom_site_occupancy
  Pu  Pu0  1  0.746593  0.497069  0.253037  1
  Pu  Pu1  1  0.466927  0.002157  0.498555  1
  Pu  Pu2  1  0.258831  0.517501  0.741001  1
  Pu  Pu3  1  0.030309  0.989539  0.006110  1
  O  O4  1  0.964519  0.216003  0.117082  1
  O  O5  1  0.529905  0.771026  0.388542  1
  O  O6  1  0.459311  0.718167  0.112367  1
  O  O7  1  0.393166  0.742903  0.656416  1
  O  O8  1  0.413175  0.235486  0.608704  1
  O  O9  1  0.090732  0.769030  0.890402  1
  O  O10  1  0.034042  0.277676  0.392434  1
  F  F11  1  0.896753  0.763339  0.588716  1
  F  F12  1  0.921753  0.739226  0.159470  1
  F  F13  1  0.575245  0.248565  0.339554  1
  F  F14  1  0.608087  0.243538  0.905246  1
  F  F15  1  0.110653  0.268777  0.842363  1
