# generated using pymatgen
data_Y(Th2Co)3
_symmetry_space_group_name_H-M   'P 1'
_cell_length_a   9.77693600
_cell_length_b   9.77693641
_cell_length_c   6.13606200
_cell_angle_alpha   90.00000000
_cell_angle_beta   90.00000000
_cell_angle_gamma   119.99999184
_symmetry_Int_Tables_number   1
_chemical_formula_structural   Y(Th2Co)3
_chemical_formula_sum   'Y2 Th12 Co6'
_cell_volume   507.95585362
_cell_formula_units_Z   2
loop_
 _symmetry_equiv_pos_site_id
 _symmetry_equiv_pos_as_xyz
  1  'x, y, z'
loop_
 _atom_site_type_symbol
 _atom_site_label
 _atom_site_symmetry_multiplicity
 _atom_site_fract_x
 _atom_site_fract_y
 _atom_site_fract_z
 _atom_site_occupancy
  Y  Y0  1  0.333333  0.666667  0.055702  1
  Y  Y1  1  0.666667  0.333333  0.555702  1
  Th  Th2  1  0.125789  0.874211  0.243155  1
  Th  Th3  1  0.251579  0.125789  0.743155  1
  Th  Th4  1  0.874211  0.748421  0.743155  1
  Th  Th5  1  0.125789  0.251579  0.243155  1
  Th  Th6  1  0.748421  0.874211  0.243155  1
  Th  Th7  1  0.874211  0.125789  0.743155  1
  Th  Th8  1  0.542701  0.457299  0.063515  1
  Th  Th9  1  0.085400  0.542701  0.563515  1
  Th  Th10  1  0.457299  0.914600  0.563515  1
  Th  Th11  1  0.542701  0.085400  0.063515  1
  Th  Th12  1  0.914600  0.457299  0.063515  1
  Th  Th13  1  0.457299  0.542701  0.563515  1
  Co  Co14  1  0.819598  0.180402  0.284762  1
  Co  Co15  1  0.639197  0.819598  0.784762  1
  Co  Co16  1  0.180402  0.360803  0.784762  1
  Co  Co17  1  0.819598  0.639197  0.284762  1
  Co  Co18  1  0.360803  0.180402  0.284762  1
  Co  Co19  1  0.180402  0.819598  0.784762  1
