# generated using pymatgen
data_YEr2Al7Cu2
_symmetry_space_group_name_H-M   'P 1'
_cell_length_a   9.06253458
_cell_length_b   9.06253428
_cell_length_c   9.06253542
_cell_angle_alpha   35.14824324
_cell_angle_beta   35.14824773
_cell_angle_gamma   35.14823948
_symmetry_Int_Tables_number   1
_chemical_formula_structural   YEr2Al7Cu2
_chemical_formula_sum   'Y1 Er2 Al7 Cu2'
_cell_volume   220.31091014
_cell_formula_units_Z   1
loop_
 _symmetry_equiv_pos_site_id
 _symmetry_equiv_pos_as_xyz
  1  'x, y, z'
loop_
 _atom_site_type_symbol
 _atom_site_label
 _atom_site_symmetry_multiplicity
 _atom_site_fract_x
 _atom_site_fract_y
 _atom_site_fract_z
 _atom_site_occupancy
  Y  Y0  1  0.000000  0.000000  0.000000  1
  Er  Er1  1  0.857484  0.857484  0.857484  1
  Er  Er2  1  0.142516  0.142516  0.142516  1
  Al  Al3  1  0.417767  0.417767  0.927178  1
  Al  Al4  1  0.927178  0.417767  0.417767  1
  Al  Al5  1  0.417767  0.927178  0.417767  1
  Al  Al6  1  0.500000  0.500000  0.500000  1
  Al  Al7  1  0.582233  0.072822  0.582233  1
  Al  Al8  1  0.072822  0.582233  0.582233  1
  Al  Al9  1  0.582233  0.582233  0.072822  1
  Cu  Cu10  1  0.664576  0.664576  0.664576  1
  Cu  Cu11  1  0.335424  0.335424  0.335424  1
