# generated using pymatgen
data_Ca3Pt4(O6F)2
_symmetry_space_group_name_H-M   'P 1'
_cell_length_a   7.27031351
_cell_length_b   7.27031423
_cell_length_c   7.27031310
_cell_angle_alpha   60.48434830
_cell_angle_beta   60.48434336
_cell_angle_gamma   60.48435185
_symmetry_Int_Tables_number   1
_chemical_formula_structural   Ca3Pt4(O6F)2
_chemical_formula_sum   'Ca3 Pt4 O12 F2'
_cell_volume   274.70904878
_cell_formula_units_Z   1
loop_
 _symmetry_equiv_pos_site_id
 _symmetry_equiv_pos_as_xyz
  1  'x, y, z'
loop_
 _atom_site_type_symbol
 _atom_site_label
 _atom_site_symmetry_multiplicity
 _atom_site_fract_x
 _atom_site_fract_y
 _atom_site_fract_z
 _atom_site_occupancy
  Ca  Ca0  1  0.000000  0.500000  0.500000  1
  Ca  Ca1  1  0.500000  0.500000  0.000000  1
  Ca  Ca2  1  0.500000  0.000000  0.500000  1
  Pt  Pt3  1  0.000000  0.000000  0.000000  1
  Pt  Pt4  1  0.500000  0.000000  0.000000  1
  Pt  Pt5  1  0.000000  0.000000  0.500000  1
  Pt  Pt6  1  0.000000  0.500000  0.000000  1
  O  O7  1  0.936155  0.325325  0.325325  1
  O  O8  1  0.330203  0.918123  0.918123  1
  O  O9  1  0.325325  0.325325  0.936155  1
  O  O10  1  0.918123  0.918123  0.330203  1
  O  O11  1  0.918123  0.330203  0.918123  1
  O  O12  1  0.325325  0.936155  0.325325  1
  O  O13  1  0.063845  0.674675  0.674675  1
  O  O14  1  0.669797  0.081877  0.081877  1
  O  O15  1  0.674675  0.674675  0.063845  1
  O  O16  1  0.081877  0.081877  0.669797  1
  O  O17  1  0.081877  0.669797  0.081877  1
  O  O18  1  0.674675  0.063845  0.674675  1
  F  F19  1  0.367967  0.367967  0.367967  1
  F  F20  1  0.632033  0.632033  0.632033  1
