# generated using pymatgen
data_Hf4Cu3Si4Pt
_symmetry_space_group_name_H-M   'P 1'
_cell_length_a   3.87471200
_cell_length_b   6.50123064
_cell_length_c   7.41554367
_cell_angle_alpha   91.08238068
_cell_angle_beta   90.00000000
_cell_angle_gamma   90.00000000
_symmetry_Int_Tables_number   1
_chemical_formula_structural   Hf4Cu3Si4Pt
_chemical_formula_sum   'Hf4 Cu3 Si4 Pt1'
_cell_volume   186.76715324
_cell_formula_units_Z   1
loop_
 _symmetry_equiv_pos_site_id
 _symmetry_equiv_pos_as_xyz
  1  'x, y, z'
loop_
 _atom_site_type_symbol
 _atom_site_label
 _atom_site_symmetry_multiplicity
 _atom_site_fract_x
 _atom_site_fract_y
 _atom_site_fract_z
 _atom_site_occupancy
  Hf  Hf0  1  0.750000  0.485333  0.315483  1
  Hf  Hf1  1  0.250000  0.021098  0.815020  1
  Hf  Hf2  1  0.750000  0.975675  0.187610  1
  Hf  Hf3  1  0.250000  0.517255  0.678437  1
  Cu  Cu4  1  0.250000  0.655229  0.063841  1
  Cu  Cu5  1  0.250000  0.160386  0.429936  1
  Cu  Cu6  1  0.750000  0.839694  0.573710  1
  Si  Si7  1  0.250000  0.265365  0.123428  1
  Si  Si8  1  0.250000  0.776541  0.389051  1
  Si  Si9  1  0.750000  0.730910  0.883271  1
  Si  Si10  1  0.750000  0.223665  0.606149  1
  Pt  Pt11  1  0.750000  0.348848  0.934066  1
