# generated using pymatgen
data_Ho9Er3GaCo5
_symmetry_space_group_name_H-M   'P 1'
_cell_length_a   8.17435773
_cell_length_b   8.17583385
_cell_length_c   8.17435932
_cell_angle_alpha   110.82803458
_cell_angle_beta   110.71947102
_cell_angle_gamma   106.88946271
_symmetry_Int_Tables_number   1
_chemical_formula_structural   Ho9Er3GaCo5
_chemical_formula_sum   'Ho9 Er3 Ga1 Co5'
_cell_volume   419.95069004
_cell_formula_units_Z   1
loop_
 _symmetry_equiv_pos_site_id
 _symmetry_equiv_pos_as_xyz
  1  'x, y, z'
loop_
 _atom_site_type_symbol
 _atom_site_label
 _atom_site_symmetry_multiplicity
 _atom_site_fract_x
 _atom_site_fract_y
 _atom_site_fract_z
 _atom_site_occupancy
  Ho  Ho0  1  0.289152  0.185849  0.475175  1
  Ho  Ho1  1  0.711243  0.814421  0.525445  1
  Ho  Ho2  1  0.288975  0.814421  0.103178  1
  Ho  Ho3  1  0.710673  0.185849  0.896696  1
  Ho  Ho4  1  0.619160  0.315975  0.302871  1
  Ho  Ho5  1  0.381180  0.684142  0.697426  1
  Ho  Ho6  1  0.013105  0.315975  0.696815  1
  Ho  Ho7  1  0.986715  0.684142  0.302962  1
  Ho  Ho8  1  0.215366  0.406254  0.190887  1
  Er  Er9  1  0.784773  0.593557  0.808785  1
  Er  Er10  1  0.215153  0.023655  0.808502  1
  Er  Er11  1  0.784584  0.975703  0.191119  1
  Ga  Ga12  1  0.500199  0.500111  0.999912  1
  Co  Co13  1  0.999860  0.375503  0.375643  1
  Co  Co14  1  0.000068  0.624724  0.624656  1
  Co  Co15  1  0.386362  0.886633  0.500271  1
  Co  Co16  1  0.613707  0.113738  0.500030  1
  Co  Co17  1  0.999724  0.999349  0.999625  1
