# generated using pymatgen
data_Tb4B16PtRh3
_symmetry_space_group_name_H-M   'P 1'
_cell_length_a   7.02152969
_cell_length_b   7.02152942
_cell_length_c   7.02152898
_cell_angle_alpha   105.14997206
_cell_angle_beta   111.59121017
_cell_angle_gamma   111.75703408
_symmetry_Int_Tables_number   1
_chemical_formula_structural   Tb4B16PtRh3
_chemical_formula_sum   'Tb4 B16 Pt1 Rh3'
_cell_volume   265.35911014
_cell_formula_units_Z   1
loop_
 _symmetry_equiv_pos_site_id
 _symmetry_equiv_pos_as_xyz
  1  'x, y, z'
loop_
 _atom_site_type_symbol
 _atom_site_label
 _atom_site_symmetry_multiplicity
 _atom_site_fract_x
 _atom_site_fract_y
 _atom_site_fract_z
 _atom_site_occupancy
  Tb  Tb0  1  0.002396  0.212713  0.215110  1
  Tb  Tb1  1  0.497529  0.752941  0.250470  1
  Tb  Tb2  1  0.497529  0.247059  0.744588  1
  Tb  Tb3  1  0.002396  0.787287  0.789684  1
  B  B4  1  0.843598  0.737055  0.106542  1
  B  B5  1  0.369487  0.262945  0.106544  1
  B  B6  1  0.002668  0.587712  0.111015  1
  B  B7  1  0.523304  0.108348  0.111017  1
  B  B8  1  0.157971  0.892639  0.265334  1
  B  B9  1  0.372695  0.107363  0.265334  1
  B  B10  1  0.002668  0.891652  0.414955  1
  B  B11  1  0.523304  0.412288  0.414957  1
  B  B12  1  0.000445  0.111109  0.586120  1
  B  B13  1  0.475011  0.585675  0.586121  1
  B  B14  1  0.842138  0.107804  0.734336  1
  B  B15  1  0.626533  0.892196  0.734337  1
  B  B16  1  0.475011  0.888889  0.889334  1
  B  B17  1  0.000445  0.414324  0.889334  1
  B  B18  1  0.157321  0.265012  0.892311  1
  B  B19  1  0.627300  0.734991  0.892311  1
  Pt  Pt20  1  0.758549  0.500002  0.258549  1
  Rh  Rh21  1  0.239724  0.739017  0.500707  1
  Rh  Rh22  1  0.761692  0.260987  0.500707  1
  Rh  Rh23  1  0.240292  0.500001  0.740291  1
