# generated using pymatgen
data_Th3Sn3OsRh2
_symmetry_space_group_name_H-M   'P 1'
_cell_length_a   7.60028600
_cell_length_b   7.60028585
_cell_length_c   4.11395300
_cell_angle_alpha   90.00000000
_cell_angle_beta   90.00000000
_cell_angle_gamma   120.00000936
_symmetry_Int_Tables_number   1
_chemical_formula_structural   Th3Sn3OsRh2
_chemical_formula_sum   'Th3 Sn3 Os1 Rh2'
_cell_volume   205.80208872
_cell_formula_units_Z   1
loop_
 _symmetry_equiv_pos_site_id
 _symmetry_equiv_pos_as_xyz
  1  'x, y, z'
loop_
 _atom_site_type_symbol
 _atom_site_label
 _atom_site_symmetry_multiplicity
 _atom_site_fract_x
 _atom_site_fract_y
 _atom_site_fract_z
 _atom_site_occupancy
  Th  Th0  1  0.416088  0.411247  0.500000  1
  Th  Th1  1  0.588753  0.004841  0.500000  1
  Th  Th2  1  0.995159  0.583912  0.500000  1
  Sn  Sn3  1  0.749137  0.748949  0.000000  1
  Sn  Sn4  1  0.251051  0.000187  0.000000  1
  Sn  Sn5  1  0.999813  0.250863  0.000000  1
  Os  Os6  1  0.666667  0.333333  0.000000  1
  Rh  Rh7  1  0.333333  0.666667  0.000000  1
  Rh  Rh8  1  0.000000  0.000000  0.500000  1
