# generated using pymatgen
data_Pr8HoErIr4
_symmetry_space_group_name_H-M   'P 1'
_cell_length_a   6.69756982
_cell_length_b   7.27737098
_cell_length_c   8.95588231
_cell_angle_alpha   96.28210740
_cell_angle_beta   111.95759008
_cell_angle_gamma   90.00000214
_symmetry_Int_Tables_number   1
_chemical_formula_structural   Pr8HoErIr4
_chemical_formula_sum   'Pr8 Ho1 Er1 Ir4'
_cell_volume   402.02388869
_cell_formula_units_Z   1
loop_
 _symmetry_equiv_pos_site_id
 _symmetry_equiv_pos_as_xyz
  1  'x, y, z'
loop_
 _atom_site_type_symbol
 _atom_site_label
 _atom_site_symmetry_multiplicity
 _atom_site_fract_x
 _atom_site_fract_y
 _atom_site_fract_z
 _atom_site_occupancy
  Pr  Pr0  1  0.976300  0.923828  0.181705  1
  Pr  Pr1  1  0.794596  0.576172  0.818295  1
  Pr  Pr2  1  0.023719  0.076109  0.818279  1
  Pr  Pr3  1  0.205440  0.423891  0.181721  1
  Pr  Pr4  1  0.646482  0.810707  0.430462  1
  Pr  Pr5  1  0.216020  0.689293  0.569538  1
  Pr  Pr6  1  0.353468  0.189284  0.569482  1
  Pr  Pr7  1  0.783985  0.310716  0.430518  1
  Ho  Ho8  1  0.560642  0.250000  0.000000  1
  Er  Er9  1  0.439403  0.750000  0.000000  1
  Ir  Ir10  1  0.808107  0.569542  0.208293  1
  Ir  Ir11  1  0.599816  0.930458  0.791707  1
  Ir  Ir12  1  0.191865  0.430619  0.791707  1
  Ir  Ir13  1  0.400157  0.069381  0.208293  1
