# generated using pymatgen
data_Ac3InGaSn3
_symmetry_space_group_name_H-M   'P 1'
_cell_length_a   6.86492236
_cell_length_b   6.86492296
_cell_length_c   10.82289545
_cell_angle_alpha   90.02108082
_cell_angle_beta   90.02107836
_cell_angle_gamma   102.33668921
_symmetry_Int_Tables_number   1
_chemical_formula_structural   Ac3InGaSn3
_chemical_formula_sum   'Ac6 In2 Ga2 Sn6'
_cell_volume   498.27463432
_cell_formula_units_Z   2
loop_
 _symmetry_equiv_pos_site_id
 _symmetry_equiv_pos_as_xyz
  1  'x, y, z'
loop_
 _atom_site_type_symbol
 _atom_site_label
 _atom_site_symmetry_multiplicity
 _atom_site_fract_x
 _atom_site_fract_y
 _atom_site_fract_z
 _atom_site_occupancy
  Ac  Ac0  1  0.642870  0.642870  0.261555  1
  Ac  Ac1  1  0.357130  0.357130  0.738445  1
  Ac  Ac2  1  0.797252  0.202748  0.000000  1
  Ac  Ac3  1  0.202748  0.797252  0.000000  1
  Ac  Ac4  1  0.203002  0.796998  0.500000  1
  Ac  Ac5  1  0.796998  0.203002  0.500000  1
  In  In6  1  0.315002  0.315002  0.045989  1
  In  In7  1  0.684998  0.684998  0.954011  1
  Ga  Ga8  1  0.692393  0.692393  0.553755  1
  Ga  Ga9  1  0.307607  0.307607  0.446245  1
  Sn  Sn10  1  0.091215  0.487103  0.253263  1
  Sn  Sn11  1  0.908785  0.512897  0.746737  1
  Sn  Sn12  1  0.487103  0.091215  0.253263  1
  Sn  Sn13  1  0.512897  0.908785  0.746737  1
  Sn  Sn14  1  0.036656  0.036656  0.252632  1
  Sn  Sn15  1  0.963344  0.963344  0.747368  1
