# generated using pymatgen
data_Yb2HoTaO6
_symmetry_space_group_name_H-M   'P 1'
_cell_length_a   5.56589808
_cell_length_b   5.80201900
_cell_length_c   8.03513083
_cell_angle_alpha   90.00005817
_cell_angle_beta   89.77634697
_cell_angle_gamma   90.00008078
_symmetry_Int_Tables_number   1
_chemical_formula_structural   Yb2HoTaO6
_chemical_formula_sum   'Yb4 Ho2 Ta2 O12'
_cell_volume   259.48009006
_cell_formula_units_Z   2
loop_
 _symmetry_equiv_pos_site_id
 _symmetry_equiv_pos_as_xyz
  1  'x, y, z'
loop_
 _atom_site_type_symbol
 _atom_site_label
 _atom_site_symmetry_multiplicity
 _atom_site_fract_x
 _atom_site_fract_y
 _atom_site_fract_z
 _atom_site_occupancy
  Yb  Yb0  1  0.517589  0.443303  0.248264  1
  Yb  Yb1  1  0.982411  0.943302  0.251741  1
  Yb  Yb2  1  0.017583  0.056693  0.748263  1
  Yb  Yb3  1  0.482416  0.556696  0.751742  1
  Ho  Ho4  1  0.499997  0.999991  0.999979  1
  Ho  Ho5  1  0.000017  0.500006  0.499967  1
  Ta  Ta6  1  0.000016  0.500007  0.000006  1
  Ta  Ta7  1  0.499971  0.999991  0.500015  1
  O  O8  1  0.709402  0.684482  0.059430  1
  O  O9  1  0.821568  0.211850  0.067443  1
  O  O10  1  0.118450  0.549278  0.234123  1
  O  O11  1  0.381550  0.049277  0.265883  1
  O  O12  1  0.678431  0.711852  0.432559  1
  O  O13  1  0.790600  0.184481  0.440571  1
  O  O14  1  0.209396  0.815520  0.559432  1
  O  O15  1  0.321571  0.288151  0.567442  1
  O  O16  1  0.618439  0.950728  0.734126  1
  O  O17  1  0.881562  0.450725  0.765879  1
  O  O18  1  0.178430  0.788151  0.932559  1
  O  O19  1  0.290604  0.315521  0.940574  1
