# generated using pymatgen
data_TbYb2Ga9CuPd
_symmetry_space_group_name_H-M   'P 1'
_cell_length_a   8.10041146
_cell_length_b   8.10041053
_cell_length_c   8.10041090
_cell_angle_alpha   148.73374822
_cell_angle_beta   109.18113869
_cell_angle_gamma   79.43677865
_symmetry_Int_Tables_number   1
_chemical_formula_structural   TbYb2Ga9CuPd
_chemical_formula_sum   'Tb1 Yb2 Ga9 Cu1 Pd1'
_cell_volume   255.34562187
_cell_formula_units_Z   1
loop_
 _symmetry_equiv_pos_site_id
 _symmetry_equiv_pos_as_xyz
  1  'x, y, z'
loop_
 _atom_site_type_symbol
 _atom_site_label
 _atom_site_symmetry_multiplicity
 _atom_site_fract_x
 _atom_site_fract_y
 _atom_site_fract_z
 _atom_site_occupancy
  Tb  Tb0  1  0.498393  0.500000  0.998393  1
  Yb  Yb1  1  0.198580  0.199140  0.999440  1
  Yb  Yb2  1  0.800299  0.800860  0.999440  1
  Ga  Ga3  1  0.077593  0.360451  0.717141  1
  Ga  Ga4  1  0.922462  0.639231  0.283231  1
  Ga  Ga5  1  0.644001  0.360769  0.283231  1
  Ga  Ga6  1  0.356689  0.639549  0.717141  1
  Ga  Ga7  1  0.792698  0.155860  0.636839  1
  Ga  Ga8  1  0.208795  0.842890  0.365904  1
  Ga  Ga9  1  0.523013  0.157110  0.365904  1
  Ga  Ga10  1  0.480980  0.844140  0.636839  1
  Ga  Ga11  1  0.997554  0.500000  0.497554  1
  Cu  Cu12  1  0.816686  0.000000  0.816686  1
  Pd  Pd13  1  0.182259  0.000000  0.182259  1
