# generated using pymatgen
data_Zr2Ta3Ga4
_symmetry_space_group_name_H-M   'P 1'
_cell_length_a   6.91110300
_cell_length_b   7.01725700
_cell_length_c   13.38010300
_cell_angle_alpha   90.00000000
_cell_angle_beta   90.00000000
_cell_angle_gamma   90.00000000
_symmetry_Int_Tables_number   1
_chemical_formula_structural   Zr2Ta3Ga4
_chemical_formula_sum   'Zr8 Ta12 Ga16'
_cell_volume   648.89466659
_cell_formula_units_Z   4
loop_
 _symmetry_equiv_pos_site_id
 _symmetry_equiv_pos_as_xyz
  1  'x, y, z'
loop_
 _atom_site_type_symbol
 _atom_site_label
 _atom_site_symmetry_multiplicity
 _atom_site_fract_x
 _atom_site_fract_y
 _atom_site_fract_z
 _atom_site_occupancy
  Zr  Zr0  1  0.497615  0.672772  0.594401  1
  Zr  Zr1  1  0.997615  0.827228  0.905599  1
  Zr  Zr2  1  0.502385  0.327228  0.094401  1
  Zr  Zr3  1  0.002385  0.172772  0.405599  1
  Zr  Zr4  1  0.502385  0.327228  0.405599  1
  Zr  Zr5  1  0.002385  0.172772  0.094401  1
  Zr  Zr6  1  0.497615  0.672772  0.905599  1
  Zr  Zr7  1  0.997615  0.827228  0.594401  1
  Ta  Ta8  1  0.655056  0.177553  0.627945  1
  Ta  Ta9  1  0.155056  0.322447  0.872055  1
  Ta  Ta10  1  0.344944  0.822447  0.127945  1
  Ta  Ta11  1  0.844944  0.677553  0.372055  1
  Ta  Ta12  1  0.344944  0.822447  0.372055  1
  Ta  Ta13  1  0.844944  0.677553  0.127945  1
  Ta  Ta14  1  0.655056  0.177553  0.872055  1
  Ta  Ta15  1  0.155056  0.322447  0.627945  1
  Ta  Ta16  1  0.836625  0.484691  0.750000  1
  Ta  Ta17  1  0.336625  0.015309  0.750000  1
  Ta  Ta18  1  0.163375  0.515309  0.250000  1
  Ta  Ta19  1  0.663375  0.984691  0.250000  1
  Ga  Ga20  1  0.675780  0.965439  0.462256  1
  Ga  Ga21  1  0.175780  0.534561  0.037744  1
  Ga  Ga22  1  0.324220  0.034561  0.962256  1
  Ga  Ga23  1  0.824220  0.465439  0.537744  1
  Ga  Ga24  1  0.324220  0.034561  0.537744  1
  Ga  Ga25  1  0.824220  0.465439  0.962256  1
  Ga  Ga26  1  0.675780  0.965439  0.037744  1
  Ga  Ga27  1  0.175780  0.534561  0.462256  1
  Ga  Ga28  1  0.456125  0.395109  0.750000  1
  Ga  Ga29  1  0.956125  0.104891  0.750000  1
  Ga  Ga30  1  0.543875  0.604891  0.250000  1
  Ga  Ga31  1  0.043875  0.895109  0.250000  1
  Ga  Ga32  1  0.697631  0.851817  0.750000  1
  Ga  Ga33  1  0.197631  0.648183  0.750000  1
  Ga  Ga34  1  0.302369  0.148183  0.250000  1
  Ga  Ga35  1  0.802369  0.351817  0.250000  1
