# generated using pymatgen
data_Sr3DyBi3
_symmetry_space_group_name_H-M   'P 1'
_cell_length_a   8.43650471
_cell_length_b   8.74751724
_cell_length_c   8.74751710
_cell_angle_alpha   110.18022135
_cell_angle_beta   108.75255948
_cell_angle_gamma   108.75256832
_symmetry_Int_Tables_number   1
_chemical_formula_structural   Sr3DyBi3
_chemical_formula_sum   'Sr6 Dy2 Bi6'
_cell_volume   501.28585014
_cell_formula_units_Z   2
loop_
 _symmetry_equiv_pos_site_id
 _symmetry_equiv_pos_as_xyz
  1  'x, y, z'
loop_
 _atom_site_type_symbol
 _atom_site_label
 _atom_site_symmetry_multiplicity
 _atom_site_fract_x
 _atom_site_fract_y
 _atom_site_fract_z
 _atom_site_occupancy
  Sr  Sr0  1  0.501395  0.499260  0.140487  1
  Sr  Sr1  1  0.360908  0.859515  0.358772  1
  Sr  Sr2  1  0.001394  0.140487  0.499259  1
  Sr  Sr3  1  0.002136  0.641228  0.500741  1
  Sr  Sr4  1  0.502136  0.500741  0.641228  1
  Sr  Sr5  1  0.860908  0.358771  0.859514  1
  Dy  Dy6  1  0.133980  0.000000  0.000000  1
  Dy  Dy7  1  0.633979  0.000000  0.000000  1
  Bi  Bi8  1  0.877040  0.763254  0.116279  1
  Bi  Bi9  1  0.113784  0.353024  0.236746  1
  Bi  Bi10  1  0.613784  0.236746  0.353024  1
  Bi  Bi11  1  0.760759  0.883721  0.646976  1
  Bi  Bi12  1  0.377038  0.116278  0.763253  1
  Bi  Bi13  1  0.260760  0.646976  0.883721  1
