# generated using pymatgen
data_Ce4ZnSiHgRh10
_symmetry_space_group_name_H-M   'P 1'
_cell_length_a   7.23976536
_cell_length_b   7.33262530
_cell_length_c   7.33262428
_cell_angle_alpha   107.65843360
_cell_angle_beta   110.73091001
_cell_angle_gamma   110.58608156
_symmetry_Int_Tables_number   1
_chemical_formula_structural   Ce4ZnSiHgRh10
_chemical_formula_sum   'Ce4 Zn1 Si1 Hg1 Rh10'
_cell_volume   297.35720352
_cell_formula_units_Z   1
loop_
 _symmetry_equiv_pos_site_id
 _symmetry_equiv_pos_as_xyz
  1  'x, y, z'
loop_
 _atom_site_type_symbol
 _atom_site_label
 _atom_site_symmetry_multiplicity
 _atom_site_fract_x
 _atom_site_fract_y
 _atom_site_fract_z
 _atom_site_occupancy
  Ce  Ce0  1  0.028756  0.011139  0.513139  1
  Ce  Ce1  1  0.028756  0.515617  0.017618  1
  Ce  Ce2  1  0.475543  0.966785  0.963950  1
  Ce  Ce3  1  0.475543  0.511593  0.508758  1
  Zn  Zn4  1  0.746066  0.499584  0.246482  1
  Si  Si5  1  0.000659  0.001055  0.999604  1
  Hg  Hg6  1  0.746991  0.251693  0.495298  1
  Rh  Rh7  1  0.514629  0.257499  0.762102  1
  Rh  Rh8  1  0.246611  0.496160  0.750451  1
  Rh  Rh9  1  0.233123  0.743194  0.489929  1
  Rh  Rh10  1  0.514629  0.752527  0.257129  1
  Rh  Rh11  1  0.738991  0.721997  0.016993  1
  Rh  Rh12  1  0.276421  0.000131  0.276290  1
  Rh  Rh13  1  0.974930  0.263580  0.253804  1
  Rh  Rh14  1  0.294707  0.281204  0.013503  1
  Rh  Rh15  1  0.728712  0.005114  0.723597  1
  Rh  Rh16  1  0.974930  0.721127  0.711351  1
