# generated using pymatgen
data_Y4Lu(InBi)2
_symmetry_space_group_name_H-M   'P 1'
_cell_length_a   9.02158200
_cell_length_b   9.02158175
_cell_length_c   8.29431400
_cell_angle_alpha   90.00000000
_cell_angle_beta   90.00000000
_cell_angle_gamma   125.20026997
_symmetry_Int_Tables_number   1
_chemical_formula_structural   Y4Lu(InBi)2
_chemical_formula_sum   'Y8 Lu2 In4 Bi4'
_cell_volume   551.62443103
_cell_formula_units_Z   2
loop_
 _symmetry_equiv_pos_site_id
 _symmetry_equiv_pos_as_xyz
  1  'x, y, z'
loop_
 _atom_site_type_symbol
 _atom_site_label
 _atom_site_symmetry_multiplicity
 _atom_site_fract_x
 _atom_site_fract_y
 _atom_site_fract_z
 _atom_site_occupancy
  Y  Y0  1  0.036027  0.301775  0.334061  1
  Y  Y1  1  0.963973  0.698225  0.665939  1
  Y  Y2  1  0.463973  0.198225  0.834061  1
  Y  Y3  1  0.801775  0.536027  0.165939  1
  Y  Y4  1  0.536027  0.801775  0.165939  1
  Y  Y5  1  0.198225  0.463973  0.834061  1
  Y  Y6  1  0.698225  0.963973  0.665939  1
  Y  Y7  1  0.301775  0.036027  0.334061  1
  Lu  Lu8  1  0.000000  0.000000  0.000000  1
  Lu  Lu9  1  0.500000  0.500000  0.500000  1
  In  In10  1  0.368928  0.368928  0.130754  1
  In  In11  1  0.631072  0.631072  0.869246  1
  In  In12  1  0.131072  0.131072  0.630754  1
  In  In13  1  0.868928  0.868928  0.369246  1
  Bi  Bi14  1  0.795909  0.204091  0.000000  1
  Bi  Bi15  1  0.204091  0.795909  0.000000  1
  Bi  Bi16  1  0.704091  0.295909  0.500000  1
  Bi  Bi17  1  0.295909  0.704091  0.500000  1
