# generated using pymatgen
data_PrCd3IrPd(RhO7)2
_symmetry_space_group_name_H-M   'P 1'
_cell_length_a   7.23698401
_cell_length_b   7.33264790
_cell_length_c   7.23698500
_cell_angle_alpha   60.43063771
_cell_angle_beta   60.00000004
_cell_angle_gamma   60.43064029
_symmetry_Int_Tables_number   1
_chemical_formula_structural   PrCd3IrPd(RhO7)2
_chemical_formula_sum   'Pr1 Cd3 Ir1 Pd1 Rh2 O14'
_cell_volume   273.31126434
_cell_formula_units_Z   1
loop_
 _symmetry_equiv_pos_site_id
 _symmetry_equiv_pos_as_xyz
  1  'x, y, z'
loop_
 _atom_site_type_symbol
 _atom_site_label
 _atom_site_symmetry_multiplicity
 _atom_site_fract_x
 _atom_site_fract_y
 _atom_site_fract_z
 _atom_site_occupancy
  Pr  Pr0  1  0.125000  0.625000  0.125000  1
  Cd  Cd1  1  0.125000  0.125000  0.625000  1
  Cd  Cd2  1  0.125000  0.125000  0.125000  1
  Cd  Cd3  1  0.625000  0.125000  0.125000  1
  Ir  Ir4  1  0.625000  0.125000  0.625000  1
  Pd  Pd5  1  0.625000  0.625000  0.625000  1
  Rh  Rh6  1  0.125000  0.625000  0.625000  1
  Rh  Rh7  1  0.625000  0.625000  0.125000  1
  O  O8  1  0.961174  0.537790  0.545106  1
  O  O9  1  0.307341  0.301542  0.700693  1
  O  O10  1  0.953337  0.540653  0.953337  1
  O  O11  1  0.700693  0.301542  0.307341  1
  O  O12  1  0.545106  0.537790  0.961174  1
  O  O13  1  0.549326  0.956635  0.549326  1
  O  O14  1  0.549307  0.948458  0.942659  1
  O  O15  1  0.256198  0.229730  0.256198  1
  O  O16  1  0.288826  0.712210  0.704894  1
  O  O17  1  0.700674  0.293365  0.700674  1
  O  O18  1  0.993802  0.020270  0.993802  1
  O  O19  1  0.942659  0.948458  0.549307  1
  O  O20  1  0.296663  0.709347  0.296663  1
  O  O21  1  0.704894  0.712210  0.288826  1
