# generated using pymatgen
data_La12Pr8Si15Te
_symmetry_space_group_name_H-M   'P 1'
_cell_length_a   8.04043661
_cell_length_b   8.03625712
_cell_length_c   15.43657600
_cell_angle_alpha   90.03256829
_cell_angle_beta   89.72204396
_cell_angle_gamma   89.86972942
_symmetry_Int_Tables_number   1
_chemical_formula_structural   La12Pr8Si15Te
_chemical_formula_sum   'La12 Pr8 Si15 Te1'
_cell_volume   997.42012251
_cell_formula_units_Z   1
loop_
 _symmetry_equiv_pos_site_id
 _symmetry_equiv_pos_as_xyz
  1  'x, y, z'
loop_
 _atom_site_type_symbol
 _atom_site_label
 _atom_site_symmetry_multiplicity
 _atom_site_fract_x
 _atom_site_fract_y
 _atom_site_fract_z
 _atom_site_occupancy
  La  La0  1  0.309729  0.310655  0.000507  1
  La  La1  1  0.191496  0.810112  0.250043  1
  La  La2  1  0.797550  0.188432  0.752987  1
  La  La3  1  0.687349  0.689196  0.495378  1
  La  La4  1  0.376550  0.010864  0.446976  1
  La  La5  1  0.494053  0.872588  0.698227  1
  La  La6  1  0.511563  0.121959  0.198150  1
  La  La7  1  0.876977  0.488264  0.299494  1
  La  La8  1  0.121076  0.515083  0.805478  1
  La  La9  1  0.626436  0.986015  0.950651  1
  La  La10  1  0.998557  0.384324  0.545065  1
  La  La11  1  0.989519  0.622472  0.053097  1
  Pr  Pr12  1  0.132410  0.987625  0.877615  1
  Pr  Pr13  1  0.516402  0.628099  0.126604  1
  Pr  Pr14  1  0.492239  0.378619  0.626956  1
  Pr  Pr15  1  0.630258  0.517985  0.876639  1
  Pr  Pr16  1  0.371829  0.483218  0.373473  1
  Pr  Pr17  1  0.872301  0.016970  0.375965  1
  Pr  Pr18  1  0.985209  0.128062  0.124903  1
  Pr  Pr19  1  0.004782  0.856261  0.620875  1
  Si  Si20  1  0.331691  0.698529  0.951084  1
  Si  Si21  1  0.663035  0.301234  0.450059  1
  Si  Si22  1  0.702556  0.334893  0.052142  1
  Si  Si23  1  0.301722  0.668526  0.549012  1
  Si  Si24  1  0.801676  0.833867  0.200369  1
  Si  Si25  1  0.167124  0.198767  0.299507  1
  Si  Si26  1  0.838318  0.801243  0.799641  1
  Si  Si27  1  0.287949  0.920575  0.058635  1
  Si  Si28  1  0.579097  0.790275  0.307719  1
  Si  Si29  1  0.444113  0.211140  0.821455  1
  Si  Si30  1  0.789989  0.576759  0.691669  1
  Si  Si31  1  0.211448  0.421449  0.191902  1
  Si  Si32  1  0.704453  0.077519  0.558592  1
  Si  Si33  1  0.924383  0.290094  0.942295  1
  Si  Si34  1  0.079006  0.712597  0.440016  1
  Te  Te35  1  0.187148  0.165734  0.686819  1
