# generated using pymatgen
data_LaPr3In2Rh3
_symmetry_space_group_name_H-M   'P 1'
_cell_length_a   7.81855834
_cell_length_b   7.81855923
_cell_length_c   4.26824800
_cell_angle_alpha   90.00000000
_cell_angle_beta   90.00000000
_cell_angle_gamma   121.48707208
_symmetry_Int_Tables_number   1
_chemical_formula_structural   LaPr3In2Rh3
_chemical_formula_sum   'La1 Pr3 In2 Rh3'
_cell_volume   222.49941739
_cell_formula_units_Z   1
loop_
 _symmetry_equiv_pos_site_id
 _symmetry_equiv_pos_as_xyz
  1  'x, y, z'
loop_
 _atom_site_type_symbol
 _atom_site_label
 _atom_site_symmetry_multiplicity
 _atom_site_fract_x
 _atom_site_fract_y
 _atom_site_fract_z
 _atom_site_occupancy
  La  La0  1  0.749549  0.749549  0.000000  1
  Pr  Pr1  1  0.028453  0.585775  0.500000  1
  Pr  Pr2  1  0.380755  0.380755  0.500000  1
  Pr  Pr3  1  0.585775  0.028453  0.500000  1
  In  In4  1  0.995850  0.250530  0.000000  1
  In  In5  1  0.250530  0.995850  0.000000  1
  Rh  Rh6  1  0.333190  0.668159  0.000000  1
  Rh  Rh7  1  0.007739  0.007739  0.500000  1
  Rh  Rh8  1  0.668159  0.333190  0.000000  1
