# generated using pymatgen
data_TbTm5Th2(MgRh)2
_symmetry_space_group_name_H-M   'P 1'
_cell_length_a   9.71772118
_cell_length_b   9.71772183
_cell_length_c   9.70582200
_cell_angle_alpha   60.04049952
_cell_angle_beta   60.04049729
_cell_angle_gamma   59.91900631
_symmetry_Int_Tables_number   1
_chemical_formula_structural   TbTm5Th2(MgRh)2
_chemical_formula_sum   'Tb2 Tm10 Th4 Mg4 Rh4'
_cell_volume   648.10434256
_cell_formula_units_Z   2
loop_
 _symmetry_equiv_pos_site_id
 _symmetry_equiv_pos_as_xyz
  1  'x, y, z'
loop_
 _atom_site_type_symbol
 _atom_site_label
 _atom_site_symmetry_multiplicity
 _atom_site_fract_x
 _atom_site_fract_y
 _atom_site_fract_z
 _atom_site_occupancy
  Tb  Tb0  1  0.567124  0.567124  0.932876  1
  Tb  Tb1  1  0.932876  0.932876  0.567124  1
  Tm  Tm2  1  0.814114  0.185886  0.185886  1
  Tm  Tm3  1  0.185886  0.814114  0.814114  1
  Tm  Tm4  1  0.185886  0.814114  0.185886  1
  Tm  Tm5  1  0.814114  0.185886  0.814114  1
  Tm  Tm6  1  0.186088  0.186088  0.813912  1
  Tm  Tm7  1  0.813912  0.813912  0.186088  1
  Tm  Tm8  1  0.934236  0.565764  0.565764  1
  Tm  Tm9  1  0.565764  0.934236  0.934236  1
  Tm  Tm10  1  0.565764  0.934236  0.565764  1
  Tm  Tm11  1  0.934236  0.565764  0.934236  1
  Th  Th12  1  0.349265  0.349265  0.349456  1
  Th  Th13  1  0.349265  0.349265  0.952016  1
  Th  Th14  1  0.349456  0.952016  0.349265  1
  Th  Th15  1  0.952016  0.349456  0.349265  1
  Mg  Mg16  1  0.580385  0.580385  0.580665  1
  Mg  Mg17  1  0.580385  0.580385  0.258566  1
  Mg  Mg18  1  0.580665  0.258566  0.580385  1
  Mg  Mg19  1  0.258566  0.580665  0.580385  1
  Rh  Rh20  1  0.143878  0.143878  0.142509  1
  Rh  Rh21  1  0.143878  0.143878  0.569733  1
  Rh  Rh22  1  0.142509  0.569733  0.143878  1
  Rh  Rh23  1  0.569733  0.142509  0.143878  1
