# generated using pymatgen
data_NdY(ZrIr)2
_symmetry_space_group_name_H-M   'P 1'
_cell_length_a   4.60725300
_cell_length_b   7.18152300
_cell_length_c   8.43654000
_cell_angle_alpha   90.00000000
_cell_angle_beta   90.00000000
_cell_angle_gamma   90.00000000
_symmetry_Int_Tables_number   1
_chemical_formula_structural   NdY(ZrIr)2
_chemical_formula_sum   'Nd2 Y2 Zr4 Ir4'
_cell_volume   279.14058684
_cell_formula_units_Z   2
loop_
 _symmetry_equiv_pos_site_id
 _symmetry_equiv_pos_as_xyz
  1  'x, y, z'
loop_
 _atom_site_type_symbol
 _atom_site_label
 _atom_site_symmetry_multiplicity
 _atom_site_fract_x
 _atom_site_fract_y
 _atom_site_fract_z
 _atom_site_occupancy
  Nd  Nd0  1  0.250000  0.985691  0.322876  1
  Nd  Nd1  1  0.250000  0.485691  0.177124  1
  Y  Y2  1  0.750000  0.016676  0.678818  1
  Y  Y3  1  0.750000  0.516676  0.821182  1
  Zr  Zr4  1  0.250000  0.357472  0.580234  1
  Zr  Zr5  1  0.250000  0.857472  0.919766  1
  Zr  Zr6  1  0.750000  0.640185  0.431532  1
  Zr  Zr7  1  0.750000  0.140185  0.068468  1
  Ir  Ir8  1  0.250000  0.226866  0.906014  1
  Ir  Ir9  1  0.250000  0.726866  0.593986  1
  Ir  Ir10  1  0.750000  0.773108  0.084974  1
  Ir  Ir11  1  0.750000  0.273108  0.415026  1
