# generated using pymatgen
data_Y16Cd4OsPdPt2
_symmetry_space_group_name_H-M   'P 1'
_cell_length_a   9.76033565
_cell_length_b   9.76033659
_cell_length_c   9.74996348
_cell_angle_alpha   59.52078776
_cell_angle_beta   59.52079146
_cell_angle_gamma   59.54287719
_symmetry_Int_Tables_number   1
_chemical_formula_structural   Y16Cd4OsPdPt2
_chemical_formula_sum   'Y16 Cd4 Os1 Pd1 Pt2'
_cell_volume   649.72961505
_cell_formula_units_Z   1
loop_
 _symmetry_equiv_pos_site_id
 _symmetry_equiv_pos_as_xyz
  1  'x, y, z'
loop_
 _atom_site_type_symbol
 _atom_site_label
 _atom_site_symmetry_multiplicity
 _atom_site_fract_x
 _atom_site_fract_y
 _atom_site_fract_z
 _atom_site_occupancy
  Y  Y0  1  0.352818  0.352818  0.351120  1
  Y  Y1  1  0.350218  0.350218  0.947348  1
  Y  Y2  1  0.351082  0.946352  0.349307  1
  Y  Y3  1  0.946352  0.351082  0.349307  1
  Y  Y4  1  0.814317  0.189268  0.188973  1
  Y  Y5  1  0.189095  0.808475  0.810704  1
  Y  Y6  1  0.189268  0.814317  0.188973  1
  Y  Y7  1  0.808475  0.189095  0.810704  1
  Y  Y8  1  0.189041  0.189041  0.815744  1
  Y  Y9  1  0.809650  0.809650  0.188878  1
  Y  Y10  1  0.935303  0.566152  0.565085  1
  Y  Y11  1  0.558821  0.937650  0.937558  1
  Y  Y12  1  0.566152  0.935303  0.565085  1
  Y  Y13  1  0.937650  0.558821  0.937558  1
  Y  Y14  1  0.565115  0.565115  0.935593  1
  Y  Y15  1  0.937152  0.937152  0.558911  1
  Cd  Cd16  1  0.580437  0.580437  0.580303  1
  Cd  Cd17  1  0.581024  0.581024  0.254651  1
  Cd  Cd18  1  0.581054  0.254556  0.581052  1
  Cd  Cd19  1  0.254556  0.581054  0.581052  1
  Os  Os20  1  0.143323  0.143323  0.143144  1
  Pd  Pd21  1  0.143683  0.143683  0.571324  1
  Pt  Pt22  1  0.143429  0.571992  0.143815  1
  Pt  Pt23  1  0.571992  0.143429  0.143815  1
