# generated using pymatgen
data_LaNd(Si2Pd7)3
_symmetry_space_group_name_H-M   'P 1'
_cell_length_a   8.71823116
_cell_length_b   8.71823024
_cell_length_c   8.71823100
_cell_angle_alpha   60.00000090
_cell_angle_beta   60.00000442
_cell_angle_gamma   59.99999723
_symmetry_Int_Tables_number   1
_chemical_formula_structural   LaNd(Si2Pd7)3
_chemical_formula_sum   'La1 Nd1 Si6 Pd21'
_cell_volume   468.56527110
_cell_formula_units_Z   1
loop_
 _symmetry_equiv_pos_site_id
 _symmetry_equiv_pos_as_xyz
  1  'x, y, z'
loop_
 _atom_site_type_symbol
 _atom_site_label
 _atom_site_symmetry_multiplicity
 _atom_site_fract_x
 _atom_site_fract_y
 _atom_site_fract_z
 _atom_site_occupancy
  La  La0  1  0.750000  0.750000  0.750000  1
  Nd  Nd1  1  0.250000  0.250000  0.250000  1
  Si  Si2  1  0.735623  0.735623  0.264377  1
  Si  Si3  1  0.264377  0.735623  0.264377  1
  Si  Si4  1  0.735623  0.264377  0.264377  1
  Si  Si5  1  0.264377  0.264377  0.735623  1
  Si  Si6  1  0.735623  0.264377  0.735623  1
  Si  Si7  1  0.264377  0.735623  0.735623  1
  Pd  Pd8  1  0.000000  0.000000  0.000000  1
  Pd  Pd9  1  0.614485  0.614485  0.156547  1
  Pd  Pd10  1  0.614485  0.156547  0.614485  1
  Pd  Pd11  1  0.156547  0.614485  0.614485  1
  Pd  Pd12  1  0.614485  0.614485  0.614485  1
  Pd  Pd13  1  0.385478  0.385478  0.843564  1
  Pd  Pd14  1  0.385478  0.843564  0.385478  1
  Pd  Pd15  1  0.843564  0.385478  0.385478  1
  Pd  Pd16  1  0.385478  0.385478  0.385478  1
  Pd  Pd17  1  0.000095  0.000095  0.344240  1
  Pd  Pd18  1  0.655571  0.000095  0.344240  1
  Pd  Pd19  1  0.000095  0.655571  0.344240  1
  Pd  Pd20  1  0.655571  0.344240  0.000095  1
  Pd  Pd21  1  0.000095  0.344240  0.000095  1
  Pd  Pd22  1  0.000095  0.344240  0.655571  1
  Pd  Pd23  1  0.344240  0.655571  0.000095  1
  Pd  Pd24  1  0.344240  0.000095  0.655571  1
  Pd  Pd25  1  0.344240  0.000095  0.000095  1
  Pd  Pd26  1  0.000095  0.000095  0.655571  1
  Pd  Pd27  1  0.000095  0.655571  0.000095  1
  Pd  Pd28  1  0.655571  0.000095  0.000095  1
