# generated using pymatgen
data_Sr2CrH9
_symmetry_space_group_name_H-M   'P 1'
_cell_length_a   8.84591200
_cell_length_b   8.84591156
_cell_length_c   5.00281700
_cell_angle_alpha   90.00000000
_cell_angle_beta   90.00000000
_cell_angle_gamma   120.00000166
_symmetry_Int_Tables_number   1
_chemical_formula_structural   Sr2CrH9
_chemical_formula_sum   'Sr6 Cr3 H27'
_cell_volume   339.02400415
_cell_formula_units_Z   3
loop_
 _symmetry_equiv_pos_site_id
 _symmetry_equiv_pos_as_xyz
  1  'x, y, z'
loop_
 _atom_site_type_symbol
 _atom_site_label
 _atom_site_symmetry_multiplicity
 _atom_site_fract_x
 _atom_site_fract_y
 _atom_site_fract_z
 _atom_site_occupancy
  Sr  Sr0  1  0.000000  0.266995  0.500000  1
  Sr  Sr1  1  0.733005  0.733005  0.500000  1
  Sr  Sr2  1  0.266995  0.000000  0.500000  1
  Sr  Sr3  1  0.000000  0.610461  0.000000  1
  Sr  Sr4  1  0.389539  0.389539  0.000000  1
  Sr  Sr5  1  0.610461  0.000000  0.000000  1
  Cr  Cr6  1  0.666667  0.333333  0.500000  1
  Cr  Cr7  1  0.333333  0.666667  0.500000  1
  Cr  Cr8  1  0.000000  0.000000  0.000000  1
  H  H9  1  0.792461  0.327773  0.742844  1
  H  H10  1  0.672227  0.464687  0.742844  1
  H  H11  1  0.535313  0.207539  0.742844  1
  H  H12  1  0.207539  0.535313  0.257156  1
  H  H13  1  0.535313  0.207539  0.257156  1
  H  H14  1  0.792461  0.327773  0.257156  1
  H  H15  1  0.672227  0.464687  0.257156  1
  H  H16  1  0.327773  0.792461  0.742844  1
  H  H17  1  0.464687  0.672227  0.742844  1
  H  H18  1  0.196997  0.000000  0.000000  1
  H  H19  1  0.803003  0.803003  0.000000  1
  H  H20  1  0.000000  0.196997  0.000000  1
  H  H21  1  0.860717  0.000000  0.238072  1
  H  H22  1  0.139283  0.139283  0.761928  1
  H  H23  1  0.000000  0.860717  0.761928  1
  H  H24  1  0.000000  0.860717  0.238072  1
  H  H25  1  0.139283  0.139283  0.238072  1
  H  H26  1  0.860717  0.000000  0.761928  1
  H  H27  1  0.146724  0.663787  0.500000  1
  H  H28  1  0.517064  0.853276  0.500000  1
  H  H29  1  0.336213  0.482936  0.500000  1
  H  H30  1  0.482936  0.336213  0.500000  1
  H  H31  1  0.853276  0.517064  0.500000  1
  H  H32  1  0.663787  0.146724  0.500000  1
  H  H33  1  0.207539  0.535313  0.742844  1
  H  H34  1  0.327773  0.792461  0.257156  1
  H  H35  1  0.464687  0.672227  0.257156  1
