# generated using pymatgen
data_Gd6YMnI12
_symmetry_space_group_name_H-M   'P 1'
_cell_length_a   9.77991317
_cell_length_b   9.77991389
_cell_length_c   9.77991400
_cell_angle_alpha   106.86184921
_cell_angle_beta   106.86184437
_cell_angle_gamma   106.86184796
_symmetry_Int_Tables_number   1
_chemical_formula_structural   Gd6YMnI12
_chemical_formula_sum   'Gd6 Y1 Mn1 I12'
_cell_volume   781.94117990
_cell_formula_units_Z   1
loop_
 _symmetry_equiv_pos_site_id
 _symmetry_equiv_pos_as_xyz
  1  'x, y, z'
loop_
 _atom_site_type_symbol
 _atom_site_label
 _atom_site_symmetry_multiplicity
 _atom_site_fract_x
 _atom_site_fract_y
 _atom_site_fract_z
 _atom_site_occupancy
  Gd  Gd0  1  0.022924  0.094433  0.293716  1
  Gd  Gd1  1  0.094433  0.293716  0.022924  1
  Gd  Gd2  1  0.293716  0.022924  0.094433  1
  Gd  Gd3  1  0.977076  0.905567  0.706284  1
  Gd  Gd4  1  0.905567  0.706284  0.977076  1
  Gd  Gd5  1  0.706284  0.977076  0.905567  1
  Y  Y6  1  0.500000  0.500000  0.500000  1
  Mn  Mn7  1  0.000000  0.000000  0.000000  1
  I  I8  1  0.160905  0.463623  0.386377  1
  I  I9  1  0.463623  0.386377  0.160905  1
  I  I10  1  0.386377  0.160905  0.463623  1
  I  I11  1  0.839095  0.536377  0.613623  1
  I  I12  1  0.536377  0.613623  0.839095  1
  I  I13  1  0.613623  0.839095  0.536377  1
  I  I14  1  0.679145  0.071922  0.225348  1
  I  I15  1  0.071922  0.225348  0.679145  1
  I  I16  1  0.225348  0.679145  0.071922  1
  I  I17  1  0.320855  0.928078  0.774652  1
  I  I18  1  0.928078  0.774652  0.320855  1
  I  I19  1  0.774652  0.320855  0.928078  1
