# generated using pymatgen
data_Sc6Al6Ir2RhAu3
_symmetry_space_group_name_H-M   'P 1'
_cell_length_a   7.22595000
_cell_length_b   7.22594927
_cell_length_c   7.20570400
_cell_angle_alpha   90.00000000
_cell_angle_beta   90.00000000
_cell_angle_gamma   119.99999419
_symmetry_Int_Tables_number   1
_chemical_formula_structural   Sc6Al6Ir2RhAu3
_chemical_formula_sum   'Sc6 Al6 Ir2 Rh1 Au3'
_cell_volume   325.83440177
_cell_formula_units_Z   1
loop_
 _symmetry_equiv_pos_site_id
 _symmetry_equiv_pos_as_xyz
  1  'x, y, z'
loop_
 _atom_site_type_symbol
 _atom_site_label
 _atom_site_symmetry_multiplicity
 _atom_site_fract_x
 _atom_site_fract_y
 _atom_site_fract_z
 _atom_site_occupancy
  Sc  Sc0  1  0.609383  0.009075  0.758980  1
  Sc  Sc1  1  0.990925  0.600308  0.758980  1
  Sc  Sc2  1  0.399692  0.390617  0.758980  1
  Sc  Sc3  1  0.987291  0.594864  0.241999  1
  Sc  Sc4  1  0.607573  0.012709  0.241999  1
  Sc  Sc5  1  0.405136  0.392427  0.241999  1
  Al  Al6  1  0.733218  0.727299  0.000079  1
  Al  Al7  1  0.272701  0.005919  0.000079  1
  Al  Al8  1  0.994081  0.266782  0.000079  1
  Al  Al9  1  0.760137  0.765582  0.498621  1
  Al  Al10  1  0.234418  0.994557  0.498621  1
  Al  Al11  1  0.005443  0.239863  0.498621  1
  Ir  Ir12  1  0.000000  0.000000  0.773597  1
  Ir  Ir13  1  0.666667  0.333333  0.999076  1
  Rh  Rh14  1  0.000000  0.000000  0.224708  1
  Au  Au15  1  0.666667  0.333333  0.502805  1
  Au  Au16  1  0.333333  0.666667  0.498128  1
  Au  Au17  1  0.333333  0.666667  0.002652  1
