# generated using pymatgen
data_LaTb3(ScIr)4
_symmetry_space_group_name_H-M   'P 1'
_cell_length_a   7.20674651
_cell_length_b   4.26522800
_cell_length_c   8.85383966
_cell_angle_alpha   90.00000000
_cell_angle_beta   89.89146133
_cell_angle_gamma   90.00000000
_symmetry_Int_Tables_number   1
_chemical_formula_structural   LaTb3(ScIr)4
_chemical_formula_sum   'La1 Tb3 Sc4 Ir4'
_cell_volume   272.15252730
_cell_formula_units_Z   1
loop_
 _symmetry_equiv_pos_site_id
 _symmetry_equiv_pos_as_xyz
  1  'x, y, z'
loop_
 _atom_site_type_symbol
 _atom_site_label
 _atom_site_symmetry_multiplicity
 _atom_site_fract_x
 _atom_site_fract_y
 _atom_site_fract_z
 _atom_site_occupancy
  La  La0  1  0.514909  0.750000  0.678989  1
  Tb  Tb1  1  0.978639  0.250000  0.176570  1
  Tb  Tb2  1  0.480106  0.250000  0.321422  1
  Tb  Tb3  1  0.017510  0.750000  0.827332  1
  Sc  Sc4  1  0.865332  0.250000  0.561264  1
  Sc  Sc5  1  0.358381  0.250000  0.942324  1
  Sc  Sc6  1  0.139676  0.750000  0.433054  1
  Sc  Sc7  1  0.641908  0.750000  0.068003  1
  Ir  Ir8  1  0.740102  0.250000  0.897382  1
  Ir  Ir9  1  0.237018  0.250000  0.599534  1
  Ir  Ir10  1  0.261657  0.750000  0.105299  1
  Ir  Ir11  1  0.764762  0.750000  0.388826  1
