# generated using pymatgen
data_ErTm(OsO3)6
_symmetry_space_group_name_H-M   'P 1'
_cell_length_a   7.34510400
_cell_length_b   5.16379963
_cell_length_c   8.20357701
_cell_angle_alpha   85.45140360
_cell_angle_beta   90.00000000
_cell_angle_gamma   90.00000000
_symmetry_Int_Tables_number   1
_chemical_formula_structural   ErTm(OsO3)6
_chemical_formula_sum   'Er1 Tm1 Os6 O18'
_cell_volume   310.17057174
_cell_formula_units_Z   1
loop_
 _symmetry_equiv_pos_site_id
 _symmetry_equiv_pos_as_xyz
  1  'x, y, z'
loop_
 _atom_site_type_symbol
 _atom_site_label
 _atom_site_symmetry_multiplicity
 _atom_site_fract_x
 _atom_site_fract_y
 _atom_site_fract_z
 _atom_site_occupancy
  Er  Er0  1  0.750000  0.028457  0.572031  1
  Tm  Tm1  1  0.250000  0.970898  0.427729  1
  Os  Os2  1  0.000103  0.999918  0.000144  1
  Os  Os3  1  0.499897  0.999918  0.000144  1
  Os  Os4  1  0.004883  0.539266  0.692193  1
  Os  Os5  1  0.495117  0.539266  0.692193  1
  Os  Os6  1  0.995778  0.460368  0.307759  1
  Os  Os7  1  0.504222  0.460368  0.307759  1
  O  O8  1  0.250000  0.894154  0.983241  1
  O  O9  1  0.932890  0.854928  0.788604  1
  O  O10  1  0.567110  0.854928  0.788604  1
  O  O11  1  0.959083  0.743104  0.470502  1
  O  O12  1  0.540917  0.743104  0.470502  1
  O  O13  1  0.250000  0.674658  0.661158  1
  O  O14  1  0.953791  0.682012  0.121362  1
  O  O15  1  0.546209  0.682012  0.121362  1
  O  O16  1  0.250000  0.589300  0.312889  1
  O  O17  1  0.750000  0.412786  0.687232  1
  O  O18  1  0.046317  0.317619  0.878673  1
  O  O19  1  0.453683  0.317619  0.878673  1
  O  O20  1  0.750000  0.327485  0.337864  1
  O  O21  1  0.042639  0.256896  0.529107  1
  O  O22  1  0.457361  0.256896  0.529107  1
  O  O23  1  0.067973  0.144115  0.212117  1
  O  O24  1  0.432027  0.144115  0.212117  1
  O  O25  1  0.750000  0.105811  0.016932  1
