# generated using pymatgen
data_Tb5Pr3Cd2PdRu
_symmetry_space_group_name_H-M   'P 1'
_cell_length_a   9.82197244
_cell_length_b   9.82197378
_cell_length_c   9.85292400
_cell_angle_alpha   59.89571365
_cell_angle_beta   59.89570913
_cell_angle_gamma   59.97311078
_symmetry_Int_Tables_number   1
_chemical_formula_structural   Tb5Pr3Cd2PdRu
_chemical_formula_sum   'Tb10 Pr6 Cd4 Pd2 Ru2'
_cell_volume   670.92376176
_cell_formula_units_Z   2
loop_
 _symmetry_equiv_pos_site_id
 _symmetry_equiv_pos_as_xyz
  1  'x, y, z'
loop_
 _atom_site_type_symbol
 _atom_site_label
 _atom_site_symmetry_multiplicity
 _atom_site_fract_x
 _atom_site_fract_y
 _atom_site_fract_z
 _atom_site_occupancy
  Tb  Tb0  1  0.347504  0.347504  0.355209  1
  Tb  Tb1  1  0.347504  0.347504  0.949783  1
  Tb  Tb2  1  0.343032  0.958295  0.349337  1
  Tb  Tb3  1  0.958295  0.343032  0.349337  1
  Tb  Tb4  1  0.819110  0.186029  0.188152  1
  Tb  Tb5  1  0.186029  0.819110  0.806709  1
  Tb  Tb6  1  0.186029  0.819110  0.188152  1
  Tb  Tb7  1  0.819110  0.186029  0.806709  1
  Tb  Tb8  1  0.186030  0.186030  0.813970  1
  Tb  Tb9  1  0.810837  0.810837  0.189163  1
  Pr  Pr10  1  0.938723  0.556336  0.563962  1
  Pr  Pr11  1  0.556336  0.938723  0.940979  1
  Pr  Pr12  1  0.556336  0.938723  0.563962  1
  Pr  Pr13  1  0.938723  0.556336  0.940979  1
  Pr  Pr14  1  0.560863  0.560863  0.939137  1
  Pr  Pr15  1  0.940206  0.940206  0.559794  1
  Cd  Cd16  1  0.579112  0.579112  0.579221  1
  Cd  Cd17  1  0.579112  0.579112  0.262553  1
  Cd  Cd18  1  0.580005  0.260469  0.579762  1
  Cd  Cd19  1  0.260469  0.580005  0.579762  1
  Pd  Pd20  1  0.145862  0.572819  0.140660  1
  Pd  Pd21  1  0.572819  0.145862  0.140660  1
  Ru  Ru22  1  0.143977  0.143977  0.137870  1
  Ru  Ru23  1  0.143977  0.143977  0.574177  1
