# generated using pymatgen
data_LaThSiNi9
_symmetry_space_group_name_H-M   'P 1'
_cell_length_a   3.99344300
_cell_length_b   5.08504800
_cell_length_c   8.33877300
_cell_angle_alpha   90.00000000
_cell_angle_beta   90.00000000
_cell_angle_gamma   90.00000000
_symmetry_Int_Tables_number   1
_chemical_formula_structural   LaThSiNi9
_chemical_formula_sum   'La1 Th1 Si1 Ni9'
_cell_volume   169.33420699
_cell_formula_units_Z   1
loop_
 _symmetry_equiv_pos_site_id
 _symmetry_equiv_pos_as_xyz
  1  'x, y, z'
loop_
 _atom_site_type_symbol
 _atom_site_label
 _atom_site_symmetry_multiplicity
 _atom_site_fract_x
 _atom_site_fract_y
 _atom_site_fract_z
 _atom_site_occupancy
  La  La0  1  0.000000  0.000000  0.000000  1
  Th  Th1  1  0.000000  0.500000  0.500000  1
  Si  Si2  1  0.500000  0.000000  0.500000  1
  Ni  Ni3  1  0.000000  0.000000  0.342857  1
  Ni  Ni4  1  0.000000  0.500000  0.832086  1
  Ni  Ni5  1  0.000000  0.500000  0.167914  1
  Ni  Ni6  1  0.000000  0.000000  0.657143  1
  Ni  Ni7  1  0.500000  0.500000  0.000000  1
  Ni  Ni8  1  0.500000  0.258449  0.262598  1
  Ni  Ni9  1  0.500000  0.741551  0.737402  1
  Ni  Ni10  1  0.500000  0.741551  0.262598  1
  Ni  Ni11  1  0.500000  0.258449  0.737402  1
