# generated using pymatgen
data_Ho12N11
_symmetry_space_group_name_H-M   'P 1'
_cell_length_a   9.15125422
_cell_length_b   9.15125514
_cell_length_c   5.98537808
_cell_angle_alpha   89.97975561
_cell_angle_beta   89.97975536
_cell_angle_gamma   44.42766944
_symmetry_Int_Tables_number   1
_chemical_formula_structural   Ho12N11
_chemical_formula_sum   'Ho12 N11'
_cell_volume   350.87790952
_cell_formula_units_Z   1
loop_
 _symmetry_equiv_pos_site_id
 _symmetry_equiv_pos_as_xyz
  1  'x, y, z'
loop_
 _atom_site_type_symbol
 _atom_site_label
 _atom_site_symmetry_multiplicity
 _atom_site_fract_x
 _atom_site_fract_y
 _atom_site_fract_z
 _atom_site_occupancy
  Ho  Ho0  1  0.500000  0.000000  0.500000  1
  Ho  Ho1  1  0.172555  0.655201  0.829064  1
  Ho  Ho2  1  0.827445  0.344799  0.170936  1
  Ho  Ho3  1  0.344799  0.827445  0.170936  1
  Ho  Ho4  1  0.000000  0.500000  0.500000  1
  Ho  Ho5  1  0.655201  0.172555  0.829064  1
  Ho  Ho6  1  0.914054  0.914054  0.346909  1
  Ho  Ho7  1  0.583193  0.583193  0.671206  1
  Ho  Ho8  1  0.248307  0.248307  0.000584  1
  Ho  Ho9  1  0.416807  0.416807  0.328794  1
  Ho  Ho10  1  0.085946  0.085946  0.653091  1
  Ho  Ho11  1  0.751693  0.751693  0.999416  1
  N  N12  1  0.751959  0.248041  0.500000  1
  N  N13  1  0.415786  0.916937  0.833708  1
  N  N14  1  0.083063  0.584214  0.166292  1
  N  N15  1  0.584214  0.083063  0.166292  1
  N  N16  1  0.248041  0.751959  0.500000  1
  N  N17  1  0.916937  0.415786  0.833708  1
  N  N18  1  0.834214  0.834214  0.664024  1
  N  N19  1  0.500000  0.500000  0.000000  1
  N  N20  1  0.165786  0.165786  0.335976  1
  N  N21  1  0.665442  0.665442  0.329717  1
  N  N22  1  0.334558  0.334558  0.670283  1
