# generated using pymatgen
data_Ho3Al3SiNi2
_symmetry_space_group_name_H-M   'P 1'
_cell_length_a   6.86715000
_cell_length_b   6.86715056
_cell_length_c   4.02720400
_cell_angle_alpha   90.00000000
_cell_angle_beta   90.00000000
_cell_angle_gamma   119.99999730
_symmetry_Int_Tables_number   1
_chemical_formula_structural   Ho3Al3SiNi2
_chemical_formula_sum   'Ho3 Al3 Si1 Ni2'
_cell_volume   164.47025899
_cell_formula_units_Z   1
loop_
 _symmetry_equiv_pos_site_id
 _symmetry_equiv_pos_as_xyz
  1  'x, y, z'
loop_
 _atom_site_type_symbol
 _atom_site_label
 _atom_site_symmetry_multiplicity
 _atom_site_fract_x
 _atom_site_fract_y
 _atom_site_fract_z
 _atom_site_occupancy
  Ho  Ho0  1  0.991364  0.581354  0.500000  1
  Ho  Ho1  1  0.589990  0.008636  0.500000  1
  Ho  Ho2  1  0.418646  0.410010  0.500000  1
  Al  Al3  1  0.240317  0.008245  0.000000  1
  Al  Al4  1  0.767928  0.759683  0.000000  1
  Al  Al5  1  0.991755  0.232072  0.000000  1
  Si  Si6  1  0.333333  0.666667  0.000000  1
  Ni  Ni7  1  0.666667  0.333333  0.000000  1
  Ni  Ni8  1  0.000000  0.000000  0.500000  1
