# generated using pymatgen
data_Ca(ZrSe2)3
_symmetry_space_group_name_H-M   'P 1'
_cell_length_a   6.54882869
_cell_length_b   6.54884709
_cell_length_c   7.36557697
_cell_angle_alpha   98.50857000
_cell_angle_beta   98.50880202
_cell_angle_gamma   119.98157024
_symmetry_Int_Tables_number   1
_chemical_formula_structural   Ca(ZrSe2)3
_chemical_formula_sum   'Ca1 Zr3 Se6'
_cell_volume   261.37160032
_cell_formula_units_Z   1
loop_
 _symmetry_equiv_pos_site_id
 _symmetry_equiv_pos_as_xyz
  1  'x, y, z'
loop_
 _atom_site_type_symbol
 _atom_site_label
 _atom_site_symmetry_multiplicity
 _atom_site_fract_x
 _atom_site_fract_y
 _atom_site_fract_z
 _atom_site_occupancy
  Ca  Ca0  1  0.000000  0.000000  0.500001  1
  Zr  Zr1  1  0.834813  0.165187  0.000000  1
  Zr  Zr2  1  0.500000  0.500000  0.000000  1
  Zr  Zr3  1  0.165187  0.834813  0.000000  1
  Se  Se4  1  0.250570  0.250570  0.234055  1
  Se  Se5  1  0.910336  0.571197  0.232900  1
  Se  Se6  1  0.571196  0.910335  0.232900  1
  Se  Se7  1  0.428804  0.089664  0.767101  1
  Se  Se8  1  0.089664  0.428804  0.767101  1
  Se  Se9  1  0.749431  0.749431  0.765945  1
