# generated using pymatgen
data_BeVReSi5Mo8
_symmetry_space_group_name_H-M   'P 1'
_cell_length_a   7.22594249
_cell_length_b   7.22606789
_cell_length_c   7.22594183
_cell_angle_alpha   96.43049919
_cell_angle_beta   96.46288480
_cell_angle_gamma   140.84376778
_symmetry_Int_Tables_number   1
_chemical_formula_structural   BeVReSi5Mo8
_chemical_formula_sum   'Be1 V1 Re1 Si5 Mo8'
_cell_volume   224.47154909
_cell_formula_units_Z   1
loop_
 _symmetry_equiv_pos_site_id
 _symmetry_equiv_pos_as_xyz
  1  'x, y, z'
loop_
 _atom_site_type_symbol
 _atom_site_label
 _atom_site_symmetry_multiplicity
 _atom_site_fract_x
 _atom_site_fract_y
 _atom_site_fract_z
 _atom_site_occupancy
  Be  Be0  1  0.250000  0.250000  0.000000  1
  V  V1  1  0.750006  0.250000  0.500006  1
  Re  Re2  1  0.250005  0.750000  0.500005  1
  Si  Si3  1  0.749984  0.750000  0.999984  1
  Si  Si4  1  0.163488  0.663586  0.830047  1
  Si  Si5  1  0.833539  0.333426  0.169947  1
  Si  Si6  1  0.336521  0.166574  0.500113  1
  Si  Si7  1  0.666462  0.836414  0.499901  1
  Mo  Mo8  1  0.079075  0.224847  0.300095  1
  Mo  Mo9  1  0.924733  0.778980  0.699909  1
  Mo  Mo10  1  0.780050  0.080344  0.853928  1
  Mo  Mo11  1  0.420928  0.721020  0.145752  1
  Mo  Mo12  1  0.226430  0.926131  0.146078  1
  Mo  Mo13  1  0.575248  0.275153  0.854227  1
  Mo  Mo14  1  0.719948  0.573869  0.300299  1
  Mo  Mo15  1  0.273585  0.419656  0.699707  1
