# generated using pymatgen
data_Pr3Sc2P12Ir10Ru9
_symmetry_space_group_name_H-M   'P 1'
_cell_length_a   12.68033000
_cell_length_b   12.68033058
_cell_length_c   3.95731700
_cell_angle_alpha   90.00000000
_cell_angle_beta   90.00000000
_cell_angle_gamma   120.00000371
_symmetry_Int_Tables_number   1
_chemical_formula_structural   Pr3Sc2P12Ir10Ru9
_chemical_formula_sum   'Pr3 Sc2 P12 Ir10 Ru9'
_cell_volume   551.05200648
_cell_formula_units_Z   1
loop_
 _symmetry_equiv_pos_site_id
 _symmetry_equiv_pos_as_xyz
  1  'x, y, z'
loop_
 _atom_site_type_symbol
 _atom_site_label
 _atom_site_symmetry_multiplicity
 _atom_site_fract_x
 _atom_site_fract_y
 _atom_site_fract_z
 _atom_site_occupancy
  Pr  Pr0  1  0.810853  0.000000  0.500000  1
  Pr  Pr1  1  0.000000  0.810853  0.500000  1
  Pr  Pr2  1  0.189147  0.189147  0.500000  1
  Sc  Sc3  1  0.333333  0.666667  0.000000  1
  Sc  Sc4  1  0.666667  0.333333  0.000000  1
  P  P5  1  0.185198  0.000000  0.000000  1
  P  P6  1  0.000000  0.185198  0.000000  1
  P  P7  1  0.814802  0.814802  0.000000  1
  P  P8  1  0.176581  0.483790  0.500000  1
  P  P9  1  0.516210  0.692790  0.500000  1
  P  P10  1  0.307210  0.823419  0.500000  1
  P  P11  1  0.692790  0.516210  0.500000  1
  P  P12  1  0.823419  0.307210  0.500000  1
  P  P13  1  0.483790  0.176581  0.500000  1
  P  P14  1  0.632684  0.000000  0.000000  1
  P  P15  1  0.000000  0.632684  0.000000  1
  P  P16  1  0.367316  0.367316  0.000000  1
  Ir  Ir17  1  0.365506  0.496846  0.500000  1
  Ir  Ir18  1  0.503154  0.868659  0.500000  1
  Ir  Ir19  1  0.131341  0.634494  0.500000  1
  Ir  Ir20  1  0.868659  0.503154  0.500000  1
  Ir  Ir21  1  0.634494  0.131341  0.500000  1
  Ir  Ir22  1  0.496846  0.365506  0.500000  1
  Ir  Ir23  1  0.290286  0.000000  0.500000  1
  Ir  Ir24  1  0.000000  0.290286  0.500000  1
  Ir  Ir25  1  0.709714  0.709714  0.500000  1
  Ir  Ir26  1  0.000000  0.000000  0.000000  1
  Ru  Ru27  1  0.452007  0.000000  0.000000  1
  Ru  Ru28  1  0.000000  0.452007  0.000000  1
  Ru  Ru29  1  0.547993  0.547993  0.000000  1
  Ru  Ru30  1  0.183369  0.384592  0.000000  1
  Ru  Ru31  1  0.615408  0.798777  0.000000  1
  Ru  Ru32  1  0.201223  0.816631  0.000000  1
  Ru  Ru33  1  0.798777  0.615408  0.000000  1
  Ru  Ru34  1  0.816631  0.201223  0.000000  1
  Ru  Ru35  1  0.384592  0.183369  0.000000  1
