# generated using pymatgen
data_Tc2P3O13
_symmetry_space_group_name_H-M   'P 1'
_cell_length_a   6.37075087
_cell_length_b   7.58764109
_cell_length_c   11.21212532
_cell_angle_alpha   76.16332886
_cell_angle_beta   85.91076427
_cell_angle_gamma   78.38504056
_symmetry_Int_Tables_number   1
_chemical_formula_structural   Tc2P3O13
_chemical_formula_sum   'Tc4 P6 O26'
_cell_volume   515.32590455
_cell_formula_units_Z   2
loop_
 _symmetry_equiv_pos_site_id
 _symmetry_equiv_pos_as_xyz
  1  'x, y, z'
loop_
 _atom_site_type_symbol
 _atom_site_label
 _atom_site_symmetry_multiplicity
 _atom_site_fract_x
 _atom_site_fract_y
 _atom_site_fract_z
 _atom_site_occupancy
  Tc  Tc0  1  0.204781  0.203248  0.092951  1
  Tc  Tc1  1  0.760587  0.794493  0.405523  1
  Tc  Tc2  1  0.795219  0.796752  0.907049  1
  Tc  Tc3  1  0.239413  0.205507  0.594477  1
  P  P4  1  0.270791  0.934831  0.887776  1
  P  P5  1  0.741916  0.203887  0.666040  1
  P  P6  1  0.258084  0.796113  0.333960  1
  P  P7  1  0.729209  0.065169  0.112224  1
  P  P8  1  0.879414  0.529945  0.688064  1
  P  P9  1  0.120586  0.470055  0.311936  1
  O  O10  1  0.793257  0.638679  0.039415  1
  O  O11  1  0.488440  0.806943  0.871138  1
  O  O12  1  0.106111  0.448491  0.647913  1
  O  O13  1  0.222898  0.107955  0.782776  1
  O  O14  1  0.896315  0.191611  0.102982  1
  O  O15  1  0.877154  0.622164  0.793828  1
  O  O16  1  0.511560  0.193057  0.128862  1
  O  O17  1  0.273262  0.993001  0.011022  1
  O  O18  1  0.235280  0.983773  0.246613  1
  O  O19  1  0.122846  0.377836  0.206172  1
  O  O20  1  0.307684  0.989497  0.575341  1
  O  O21  1  0.745255  0.655521  0.580087  1
  O  O22  1  0.764720  0.016227  0.753387  1
  O  O23  1  0.923459  0.212232  0.567737  1
  O  O24  1  0.726738  0.006999  0.988978  1
  O  O25  1  0.206743  0.361321  0.960585  1
  O  O26  1  0.103685  0.808389  0.897018  1
  O  O27  1  0.254745  0.344479  0.419913  1
  O  O28  1  0.076541  0.787768  0.432263  1
  O  O29  1  0.526320  0.267760  0.602125  1
  O  O30  1  0.473680  0.732240  0.397875  1
  O  O31  1  0.893889  0.551509  0.352087  1
  O  O32  1  0.692316  0.010503  0.424659  1
  O  O33  1  0.757486  0.357952  0.741743  1
  O  O34  1  0.242514  0.642048  0.258257  1
  O  O35  1  0.777102  0.892045  0.217224  1
