# generated using pymatgen
data_Th3Ge3Os2Pd
_symmetry_space_group_name_H-M   'P 1'
_cell_length_a   7.32325200
_cell_length_b   7.32325227
_cell_length_c   4.04679200
_cell_angle_alpha   90.00000000
_cell_angle_beta   90.00000000
_cell_angle_gamma   120.00000783
_symmetry_Int_Tables_number   1
_chemical_formula_structural   Th3Ge3Os2Pd
_chemical_formula_sum   'Th3 Ge3 Os2 Pd1'
_cell_volume   187.95308294
_cell_formula_units_Z   1
loop_
 _symmetry_equiv_pos_site_id
 _symmetry_equiv_pos_as_xyz
  1  'x, y, z'
loop_
 _atom_site_type_symbol
 _atom_site_label
 _atom_site_symmetry_multiplicity
 _atom_site_fract_x
 _atom_site_fract_y
 _atom_site_fract_z
 _atom_site_occupancy
  Th  Th0  1  0.407926  0.415603  0.500000  1
  Th  Th1  1  0.584397  0.992321  0.500000  1
  Th  Th2  1  0.007679  0.592074  0.500000  1
  Ge  Ge3  1  0.756110  0.762108  0.000000  1
  Ge  Ge4  1  0.237892  0.994002  0.000000  1
  Ge  Ge5  1  0.005998  0.243890  0.000000  1
  Os  Os6  1  0.333333  0.666667  0.000000  1
  Os  Os7  1  0.000000  0.000000  0.500000  1
  Pd  Pd8  1  0.666667  0.333333  0.000000  1
