# generated using pymatgen
data_Tm4Mn12Cr3Fe5P12
_symmetry_space_group_name_H-M   'P 1'
_cell_length_a   3.60713200
_cell_length_b   10.49630042
_cell_length_c   12.15289286
_cell_angle_alpha   89.93734321
_cell_angle_beta   90.00000000
_cell_angle_gamma   90.00000000
_symmetry_Int_Tables_number   1
_chemical_formula_structural   Tm4Mn12Cr3Fe5P12
_chemical_formula_sum   'Tm4 Mn12 Cr3 Fe5 P12'
_cell_volume   460.12697759
_cell_formula_units_Z   1
loop_
 _symmetry_equiv_pos_site_id
 _symmetry_equiv_pos_as_xyz
  1  'x, y, z'
loop_
 _atom_site_type_symbol
 _atom_site_label
 _atom_site_symmetry_multiplicity
 _atom_site_fract_x
 _atom_site_fract_y
 _atom_site_fract_z
 _atom_site_occupancy
  Tm  Tm0  1  0.250000  0.579978  0.711129  1
  Tm  Tm1  1  0.250000  0.918162  0.206912  1
  Tm  Tm2  1  0.750000  0.416594  0.291961  1
  Tm  Tm3  1  0.750000  0.084772  0.791653  1
  Mn  Mn4  1  0.250000  0.790788  0.485980  1
  Mn  Mn5  1  0.250000  0.409413  0.493827  1
  Mn  Mn6  1  0.250000  0.093262  0.991051  1
  Mn  Mn7  1  0.750000  0.591027  0.507823  1
  Mn  Mn8  1  0.750000  0.910155  0.006857  1
  Mn  Mn9  1  0.250000  0.218516  0.177413  1
  Mn  Mn10  1  0.250000  0.282427  0.676527  1
  Mn  Mn11  1  0.750000  0.780157  0.823663  1
  Mn  Mn12  1  0.750000  0.718126  0.323968  1
  Mn  Mn13  1  0.250000  0.876846  0.696988  1
  Mn  Mn14  1  0.250000  0.623570  0.199080  1
  Mn  Mn15  1  0.750000  0.122736  0.301883  1
  Cr  Cr16  1  0.250000  0.706262  0.986850  1
  Cr  Cr17  1  0.750000  0.296356  0.011304  1
  Cr  Cr18  1  0.750000  0.206389  0.513858  1
  Fe  Fe19  1  0.750000  0.375388  0.801009  1
  Fe  Fe20  1  0.250000  0.464166  0.934888  1
  Fe  Fe21  1  0.250000  0.035932  0.432308  1
  Fe  Fe22  1  0.750000  0.537670  0.067698  1
  Fe  Fe23  1  0.750000  0.961731  0.566861  1
  P  P24  1  0.250000  0.421906  0.112082  1
  P  P25  1  0.250000  0.077947  0.610481  1
  P  P26  1  0.750000  0.574354  0.888370  1
  P  P27  1  0.750000  0.921998  0.387647  1
  P  P28  1  0.250000  0.268206  0.870197  1
  P  P29  1  0.250000  0.236126  0.373234  1
  P  P30  1  0.750000  0.737642  0.126987  1
  P  P31  1  0.750000  0.761428  0.629211  1
  P  P32  1  0.250000  0.592506  0.386715  1
  P  P33  1  0.250000  0.905394  0.885815  1
  P  P34  1  0.750000  0.405152  0.615260  1
  P  P35  1  0.750000  0.096920  0.112510  1
