# generated using pymatgen
data_Th4ReOs6W
_symmetry_space_group_name_H-M   'P 1'
_cell_length_a   5.70194800
_cell_length_b   5.30307741
_cell_length_c   9.25526100
_cell_angle_alpha   90.00000000
_cell_angle_beta   90.00000000
_cell_angle_gamma   122.52092942
_symmetry_Int_Tables_number   1
_chemical_formula_structural   Th4ReOs6W
_chemical_formula_sum   'Th4 Re1 Os6 W1'
_cell_volume   235.97607570
_cell_formula_units_Z   1
loop_
 _symmetry_equiv_pos_site_id
 _symmetry_equiv_pos_as_xyz
  1  'x, y, z'
loop_
 _atom_site_type_symbol
 _atom_site_label
 _atom_site_symmetry_multiplicity
 _atom_site_fract_x
 _atom_site_fract_y
 _atom_site_fract_z
 _atom_site_occupancy
  Th  Th0  1  0.332873  0.665746  0.065582  1
  Th  Th1  1  0.665185  0.330369  0.566578  1
  Th  Th2  1  0.665185  0.330369  0.933422  1
  Th  Th3  1  0.332873  0.665746  0.434418  1
  Re  Re4  1  0.165571  0.331142  0.750000  1
  Os  Os5  1  0.998073  0.996148  0.999416  1
  Os  Os6  1  0.998073  0.996148  0.500584  1
  Os  Os7  1  0.163524  0.820934  0.750000  1
  Os  Os8  1  0.657412  0.820934  0.750000  1
  Os  Os9  1  0.346776  0.181933  0.250000  1
  Os  Os10  1  0.835156  0.181933  0.250000  1
  W  W11  1  0.839298  0.678598  0.250000  1
