# generated using pymatgen
data_TbEr5Ti2(Co4P3)4
_symmetry_space_group_name_H-M   'P 1'
_cell_length_a   3.68877100
_cell_length_b   10.59908600
_cell_length_c   12.28048500
_cell_angle_alpha   90.00000000
_cell_angle_beta   90.00000000
_cell_angle_gamma   90.00000000
_symmetry_Int_Tables_number   1
_chemical_formula_structural   TbEr5Ti2(Co4P3)4
_chemical_formula_sum   'Tb1 Er5 Ti2 Co16 P12'
_cell_volume   480.13750339
_cell_formula_units_Z   1
loop_
 _symmetry_equiv_pos_site_id
 _symmetry_equiv_pos_as_xyz
  1  'x, y, z'
loop_
 _atom_site_type_symbol
 _atom_site_label
 _atom_site_symmetry_multiplicity
 _atom_site_fract_x
 _atom_site_fract_y
 _atom_site_fract_z
 _atom_site_occupancy
  Tb  Tb0  1  0.750000  0.250000  0.474101  1
  Er  Er1  1  0.250000  0.750000  0.525458  1
  Er  Er2  1  0.250000  0.929576  0.795855  1
  Er  Er3  1  0.250000  0.570424  0.795855  1
  Er  Er4  1  0.750000  0.070015  0.203919  1
  Er  Er5  1  0.750000  0.429985  0.203919  1
  Ti  Ti6  1  0.250000  0.250000  0.846447  1
  Ti  Ti7  1  0.750000  0.750000  0.154351  1
  Co  Co8  1  0.250000  0.250000  0.296123  1
  Co  Co9  1  0.750000  0.750000  0.702918  1
  Co  Co10  1  0.750000  0.250000  0.012617  1
  Co  Co11  1  0.250000  0.750000  0.987296  1
  Co  Co12  1  0.250000  0.418003  0.006017  1
  Co  Co13  1  0.250000  0.081997  0.006017  1
  Co  Co14  1  0.750000  0.582249  0.993992  1
  Co  Co15  1  0.750000  0.917751  0.993992  1
  Co  Co16  1  0.250000  0.455166  0.568213  1
  Co  Co17  1  0.250000  0.044834  0.568213  1
  Co  Co18  1  0.750000  0.546712  0.431923  1
  Co  Co19  1  0.750000  0.953288  0.431923  1
  Co  Co20  1  0.250000  0.871631  0.294071  1
  Co  Co21  1  0.250000  0.628369  0.294071  1
  Co  Co22  1  0.750000  0.127806  0.706173  1
  Co  Co23  1  0.750000  0.372194  0.706173  1
  P  P24  1  0.250000  0.250000  0.116791  1
  P  P25  1  0.750000  0.750000  0.882823  1
  P  P26  1  0.250000  0.250000  0.646930  1
  P  P27  1  0.750000  0.750000  0.354367  1
  P  P28  1  0.250000  0.439844  0.383374  1
  P  P29  1  0.250000  0.060156  0.383374  1
  P  P30  1  0.750000  0.561534  0.616262  1
  P  P31  1  0.750000  0.938466  0.616262  1
  P  P32  1  0.250000  0.907422  0.108585  1
  P  P33  1  0.250000  0.592578  0.108585  1
  P  P34  1  0.750000  0.092247  0.891505  1
  P  P35  1  0.750000  0.407753  0.891505  1
