# generated using pymatgen
data_Sc3AgSn3Ru2
_symmetry_space_group_name_H-M   'P 1'
_cell_length_a   7.77424500
_cell_length_b   7.77424454
_cell_length_c   6.74672700
_cell_angle_alpha   90.00000000
_cell_angle_beta   90.00000000
_cell_angle_gamma   119.99998919
_symmetry_Int_Tables_number   1
_chemical_formula_structural   Sc3AgSn3Ru2
_chemical_formula_sum   'Sc6 Ag2 Sn6 Ru4'
_cell_volume   353.13457140
_cell_formula_units_Z   2
loop_
 _symmetry_equiv_pos_site_id
 _symmetry_equiv_pos_as_xyz
  1  'x, y, z'
loop_
 _atom_site_type_symbol
 _atom_site_label
 _atom_site_symmetry_multiplicity
 _atom_site_fract_x
 _atom_site_fract_y
 _atom_site_fract_z
 _atom_site_occupancy
  Sc  Sc0  1  0.369735  0.971457  0.250000  1
  Sc  Sc1  1  0.601721  0.630265  0.250000  1
  Sc  Sc2  1  0.028543  0.398279  0.250000  1
  Sc  Sc3  1  0.368655  0.969710  0.750000  1
  Sc  Sc4  1  0.601055  0.631345  0.750000  1
  Sc  Sc5  1  0.030290  0.398945  0.750000  1
  Ag  Ag6  1  0.666667  0.333333  0.995893  1
  Ag  Ag7  1  0.666667  0.333333  0.504107  1
  Sn  Sn8  1  0.723590  0.005314  0.000115  1
  Sn  Sn9  1  0.281724  0.276410  0.499885  1
  Sn  Sn10  1  0.994686  0.718276  0.499885  1
  Sn  Sn11  1  0.994686  0.718276  0.000115  1
  Sn  Sn12  1  0.281724  0.276410  0.000115  1
  Sn  Sn13  1  0.723590  0.005314  0.499885  1
  Ru  Ru14  1  0.333333  0.666667  0.000619  1
  Ru  Ru15  1  0.333333  0.666667  0.499381  1
  Ru  Ru16  1  0.000000  0.000000  0.250000  1
  Ru  Ru17  1  0.000000  0.000000  0.750000  1
