# generated using pymatgen
data_Li8DyY7(Sn3Sb)2
_symmetry_space_group_name_H-M   'P 1'
_cell_length_a   9.37893811
_cell_length_b   9.38245066
_cell_length_c   7.26855683
_cell_angle_alpha   90.00000042
_cell_angle_beta   90.06423862
_cell_angle_gamma   120.01238738
_symmetry_Int_Tables_number   1
_chemical_formula_structural   Li8DyY7(Sn3Sb)2
_chemical_formula_sum   'Li8 Dy1 Y7 Sn6 Sb2'
_cell_volume   553.85259383
_cell_formula_units_Z   1
loop_
 _symmetry_equiv_pos_site_id
 _symmetry_equiv_pos_as_xyz
  1  'x, y, z'
loop_
 _atom_site_type_symbol
 _atom_site_label
 _atom_site_symmetry_multiplicity
 _atom_site_fract_x
 _atom_site_fract_y
 _atom_site_fract_z
 _atom_site_occupancy
  Li  Li0  1  0.167162  0.333857  0.286253  1
  Li  Li1  1  0.167162  0.833304  0.286253  1
  Li  Li2  1  0.666238  0.833119  0.286418  1
  Li  Li3  1  0.832283  0.666086  0.786843  1
  Li  Li4  1  0.832283  0.166198  0.786843  1
  Li  Li5  1  0.334268  0.167134  0.787870  1
  Li  Li6  1  0.334119  0.667059  0.671043  1
  Li  Li7  1  0.666692  0.333346  0.172826  1
  Dy  Dy8  1  0.998046  0.999023  0.002804  1
  Y  Y9  1  0.514295  0.025015  0.492131  1
  Y  Y10  1  0.514295  0.489279  0.492131  1
  Y  Y11  1  0.974331  0.487165  0.490963  1
  Y  Y12  1  0.489712  0.977154  0.995278  1
  Y  Y13  1  0.489712  0.512559  0.995278  1
  Y  Y14  1  0.021311  0.510655  0.996329  1
  Y  Y15  1  0.998109  0.999054  0.497334  1
  Sn  Sn16  1  0.666542  0.833271  0.731903  1
  Sn  Sn17  1  0.833937  0.666819  0.231528  1
  Sn  Sn18  1  0.833937  0.167116  0.231528  1
  Sn  Sn19  1  0.333232  0.166615  0.231568  1
  Sn  Sn20  1  0.332661  0.666330  0.261191  1
  Sn  Sn21  1  0.667124  0.333561  0.761616  1
  Sb  Sb22  1  0.166277  0.333354  0.733032  1
  Sb  Sb23  1  0.166277  0.832922  0.733032  1
