# generated using pymatgen
data_Ac4Ga7Ge3(IrRh)3
_symmetry_space_group_name_H-M   'P 1'
_cell_length_a   8.80880277
_cell_length_b   8.83869298
_cell_length_c   8.83811876
_cell_angle_alpha   140.27739177
_cell_angle_beta   107.79458375
_cell_angle_gamma   85.75749558
_symmetry_Int_Tables_number   1
_chemical_formula_structural   Ac4Ga7Ge3(IrRh)3
_chemical_formula_sum   'Ac4 Ga7 Ge3 Ir3 Rh3'
_cell_volume   403.78262518
_cell_formula_units_Z   1
loop_
 _symmetry_equiv_pos_site_id
 _symmetry_equiv_pos_as_xyz
  1  'x, y, z'
loop_
 _atom_site_type_symbol
 _atom_site_label
 _atom_site_symmetry_multiplicity
 _atom_site_fract_x
 _atom_site_fract_y
 _atom_site_fract_z
 _atom_site_occupancy
  Ac  Ac0  1  0.361753  0.133165  0.228728  1
  Ac  Ac1  1  0.638766  0.864778  0.774747  1
  Ac  Ac2  1  0.092149  0.364705  0.726810  1
  Ac  Ac3  1  0.909002  0.636388  0.271922  1
  Ga  Ga4  1  0.998413  0.251008  0.250491  1
  Ga  Ga5  1  0.998195  0.747686  0.747121  1
  Ga  Ga6  1  0.717117  0.967209  0.250979  1
  Ga  Ga7  1  0.284630  0.535807  0.252139  1
  Ga  Ga8  1  0.284213  0.032105  0.749379  1
  Ga  Ga9  1  0.717715  0.466702  0.749812  1
  Ga  Ga10  1  0.562551  0.406264  0.158285  1
  Ge  Ge11  1  0.243942  0.900768  0.342301  1
  Ge  Ge12  1  0.753972  0.094627  0.658453  1
  Ge  Ge13  1  0.438728  0.596544  0.842097  1
  Ir  Ir14  1  0.963470  0.858623  0.105759  1
  Ir  Ir15  1  0.499119  0.753517  0.249231  1
  Ir  Ir16  1  0.750998  0.355529  0.393851  1
  Rh  Rh17  1  0.245717  0.640911  0.603940  1
  Rh  Rh18  1  0.040328  0.143561  0.897746  1
  Rh  Rh19  1  0.499222  0.250106  0.746208  1
