# generated using pymatgen
data_Nd2MnCu2PtO10
_symmetry_space_group_name_H-M   'P 1'
_cell_length_a   5.80216000
_cell_length_b   7.77848100
_cell_length_c   8.66236600
_cell_angle_alpha   90.00000000
_cell_angle_beta   90.00000000
_cell_angle_gamma   90.00000000
_symmetry_Int_Tables_number   1
_chemical_formula_structural   Nd2MnCu2PtO10
_chemical_formula_sum   'Nd4 Mn2 Cu4 Pt2 O20'
_cell_volume   390.94982711
_cell_formula_units_Z   2
loop_
 _symmetry_equiv_pos_site_id
 _symmetry_equiv_pos_as_xyz
  1  'x, y, z'
loop_
 _atom_site_type_symbol
 _atom_site_label
 _atom_site_symmetry_multiplicity
 _atom_site_fract_x
 _atom_site_fract_y
 _atom_site_fract_z
 _atom_site_occupancy
  Nd  Nd0  1  0.004373  0.352656  0.671759  1
  Nd  Nd1  1  0.004373  0.647344  0.328241  1
  Nd  Nd2  1  0.995627  0.852656  0.828241  1
  Nd  Nd3  1  0.995627  0.147344  0.171759  1
  Mn  Mn4  1  0.741969  0.500000  0.000000  1
  Mn  Mn5  1  0.258031  0.000000  0.500000  1
  Cu  Cu6  1  0.493467  0.066446  0.848981  1
  Cu  Cu7  1  0.493467  0.933554  0.151019  1
  Cu  Cu8  1  0.506533  0.566446  0.651019  1
  Cu  Cu9  1  0.506533  0.433554  0.348981  1
  Pt  Pt10  1  0.260493  0.500000  0.000000  1
  Pt  Pt11  1  0.739507  0.000000  0.500000  1
  O  O12  1  0.243589  0.909771  0.288458  1
  O  O13  1  0.243589  0.090229  0.711542  1
  O  O14  1  0.756411  0.409771  0.211542  1
  O  O15  1  0.756411  0.590229  0.788458  1
  O  O16  1  0.750619  0.094750  0.716254  1
  O  O17  1  0.750619  0.905250  0.283746  1
  O  O18  1  0.249381  0.594750  0.783746  1
  O  O19  1  0.249381  0.405250  0.216254  1
  O  O20  1  0.514987  0.344050  0.940715  1
  O  O21  1  0.514987  0.655950  0.059285  1
  O  O22  1  0.485013  0.844050  0.559285  1
  O  O23  1  0.485013  0.155950  0.440715  1
  O  O24  1  0.272148  0.000000  0.000000  1
  O  O25  1  0.727852  0.500000  0.500000  1
  O  O26  1  0.713620  0.000000  0.000000  1
  O  O27  1  0.286380  0.500000  0.500000  1
  O  O28  1  0.009860  0.162814  0.447212  1
  O  O29  1  0.009860  0.837186  0.552788  1
  O  O30  1  0.990140  0.662814  0.052788  1
  O  O31  1  0.990140  0.337186  0.947212  1
