# generated using pymatgen
data_Pr6PdRh
_symmetry_space_group_name_H-M   'P 1'
_cell_length_a   6.62333400
_cell_length_b   7.38229500
_cell_length_c   10.10659600
_cell_angle_alpha   90.00000000
_cell_angle_beta   90.00000000
_cell_angle_gamma   90.00000000
_symmetry_Int_Tables_number   1
_chemical_formula_structural   Pr6PdRh
_chemical_formula_sum   'Pr12 Pd2 Rh2'
_cell_volume   494.16610936
_cell_formula_units_Z   2
loop_
 _symmetry_equiv_pos_site_id
 _symmetry_equiv_pos_as_xyz
  1  'x, y, z'
loop_
 _atom_site_type_symbol
 _atom_site_label
 _atom_site_symmetry_multiplicity
 _atom_site_fract_x
 _atom_site_fract_y
 _atom_site_fract_z
 _atom_site_occupancy
  Pr  Pr0  1  0.670476  0.180880  0.063118  1
  Pr  Pr1  1  0.170476  0.319120  0.936882  1
  Pr  Pr2  1  0.836975  0.672219  0.434717  1
  Pr  Pr3  1  0.336975  0.827781  0.565283  1
  Pr  Pr4  1  0.336975  0.827781  0.934717  1
  Pr  Pr5  1  0.836975  0.672219  0.065283  1
  Pr  Pr6  1  0.170476  0.319120  0.563118  1
  Pr  Pr7  1  0.670476  0.180880  0.436882  1
  Pr  Pr8  1  0.853954  0.972168  0.750000  1
  Pr  Pr9  1  0.353954  0.527832  0.250000  1
  Pr  Pr10  1  0.634431  0.462207  0.750000  1
  Pr  Pr11  1  0.134431  0.037793  0.250000  1
  Pd  Pd12  1  0.069500  0.615436  0.750000  1
  Pd  Pd13  1  0.569500  0.884564  0.250000  1
  Rh  Rh14  1  0.427215  0.118353  0.750000  1
  Rh  Rh15  1  0.927215  0.381647  0.250000  1
