# generated using pymatgen
data_CeUS6
_symmetry_space_group_name_H-M   'P 1'
_cell_length_a   3.97912500
_cell_length_b   5.40217908
_cell_length_c   9.55698815
_cell_angle_alpha   82.78041561
_cell_angle_beta   90.00000000
_cell_angle_gamma   90.00000000
_symmetry_Int_Tables_number   1
_chemical_formula_structural   CeUS6
_chemical_formula_sum   'Ce1 U1 S6'
_cell_volume   203.80775864
_cell_formula_units_Z   1
loop_
 _symmetry_equiv_pos_site_id
 _symmetry_equiv_pos_as_xyz
  1  'x, y, z'
loop_
 _atom_site_type_symbol
 _atom_site_label
 _atom_site_symmetry_multiplicity
 _atom_site_fract_x
 _atom_site_fract_y
 _atom_site_fract_z
 _atom_site_occupancy
  Ce  Ce0  1  0.250000  0.718311  0.144078  1
  U  U1  1  0.750000  0.281528  0.859810  1
  S  S2  1  0.250000  0.128815  0.688594  1
  S  S3  1  0.750000  0.870119  0.318667  1
  S  S4  1  0.750000  0.487617  0.318123  1
  S  S5  1  0.250000  0.510073  0.688672  1
  S  S6  1  0.750000  0.765729  0.928480  1
  S  S7  1  0.250000  0.237808  0.053576  1
