# generated using pymatgen
data_Sr6HfS8
_symmetry_space_group_name_H-M   'P 1'
_cell_length_a   8.44196549
_cell_length_b   8.44196529
_cell_length_c   8.44196600
_cell_angle_alpha   60.00000505
_cell_angle_beta   60.00000583
_cell_angle_gamma   60.00000084
_symmetry_Int_Tables_number   1
_chemical_formula_structural   Sr6HfS8
_chemical_formula_sum   'Sr6 Hf1 S8'
_cell_volume   425.41791406
_cell_formula_units_Z   1
loop_
 _symmetry_equiv_pos_site_id
 _symmetry_equiv_pos_as_xyz
  1  'x, y, z'
loop_
 _atom_site_type_symbol
 _atom_site_label
 _atom_site_symmetry_multiplicity
 _atom_site_fract_x
 _atom_site_fract_y
 _atom_site_fract_z
 _atom_site_occupancy
  Sr  Sr0  1  0.500000  0.000000  0.000000  1
  Sr  Sr1  1  0.500000  0.000000  0.500000  1
  Sr  Sr2  1  0.000000  0.000000  0.500000  1
  Sr  Sr3  1  0.500000  0.500000  0.000000  1
  Sr  Sr4  1  0.000000  0.500000  0.000000  1
  Sr  Sr5  1  0.000000  0.500000  0.500000  1
  Hf  Hf6  1  0.000000  0.000000  0.000000  1
  S  S7  1  0.781515  0.218485  0.218485  1
  S  S8  1  0.250000  0.250000  0.250000  1
  S  S9  1  0.218485  0.781515  0.218485  1
  S  S10  1  0.218485  0.218485  0.781515  1
  S  S11  1  0.781515  0.781515  0.218485  1
  S  S12  1  0.781515  0.218485  0.781515  1
  S  S13  1  0.750000  0.750000  0.750000  1
  S  S14  1  0.218485  0.781515  0.781515  1
