# generated using pymatgen
data_SmCu3HgRh
_symmetry_space_group_name_H-M   'P 1'
_cell_length_a   5.29151625
_cell_length_b   5.29151573
_cell_length_c   5.29151609
_cell_angle_alpha   58.02661297
_cell_angle_beta   58.02659652
_cell_angle_gamma   58.02660683
_symmetry_Int_Tables_number   1
_chemical_formula_structural   SmCu3HgRh
_chemical_formula_sum   'Sm1 Cu3 Hg1 Rh1'
_cell_volume   100.02534287
_cell_formula_units_Z   1
loop_
 _symmetry_equiv_pos_site_id
 _symmetry_equiv_pos_as_xyz
  1  'x, y, z'
loop_
 _atom_site_type_symbol
 _atom_site_label
 _atom_site_symmetry_multiplicity
 _atom_site_fract_x
 _atom_site_fract_y
 _atom_site_fract_z
 _atom_site_occupancy
  Sm  Sm0  1  0.002064  0.002064  0.002064  1
  Cu  Cu1  1  0.870969  0.373742  0.373742  1
  Cu  Cu2  1  0.373742  0.870969  0.373742  1
  Cu  Cu3  1  0.373742  0.373742  0.870969  1
  Hg  Hg4  1  0.756135  0.756135  0.756135  1
  Rh  Rh5  1  0.373347  0.373347  0.373347  1
