# generated using pymatgen
data_Cs12NaInSe8
_symmetry_space_group_name_H-M   'P 1'
_cell_length_a   11.60183900
_cell_length_b   11.60183985
_cell_length_c   8.79006300
_cell_angle_alpha   90.00000000
_cell_angle_beta   90.00000000
_cell_angle_gamma   120.00000042
_symmetry_Int_Tables_number   1
_chemical_formula_structural   Cs12NaInSe8
_chemical_formula_sum   'Cs12 Na1 In1 Se8'
_cell_volume   1024.65182603
_cell_formula_units_Z   1
loop_
 _symmetry_equiv_pos_site_id
 _symmetry_equiv_pos_as_xyz
  1  'x, y, z'
loop_
 _atom_site_type_symbol
 _atom_site_label
 _atom_site_symmetry_multiplicity
 _atom_site_fract_x
 _atom_site_fract_y
 _atom_site_fract_z
 _atom_site_occupancy
  Cs  Cs0  1  0.152702  0.847298  0.545265  1
  Cs  Cs1  1  0.289907  0.144954  0.039288  1
  Cs  Cs2  1  0.855046  0.710093  0.039288  1
  Cs  Cs3  1  0.152702  0.305403  0.545265  1
  Cs  Cs4  1  0.694597  0.847298  0.545265  1
  Cs  Cs5  1  0.855046  0.144954  0.039288  1
  Cs  Cs6  1  0.524414  0.475586  0.354808  1
  Cs  Cs7  1  0.069921  0.534961  0.879899  1
  Cs  Cs8  1  0.465039  0.930079  0.879899  1
  Cs  Cs9  1  0.524414  0.048829  0.354808  1
  Cs  Cs10  1  0.951171  0.475586  0.354808  1
  Cs  Cs11  1  0.465039  0.534961  0.879899  1
  Na  Na12  1  0.333333  0.666667  0.255014  1
  In  In13  1  0.666667  0.333333  0.747876  1
  Se  Se14  1  0.333333  0.666667  0.594823  1
  Se  Se15  1  0.666667  0.333333  0.052828  1
  Se  Se16  1  0.187558  0.812442  0.154014  1
  Se  Se17  1  0.413559  0.206779  0.649681  1
  Se  Se18  1  0.793221  0.586441  0.649681  1
  Se  Se19  1  0.187558  0.375116  0.154014  1
  Se  Se20  1  0.624884  0.812442  0.154014  1
  Se  Se21  1  0.793221  0.206779  0.649681  1
