# generated using pymatgen
data_Sc22Tc3Ru3Pt2
_symmetry_space_group_name_H-M   'P 1'
_cell_length_a   9.55071073
_cell_length_b   9.51293355
_cell_length_c   9.49717739
_cell_angle_alpha   60.31795803
_cell_angle_beta   59.92273780
_cell_angle_gamma   59.75928394
_symmetry_Int_Tables_number   1
_chemical_formula_structural   Sc22Tc3Ru3Pt2
_chemical_formula_sum   'Sc22 Tc3 Ru3 Pt2'
_cell_volume   610.10946404
_cell_formula_units_Z   1
loop_
 _symmetry_equiv_pos_site_id
 _symmetry_equiv_pos_as_xyz
  1  'x, y, z'
loop_
 _atom_site_type_symbol
 _atom_site_label
 _atom_site_symmetry_multiplicity
 _atom_site_fract_x
 _atom_site_fract_y
 _atom_site_fract_z
 _atom_site_occupancy
  Sc  Sc0  1  0.803754  0.803754  0.196246  1
  Sc  Sc1  1  0.198572  0.801428  0.198572  1
  Sc  Sc2  1  0.803972  0.196028  0.196028  1
  Sc  Sc3  1  0.196246  0.196246  0.803754  1
  Sc  Sc4  1  0.801428  0.198572  0.801428  1
  Sc  Sc5  1  0.196028  0.803972  0.803972  1
  Sc  Sc6  1  0.619551  0.616322  0.151158  1
  Sc  Sc7  1  0.612971  0.151158  0.616322  1
  Sc  Sc8  1  0.151158  0.612971  0.619551  1
  Sc  Sc9  1  0.616322  0.619551  0.612971  1
  Sc  Sc10  1  0.380449  0.383678  0.848842  1
  Sc  Sc11  1  0.387029  0.848842  0.383678  1
  Sc  Sc12  1  0.848842  0.387029  0.380449  1
  Sc  Sc13  1  0.383678  0.380449  0.387029  1
  Sc  Sc14  1  0.844029  0.839259  0.470239  1
  Sc  Sc15  1  0.846473  0.470239  0.839259  1
  Sc  Sc16  1  0.470239  0.846473  0.844029  1
  Sc  Sc17  1  0.839259  0.844029  0.846473  1
  Sc  Sc18  1  0.155971  0.160741  0.529761  1
  Sc  Sc19  1  0.153527  0.529761  0.160741  1
  Sc  Sc20  1  0.529761  0.153527  0.155971  1
  Sc  Sc21  1  0.160741  0.155971  0.153527  1
  Tc  Tc22  1  0.000000  0.000000  0.000000  1
  Tc  Tc23  1  0.500000  0.000000  0.500000  1
  Tc  Tc24  1  0.000000  0.500000  0.000000  1
  Ru  Ru25  1  0.500000  0.500000  0.500000  1
  Ru  Ru26  1  0.000000  0.500000  0.500000  1
  Ru  Ru27  1  0.500000  0.000000  0.000000  1
  Pt  Pt28  1  0.000000  0.000000  0.500000  1
  Pt  Pt29  1  0.500000  0.500000  0.000000  1
