# generated using pymatgen
data_Dy9Lu2Th5(MgRu)4
_symmetry_space_group_name_H-M   'P 1'
_cell_length_a   9.71321676
_cell_length_b   9.76446504
_cell_length_c   9.77601527
_cell_angle_alpha   59.73650803
_cell_angle_beta   60.16053775
_cell_angle_gamma   60.12651447
_symmetry_Int_Tables_number   1
_chemical_formula_structural   Dy9Lu2Th5(MgRu)4
_chemical_formula_sum   'Dy9 Lu2 Th5 Mg4 Ru4'
_cell_volume   655.72400398
_cell_formula_units_Z   1
loop_
 _symmetry_equiv_pos_site_id
 _symmetry_equiv_pos_as_xyz
  1  'x, y, z'
loop_
 _atom_site_type_symbol
 _atom_site_label
 _atom_site_symmetry_multiplicity
 _atom_site_fract_x
 _atom_site_fract_y
 _atom_site_fract_z
 _atom_site_occupancy
  Dy  Dy0  1  0.814327  0.184200  0.810152  1
  Dy  Dy1  1  0.191164  0.184147  0.810011  1
  Dy  Dy2  1  0.814970  0.810129  0.184319  1
  Dy  Dy3  1  0.933406  0.568250  0.566914  1
  Dy  Dy4  1  0.563993  0.935063  0.935647  1
  Dy  Dy5  1  0.562334  0.936147  0.564696  1
  Dy  Dy6  1  0.937094  0.564355  0.935917  1
  Dy  Dy7  1  0.561745  0.565404  0.936420  1
  Dy  Dy8  1  0.937658  0.935574  0.563637  1
  Lu  Lu9  1  0.186078  0.813591  0.814319  1
  Lu  Lu10  1  0.191146  0.809254  0.185142  1
  Th  Th11  1  0.341679  0.349400  0.347757  1
  Th  Th12  1  0.346150  0.348121  0.960241  1
  Th  Th13  1  0.345869  0.959762  0.347791  1
  Th  Th14  1  0.960293  0.348872  0.349041  1
  Th  Th15  1  0.816267  0.182881  0.184083  1
  Mg  Mg16  1  0.580523  0.579724  0.579856  1
  Mg  Mg17  1  0.578713  0.582050  0.258898  1
  Mg  Mg18  1  0.579132  0.258958  0.581907  1
  Mg  Mg19  1  0.259865  0.579563  0.578992  1
  Ru  Ru20  1  0.129132  0.146146  0.147563  1
  Ru  Ru21  1  0.145977  0.140481  0.568342  1
  Ru  Ru22  1  0.146045  0.569730  0.140520  1
  Ru  Ru23  1  0.576446  0.148196  0.147833  1
