# generated using pymatgen
data_Sm2(S2O7)3
_symmetry_space_group_name_H-M   'P 1'
_cell_length_a   6.54354987
_cell_length_b   10.10193273
_cell_length_c   11.50951500
_cell_angle_alpha   91.01991078
_cell_angle_beta   96.78929255
_cell_angle_gamma   94.87733394
_symmetry_Int_Tables_number   1
_chemical_formula_structural   Sm2(S2O7)3
_chemical_formula_sum   'Sm4 S12 O42'
_cell_volume   752.43879188
_cell_formula_units_Z   2
loop_
 _symmetry_equiv_pos_site_id
 _symmetry_equiv_pos_as_xyz
  1  'x, y, z'
loop_
 _atom_site_type_symbol
 _atom_site_label
 _atom_site_symmetry_multiplicity
 _atom_site_fract_x
 _atom_site_fract_y
 _atom_site_fract_z
 _atom_site_occupancy
  Sm  Sm0  1  0.833710  0.412106  0.722414  1
  Sm  Sm1  1  0.166290  0.587894  0.277586  1
  Sm  Sm2  1  0.402159  0.904152  0.736525  1
  Sm  Sm3  1  0.597841  0.095848  0.263475  1
  S  S4  1  0.362354  0.552845  0.765332  1
  S  S5  1  0.637646  0.447155  0.234668  1
  S  S6  1  0.418928  0.187367  0.549404  1
  S  S7  1  0.581072  0.812633  0.450596  1
  S  S8  1  0.714911  0.672900  0.910712  1
  S  S9  1  0.285089  0.327100  0.089288  1
  S  S10  1  0.928096  0.069980  0.774673  1
  S  S11  1  0.071904  0.930020  0.225327  1
  S  S12  1  0.674617  0.168003  0.934179  1
  S  S13  1  0.325383  0.831997  0.065821  1
  S  S14  1  0.035051  0.297720  0.458636  1
  S  S15  1  0.964948  0.702280  0.541364  1
  O  O16  1  0.680667  0.780593  0.829196  1
  O  O17  1  0.319333  0.219407  0.170804  1
  O  O18  1  0.288910  0.679438  0.728043  1
  O  O19  1  0.711090  0.320562  0.271957  1
  O  O20  1  0.337458  0.055977  0.581316  1
  O  O21  1  0.662542  0.944023  0.418684  1
  O  O22  1  0.877441  0.087406  0.910997  1
  O  O23  1  0.122559  0.912594  0.089003  1
  O  O24  1  0.481005  0.576045  0.894447  1
  O  O25  1  0.518995  0.423955  0.105553  1
  O  O26  1  0.741220  0.007517  0.708197  1
  O  O27  1  0.258780  0.992483  0.291803  1
  O  O28  1  0.857863  0.581454  0.873705  1
  O  O29  1  0.142137  0.418546  0.126295  1
  O  O30  1  0.987782  0.202818  0.736872  1
  O  O31  1  0.012218  0.797182  0.263128  1
  O  O32  1  0.235090  0.283134  0.559267  1
  O  O33  1  0.764910  0.716866  0.440733  1
  O  O34  1  0.712025  0.299782  0.886695  1
  O  O35  1  0.287975  0.700218  0.113305  1
  O  O36  1  0.470220  0.195278  0.430641  1
  O  O37  1  0.529780  0.804722  0.569359  1
  O  O38  1  0.192244  0.455092  0.779018  1
  O  O39  1  0.807756  0.544908  0.220982  1
  O  O40  1  0.576691  0.248425  0.637309  1
  O  O41  1  0.423309  0.751575  0.362691  1
  O  O42  1  0.509539  0.505829  0.691912  1
  O  O43  1  0.490461  0.494171  0.308088  1
  O  O44  1  0.096329  0.986119  0.790485  1
  O  O45  1  0.903671  0.013881  0.209515  1
  O  O46  1  0.685167  0.168460  0.059686  1
  O  O47  1  0.314833  0.831540  0.940314  1
  O  O48  1  0.740611  0.708296  0.032091  1
  O  O49  1  0.259389  0.291704  0.967909  1
  O  O50  1  0.910421  0.372615  0.528887  1
  O  O51  1  0.089579  0.627385  0.471113  1
  O  O52  1  0.946859  0.165667  0.421762  1
  O  O53  1  0.053141  0.834333  0.578238  1
  O  O54  1  0.122822  0.375802  0.369043  1
  O  O55  1  0.877178  0.624198  0.630957  1
  O  O56  1  0.497736  0.088516  0.871850  1
  O  O57  1  0.502264  0.911484  0.128150  1
