# generated using pymatgen
data_Hf18VRe6Si2Mo
_symmetry_space_group_name_H-M   'P 1'
_cell_length_a   8.62264302
_cell_length_b   8.62292080
_cell_length_c   8.58415100
_cell_angle_alpha   89.99933196
_cell_angle_beta   90.00053279
_cell_angle_gamma   120.00655119
_symmetry_Int_Tables_number   1
_chemical_formula_structural   Hf18VRe6Si2Mo
_chemical_formula_sum   'Hf18 V1 Re6 Si2 Mo1'
_cell_volume   552.70591290
_cell_formula_units_Z   1
loop_
 _symmetry_equiv_pos_site_id
 _symmetry_equiv_pos_as_xyz
  1  'x, y, z'
loop_
 _atom_site_type_symbol
 _atom_site_label
 _atom_site_symmetry_multiplicity
 _atom_site_fract_x
 _atom_site_fract_y
 _atom_site_fract_z
 _atom_site_occupancy
  Hf  Hf0  1  0.194216  0.805797  0.452022  1
  Hf  Hf1  1  0.194203  0.388416  0.452026  1
  Hf  Hf2  1  0.611602  0.805813  0.452028  1
  Hf  Hf3  1  0.805784  0.194203  0.547978  1
  Hf  Hf4  1  0.805797  0.611584  0.547974  1
  Hf  Hf5  1  0.388398  0.194187  0.547972  1
  Hf  Hf6  1  0.804564  0.195414  0.951605  1
  Hf  Hf7  1  0.804563  0.609148  0.951614  1
  Hf  Hf8  1  0.390823  0.195407  0.951618  1
  Hf  Hf9  1  0.195436  0.804586  0.048395  1
  Hf  Hf10  1  0.195437  0.390852  0.048386  1
  Hf  Hf11  1  0.609177  0.804593  0.048382  1
  Hf  Hf12  1  0.539530  0.460477  0.249979  1
  Hf  Hf13  1  0.539526  0.079048  0.249985  1
  Hf  Hf14  1  0.920947  0.460475  0.249990  1
  Hf  Hf15  1  0.460470  0.539523  0.750021  1
  Hf  Hf16  1  0.460474  0.920952  0.750015  1
  Hf  Hf17  1  0.079053  0.539525  0.750010  1
  V  V18  1  0.000000  0.000000  0.500000  1
  Re  Re19  1  0.890473  0.109530  0.253379  1
  Re  Re20  1  0.890473  0.780930  0.253361  1
  Re  Re21  1  0.219063  0.109520  0.253366  1
  Re  Re22  1  0.109527  0.890470  0.746621  1
  Re  Re23  1  0.109527  0.219070  0.746639  1
  Re  Re24  1  0.780937  0.890480  0.746634  1
  Si  Si25  1  0.333333  0.666672  0.251133  1
  Si  Si26  1  0.666667  0.333328  0.748867  1
  Mo  Mo27  1  0.000000  0.000000  0.000000  1
