# generated using pymatgen
data_Nd3Y12Ho(CdRu)4
_symmetry_space_group_name_H-M   'P 1'
_cell_length_a   9.72858392
_cell_length_b   9.72366279
_cell_length_c   9.71754483
_cell_angle_alpha   59.76438509
_cell_angle_beta   59.78308785
_cell_angle_gamma   59.73787407
_symmetry_Int_Tables_number   1
_chemical_formula_structural   Nd3Y12Ho(CdRu)4
_chemical_formula_sum   'Nd3 Y12 Ho1 Cd4 Ru4'
_cell_volume   646.49541650
_cell_formula_units_Z   1
loop_
 _symmetry_equiv_pos_site_id
 _symmetry_equiv_pos_as_xyz
  1  'x, y, z'
loop_
 _atom_site_type_symbol
 _atom_site_label
 _atom_site_symmetry_multiplicity
 _atom_site_fract_x
 _atom_site_fract_y
 _atom_site_fract_z
 _atom_site_occupancy
  Nd  Nd0  1  0.438300  0.439546  0.061839  1
  Nd  Nd1  1  0.062378  0.062488  0.438963  1
  Nd  Nd2  1  0.440314  0.060088  0.061441  1
  Y  Y3  1  0.689097  0.311069  0.311685  1
  Y  Y4  1  0.059676  0.440349  0.440461  1
  Y  Y5  1  0.310752  0.689236  0.688250  1
  Y  Y6  1  0.310664  0.311545  0.689144  1
  Y  Y7  1  0.846256  0.845184  0.460462  1
  Y  Y8  1  0.690341  0.689096  0.310437  1
  Y  Y9  1  0.462316  0.843689  0.844827  1
  Y  Y10  1  0.057287  0.443298  0.059832  1
  Y  Y11  1  0.845216  0.461369  0.844921  1
  Y  Y12  1  0.441730  0.058715  0.443084  1
  Y  Y13  1  0.312305  0.686735  0.312554  1
  Y  Y14  1  0.689541  0.311864  0.686612  1
  Ho  Ho15  1  0.846080  0.847382  0.845891  1
  Cd  Cd16  1  0.077246  0.760440  0.080857  1
  Cd  Cd17  1  0.080551  0.080493  0.760194  1
  Cd  Cd18  1  0.761918  0.078108  0.081297  1
  Cd  Cd19  1  0.077221  0.080922  0.078454  1
  Ru  Ru20  1  0.637971  0.079753  0.639960  1
  Ru  Ru21  1  0.639549  0.640532  0.635945  1
  Ru  Ru22  1  0.644127  0.639906  0.079498  1
  Ru  Ru23  1  0.079162  0.638189  0.643390  1
