# generated using pymatgen
data_Nb6Al2Zn4CN
_symmetry_space_group_name_H-M   'P 1'
_cell_length_a   8.32011816
_cell_length_b   8.32011930
_cell_length_c   8.30609500
_cell_angle_alpha   60.05573127
_cell_angle_beta   60.05572675
_cell_angle_gamma   60.15190515
_symmetry_Int_Tables_number   1
_chemical_formula_structural   Nb6Al2Zn4CN
_chemical_formula_sum   'Nb12 Al4 Zn8 C2 N2'
_cell_volume   407.38327716
_cell_formula_units_Z   2
loop_
 _symmetry_equiv_pos_site_id
 _symmetry_equiv_pos_as_xyz
  1  'x, y, z'
loop_
 _atom_site_type_symbol
 _atom_site_label
 _atom_site_symmetry_multiplicity
 _atom_site_fract_x
 _atom_site_fract_y
 _atom_site_fract_z
 _atom_site_occupancy
  Nb  Nb0  1  0.816955  0.182575  0.815759  1
  Nb  Nb1  1  0.067425  0.433045  0.434241  1
  Nb  Nb2  1  0.433045  0.067425  0.065288  1
  Nb  Nb3  1  0.067425  0.433045  0.065288  1
  Nb  Nb4  1  0.434086  0.434086  0.065914  1
  Nb  Nb5  1  0.067078  0.067078  0.432922  1
  Nb  Nb6  1  0.815914  0.815914  0.184086  1
  Nb  Nb7  1  0.182575  0.816955  0.815759  1
  Nb  Nb8  1  0.816955  0.182575  0.184712  1
  Nb  Nb9  1  0.182922  0.182922  0.817078  1
  Nb  Nb10  1  0.433045  0.067425  0.434241  1
  Nb  Nb11  1  0.182575  0.816955  0.184712  1
  Al  Al12  1  0.625000  0.625000  0.625000  1
  Al  Al13  1  0.125000  0.625000  0.625000  1
  Al  Al14  1  0.625000  0.125000  0.625000  1
  Al  Al15  1  0.625000  0.625000  0.125000  1
  Zn  Zn16  1  0.416080  0.416080  0.416711  1
  Zn  Zn17  1  0.499065  0.833900  0.833519  1
  Zn  Zn18  1  0.833900  0.499065  0.833519  1
  Zn  Zn19  1  0.833920  0.833920  0.498874  1
  Zn  Zn20  1  0.416100  0.750935  0.416481  1
  Zn  Zn21  1  0.416080  0.416080  0.751126  1
  Zn  Zn22  1  0.750935  0.416100  0.416481  1
  Zn  Zn23  1  0.833920  0.833920  0.833289  1
  C  C24  1  0.625000  0.125000  0.125000  1
  C  C25  1  0.125000  0.625000  0.125000  1
  N  N26  1  0.125000  0.125000  0.125000  1
  N  N27  1  0.125000  0.125000  0.625000  1
