# generated using pymatgen
data_Np2Co7Ni5As7
_symmetry_space_group_name_H-M   'P 1'
_cell_length_a   3.76521900
_cell_length_b   9.44176036
_cell_length_c   9.42738181
_cell_angle_alpha   120.08248725
_cell_angle_beta   90.00000000
_cell_angle_gamma   90.00000000
_symmetry_Int_Tables_number   1
_chemical_formula_structural   Np2Co7Ni5As7
_chemical_formula_sum   'Np2 Co7 Ni5 As7'
_cell_volume   290.00358001
_cell_formula_units_Z   1
loop_
 _symmetry_equiv_pos_site_id
 _symmetry_equiv_pos_as_xyz
  1  'x, y, z'
loop_
 _atom_site_type_symbol
 _atom_site_label
 _atom_site_symmetry_multiplicity
 _atom_site_fract_x
 _atom_site_fract_y
 _atom_site_fract_z
 _atom_site_occupancy
  Np  Np0  1  0.000000  0.667218  0.334687  1
  Np  Np1  1  0.500000  0.331639  0.666022  1
  Co  Co2  1  0.000000  0.057734  0.621479  1
  Co  Co3  1  0.000000  0.877190  0.153763  1
  Co  Co4  1  0.000000  0.275526  0.121736  1
  Co  Co5  1  0.000000  0.845652  0.724566  1
  Co  Co6  1  0.500000  0.949732  0.380741  1
  Co  Co7  1  0.500000  0.431743  0.051560  1
  Co  Co8  1  0.500000  0.621094  0.569248  1
  Ni  Ni9  1  0.000000  0.562309  0.942335  1
  Ni  Ni10  1  0.000000  0.377617  0.436064  1
  Ni  Ni11  1  0.500000  0.786982  0.906055  1
  Ni  Ni12  1  0.500000  0.117817  0.212293  1
  Ni  Ni13  1  0.500000  0.098413  0.878760  1
  As  As14  1  0.000000  0.999872  0.000052  1
  As  As15  1  0.500000  0.708991  0.113358  1
  As  As16  1  0.500000  0.403710  0.290576  1
  As  As17  1  0.500000  0.889899  0.597116  1
  As  As18  1  0.000000  0.594879  0.708509  1
  As  As19  1  0.000000  0.112643  0.405959  1
  As  As20  1  0.000000  0.289339  0.885122  1
