# generated using pymatgen
data_Ho2TmCd3Si2Au
_symmetry_space_group_name_H-M   'P 1'
_cell_length_a   7.21032500
_cell_length_b   7.20780163
_cell_length_c   4.31115400
_cell_angle_alpha   90.00000000
_cell_angle_beta   90.00000000
_cell_angle_gamma   120.01157693
_symmetry_Int_Tables_number   1
_chemical_formula_structural   Ho2TmCd3Si2Au
_chemical_formula_sum   'Ho2 Tm1 Cd3 Si2 Au1'
_cell_volume   194.01314662
_cell_formula_units_Z   1
loop_
 _symmetry_equiv_pos_site_id
 _symmetry_equiv_pos_as_xyz
  1  'x, y, z'
loop_
 _atom_site_type_symbol
 _atom_site_label
 _atom_site_symmetry_multiplicity
 _atom_site_fract_x
 _atom_site_fract_y
 _atom_site_fract_z
 _atom_site_occupancy
  Ho  Ho0  1  0.000173  0.582997  0.000000  1
  Ho  Ho1  1  0.417176  0.417003  0.000000  1
  Tm  Tm2  1  0.583227  0.000000  0.000000  1
  Cd  Cd3  1  0.255883  0.000000  0.500000  1
  Cd  Cd4  1  0.999810  0.255458  0.500000  1
  Cd  Cd5  1  0.744352  0.744542  0.500000  1
  Si  Si6  1  0.333701  0.667282  0.500000  1
  Si  Si7  1  0.666419  0.332718  0.500000  1
  Au  Au8  1  0.999258  0.000000  0.000000  1
