# generated using pymatgen
data_Ti16Co4ReIr3
_symmetry_space_group_name_H-M   'P 1'
_cell_length_a   8.10542224
_cell_length_b   8.09702221
_cell_length_c   8.09702200
_cell_angle_alpha   60.00000084
_cell_angle_beta   60.03427703
_cell_angle_gamma   60.03428063
_symmetry_Int_Tables_number   1
_chemical_formula_structural   Ti16Co4ReIr3
_chemical_formula_sum   'Ti16 Co4 Re1 Ir3'
_cell_volume   375.95522299
_cell_formula_units_Z   1
loop_
 _symmetry_equiv_pos_site_id
 _symmetry_equiv_pos_as_xyz
  1  'x, y, z'
loop_
 _atom_site_type_symbol
 _atom_site_label
 _atom_site_symmetry_multiplicity
 _atom_site_fract_x
 _atom_site_fract_y
 _atom_site_fract_z
 _atom_site_occupancy
  Ti  Ti0  1  0.063306  0.645565  0.645565  1
  Ti  Ti1  1  0.648694  0.056713  0.647297  1
  Ti  Ti2  1  0.648694  0.647297  0.056713  1
  Ti  Ti3  1  0.648694  0.647297  0.647297  1
  Ti  Ti4  1  0.805611  0.798239  0.198075  1
  Ti  Ti5  1  0.198866  0.199563  0.800785  1
  Ti  Ti6  1  0.805611  0.198075  0.798239  1
  Ti  Ti7  1  0.198866  0.800785  0.199563  1
  Ti  Ti8  1  0.198866  0.800785  0.800785  1
  Ti  Ti9  1  0.805611  0.198075  0.198075  1
  Ti  Ti10  1  0.435621  0.437078  0.063650  1
  Ti  Ti11  1  0.059336  0.068891  0.435887  1
  Ti  Ti12  1  0.435621  0.063650  0.437078  1
  Ti  Ti13  1  0.059336  0.435887  0.068891  1
  Ti  Ti14  1  0.059336  0.435887  0.435887  1
  Ti  Ti15  1  0.435621  0.063650  0.063650  1
  Co  Co16  1  0.421324  0.859559  0.859559  1
  Co  Co17  1  0.859354  0.424633  0.858007  1
  Co  Co18  1  0.859354  0.858007  0.424633  1
  Co  Co19  1  0.859354  0.858007  0.858007  1
  Re  Re20  1  0.749501  0.416833  0.416833  1
  Ir  Ir21  1  0.414473  0.759172  0.413177  1
  Ir  Ir22  1  0.414473  0.413177  0.759172  1
  Ir  Ir23  1  0.414473  0.413177  0.413177  1
