# generated using pymatgen
data_Ca2YbC3Br2
_symmetry_space_group_name_H-M   'P 1'
_cell_length_a   7.24071065
_cell_length_b   7.24071078
_cell_length_c   11.75423000
_cell_angle_alpha   90.00000000
_cell_angle_beta   90.00000000
_cell_angle_gamma   148.64271989
_symmetry_Int_Tables_number   1
_chemical_formula_structural   Ca2YbC3Br2
_chemical_formula_sum   'Ca4 Yb2 C6 Br4'
_cell_volume   320.67964719
_cell_formula_units_Z   2
loop_
 _symmetry_equiv_pos_site_id
 _symmetry_equiv_pos_as_xyz
  1  'x, y, z'
loop_
 _atom_site_type_symbol
 _atom_site_label
 _atom_site_symmetry_multiplicity
 _atom_site_fract_x
 _atom_site_fract_y
 _atom_site_fract_z
 _atom_site_occupancy
  Ca  Ca0  1  0.661870  0.338130  0.559337  1
  Ca  Ca1  1  0.338130  0.661870  0.440663  1
  Ca  Ca2  1  0.338130  0.661870  0.059337  1
  Ca  Ca3  1  0.661870  0.338130  0.940663  1
  Yb  Yb4  1  0.126796  0.873204  0.250000  1
  Yb  Yb5  1  0.873204  0.126796  0.750000  1
  C  C6  1  0.267512  0.732488  0.636830  1
  C  C7  1  0.732488  0.267512  0.363170  1
  C  C8  1  0.732488  0.267512  0.136830  1
  C  C9  1  0.267512  0.732488  0.863170  1
  C  C10  1  0.741524  0.258476  0.250000  1
  C  C11  1  0.258476  0.741524  0.750000  1
  Br  Br12  1  0.529004  0.470996  0.750000  1
  Br  Br13  1  0.470996  0.529004  0.250000  1
  Br  Br14  1  0.000000  0.000000  0.000000  1
  Br  Br15  1  0.000000  0.000000  0.500000  1
