# generated using pymatgen
data_Re3I8F
_symmetry_space_group_name_H-M   'P 1'
_cell_length_a   11.30357334
_cell_length_b   9.35913195
_cell_length_c   10.03900076
_cell_angle_alpha   71.68268579
_cell_angle_beta   89.80524181
_cell_angle_gamma   89.71475054
_symmetry_Int_Tables_number   1
_chemical_formula_structural   Re3I8F
_chemical_formula_sum   'Re6 I16 F2'
_cell_volume   1008.21481992
_cell_formula_units_Z   2
loop_
 _symmetry_equiv_pos_site_id
 _symmetry_equiv_pos_as_xyz
  1  'x, y, z'
loop_
 _atom_site_type_symbol
 _atom_site_label
 _atom_site_symmetry_multiplicity
 _atom_site_fract_x
 _atom_site_fract_y
 _atom_site_fract_z
 _atom_site_occupancy
  Re  Re0  1  0.748884  0.152273  0.657401  1
  Re  Re1  1  0.860178  0.156453  0.867268  1
  Re  Re2  1  0.360203  0.844632  0.134491  1
  Re  Re3  1  0.140530  0.843019  0.133951  1
  Re  Re4  1  0.637771  0.155088  0.868726  1
  Re  Re5  1  0.250189  0.850110  0.342395  1
  I  I6  1  0.407259  0.146419  0.023277  1
  I  I7  1  0.994018  0.152497  0.636256  1
  I  I8  1  0.253682  0.577594  0.514348  1
  I  I9  1  0.591043  0.850900  0.984051  1
  I  I10  1  0.749112  0.152541  0.113901  1
  I  I11  1  0.006696  0.855457  0.363663  1
  I  I12  1  0.254329  0.838872  0.889951  1
  I  I13  1  0.747696  0.420114  0.476456  1
  I  I14  1  0.495013  0.850674  0.363398  1
  I  I15  1  0.587048  0.444731  0.814497  1
  I  I16  1  0.099545  0.550666  0.190928  1
  I  I17  1  0.090227  0.146733  0.016930  1
  I  I18  1  0.912251  0.852689  0.983984  1
  I  I19  1  0.503749  0.151409  0.638887  1
  I  I20  1  0.909219  0.446004  0.812504  1
  I  I21  1  0.750172  0.883384  0.626274  1
  F  F22  1  0.401029  0.634915  0.175014  1
  F  F23  1  0.250157  0.042827  0.371448  1
