# generated using pymatgen
data_Tm5Co4Si2(P2Ru3)5
_symmetry_space_group_name_H-M   'P 1'
_cell_length_a   12.47976554
_cell_length_b   12.46132884
_cell_length_c   3.85263100
_cell_angle_alpha   90.00000000
_cell_angle_beta   90.00000000
_cell_angle_gamma   119.95114925
_symmetry_Int_Tables_number   1
_chemical_formula_structural   Tm5Co4Si2(P2Ru3)5
_chemical_formula_sum   'Tm5 Co4 Si2 P10 Ru15'
_cell_volume   519.12554654
_cell_formula_units_Z   1
loop_
 _symmetry_equiv_pos_site_id
 _symmetry_equiv_pos_as_xyz
  1  'x, y, z'
loop_
 _atom_site_type_symbol
 _atom_site_label
 _atom_site_symmetry_multiplicity
 _atom_site_fract_x
 _atom_site_fract_y
 _atom_site_fract_z
 _atom_site_occupancy
  Tm  Tm0  1  0.665420  0.332965  0.000000  1
  Tm  Tm1  1  0.334580  0.667545  0.000000  1
  Tm  Tm2  1  0.180135  0.180224  0.500000  1
  Tm  Tm3  1  0.819865  0.000090  0.500000  1
  Tm  Tm4  1  0.000000  0.819452  0.500000  1
  Co  Co5  1  0.723255  0.721361  0.500000  1
  Co  Co6  1  0.276745  0.998106  0.500000  1
  Co  Co7  1  0.000000  0.280162  0.500000  1
  Co  Co8  1  0.000000  0.000272  0.000000  1
  Si  Si9  1  0.371338  0.371730  0.000000  1
  Si  Si10  1  0.628662  0.000391  0.000000  1
  P  P11  1  0.000000  0.629490  0.000000  1
  P  P12  1  0.837185  0.311170  0.500000  1
  P  P13  1  0.688216  0.526438  0.500000  1
  P  P14  1  0.471693  0.160351  0.500000  1
  P  P15  1  0.311784  0.838222  0.500000  1
  P  P16  1  0.528307  0.688658  0.500000  1
  P  P17  1  0.162815  0.473984  0.500000  1
  P  P18  1  0.823679  0.822716  0.000000  1
  P  P19  1  0.176321  0.999037  0.000000  1
  P  P20  1  0.000000  0.177776  0.000000  1
  Ru  Ru21  1  0.824131  0.196327  0.000000  1
  Ru  Ru22  1  0.809053  0.629142  0.000000  1
  Ru  Ru23  1  0.370405  0.175194  0.000000  1
  Ru  Ru24  1  0.190947  0.820090  0.000000  1
  Ru  Ru25  1  0.629595  0.804790  0.000000  1
  Ru  Ru26  1  0.175869  0.372197  0.000000  1
  Ru  Ru27  1  0.563451  0.560774  0.000000  1
  Ru  Ru28  1  0.436549  0.997323  0.000000  1
  Ru  Ru29  1  0.000000  0.443519  0.000000  1
  Ru  Ru30  1  0.638140  0.128810  0.500000  1
  Ru  Ru31  1  0.872283  0.511071  0.500000  1
  Ru  Ru32  1  0.489639  0.360404  0.500000  1
  Ru  Ru33  1  0.127717  0.638787  0.500000  1
  Ru  Ru34  1  0.510361  0.870764  0.500000  1
  Ru  Ru35  1  0.361860  0.490669  0.500000  1
