# generated using pymatgen
data_Er2Al4CoNi
_symmetry_space_group_name_H-M   'P 1'
_cell_length_a   5.39755112
_cell_length_b   5.39755157
_cell_length_c   6.93653700
_cell_angle_alpha   90.00000000
_cell_angle_beta   90.00000000
_cell_angle_gamma   136.11321623
_symmetry_Int_Tables_number   1
_chemical_formula_structural   Er2Al4CoNi
_chemical_formula_sum   'Er2 Al4 Co1 Ni1'
_cell_volume   140.09322415
_cell_formula_units_Z   1
loop_
 _symmetry_equiv_pos_site_id
 _symmetry_equiv_pos_as_xyz
  1  'x, y, z'
loop_
 _atom_site_type_symbol
 _atom_site_label
 _atom_site_symmetry_multiplicity
 _atom_site_fract_x
 _atom_site_fract_y
 _atom_site_fract_z
 _atom_site_occupancy
  Er  Er0  1  0.940474  0.059526  0.750000  1
  Er  Er1  1  0.061023  0.938977  0.250000  1
  Al  Al2  1  0.657596  0.342404  0.944283  1
  Al  Al3  1  0.342864  0.657136  0.053450  1
  Al  Al4  1  0.342864  0.657136  0.446550  1
  Al  Al5  1  0.657596  0.342404  0.555717  1
  Co  Co6  1  0.213536  0.786464  0.750000  1
  Ni  Ni7  1  0.784047  0.215953  0.250000  1
