# generated using pymatgen
data_YbTm3(Al8Pt3)3
_symmetry_space_group_name_H-M   'P 1'
_cell_length_a   7.52137592
_cell_length_b   7.54123541
_cell_length_c   13.17480501
_cell_angle_alpha   84.62094959
_cell_angle_beta   79.11825862
_cell_angle_gamma   59.92328880
_symmetry_Int_Tables_number   1
_chemical_formula_structural   YbTm3(Al8Pt3)3
_chemical_formula_sum   'Yb1 Tm3 Al24 Pt9'
_cell_volume   635.03553206
_cell_formula_units_Z   1
loop_
 _symmetry_equiv_pos_site_id
 _symmetry_equiv_pos_as_xyz
  1  'x, y, z'
loop_
 _atom_site_type_symbol
 _atom_site_label
 _atom_site_symmetry_multiplicity
 _atom_site_fract_x
 _atom_site_fract_y
 _atom_site_fract_z
 _atom_site_occupancy
  Yb  Yb0  1  0.393998  0.168535  0.807591  1
  Tm  Tm1  1  0.605394  0.831804  0.192473  1
  Tm  Tm2  1  0.734118  0.498728  0.807346  1
  Tm  Tm3  1  0.266147  0.500880  0.192621  1
  Al  Al4  1  0.684225  0.833281  0.944446  1
  Al  Al5  1  0.315796  0.166342  0.055861  1
  Al  Al6  1  0.146887  0.832201  0.561112  1
  Al  Al7  1  0.853288  0.167880  0.438112  1
  Al  Al8  1  0.479743  0.166597  0.558905  1
  Al  Al9  1  0.520358  0.833665  0.440800  1
  Al  Al10  1  0.218084  0.165301  0.328245  1
  Al  Al11  1  0.781812  0.835288  0.671168  1
  Al  Al12  1  0.437044  0.505975  0.670911  1
  Al  Al13  1  0.563216  0.493309  0.328400  1
  Al  Al14  1  0.109900  0.160226  0.669640  1
  Al  Al15  1  0.890686  0.839864  0.329725  1
  Al  Al16  1  0.353331  0.499298  0.944652  1
  Al  Al17  1  0.646167  0.501174  0.056423  1
  Al  Al18  1  0.015268  0.168499  0.953205  1
  Al  Al19  1  0.983941  0.831384  0.047998  1
  Al  Al20  1  0.186834  0.499280  0.440801  1
  Al  Al21  1  0.813586  0.500332  0.558514  1
  Al  Al22  1  0.733289  0.164488  0.183353  1
  Al  Al23  1  0.267528  0.833057  0.816956  1
  Al  Al24  1  0.059218  0.632246  0.815954  1
  Al  Al25  1  0.938222  0.369662  0.184473  1
  Al  Al26  1  0.856050  0.043176  0.816501  1
  Al  Al27  1  0.145775  0.957674  0.183890  1
  Pt  Pt28  1  0.119446  0.492462  0.638403  1
  Pt  Pt29  1  0.880167  0.508785  0.360752  1
  Pt  Pt30  1  0.656911  0.171354  0.000493  1
  Pt  Pt31  1  0.342563  0.828294  0.001074  1
  Pt  Pt32  1  0.537410  0.166703  0.360866  1
  Pt  Pt33  1  0.462642  0.832325  0.638367  1
  Pt  Pt34  1  0.779373  0.175185  0.637016  1
  Pt  Pt35  1  0.221957  0.824377  0.362083  1
  Pt  Pt36  1  0.999630  0.500369  0.000870  1
