# generated using pymatgen
data_Y11Sn2Hg7Pt4
_symmetry_space_group_name_H-M   'P 1'
_cell_length_a   13.13095000
_cell_length_b   13.11708878
_cell_length_c   3.71550900
_cell_angle_alpha   90.00000000
_cell_angle_beta   90.00000000
_cell_angle_gamma   112.46823414
_symmetry_Int_Tables_number   1
_chemical_formula_structural   Y11Sn2Hg7Pt4
_chemical_formula_sum   'Y11 Sn2 Hg7 Pt4'
_cell_volume   591.38039873
_cell_formula_units_Z   1
loop_
 _symmetry_equiv_pos_site_id
 _symmetry_equiv_pos_as_xyz
  1  'x, y, z'
loop_
 _atom_site_type_symbol
 _atom_site_label
 _atom_site_symmetry_multiplicity
 _atom_site_fract_x
 _atom_site_fract_y
 _atom_site_fract_z
 _atom_site_occupancy
  Y  Y0  1  0.076487  0.414312  0.000000  1
  Y  Y1  1  0.923386  0.585719  0.000000  1
  Y  Y2  1  0.415122  0.077422  0.000000  1
  Y  Y3  1  0.584238  0.924682  0.000000  1
  Y  Y4  1  0.627826  0.370328  0.000000  1
  Y  Y5  1  0.372619  0.628477  0.000000  1
  Y  Y6  1  0.832750  0.161969  0.000000  1
  Y  Y7  1  0.166522  0.835249  0.000000  1
  Y  Y8  1  0.004690  0.003435  0.000000  1
  Y  Y9  1  0.299294  0.300780  0.000000  1
  Y  Y10  1  0.697518  0.695870  0.000000  1
  Sn  Sn11  1  0.787898  0.932613  0.500000  1
  Sn  Sn12  1  0.500413  0.498820  0.500000  1
  Hg  Hg13  1  0.847940  0.367620  0.500000  1
  Hg  Hg14  1  0.153976  0.632995  0.500000  1
  Hg  Hg15  1  0.368802  0.847527  0.500000  1
  Hg  Hg16  1  0.631872  0.156120  0.500000  1
  Hg  Hg17  1  0.065493  0.213075  0.500000  1
  Hg  Hg18  1  0.932657  0.786432  0.500000  1
  Hg  Hg19  1  0.212919  0.065628  0.500000  1
  Pt  Pt20  1  0.248820  0.448661  0.500000  1
  Pt  Pt21  1  0.750753  0.550773  0.500000  1
  Pt  Pt22  1  0.446907  0.249421  0.500000  1
  Pt  Pt23  1  0.551099  0.752074  0.500000  1
