# generated using pymatgen
data_Hf10GaCuSnSb5
_symmetry_space_group_name_H-M   'P 1'
_cell_length_a   8.61423507
_cell_length_b   8.61423529
_cell_length_c   5.76579446
_cell_angle_alpha   90.03175631
_cell_angle_beta   90.03174116
_cell_angle_gamma   120.05004570
_symmetry_Int_Tables_number   1
_chemical_formula_structural   Hf10GaCuSnSb5
_chemical_formula_sum   'Hf10 Ga1 Cu1 Sn1 Sb5'
_cell_volume   370.34265616
_cell_formula_units_Z   1
loop_
 _symmetry_equiv_pos_site_id
 _symmetry_equiv_pos_as_xyz
  1  'x, y, z'
loop_
 _atom_site_type_symbol
 _atom_site_label
 _atom_site_symmetry_multiplicity
 _atom_site_fract_x
 _atom_site_fract_y
 _atom_site_fract_z
 _atom_site_occupancy
  Hf  Hf0  1  0.667133  0.333026  0.999614  1
  Hf  Hf1  1  0.333026  0.667133  0.999614  1
  Hf  Hf2  1  0.333141  0.666935  0.500535  1
  Hf  Hf3  1  0.666935  0.333141  0.500535  1
  Hf  Hf4  1  0.732766  0.732766  0.752627  1
  Hf  Hf5  1  0.268506  0.999869  0.752874  1
  Hf  Hf6  1  0.999869  0.268506  0.752874  1
  Hf  Hf7  1  0.266396  0.266396  0.246969  1
  Hf  Hf8  1  0.732721  0.999678  0.247393  1
  Hf  Hf9  1  0.999678  0.732721  0.247393  1
  Ga  Ga10  1  0.000566  0.000566  0.501512  1
  Cu  Cu11  1  0.000867  0.000867  0.997916  1
  Sn  Sn12  1  0.385730  0.385730  0.749625  1
  Sb  Sb13  1  0.613708  0.000107  0.749955  1
  Sb  Sb14  1  0.000107  0.613708  0.749955  1
  Sb  Sb15  1  0.611817  0.611817  0.250193  1
  Sb  Sb16  1  0.386779  0.000253  0.250207  1
  Sb  Sb17  1  0.000253  0.386779  0.250207  1
