# generated using pymatgen
data_Ce2NpSe5
_symmetry_space_group_name_H-M   'P 1'
_cell_length_a   7.84256800
_cell_length_b   8.46952300
_cell_length_c   12.43320700
_cell_angle_alpha   90.00000000
_cell_angle_beta   90.00000000
_cell_angle_gamma   90.00000000
_symmetry_Int_Tables_number   1
_chemical_formula_structural   Ce2NpSe5
_chemical_formula_sum   'Ce8 Np4 Se20'
_cell_volume   825.84854694
_cell_formula_units_Z   4
loop_
 _symmetry_equiv_pos_site_id
 _symmetry_equiv_pos_as_xyz
  1  'x, y, z'
loop_
 _atom_site_type_symbol
 _atom_site_label
 _atom_site_symmetry_multiplicity
 _atom_site_fract_x
 _atom_site_fract_y
 _atom_site_fract_z
 _atom_site_occupancy
  Ce  Ce0  1  0.472354  0.499748  0.322012  1
  Ce  Ce1  1  0.972354  0.500252  0.177988  1
  Ce  Ce2  1  0.027646  0.000252  0.822012  1
  Ce  Ce3  1  0.527646  0.999748  0.677988  1
  Ce  Ce4  1  0.527646  0.500252  0.677988  1
  Ce  Ce5  1  0.027646  0.499748  0.822012  1
  Ce  Ce6  1  0.972354  0.999748  0.177988  1
  Ce  Ce7  1  0.472354  0.000252  0.322012  1
  Np  Np8  1  0.931871  0.750000  0.492964  1
  Np  Np9  1  0.431871  0.250000  0.007036  1
  Np  Np10  1  0.568129  0.750000  0.992964  1
  Np  Np11  1  0.068129  0.250000  0.507036  1
  Se  Se12  1  0.805271  0.750000  0.715773  1
  Se  Se13  1  0.305271  0.250000  0.784227  1
  Se  Se14  1  0.694729  0.750000  0.215773  1
  Se  Se15  1  0.194729  0.250000  0.284227  1
  Se  Se16  1  0.541065  0.750000  0.499480  1
  Se  Se17  1  0.041065  0.250000  0.000520  1
  Se  Se18  1  0.958935  0.750000  0.999480  1
  Se  Se19  1  0.458935  0.250000  0.500520  1
  Se  Se20  1  0.166255  0.750000  0.311845  1
  Se  Se21  1  0.666255  0.250000  0.188155  1
  Se  Se22  1  0.333745  0.750000  0.811845  1
  Se  Se23  1  0.833745  0.250000  0.688155  1
  Se  Se24  1  0.168532  0.957622  0.595916  1
  Se  Se25  1  0.668532  0.042378  0.904084  1
  Se  Se26  1  0.331468  0.542378  0.095916  1
  Se  Se27  1  0.831468  0.457622  0.404084  1
  Se  Se28  1  0.831468  0.042378  0.404084  1
  Se  Se29  1  0.331468  0.957622  0.095916  1
  Se  Se30  1  0.668532  0.457622  0.904084  1
  Se  Se31  1  0.168532  0.542378  0.595916  1
