# generated using pymatgen
data_CaYb5DyYSb6
_symmetry_space_group_name_H-M   'P 1'
_cell_length_a   8.19368769
_cell_length_b   8.03496442
_cell_length_c   8.18703036
_cell_angle_alpha   70.91835403
_cell_angle_beta   70.13912485
_cell_angle_gamma   109.10597156
_symmetry_Int_Tables_number   1
_chemical_formula_structural   CaYb5DyYSb6
_chemical_formula_sum   'Ca1 Yb5 Dy1 Y1 Sb6'
_cell_volume   416.76403054
_cell_formula_units_Z   1
loop_
 _symmetry_equiv_pos_site_id
 _symmetry_equiv_pos_as_xyz
  1  'x, y, z'
loop_
 _atom_site_type_symbol
 _atom_site_label
 _atom_site_symmetry_multiplicity
 _atom_site_fract_x
 _atom_site_fract_y
 _atom_site_fract_z
 _atom_site_occupancy
  Ca  Ca0  1  0.851848  0.998518  0.001637  1
  Yb  Yb1  1  0.501206  0.498888  0.146366  1
  Yb  Yb2  1  0.645643  0.146379  0.353247  1
  Yb  Yb3  1  0.357997  0.001168  0.995783  1
  Yb  Yb4  1  0.495695  0.496685  0.646935  1
  Yb  Yb5  1  0.146800  0.643782  0.857533  1
  Dy  Dy6  1  0.000136  0.857011  0.499824  1
  Y  Y7  1  0.000579  0.359024  0.498922  1
  Sb  Sb8  1  0.633692  0.878421  0.742458  1
  Sb  Sb9  1  0.876866  0.624059  0.257104  1
  Sb  Sb10  1  0.242732  0.121892  0.623202  1
  Sb  Sb11  1  0.757472  0.381823  0.865457  1
  Sb  Sb12  1  0.365805  0.747236  0.377449  1
  Sb  Sb13  1  0.123530  0.245114  0.134082  1
