# generated using pymatgen
data_Lu2Hf(SnRh)3
_symmetry_space_group_name_H-M   'P 1'
_cell_length_a   7.65005061
_cell_length_b   7.69576029
_cell_length_c   3.51550100
_cell_angle_alpha   90.00000000
_cell_angle_beta   90.00000000
_cell_angle_gamma   120.19785176
_symmetry_Int_Tables_number   1
_chemical_formula_structural   Lu2Hf(SnRh)3
_chemical_formula_sum   'Lu2 Hf1 Sn3 Rh3'
_cell_volume   178.88107415
_cell_formula_units_Z   1
loop_
 _symmetry_equiv_pos_site_id
 _symmetry_equiv_pos_as_xyz
  1  'x, y, z'
loop_
 _atom_site_type_symbol
 _atom_site_label
 _atom_site_symmetry_multiplicity
 _atom_site_fract_x
 _atom_site_fract_y
 _atom_site_fract_z
 _atom_site_occupancy
  Lu  Lu0  1  0.395632  0.395310  0.500000  1
  Lu  Lu1  1  0.604368  0.999679  0.500000  1
  Hf  Hf2  1  0.000000  0.603849  0.500000  1
  Sn  Sn3  1  0.727286  0.727511  0.000000  1
  Sn  Sn4  1  0.272714  0.000225  0.000000  1
  Sn  Sn5  1  0.000000  0.270246  0.000000  1
  Rh  Rh6  1  0.681127  0.346029  0.000000  1
  Rh  Rh7  1  0.318873  0.664902  0.000000  1
  Rh  Rh8  1  0.000000  0.992249  0.500000  1
