# generated using pymatgen
data_La3Sm5GePd24
_symmetry_space_group_name_H-M   'P 1'
_cell_length_a   8.47835734
_cell_length_b   8.47835734
_cell_length_c   8.47507444
_cell_angle_alpha   90.04721280
_cell_angle_beta   90.04721280
_cell_angle_gamma   90.13191775
_symmetry_Int_Tables_number   1
_chemical_formula_structural   La3Sm5GePd24
_chemical_formula_sum   'La3 Sm5 Ge1 Pd24'
_cell_volume   609.20787501
_cell_formula_units_Z   1
loop_
 _symmetry_equiv_pos_site_id
 _symmetry_equiv_pos_as_xyz
  1  'x, y, z'
loop_
 _atom_site_type_symbol
 _atom_site_label
 _atom_site_symmetry_multiplicity
 _atom_site_fract_x
 _atom_site_fract_y
 _atom_site_fract_z
 _atom_site_occupancy
  La  La0  1  0.253936  0.253936  0.253939  1
  La  La1  1  0.746229  0.746229  0.746332  1
  La  La2  1  0.746241  0.746241  0.253683  1
  Sm  Sm3  1  0.746630  0.253226  0.746687  1
  Sm  Sm4  1  0.253240  0.253240  0.746824  1
  Sm  Sm5  1  0.252963  0.746981  0.253048  1
  Sm  Sm6  1  0.253226  0.746630  0.746687  1
  Sm  Sm7  1  0.746981  0.252963  0.253048  1
  Ge  Ge8  1  0.999851  0.999851  0.000358  1
  Pd  Pd9  1  0.259558  0.500222  0.998284  1
  Pd  Pd10  1  0.740678  0.498059  0.999779  1
  Pd  Pd11  1  0.998725  0.259559  0.501189  1
  Pd  Pd12  1  0.500222  0.259558  0.998284  1
  Pd  Pd13  1  0.003215  0.740693  0.500525  1
  Pd  Pd14  1  0.498059  0.740678  0.999779  1
  Pd  Pd15  1  0.499504  0.000215  0.259371  1
  Pd  Pd16  1  0.259559  0.998725  0.501189  1
  Pd  Pd17  1  0.498803  0.001690  0.740397  1
  Pd  Pd18  1  0.740693  0.003215  0.500525  1
  Pd  Pd19  1  0.000215  0.499504  0.259371  1
  Pd  Pd20  1  0.001690  0.498803  0.740397  1
  Pd  Pd21  1  0.252811  0.501043  0.501551  1
  Pd  Pd22  1  0.747264  0.497103  0.500207  1
  Pd  Pd23  1  0.501043  0.252811  0.501551  1
  Pd  Pd24  1  0.497103  0.747264  0.500207  1
  Pd  Pd25  1  0.499765  0.499765  0.252814  1
  Pd  Pd26  1  0.498466  0.498466  0.747141  1
  Pd  Pd27  1  0.289481  0.998448  0.998116  1
  Pd  Pd28  1  0.709967  0.003509  0.999812  1
  Pd  Pd29  1  0.998448  0.289481  0.998116  1
  Pd  Pd30  1  0.003509  0.709967  0.999812  1
  Pd  Pd31  1  0.000119  0.000119  0.290351  1
  Pd  Pd32  1  0.001805  0.001805  0.710627  1
