# generated using pymatgen
data_YEr3CdHgPd4
_symmetry_space_group_name_H-M   'P 1'
_cell_length_a   7.70121669
_cell_length_b   7.67979707
_cell_length_c   3.70592100
_cell_angle_alpha   90.00000000
_cell_angle_beta   90.00000000
_cell_angle_gamma   89.59563828
_symmetry_Int_Tables_number   1
_chemical_formula_structural   YEr3CdHgPd4
_chemical_formula_sum   'Y1 Er3 Cd1 Hg1 Pd4'
_cell_volume   219.17672300
_cell_formula_units_Z   1
loop_
 _symmetry_equiv_pos_site_id
 _symmetry_equiv_pos_as_xyz
  1  'x, y, z'
loop_
 _atom_site_type_symbol
 _atom_site_label
 _atom_site_symmetry_multiplicity
 _atom_site_fract_x
 _atom_site_fract_y
 _atom_site_fract_z
 _atom_site_occupancy
  Y  Y0  1  0.682500  0.160062  0.500000  1
  Er  Er1  1  0.317287  0.840680  0.500000  1
  Er  Er2  1  0.159456  0.318000  0.500000  1
  Er  Er3  1  0.841386  0.683253  0.500000  1
  Cd  Cd4  1  0.499723  0.498784  0.000000  1
  Hg  Hg5  1  0.000653  0.999354  0.000000  1
  Pd  Pd6  1  0.141211  0.619756  0.000000  1
  Pd  Pd7  1  0.863790  0.385366  0.000000  1
  Pd  Pd8  1  0.617201  0.856789  0.000000  1
  Pd  Pd9  1  0.376791  0.137957  0.000000  1
