# generated using pymatgen
data_Tm8Lu12Bi11Pt
_symmetry_space_group_name_H-M   'P 1'
_cell_length_a   8.06000593
_cell_length_b   9.35879700
_cell_length_c   11.87600735
_cell_angle_alpha   90.00000000
_cell_angle_beta   89.58451458
_cell_angle_gamma   90.00000000
_symmetry_Int_Tables_number   1
_chemical_formula_structural   Tm8Lu12Bi11Pt
_chemical_formula_sum   'Tm8 Lu12 Bi11 Pt1'
_cell_volume   895.80695015
_cell_formula_units_Z   1
loop_
 _symmetry_equiv_pos_site_id
 _symmetry_equiv_pos_as_xyz
  1  'x, y, z'
loop_
 _atom_site_type_symbol
 _atom_site_label
 _atom_site_symmetry_multiplicity
 _atom_site_fract_x
 _atom_site_fract_y
 _atom_site_fract_z
 _atom_site_occupancy
  Tm  Tm0  1  0.357321  0.250000  0.300064  1
  Tm  Tm1  1  0.653009  0.750000  0.716601  1
  Tm  Tm2  1  0.146927  0.750000  0.781119  1
  Tm  Tm3  1  0.849385  0.250000  0.215352  1
  Tm  Tm4  1  0.201036  0.250000  0.776995  1
  Tm  Tm5  1  0.809121  0.750000  0.217154  1
  Tm  Tm6  1  0.314163  0.750000  0.280638  1
  Tm  Tm7  1  0.656263  0.250000  0.705014  1
  Lu  Lu8  1  0.046393  0.250000  0.506957  1
  Lu  Lu9  1  0.983340  0.750000  0.491953  1
  Lu  Lu10  1  0.476934  0.750000  0.011658  1
  Lu  Lu11  1  0.526067  0.250000  0.990017  1
  Lu  Lu12  1  0.193093  0.066461  0.063380  1
  Lu  Lu13  1  0.806684  0.933806  0.940306  1
  Lu  Lu14  1  0.312548  0.962553  0.559586  1
  Lu  Lu15  1  0.806684  0.566194  0.940306  1
  Lu  Lu16  1  0.680693  0.073407  0.447222  1
  Lu  Lu17  1  0.193093  0.433539  0.063380  1
  Lu  Lu18  1  0.680693  0.426593  0.447222  1
  Lu  Lu19  1  0.312548  0.537447  0.559586  1
  Bi  Bi20  1  0.594238  0.750000  0.457834  1
  Bi  Bi21  1  0.096284  0.750000  0.042119  1
  Bi  Bi22  1  0.908268  0.250000  0.952476  1
  Bi  Bi23  1  0.058690  0.000766  0.323394  1
  Bi  Bi24  1  0.933530  0.000272  0.674710  1
  Bi  Bi25  1  0.435196  0.993319  0.828243  1
  Bi  Bi26  1  0.933530  0.499728  0.674710  1
  Bi  Bi27  1  0.564438  0.005037  0.174552  1
  Bi  Bi28  1  0.058690  0.499234  0.323394  1
  Bi  Bi29  1  0.564438  0.494963  0.174552  1
  Bi  Bi30  1  0.435196  0.506681  0.828243  1
  Pt  Pt31  1  0.411506  0.250000  0.531263  1
