# generated using pymatgen
data_NaDy(CuPt)2
_symmetry_space_group_name_H-M   'P 1'
_cell_length_a   5.23501831
_cell_length_b   5.53575072
_cell_length_c   5.23501983
_cell_angle_alpha   58.08076708
_cell_angle_beta   57.60828049
_cell_angle_gamma   58.08077203
_symmetry_Int_Tables_number   1
_chemical_formula_structural   NaDy(CuPt)2
_chemical_formula_sum   'Na1 Dy1 Cu2 Pt2'
_cell_volume   102.15752484
_cell_formula_units_Z   1
loop_
 _symmetry_equiv_pos_site_id
 _symmetry_equiv_pos_as_xyz
  1  'x, y, z'
loop_
 _atom_site_type_symbol
 _atom_site_label
 _atom_site_symmetry_multiplicity
 _atom_site_fract_x
 _atom_site_fract_y
 _atom_site_fract_z
 _atom_site_occupancy
  Na  Na0  1  0.998273  0.001727  0.998273  1
  Dy  Dy1  1  0.746935  0.753065  0.746935  1
  Cu  Cu2  1  0.376790  0.373320  0.876570  1
  Cu  Cu3  1  0.876570  0.373320  0.376790  1
  Pt  Pt4  1  0.375716  0.372886  0.375716  1
  Pt  Pt5  1  0.375716  0.875682  0.375716  1
