# generated using pymatgen
data_Ce2MnCo3
_symmetry_space_group_name_H-M   'P 1'
_cell_length_a   4.92445801
_cell_length_b   4.92445765
_cell_length_c   4.92445848
_cell_angle_alpha   64.17045179
_cell_angle_beta   64.17045534
_cell_angle_gamma   64.17045044
_symmetry_Int_Tables_number   1
_chemical_formula_structural   Ce2MnCo3
_chemical_formula_sum   'Ce2 Mn1 Co3'
_cell_volume   92.18732118
_cell_formula_units_Z   1
loop_
 _symmetry_equiv_pos_site_id
 _symmetry_equiv_pos_as_xyz
  1  'x, y, z'
loop_
 _atom_site_type_symbol
 _atom_site_label
 _atom_site_symmetry_multiplicity
 _atom_site_fract_x
 _atom_site_fract_y
 _atom_site_fract_z
 _atom_site_occupancy
  Ce  Ce0  1  0.753278  0.753278  0.753278  1
  Ce  Ce1  1  0.496722  0.496722  0.496722  1
  Mn  Mn2  1  0.125000  0.125000  0.125000  1
  Co  Co3  1  0.125000  0.125000  0.625000  1
  Co  Co4  1  0.125000  0.625000  0.125000  1
  Co  Co5  1  0.625000  0.125000  0.125000  1
