# generated using pymatgen
data_Zr3ZnFe8
_symmetry_space_group_name_H-M   'P 1'
_cell_length_a   8.54247201
_cell_length_b   8.54247180
_cell_length_c   8.54247253
_cell_angle_alpha   33.48423419
_cell_angle_beta   33.48423787
_cell_angle_gamma   33.48423189
_symmetry_Int_Tables_number   1
_chemical_formula_structural   Zr3ZnFe8
_chemical_formula_sum   'Zr3 Zn1 Fe8'
_cell_volume   168.98933660
_cell_formula_units_Z   1
loop_
 _symmetry_equiv_pos_site_id
 _symmetry_equiv_pos_as_xyz
  1  'x, y, z'
loop_
 _atom_site_type_symbol
 _atom_site_label
 _atom_site_symmetry_multiplicity
 _atom_site_fract_x
 _atom_site_fract_y
 _atom_site_fract_z
 _atom_site_occupancy
  Zr  Zr0  1  0.624205  0.624205  0.624205  1
  Zr  Zr1  1  0.004539  0.004539  0.004539  1
  Zr  Zr2  1  0.496368  0.496368  0.496368  1
  Zn  Zn3  1  0.126028  0.126028  0.126028  1
  Fe  Fe4  1  0.564007  0.061273  0.564007  1
  Fe  Fe5  1  0.062316  0.560110  0.062316  1
  Fe  Fe6  1  0.061273  0.564007  0.564007  1
  Fe  Fe7  1  0.560110  0.062316  0.062316  1
  Fe  Fe8  1  0.812377  0.812377  0.812377  1
  Fe  Fe9  1  0.312455  0.312455  0.312455  1
  Fe  Fe10  1  0.564007  0.564007  0.061273  1
  Fe  Fe11  1  0.062316  0.062316  0.560110  1
