# generated using pymatgen
data_Dy2Lu2Th(MnB3)2
_symmetry_space_group_name_H-M   'P 1'
_cell_length_a   5.40738053
_cell_length_b   5.40738158
_cell_length_c   8.17909713
_cell_angle_alpha   70.69716023
_cell_angle_beta   70.69716671
_cell_angle_gamma   59.99997185
_symmetry_Int_Tables_number   1
_chemical_formula_structural   Dy2Lu2Th(MnB3)2
_chemical_formula_sum   'Dy2 Lu2 Th1 Mn2 B6'
_cell_volume   191.43287070
_cell_formula_units_Z   1
loop_
 _symmetry_equiv_pos_site_id
 _symmetry_equiv_pos_as_xyz
  1  'x, y, z'
loop_
 _atom_site_type_symbol
 _atom_site_label
 _atom_site_symmetry_multiplicity
 _atom_site_fract_x
 _atom_site_fract_y
 _atom_site_fract_z
 _atom_site_occupancy
  Dy  Dy0  1  0.414894  0.414894  0.755317  1
  Dy  Dy1  1  0.585106  0.585106  0.244683  1
  Lu  Lu2  1  0.248873  0.248873  0.253382  1
  Lu  Lu3  1  0.751127  0.751127  0.746618  1
  Th  Th4  1  0.000000  0.000000  0.000000  1
  Mn  Mn5  1  0.112844  0.112844  0.661466  1
  Mn  Mn6  1  0.887156  0.887156  0.338534  1
  B  B7  1  0.166975  0.833025  0.500000  1
  B  B8  1  0.833025  0.500000  0.500000  1
  B  B9  1  0.500000  0.166975  0.500000  1
  B  B10  1  0.166975  0.500000  0.500000  1
  B  B11  1  0.500000  0.833025  0.500000  1
  B  B12  1  0.833025  0.166975  0.500000  1
