# generated using pymatgen
data_LiEr8HgRh2
_symmetry_space_group_name_H-M   'P 1'
_cell_length_a   9.52248772
_cell_length_b   9.53221411
_cell_length_c   9.53221372
_cell_angle_alpha   60.18413892
_cell_angle_beta   60.03374375
_cell_angle_gamma   60.03374162
_symmetry_Int_Tables_number   1
_chemical_formula_structural   LiEr8HgRh2
_chemical_formula_sum   'Li2 Er16 Hg2 Rh4'
_cell_volume   612.97907134
_cell_formula_units_Z   2
loop_
 _symmetry_equiv_pos_site_id
 _symmetry_equiv_pos_as_xyz
  1  'x, y, z'
loop_
 _atom_site_type_symbol
 _atom_site_label
 _atom_site_symmetry_multiplicity
 _atom_site_fract_x
 _atom_site_fract_y
 _atom_site_fract_z
 _atom_site_occupancy
  Li  Li0  1  0.429139  0.715712  0.426010  1
  Li  Li1  1  0.429139  0.426010  0.715712  1
  Er  Er2  1  0.186407  0.189398  0.811944  1
  Er  Er3  1  0.438877  0.061123  0.061123  1
  Er  Er4  1  0.435022  0.065067  0.435265  1
  Er  Er5  1  0.064645  0.435265  0.065067  1
  Er  Er6  1  0.650838  0.053647  0.644678  1
  Er  Er7  1  0.182856  0.817144  0.817144  1
  Er  Er8  1  0.064645  0.065067  0.435265  1
  Er  Er9  1  0.808902  0.191098  0.191098  1
  Er  Er10  1  0.812251  0.811944  0.189398  1
  Er  Er11  1  0.650838  0.644678  0.053647  1
  Er  Er12  1  0.654339  0.652567  0.652567  1
  Er  Er13  1  0.065290  0.434710  0.434710  1
  Er  Er14  1  0.040526  0.652567  0.652567  1
  Er  Er15  1  0.812251  0.189398  0.811944  1
  Er  Er16  1  0.435022  0.435265  0.065067  1
  Er  Er17  1  0.186407  0.811944  0.189398  1
  Hg  Hg18  1  0.749492  0.419631  0.419631  1
  Hg  Hg19  1  0.411246  0.419631  0.419631  1
  Rh  Rh20  1  0.856332  0.427215  0.860120  1
  Rh  Rh21  1  0.856332  0.860120  0.427215  1
  Rh  Rh22  1  0.427281  0.860397  0.860397  1
  Rh  Rh23  1  0.851924  0.860397  0.860397  1
