# generated using pymatgen
data_TmSi2Ni8Rh
_symmetry_space_group_name_H-M   'P 1'
_cell_length_a   7.60992468
_cell_length_b   7.61287394
_cell_length_c   7.61303360
_cell_angle_alpha   99.34034606
_cell_angle_beta   99.51392030
_cell_angle_gamma   132.26361814
_symmetry_Int_Tables_number   1
_chemical_formula_structural   TmSi2Ni8Rh
_chemical_formula_sum   'Tm2 Si4 Ni16 Rh2'
_cell_volume   298.46415565
_cell_formula_units_Z   2
loop_
 _symmetry_equiv_pos_site_id
 _symmetry_equiv_pos_as_xyz
  1  'x, y, z'
loop_
 _atom_site_type_symbol
 _atom_site_label
 _atom_site_symmetry_multiplicity
 _atom_site_fract_x
 _atom_site_fract_y
 _atom_site_fract_z
 _atom_site_occupancy
  Tm  Tm0  1  0.500231  0.500183  0.000094  1
  Tm  Tm1  1  0.749769  0.249817  0.499906  1
  Si  Si2  1  0.625000  0.875000  0.750000  1
  Si  Si3  1  0.125000  0.375000  0.250000  1
  Si  Si4  1  0.125000  0.875000  0.750000  1
  Si  Si5  1  0.125000  0.875000  0.250000  1
  Ni  Ni6  1  0.684842  0.015054  0.081806  1
  Ni  Ni7  1  0.684945  0.603152  0.669603  1
  Ni  Ni8  1  0.265040  0.434790  0.581802  1
  Ni  Ni9  1  0.264746  0.683036  0.830100  1
  Ni  Ni10  1  0.933084  0.014708  0.330044  1
  Ni  Ni11  1  0.933293  0.603031  0.918202  1
  Ni  Ni12  1  0.853062  0.434930  0.169731  1
  Ni  Ni13  1  0.852936  0.683089  0.418106  1
  Ni  Ni14  1  0.565158  0.734946  0.418194  1
  Ni  Ni15  1  0.565055  0.146848  0.830397  1
  Ni  Ni16  1  0.984960  0.315210  0.918198  1
  Ni  Ni17  1  0.985254  0.066964  0.669900  1
  Ni  Ni18  1  0.316916  0.735292  0.169956  1
  Ni  Ni19  1  0.316707  0.146969  0.581798  1
  Ni  Ni20  1  0.396938  0.315070  0.330269  1
  Ni  Ni21  1  0.397064  0.066911  0.081894  1
  Rh  Rh22  1  0.250177  0.750124  0.499958  1
  Rh  Rh23  1  0.999823  0.999876  0.000042  1
