# generated using pymatgen
data_LaNd3HgIr
_symmetry_space_group_name_H-M   'P 1'
_cell_length_a   9.98383994
_cell_length_b   9.98384053
_cell_length_c   9.98384100
_cell_angle_alpha   60.00000176
_cell_angle_beta   59.99999981
_cell_angle_gamma   60.00000373
_symmetry_Int_Tables_number   1
_chemical_formula_structural   LaNd3HgIr
_chemical_formula_sum   'La4 Nd12 Hg4 Ir4'
_cell_volume   703.68439621
_cell_formula_units_Z   4
loop_
 _symmetry_equiv_pos_site_id
 _symmetry_equiv_pos_as_xyz
  1  'x, y, z'
loop_
 _atom_site_type_symbol
 _atom_site_label
 _atom_site_symmetry_multiplicity
 _atom_site_fract_x
 _atom_site_fract_y
 _atom_site_fract_z
 _atom_site_occupancy
  La  La0  1  0.349629  0.349629  0.349629  1
  La  La1  1  0.349629  0.349629  0.951111  1
  La  La2  1  0.349629  0.951111  0.349629  1
  La  La3  1  0.951111  0.349629  0.349629  1
  Nd  Nd4  1  0.809710  0.190290  0.190290  1
  Nd  Nd5  1  0.190290  0.809710  0.809710  1
  Nd  Nd6  1  0.190290  0.809710  0.190290  1
  Nd  Nd7  1  0.809710  0.190290  0.809710  1
  Nd  Nd8  1  0.190290  0.190290  0.809710  1
  Nd  Nd9  1  0.809710  0.809710  0.190290  1
  Nd  Nd10  1  0.937975  0.562025  0.562025  1
  Nd  Nd11  1  0.562025  0.937975  0.937975  1
  Nd  Nd12  1  0.562025  0.937975  0.562025  1
  Nd  Nd13  1  0.937975  0.562025  0.937975  1
  Nd  Nd14  1  0.562025  0.562025  0.937975  1
  Nd  Nd15  1  0.937975  0.937975  0.562025  1
  Hg  Hg16  1  0.584084  0.584084  0.584084  1
  Hg  Hg17  1  0.584084  0.584084  0.247745  1
  Hg  Hg18  1  0.584084  0.247745  0.584084  1
  Hg  Hg19  1  0.247745  0.584084  0.584084  1
  Ir  Ir20  1  0.141753  0.141753  0.141753  1
  Ir  Ir21  1  0.141753  0.141753  0.574738  1
  Ir  Ir22  1  0.141753  0.574738  0.141753  1
  Ir  Ir23  1  0.574738  0.141753  0.141753  1
