# generated using pymatgen
data_SrLa(BPd4)2
_symmetry_space_group_name_H-M   'P 1'
_cell_length_a   5.54451500
_cell_length_b   6.19701900
_cell_length_c   11.94469600
_cell_angle_alpha   90.00000000
_cell_angle_beta   90.00000000
_cell_angle_gamma   90.00000000
_symmetry_Int_Tables_number   1
_chemical_formula_structural   SrLa(BPd4)2
_chemical_formula_sum   'Sr2 La2 B4 Pd16'
_cell_volume   410.41336177
_cell_formula_units_Z   2
loop_
 _symmetry_equiv_pos_site_id
 _symmetry_equiv_pos_as_xyz
  1  'x, y, z'
loop_
 _atom_site_type_symbol
 _atom_site_label
 _atom_site_symmetry_multiplicity
 _atom_site_fract_x
 _atom_site_fract_y
 _atom_site_fract_z
 _atom_site_occupancy
  Sr  Sr0  1  0.250000  0.688461  0.839025  1
  Sr  Sr1  1  0.250000  0.188461  0.660975  1
  La  La2  1  0.750000  0.309508  0.154797  1
  La  La3  1  0.750000  0.809508  0.345203  1
  B  B4  1  0.750000  0.399770  0.551669  1
  B  B5  1  0.750000  0.899770  0.948331  1
  B  B6  1  0.250000  0.598287  0.448298  1
  B  B7  1  0.250000  0.098287  0.051702  1
  Pd  Pd8  1  0.750000  0.386762  0.733599  1
  Pd  Pd9  1  0.750000  0.886762  0.766401  1
  Pd  Pd10  1  0.250000  0.618652  0.266304  1
  Pd  Pd11  1  0.250000  0.118652  0.233696  1
  Pd  Pd12  1  0.750000  0.058746  0.554997  1
  Pd  Pd13  1  0.750000  0.558746  0.945003  1
  Pd  Pd14  1  0.250000  0.938252  0.439991  1
  Pd  Pd15  1  0.250000  0.438252  0.060009  1
  Pd  Pd16  1  0.997184  0.162641  0.915517  1
  Pd  Pd17  1  0.502816  0.662641  0.584483  1
  Pd  Pd18  1  0.500335  0.838140  0.089152  1
  Pd  Pd19  1  0.999665  0.338140  0.410848  1
  Pd  Pd20  1  0.999665  0.838140  0.089152  1
  Pd  Pd21  1  0.500335  0.338140  0.410848  1
  Pd  Pd22  1  0.502816  0.162641  0.915517  1
  Pd  Pd23  1  0.997184  0.662641  0.584483  1
