# generated using pymatgen
data_TbPr19Ir7Pt5
_symmetry_space_group_name_H-M   'P 1'
_cell_length_a   11.47533865
_cell_length_b   11.47362782
_cell_length_c   6.54421978
_cell_angle_alpha   90.03733998
_cell_angle_beta   90.04902870
_cell_angle_gamma   89.96057262
_symmetry_Int_Tables_number   1
_chemical_formula_structural   TbPr19Ir7Pt5
_chemical_formula_sum   'Tb1 Pr19 Ir7 Pt5'
_cell_volume   861.63591116
_cell_formula_units_Z   1
loop_
 _symmetry_equiv_pos_site_id
 _symmetry_equiv_pos_as_xyz
  1  'x, y, z'
loop_
 _atom_site_type_symbol
 _atom_site_label
 _atom_site_symmetry_multiplicity
 _atom_site_fract_x
 _atom_site_fract_y
 _atom_site_fract_z
 _atom_site_occupancy
  Tb  Tb0  1  0.498612  0.502209  0.499285  1
  Pr  Pr1  1  0.295218  0.092053  0.375118  1
  Pr  Pr2  1  0.295869  0.907806  0.874610  1
  Pr  Pr3  1  0.704257  0.087619  0.874783  1
  Pr  Pr4  1  0.704217  0.906935  0.374363  1
  Pr  Pr5  1  0.587635  0.789038  0.880759  1
  Pr  Pr6  1  0.585639  0.208353  0.376728  1
  Pr  Pr7  1  0.412253  0.789659  0.381377  1
  Pr  Pr8  1  0.409069  0.208544  0.881604  1
  Pr  Pr9  1  0.211992  0.412504  0.618184  1
  Pr  Pr10  1  0.209187  0.587937  0.119713  1
  Pr  Pr11  1  0.792621  0.414031  0.124400  1
  Pr  Pr12  1  0.790501  0.590778  0.617163  1
  Pr  Pr13  1  0.908327  0.704820  0.124545  1
  Pr  Pr14  1  0.912203  0.295464  0.625815  1
  Pr  Pr15  1  0.092519  0.704216  0.625831  1
  Pr  Pr16  1  0.092721  0.295817  0.125146  1
  Pr  Pr17  1  0.999584  0.999634  0.499385  1
  Pr  Pr18  1  0.000438  0.000256  0.000592  1
  Pr  Pr19  1  0.498159  0.501199  0.000648  1
  Ir  Ir20  1  0.651109  0.650061  0.254462  1
  Ir  Ir21  1  0.349569  0.349182  0.254135  1
  Ir  Ir22  1  0.348211  0.652115  0.745788  1
  Ir  Ir23  1  0.500358  0.000199  0.117614  1
  Ir  Ir24  1  0.500212  0.001021  0.618957  1
  Ir  Ir25  1  0.998897  0.499790  0.881051  1
  Ir  Ir26  1  0.999752  0.499673  0.382367  1
  Pt  Pt27  1  0.845211  0.154849  0.250146  1
  Pt  Pt28  1  0.845796  0.846826  0.750112  1
  Pt  Pt29  1  0.153241  0.154143  0.749697  1
  Pt  Pt30  1  0.154252  0.845727  0.250062  1
  Pt  Pt31  1  0.652368  0.347546  0.745559  1
