# generated using pymatgen
data_TbTm2(Co3P2)3
_symmetry_space_group_name_H-M   'P 1'
_cell_length_a   3.68603300
_cell_length_b   10.49406900
_cell_length_c   12.14964000
_cell_angle_alpha   90.00000000
_cell_angle_beta   90.00000000
_cell_angle_gamma   90.00000000
_symmetry_Int_Tables_number   1
_chemical_formula_structural   TbTm2(Co3P2)3
_chemical_formula_sum   'Tb2 Tm4 Co18 P12'
_cell_volume   469.96611302
_cell_formula_units_Z   2
loop_
 _symmetry_equiv_pos_site_id
 _symmetry_equiv_pos_as_xyz
  1  'x, y, z'
loop_
 _atom_site_type_symbol
 _atom_site_label
 _atom_site_symmetry_multiplicity
 _atom_site_fract_x
 _atom_site_fract_y
 _atom_site_fract_z
 _atom_site_occupancy
  Tb  Tb0  1  0.000000  0.500000  0.522754  1
  Tb  Tb1  1  0.500000  0.000000  0.477246  1
  Tm  Tm2  1  0.500000  0.817607  0.205592  1
  Tm  Tm3  1  0.500000  0.182393  0.205592  1
  Tm  Tm4  1  0.000000  0.682393  0.794408  1
  Tm  Tm5  1  0.000000  0.317607  0.794408  1
  Co  Co6  1  0.500000  0.500000  0.158818  1
  Co  Co7  1  0.000000  0.000000  0.841182  1
  Co  Co8  1  0.500000  0.500000  0.704543  1
  Co  Co9  1  0.000000  0.000000  0.295457  1
  Co  Co10  1  0.000000  0.500000  0.986031  1
  Co  Co11  1  0.500000  0.000000  0.013969  1
  Co  Co12  1  0.500000  0.333182  0.994533  1
  Co  Co13  1  0.500000  0.666818  0.994533  1
  Co  Co14  1  0.000000  0.166818  0.005467  1
  Co  Co15  1  0.000000  0.833182  0.005467  1
  Co  Co16  1  0.500000  0.297137  0.430168  1
  Co  Co17  1  0.500000  0.702863  0.430168  1
  Co  Co18  1  0.000000  0.202863  0.569832  1
  Co  Co19  1  0.000000  0.797137  0.569832  1
  Co  Co20  1  0.500000  0.878706  0.710336  1
  Co  Co21  1  0.500000  0.121294  0.710336  1
  Co  Co22  1  0.000000  0.621294  0.289664  1
  Co  Co23  1  0.000000  0.378706  0.289664  1
  P  P24  1  0.500000  0.500000  0.882390  1
  P  P25  1  0.000000  0.000000  0.117610  1
  P  P26  1  0.500000  0.500000  0.343637  1
  P  P27  1  0.000000  0.000000  0.656363  1
  P  P28  1  0.500000  0.310393  0.617085  1
  P  P29  1  0.500000  0.689607  0.617085  1
  P  P30  1  0.000000  0.189607  0.382915  1
  P  P31  1  0.000000  0.810393  0.382915  1
  P  P32  1  0.500000  0.846858  0.892704  1
  P  P33  1  0.500000  0.153142  0.892704  1
  P  P34  1  0.000000  0.653142  0.107296  1
  P  P35  1  0.000000  0.346858  0.107296  1
