# generated using pymatgen
data_YThAlRu2
_symmetry_space_group_name_H-M   'P 1'
_cell_length_a   5.61648989
_cell_length_b   5.61649076
_cell_length_c   5.61649109
_cell_angle_alpha   137.73798974
_cell_angle_beta   115.09681065
_cell_angle_gamma   80.54772232
_symmetry_Int_Tables_number   1
_chemical_formula_structural   YThAlRu2
_chemical_formula_sum   'Y1 Th1 Al1 Ru2'
_cell_volume   104.59382152
_cell_formula_units_Z   1
loop_
 _symmetry_equiv_pos_site_id
 _symmetry_equiv_pos_as_xyz
  1  'x, y, z'
loop_
 _atom_site_type_symbol
 _atom_site_label
 _atom_site_symmetry_multiplicity
 _atom_site_fract_x
 _atom_site_fract_y
 _atom_site_fract_z
 _atom_site_occupancy
  Y  Y0  1  0.296616  0.796616  0.500000  1
  Th  Th1  1  0.700003  0.200003  0.500000  1
  Al  Al2  1  0.003228  0.003228  0.000000  1
  Ru  Ru3  1  0.258483  0.500077  0.758406  1
  Ru  Ru4  1  0.741670  0.500077  0.241594  1
