# generated using pymatgen
data_K4Zn4Si3GeAs8
_symmetry_space_group_name_H-M   'P 1'
_cell_length_a   8.20766776
_cell_length_b   8.22021182
_cell_length_c   8.46767431
_cell_angle_alpha   71.14419021
_cell_angle_beta   75.32317247
_cell_angle_gamma   72.55276486
_symmetry_Int_Tables_number   1
_chemical_formula_structural   K4Zn4Si3GeAs8
_chemical_formula_sum   'K4 Zn4 Si3 Ge1 As8'
_cell_volume   507.96606953
_cell_formula_units_Z   1
loop_
 _symmetry_equiv_pos_site_id
 _symmetry_equiv_pos_as_xyz
  1  'x, y, z'
loop_
 _atom_site_type_symbol
 _atom_site_label
 _atom_site_symmetry_multiplicity
 _atom_site_fract_x
 _atom_site_fract_y
 _atom_site_fract_z
 _atom_site_occupancy
  K  K0  1  0.452279  0.766217  0.318141  1
  K  K1  1  0.547821  0.234888  0.681724  1
  K  K2  1  0.442711  0.798550  0.817762  1
  K  K3  1  0.556539  0.202441  0.184324  1
  Zn  Zn4  1  0.998272  0.894670  0.686481  1
  Zn  Zn5  1  0.004585  0.105389  0.311805  1
  Zn  Zn6  1  0.956276  0.814789  0.174826  1
  Zn  Zn7  1  0.036651  0.183553  0.829864  1
  Si  Si8  1  0.041978  0.404593  0.400216  1
  Si  Si9  1  0.150228  0.447040  0.975594  1
  Si  Si10  1  0.851797  0.553024  0.022608  1
  Ge  Ge11  1  0.961483  0.587110  0.591732  1
  As  As12  1  0.810412  0.891588  0.451731  1
  As  As13  1  0.186920  0.117473  0.546556  1
  As  As14  1  0.782881  0.405364  0.316730  1
  As  As15  1  0.223629  0.597285  0.684797  1
  As  As16  1  0.778638  0.870941  0.955745  1
  As  As17  1  0.222421  0.129319  0.042108  1
  As  As18  1  0.768900  0.438036  0.835446  1
  As  As19  1  0.225580  0.557730  0.171810  1
