# generated using pymatgen
data_Pr8Lu12Si15Se
_symmetry_space_group_name_H-M   'P 1'
_cell_length_a   7.43756907
_cell_length_b   7.75779405
_cell_length_c   14.56081600
_cell_angle_alpha   90.00000000
_cell_angle_beta   90.00000000
_cell_angle_gamma   90.82356032
_symmetry_Int_Tables_number   1
_chemical_formula_structural   Pr8Lu12Si15Se
_chemical_formula_sum   'Pr8 Lu12 Si15 Se1'
_cell_volume   840.05961287
_cell_formula_units_Z   1
loop_
 _symmetry_equiv_pos_site_id
 _symmetry_equiv_pos_as_xyz
  1  'x, y, z'
loop_
 _atom_site_type_symbol
 _atom_site_label
 _atom_site_symmetry_multiplicity
 _atom_site_fract_x
 _atom_site_fract_y
 _atom_site_fract_z
 _atom_site_occupancy
  Pr  Pr0  1  0.013397  0.175748  0.401539  1
  Pr  Pr1  1  0.513339  0.325821  0.401528  1
  Pr  Pr2  1  0.495796  0.665298  0.906325  1
  Pr  Pr3  1  0.495796  0.665298  0.593675  1
  Pr  Pr4  1  0.988890  0.827950  0.600174  1
  Pr  Pr5  1  0.988890  0.827950  0.899826  1
  Pr  Pr6  1  0.513339  0.325821  0.098472  1
  Pr  Pr7  1  0.013397  0.175748  0.098461  1
  Lu  Lu8  1  0.323062  0.175954  0.625251  1
  Lu  Lu9  1  0.672559  0.825401  0.375352  1
  Lu  Lu10  1  0.666916  0.994047  0.750000  1
  Lu  Lu11  1  0.171858  0.676277  0.376701  1
  Lu  Lu12  1  0.823057  0.328087  0.877867  1
  Lu  Lu13  1  0.823057  0.328087  0.622133  1
  Lu  Lu14  1  0.837849  0.494245  0.250000  1
  Lu  Lu15  1  0.339299  0.005236  0.250000  1
  Lu  Lu16  1  0.323062  0.175954  0.874749  1
  Lu  Lu17  1  0.171858  0.676277  0.123299  1
  Lu  Lu18  1  0.672559  0.825401  0.124648  1
  Lu  Lu19  1  0.157522  0.496901  0.750000  1
  Si  Si20  1  0.464513  0.619047  0.250000  1
  Si  Si21  1  0.015415  0.143382  0.750000  1
  Si  Si22  1  0.529292  0.377717  0.750000  1
  Si  Si23  1  0.153994  0.467392  0.541006  1
  Si  Si24  1  0.969030  0.879752  0.250000  1
  Si  Si25  1  0.713893  0.122659  0.250000  1
  Si  Si26  1  0.845128  0.536804  0.040174  1
  Si  Si27  1  0.347590  0.965819  0.037124  1
  Si  Si28  1  0.153994  0.467392  0.958994  1
  Si  Si29  1  0.649716  0.032216  0.540861  1
  Si  Si30  1  0.347590  0.965819  0.462876  1
  Si  Si31  1  0.845128  0.536804  0.459826  1
  Si  Si32  1  0.787484  0.626470  0.750000  1
  Si  Si33  1  0.214847  0.378669  0.250000  1
  Si  Si34  1  0.649716  0.032216  0.959139  1
  Se  Se35  1  0.307165  0.856343  0.750000  1
