# generated using pymatgen
data_Na3Tl(SiP)12
_symmetry_space_group_name_H-M   'P 1'
_cell_length_a   3.51759600
_cell_length_b   9.95987886
_cell_length_c   18.32350631
_cell_angle_alpha   91.33969517
_cell_angle_beta   90.00000000
_cell_angle_gamma   90.00000000
_symmetry_Int_Tables_number   1
_chemical_formula_structural   Na3Tl(SiP)12
_chemical_formula_sum   'Na3 Tl1 Si12 P12'
_cell_volume   641.78544999
_cell_formula_units_Z   1
loop_
 _symmetry_equiv_pos_site_id
 _symmetry_equiv_pos_as_xyz
  1  'x, y, z'
loop_
 _atom_site_type_symbol
 _atom_site_label
 _atom_site_symmetry_multiplicity
 _atom_site_fract_x
 _atom_site_fract_y
 _atom_site_fract_z
 _atom_site_occupancy
  Na  Na0  1  0.000000  0.342979  0.295346  1
  Na  Na1  1  0.000000  0.645852  0.709850  1
  Na  Na2  1  0.000000  0.146834  0.790096  1
  Tl  Tl3  1  0.000000  0.854586  0.209688  1
  Si  Si4  1  0.500000  0.411065  0.028871  1
  Si  Si5  1  0.500000  0.604140  0.958126  1
  Si  Si6  1  0.500000  0.092505  0.538962  1
  Si  Si7  1  0.500000  0.892183  0.469014  1
  Si  Si8  1  0.000000  0.121577  0.011462  1
  Si  Si9  1  0.000000  0.892050  0.981992  1
  Si  Si10  1  0.000000  0.378268  0.518591  1
  Si  Si11  1  0.000000  0.605255  0.490375  1
  Si  Si12  1  0.000000  0.199713  0.133850  1
  Si  Si13  1  0.000000  0.824779  0.858420  1
  Si  Si14  1  0.000000  0.318084  0.641595  1
  Si  Si15  1  0.000000  0.663711  0.367229  1
  P  P16  1  0.500000  0.881995  0.789654  1
  P  P17  1  0.500000  0.380115  0.710539  1
  P  P18  1  0.500000  0.600745  0.298757  1
  P  P19  1  0.500000  0.273777  0.461456  1
  P  P20  1  0.500000  0.710934  0.546797  1
  P  P21  1  0.500000  0.220148  0.953627  1
  P  P22  1  0.500000  0.789607  0.037249  1
  P  P23  1  0.500000  0.144734  0.203412  1
  P  P24  1  0.000000  0.424521  0.107069  1
  P  P25  1  0.000000  0.597259  0.880182  1
  P  P26  1  0.000000  0.089522  0.617066  1
  P  P27  1  0.000000  0.893064  0.390726  1
