# generated using pymatgen
data_TbCoCuP2
_symmetry_space_group_name_H-M   'P 1'
_cell_length_a   3.99107200
_cell_length_b   3.99107200
_cell_length_c   9.21482300
_cell_angle_alpha   90.00000000
_cell_angle_beta   90.00000000
_cell_angle_gamma   90.00000000
_symmetry_Int_Tables_number   1
_chemical_formula_structural   TbCoCuP2
_chemical_formula_sum   'Tb2 Co2 Cu2 P4'
_cell_volume   146.77974299
_cell_formula_units_Z   2
loop_
 _symmetry_equiv_pos_site_id
 _symmetry_equiv_pos_as_xyz
  1  'x, y, z'
loop_
 _atom_site_type_symbol
 _atom_site_label
 _atom_site_symmetry_multiplicity
 _atom_site_fract_x
 _atom_site_fract_y
 _atom_site_fract_z
 _atom_site_occupancy
  Tb  Tb0  1  0.000000  0.500000  0.262641  1
  Tb  Tb1  1  0.500000  0.000000  0.737359  1
  Co  Co2  1  0.000000  0.500000  0.607279  1
  Co  Co3  1  0.500000  0.000000  0.392721  1
  Cu  Cu4  1  0.000000  0.000000  0.000000  1
  Cu  Cu5  1  0.500000  0.500000  0.000000  1
  P  P6  1  0.000000  0.000000  0.500000  1
  P  P7  1  0.500000  0.500000  0.500000  1
  P  P8  1  0.000000  0.500000  0.850595  1
  P  P9  1  0.500000  0.000000  0.149405  1
