# generated using pymatgen
data_Ho20Ir6(PdRh)3
_symmetry_space_group_name_H-M   'P 1'
_cell_length_a   10.93858421
_cell_length_b   10.93873722
_cell_length_c   6.33156901
_cell_angle_alpha   89.99541990
_cell_angle_beta   89.99624013
_cell_angle_gamma   90.18469414
_symmetry_Int_Tables_number   1
_chemical_formula_structural   Ho20Ir6(PdRh)3
_chemical_formula_sum   'Ho20 Ir6 Pd3 Rh3'
_cell_volume   757.59550627
_cell_formula_units_Z   1
loop_
 _symmetry_equiv_pos_site_id
 _symmetry_equiv_pos_as_xyz
  1  'x, y, z'
loop_
 _atom_site_type_symbol
 _atom_site_label
 _atom_site_symmetry_multiplicity
 _atom_site_fract_x
 _atom_site_fract_y
 _atom_site_fract_z
 _atom_site_occupancy
  Ho  Ho0  1  0.293671  0.087039  0.370761  1
  Ho  Ho1  1  0.292283  0.906358  0.878603  1
  Ho  Ho2  1  0.704901  0.091932  0.873421  1
  Ho  Ho3  1  0.704038  0.908279  0.372802  1
  Ho  Ho4  1  0.584371  0.789390  0.880012  1
  Ho  Ho5  1  0.584185  0.210535  0.380259  1
  Ho  Ho6  1  0.410484  0.790005  0.379992  1
  Ho  Ho7  1  0.414954  0.210529  0.880066  1
  Ho  Ho8  1  0.209847  0.416062  0.618549  1
  Ho  Ho9  1  0.209678  0.589801  0.121705  1
  Ho  Ho10  1  0.789788  0.415452  0.121399  1
  Ho  Ho11  1  0.790231  0.584704  0.618497  1
  Ho  Ho12  1  0.912661  0.705903  0.130589  1
  Ho  Ho13  1  0.908300  0.295807  0.625111  1
  Ho  Ho14  1  0.093377  0.707023  0.620052  1
  Ho  Ho15  1  0.091796  0.296373  0.128574  1
  Ho  Ho16  1  0.001964  0.997614  0.499734  1
  Ho  Ho17  1  0.002390  0.997988  0.000515  1
  Ho  Ho18  1  0.499607  0.499956  0.000666  1
  Ho  Ho19  1  0.500074  0.500372  0.499768  1
  Ir  Ir20  1  0.153064  0.848289  0.249811  1
  Ir  Ir21  1  0.655071  0.344454  0.749818  1
  Ir  Ir22  1  0.655061  0.655946  0.249188  1
  Ir  Ir23  1  0.345425  0.343603  0.250293  1
  Ir  Ir24  1  0.346127  0.654217  0.749849  1
  Ir  Ir25  1  0.999792  0.499043  0.377066  1
  Pd  Pd26  1  0.845987  0.152884  0.249747  1
  Pd  Pd27  1  0.845036  0.845812  0.749547  1
  Pd  Pd28  1  0.154556  0.154617  0.750223  1
  Rh  Rh29  1  0.501057  0.000210  0.122627  1
  Rh  Rh30  1  0.500753  0.000499  0.623993  1
  Rh  Rh31  1  0.999474  0.499304  0.876770  1
