# generated using pymatgen
data_Ho20Ir7Os3Rh2
_symmetry_space_group_name_H-M   'P 1'
_cell_length_a   10.82490531
_cell_length_b   10.82495627
_cell_length_c   6.40027206
_cell_angle_alpha   89.99943537
_cell_angle_beta   90.00525048
_cell_angle_gamma   89.97673219
_symmetry_Int_Tables_number   1
_chemical_formula_structural   Ho20Ir7Os3Rh2
_chemical_formula_sum   'Ho20 Ir7 Os3 Rh2'
_cell_volume   749.97822491
_cell_formula_units_Z   1
loop_
 _symmetry_equiv_pos_site_id
 _symmetry_equiv_pos_as_xyz
  1  'x, y, z'
loop_
 _atom_site_type_symbol
 _atom_site_label
 _atom_site_symmetry_multiplicity
 _atom_site_fract_x
 _atom_site_fract_y
 _atom_site_fract_z
 _atom_site_occupancy
  Ho  Ho0  1  0.293796  0.086358  0.378538  1
  Ho  Ho1  1  0.294102  0.913671  0.877922  1
  Ho  Ho2  1  0.705401  0.085786  0.877038  1
  Ho  Ho3  1  0.705440  0.911774  0.378448  1
  Ho  Ho4  1  0.586200  0.793852  0.878513  1
  Ho  Ho5  1  0.585264  0.206174  0.378176  1
  Ho  Ho6  1  0.413120  0.793992  0.378283  1
  Ho  Ho7  1  0.413492  0.205922  0.877941  1
  Ho  Ho8  1  0.208394  0.412877  0.623867  1
  Ho  Ho9  1  0.207665  0.587715  0.118289  1
  Ho  Ho10  1  0.792158  0.414054  0.118439  1
  Ho  Ho11  1  0.791830  0.587478  0.624458  1
  Ho  Ho12  1  0.912840  0.707900  0.117981  1
  Ho  Ho13  1  0.913272  0.292461  0.625555  1
  Ho  Ho14  1  0.087247  0.708141  0.624441  1
  Ho  Ho15  1  0.089180  0.292931  0.118062  1
  Ho  Ho16  1  0.000006  0.999810  0.499738  1
  Ho  Ho17  1  0.000222  0.999982  0.999873  1
  Ho  Ho18  1  0.499966  0.499888  0.999848  1
  Ho  Ho19  1  0.500123  0.500041  0.499605  1
  Ir  Ir20  1  0.848169  0.847469  0.749766  1
  Ir  Ir21  1  0.151101  0.153230  0.749875  1
  Ir  Ir22  1  0.151598  0.846315  0.250702  1
  Ir  Ir23  1  0.653739  0.347711  0.749843  1
  Ir  Ir24  1  0.653825  0.651225  0.250529  1
  Ir  Ir25  1  0.346621  0.348284  0.250693  1
  Ir  Ir26  1  0.346757  0.651833  0.749827  1
  Os  Os27  1  0.500440  0.000207  0.124814  1
  Os  Os28  1  0.500332  0.000177  0.624128  1
  Os  Os29  1  0.999818  0.499602  0.876074  1
  Rh  Rh30  1  0.848157  0.153738  0.250742  1
  Rh  Rh31  1  0.999725  0.499403  0.377994  1
