# generated using pymatgen
data_Ba2SmB2IO6
_symmetry_space_group_name_H-M   'P 1'
_cell_length_a   5.42417400
_cell_length_b   6.85124982
_cell_length_c   12.03007567
_cell_angle_alpha   91.39923874
_cell_angle_beta   90.00000000
_cell_angle_gamma   90.00000000
_symmetry_Int_Tables_number   1
_chemical_formula_structural   Ba2SmB2IO6
_chemical_formula_sum   'Ba4 Sm2 B4 I2 O12'
_cell_volume   446.93282831
_cell_formula_units_Z   2
loop_
 _symmetry_equiv_pos_site_id
 _symmetry_equiv_pos_as_xyz
  1  'x, y, z'
loop_
 _atom_site_type_symbol
 _atom_site_label
 _atom_site_symmetry_multiplicity
 _atom_site_fract_x
 _atom_site_fract_y
 _atom_site_fract_z
 _atom_site_occupancy
  Ba  Ba0  1  0.750000  0.460479  0.668596  1
  Ba  Ba1  1  0.250000  0.539521  0.331404  1
  Ba  Ba2  1  0.750000  0.159541  0.080081  1
  Ba  Ba3  1  0.250000  0.840459  0.919919  1
  Sm  Sm4  1  0.750000  0.125219  0.410613  1
  Sm  Sm5  1  0.250000  0.874781  0.589387  1
  B  B6  1  0.250000  0.125980  0.217143  1
  B  B7  1  0.750000  0.874020  0.782857  1
  B  B8  1  0.750000  0.700504  0.435742  1
  B  B9  1  0.250000  0.299496  0.564258  1
  I  I10  1  0.750000  0.655303  0.131406  1
  I  I11  1  0.250000  0.344697  0.868594  1
  O  O12  1  0.470182  0.178878  0.270845  1
  O  O13  1  0.970182  0.821122  0.729155  1
  O  O14  1  0.529818  0.821122  0.729155  1
  O  O15  1  0.029818  0.178878  0.270845  1
  O  O16  1  0.533318  0.812284  0.440296  1
  O  O17  1  0.033318  0.187716  0.559704  1
  O  O18  1  0.466682  0.187716  0.559704  1
  O  O19  1  0.966682  0.812284  0.440296  1
  O  O20  1  0.750000  0.500329  0.426576  1
  O  O21  1  0.250000  0.499671  0.573424  1
  O  O22  1  0.250000  0.049648  0.110642  1
  O  O23  1  0.750000  0.950352  0.889358  1
