# generated using pymatgen
data_Yb(As3Pt2)2
_symmetry_space_group_name_H-M   'P 1'
_cell_length_a   6.01265132
_cell_length_b   6.01265177
_cell_length_c   12.10951406
_cell_angle_alpha   89.21527058
_cell_angle_beta   90.78472955
_cell_angle_gamma   91.36258213
_symmetry_Int_Tables_number   1
_chemical_formula_structural   Yb(As3Pt2)2
_chemical_formula_sum   'Yb2 As12 Pt8'
_cell_volume   437.57890926
_cell_formula_units_Z   2
loop_
 _symmetry_equiv_pos_site_id
 _symmetry_equiv_pos_as_xyz
  1  'x, y, z'
loop_
 _atom_site_type_symbol
 _atom_site_label
 _atom_site_symmetry_multiplicity
 _atom_site_fract_x
 _atom_site_fract_y
 _atom_site_fract_z
 _atom_site_occupancy
  Yb  Yb0  1  0.413221  0.413221  0.249999  1
  Yb  Yb1  1  0.586779  0.586779  0.750000  1
  As  As2  1  0.097697  0.863735  0.191731  1
  As  As3  1  0.863736  0.097696  0.308269  1
  As  As4  1  0.902304  0.136264  0.808269  1
  As  As5  1  0.136265  0.902303  0.691731  1
  As  As6  1  0.623453  0.119114  0.556820  1
  As  As7  1  0.119114  0.623454  0.943180  1
  As  As8  1  0.376548  0.880885  0.443180  1
  As  As9  1  0.880886  0.376547  0.056820  1
  As  As10  1  0.876861  0.614802  0.443957  1
  As  As11  1  0.614802  0.876862  0.056042  1
  As  As12  1  0.123140  0.385197  0.556042  1
  As  As13  1  0.385198  0.123139  0.943957  1
  Pt  Pt14  1  0.492746  0.929683  0.249967  1
  Pt  Pt15  1  0.929684  0.492745  0.250032  1
  Pt  Pt16  1  0.507255  0.070317  0.750032  1
  Pt  Pt17  1  0.070316  0.507256  0.749967  1
  Pt  Pt18  1  0.500000  0.500000  0.000000  1
  Pt  Pt19  1  0.500000  0.500000  0.500000  1
  Pt  Pt20  1  0.000000  0.000000  0.000000  1
  Pt  Pt21  1  0.000000  0.000000  0.500000  1
