# generated using pymatgen
data_HoMgGa3Ru
_symmetry_space_group_name_H-M   'P 1'
_cell_length_a   5.32049900
_cell_length_b   5.32049936
_cell_length_c   8.70956700
_cell_angle_alpha   90.00000000
_cell_angle_beta   90.00000000
_cell_angle_gamma   119.99999154
_symmetry_Int_Tables_number   1
_chemical_formula_structural   HoMgGa3Ru
_chemical_formula_sum   'Ho2 Mg2 Ga6 Ru2'
_cell_volume   213.51677166
_cell_formula_units_Z   2
loop_
 _symmetry_equiv_pos_site_id
 _symmetry_equiv_pos_as_xyz
  1  'x, y, z'
loop_
 _atom_site_type_symbol
 _atom_site_label
 _atom_site_symmetry_multiplicity
 _atom_site_fract_x
 _atom_site_fract_y
 _atom_site_fract_z
 _atom_site_occupancy
  Ho  Ho0  1  0.333333  0.666666  0.551482  1
  Ho  Ho1  1  0.333333  0.666666  0.948517  1
  Mg  Mg2  1  0.666666  0.333333  0.048607  1
  Mg  Mg3  1  0.666666  0.333333  0.451393  1
  Ga  Ga4  1  0.164855  0.329711  0.250000  1
  Ga  Ga5  1  0.164856  0.835144  0.250000  1
  Ga  Ga6  1  0.670288  0.835144  0.250000  1
  Ga  Ga7  1  0.330017  0.165007  0.750000  1
  Ga  Ga8  1  0.834992  0.165007  0.750000  1
  Ga  Ga9  1  0.834992  0.669983  0.750000  1
  Ru  Ru10  1  0.000000  0.000000  0.009044  1
  Ru  Ru11  1  0.000000  0.000000  0.490955  1
