# generated using pymatgen
data_Nb4Fe6SiIr
_symmetry_space_group_name_H-M   'P 1'
_cell_length_a   4.83521500
_cell_length_b   4.83521523
_cell_length_c   8.07073600
_cell_angle_alpha   90.00000000
_cell_angle_beta   90.00000000
_cell_angle_gamma   120.00000527
_symmetry_Int_Tables_number   1
_chemical_formula_structural   Nb4Fe6SiIr
_chemical_formula_sum   'Nb4 Fe6 Si1 Ir1'
_cell_volume   163.40876611
_cell_formula_units_Z   1
loop_
 _symmetry_equiv_pos_site_id
 _symmetry_equiv_pos_as_xyz
  1  'x, y, z'
loop_
 _atom_site_type_symbol
 _atom_site_label
 _atom_site_symmetry_multiplicity
 _atom_site_fract_x
 _atom_site_fract_y
 _atom_site_fract_z
 _atom_site_occupancy
  Nb  Nb0  1  0.333333  0.666667  0.441441  1
  Nb  Nb1  1  0.666667  0.333333  0.558559  1
  Nb  Nb2  1  0.666667  0.333333  0.927556  1
  Nb  Nb3  1  0.333333  0.666667  0.072444  1
  Fe  Fe4  1  0.829091  0.170909  0.241777  1
  Fe  Fe5  1  0.829091  0.658183  0.241777  1
  Fe  Fe6  1  0.341817  0.170909  0.241777  1
  Fe  Fe7  1  0.170909  0.829091  0.758223  1
  Fe  Fe8  1  0.170909  0.341817  0.758223  1
  Fe  Fe9  1  0.658183  0.829091  0.758223  1
  Si  Si10  1  0.000000  0.000000  0.000000  1
  Ir  Ir11  1  0.000000  0.000000  0.500000  1
