# generated using pymatgen
data_SmEr9(Ga2Ru3)2
_symmetry_space_group_name_H-M   'P 1'
_cell_length_a   8.28684773
_cell_length_b   8.28684815
_cell_length_c   8.27867298
_cell_angle_alpha   109.12842986
_cell_angle_beta   109.50980419
_cell_angle_gamma   109.81583136
_symmetry_Int_Tables_number   1
_chemical_formula_structural   SmEr9(Ga2Ru3)2
_chemical_formula_sum   'Sm1 Er9 Ga4 Ru6'
_cell_volume   437.41036635
_cell_formula_units_Z   1
loop_
 _symmetry_equiv_pos_site_id
 _symmetry_equiv_pos_as_xyz
  1  'x, y, z'
loop_
 _atom_site_type_symbol
 _atom_site_label
 _atom_site_symmetry_multiplicity
 _atom_site_fract_x
 _atom_site_fract_y
 _atom_site_fract_z
 _atom_site_occupancy
  Sm  Sm0  1  0.184976  0.934976  0.250000  1
  Er  Er1  1  0.782050  0.784402  0.782897  1
  Er  Er2  1  0.316925  0.566925  0.750000  1
  Er  Er3  1  0.752867  0.321483  0.571028  1
  Er  Er4  1  0.568939  0.748517  0.318035  1
  Er  Er5  1  0.714138  0.498346  0.997421  1
  Er  Er6  1  0.000926  0.716717  0.502579  1
  Er  Er7  1  0.501505  0.999154  0.717103  1
  Er  Er8  1  0.250455  0.181839  0.928972  1
  Er  Er9  1  0.930482  0.250904  0.181965  1
  Ga  Ga10  1  0.414084  0.413995  0.411526  1
  Ga  Ga11  1  0.090148  0.497690  0.002639  1
  Ga  Ga12  1  0.995051  0.087511  0.497361  1
  Ga  Ga13  1  0.502468  0.002558  0.088474  1
  Ru  Ru14  1  0.874227  0.124227  0.750000  1
  Ru  Ru15  1  0.744811  0.871260  0.119768  1
  Ru  Ru16  1  0.124105  0.749059  0.875083  1
  Ru  Ru17  1  0.251492  0.625044  0.380232  1
  Ru  Ru18  1  0.373976  0.249022  0.624917  1
  Ru  Ru19  1  0.626372  0.376372  0.250000  1
