# generated using pymatgen
data_La2Nd14Cd4RuPt3
_symmetry_space_group_name_H-M   'P 1'
_cell_length_a   10.04849880
_cell_length_b   10.04849899
_cell_length_c   10.06375037
_cell_angle_alpha   59.69246181
_cell_angle_beta   59.69246158
_cell_angle_gamma   59.76071432
_symmetry_Int_Tables_number   1
_chemical_formula_structural   La2Nd14Cd4RuPt3
_chemical_formula_sum   'La2 Nd14 Cd4 Ru1 Pt3'
_cell_volume   713.88547400
_cell_formula_units_Z   1
loop_
 _symmetry_equiv_pos_site_id
 _symmetry_equiv_pos_as_xyz
  1  'x, y, z'
loop_
 _atom_site_type_symbol
 _atom_site_label
 _atom_site_symmetry_multiplicity
 _atom_site_fract_x
 _atom_site_fract_y
 _atom_site_fract_z
 _atom_site_occupancy
  La  La0  1  0.350259  0.350259  0.351033  1
  La  La1  1  0.345992  0.345992  0.953273  1
  Nd  Nd2  1  0.347790  0.950543  0.348362  1
  Nd  Nd3  1  0.950543  0.347790  0.348362  1
  Nd  Nd4  1  0.816961  0.188909  0.188816  1
  Nd  Nd5  1  0.189895  0.809583  0.808768  1
  Nd  Nd6  1  0.188909  0.816961  0.188816  1
  Nd  Nd7  1  0.809583  0.189895  0.808768  1
  Nd  Nd8  1  0.188584  0.188584  0.816500  1
  Nd  Nd9  1  0.808935  0.808935  0.189883  1
  Nd  Nd10  1  0.936774  0.564174  0.564343  1
  Nd  Nd11  1  0.559801  0.936628  0.937058  1
  Nd  Nd12  1  0.564174  0.936774  0.564343  1
  Nd  Nd13  1  0.936628  0.559801  0.937058  1
  Nd  Nd14  1  0.564592  0.564592  0.936409  1
  Nd  Nd15  1  0.937207  0.937207  0.559521  1
  Cd  Cd16  1  0.580310  0.580310  0.579241  1
  Cd  Cd17  1  0.580670  0.580670  0.257911  1
  Cd  Cd18  1  0.581142  0.257609  0.579872  1
  Cd  Cd19  1  0.257609  0.581142  0.579872  1
  Ru  Ru20  1  0.143539  0.143539  0.141433  1
  Pt  Pt21  1  0.143735  0.143735  0.572159  1
  Pt  Pt22  1  0.143400  0.572967  0.144099  1
  Pt  Pt23  1  0.572967  0.143400  0.144099  1
