# generated using pymatgen
data_Zr4Al6TcOs
_symmetry_space_group_name_H-M   'P 1'
_cell_length_a   5.29537000
_cell_length_b   5.29537005
_cell_length_c   8.61623400
_cell_angle_alpha   90.00000000
_cell_angle_beta   90.00000000
_cell_angle_gamma   119.99999969
_symmetry_Int_Tables_number   1
_chemical_formula_structural   Zr4Al6TcOs
_chemical_formula_sum   'Zr4 Al6 Tc1 Os1'
_cell_volume   209.23808835
_cell_formula_units_Z   1
loop_
 _symmetry_equiv_pos_site_id
 _symmetry_equiv_pos_as_xyz
  1  'x, y, z'
loop_
 _atom_site_type_symbol
 _atom_site_label
 _atom_site_symmetry_multiplicity
 _atom_site_fract_x
 _atom_site_fract_y
 _atom_site_fract_z
 _atom_site_occupancy
  Zr  Zr0  1  0.666666  0.333332  0.055307  1
  Zr  Zr1  1  0.666666  0.333332  0.447449  1
  Zr  Zr2  1  0.333333  0.666667  0.552551  1
  Zr  Zr3  1  0.333333  0.666667  0.944694  1
  Al  Al4  1  0.166068  0.332136  0.251167  1
  Al  Al5  1  0.166067  0.833931  0.251167  1
  Al  Al6  1  0.667864  0.833931  0.251167  1
  Al  Al7  1  0.332137  0.166068  0.748833  1
  Al  Al8  1  0.833932  0.166068  0.748833  1
  Al  Al9  1  0.833931  0.667863  0.748833  1
  Tc  Tc10  1  0.000000  0.000000  0.000000  1
  Os  Os11  1  0.000000  0.000000  0.500000  1
