# generated using pymatgen
data_CaLaY5FeBr12
_symmetry_space_group_name_H-M   'P 1'
_cell_length_a   9.09549283
_cell_length_b   9.36385082
_cell_length_c   9.37406612
_cell_angle_alpha   106.88214114
_cell_angle_beta   106.19152584
_cell_angle_gamma   107.18376117
_symmetry_Int_Tables_number   1
_chemical_formula_structural   CaLaY5FeBr12
_chemical_formula_sum   'Ca1 La1 Y5 Fe1 Br12'
_cell_volume   669.29497452
_cell_formula_units_Z   1
loop_
 _symmetry_equiv_pos_site_id
 _symmetry_equiv_pos_as_xyz
  1  'x, y, z'
loop_
 _atom_site_type_symbol
 _atom_site_label
 _atom_site_symmetry_multiplicity
 _atom_site_fract_x
 _atom_site_fract_y
 _atom_site_fract_z
 _atom_site_occupancy
  Ca  Ca0  1  0.501842  0.499671  0.497851  1
  La  La1  1  0.712438  0.904521  0.978497  1
  Y  Y2  1  0.284666  0.096356  0.023145  1
  Y  Y3  1  0.021808  0.313634  0.105862  1
  Y  Y4  1  0.106619  0.024767  0.312361  1
  Y  Y5  1  0.896589  0.975866  0.689774  1
  Y  Y6  1  0.974951  0.686402  0.893962  1
  Fe  Fe7  1  0.979427  0.993385  0.000296  1
  Br  Br8  1  0.683048  0.234410  0.076730  1
  Br  Br9  1  0.373386  0.448521  0.155173  1
  Br  Br10  1  0.073590  0.680884  0.215069  1
  Br  Br11  1  0.789999  0.931434  0.334341  1
  Br  Br12  1  0.455400  0.156800  0.368654  1
  Br  Br13  1  0.153462  0.372384  0.453512  1
  Br  Br14  1  0.852126  0.628258  0.547657  1
  Br  Br15  1  0.542185  0.838407  0.610422  1
  Br  Br16  1  0.223916  0.074717  0.688984  1
  Br  Br17  1  0.932115  0.320497  0.785733  1
  Br  Br18  1  0.624572  0.531072  0.831442  1
  Br  Br19  1  0.317863  0.788014  0.930533  1
