# generated using pymatgen
data_Y8Er11ScSi15Ge
_symmetry_space_group_name_H-M   'P 1'
_cell_length_a   7.36038205
_cell_length_b   7.63398946
_cell_length_c   14.49025155
_cell_angle_alpha   90.14614759
_cell_angle_beta   89.84028861
_cell_angle_gamma   90.23165885
_symmetry_Int_Tables_number   1
_chemical_formula_structural   Y8Er11ScSi15Ge
_chemical_formula_sum   'Y8 Er11 Sc1 Si15 Ge1'
_cell_volume   814.18144483
_cell_formula_units_Z   1
loop_
 _symmetry_equiv_pos_site_id
 _symmetry_equiv_pos_as_xyz
  1  'x, y, z'
loop_
 _atom_site_type_symbol
 _atom_site_label
 _atom_site_symmetry_multiplicity
 _atom_site_fract_x
 _atom_site_fract_y
 _atom_site_fract_z
 _atom_site_occupancy
  Y  Y0  1  0.023598  0.180281  0.097994  1
  Y  Y1  1  0.979683  0.821001  0.905385  1
  Y  Y2  1  0.475862  0.681770  0.902161  1
  Y  Y3  1  0.976988  0.820488  0.597537  1
  Y  Y4  1  0.521404  0.320422  0.096990  1
  Y  Y5  1  0.021306  0.179730  0.400222  1
  Y  Y6  1  0.521523  0.319014  0.400770  1
  Y  Y7  1  0.480662  0.682128  0.598424  1
  Er  Er8  1  0.153777  0.510660  0.751938  1
  Er  Er9  1  0.846262  0.490884  0.249477  1
  Er  Er10  1  0.345929  0.008195  0.248328  1
  Er  Er11  1  0.654086  0.990039  0.750485  1
  Er  Er12  1  0.324364  0.176277  0.624180  1
  Er  Er13  1  0.675986  0.821658  0.374796  1
  Er  Er14  1  0.175006  0.679068  0.375325  1
  Er  Er15  1  0.676216  0.819822  0.122147  1
  Er  Er16  1  0.823848  0.321334  0.623050  1
  Er  Er17  1  0.322487  0.180234  0.878505  1
  Er  Er18  1  0.822352  0.322620  0.879113  1
  Sc  Sc19  1  0.177431  0.677546  0.124939  1
  Si  Si20  1  0.026599  0.109059  0.751302  1
  Si  Si21  1  0.974932  0.888154  0.247070  1
  Si  Si22  1  0.468894  0.608391  0.246447  1
  Si  Si23  1  0.527533  0.393047  0.750713  1
  Si  Si24  1  0.271234  0.873298  0.750845  1
  Si  Si25  1  0.727696  0.126856  0.248486  1
  Si  Si26  1  0.226963  0.374341  0.248046  1
  Si  Si27  1  0.773535  0.627332  0.750435  1
  Si  Si28  1  0.841903  0.531813  0.458920  1
  Si  Si29  1  0.348875  0.969725  0.459445  1
  Si  Si30  1  0.858708  0.531821  0.042783  1
  Si  Si31  1  0.651122  0.030713  0.539045  1
  Si  Si32  1  0.154170  0.473044  0.964575  1
  Si  Si33  1  0.648055  0.029658  0.960248  1
  Si  Si34  1  0.342297  0.962479  0.040199  1
  Ge  Ge35  1  0.158716  0.467097  0.539676  1
