# generated using pymatgen
data_Yb8Cu3Ag4N5
_symmetry_space_group_name_H-M   'P 1'
_cell_length_a   10.53448300
_cell_length_b   10.53448289
_cell_length_c   10.53448331
_cell_angle_alpha   160.75817442
_cell_angle_beta   110.79659261
_cell_angle_gamma   72.59120113
_symmetry_Int_Tables_number   1
_chemical_formula_structural   Yb8Cu3Ag4N5
_chemical_formula_sum   'Yb8 Cu3 Ag4 N5'
_cell_volume   357.70002093
_cell_formula_units_Z   1
loop_
 _symmetry_equiv_pos_site_id
 _symmetry_equiv_pos_as_xyz
  1  'x, y, z'
loop_
 _atom_site_type_symbol
 _atom_site_label
 _atom_site_symmetry_multiplicity
 _atom_site_fract_x
 _atom_site_fract_y
 _atom_site_fract_z
 _atom_site_occupancy
  Yb  Yb0  1  0.557776  0.708533  0.849245  1
  Yb  Yb1  1  0.750438  0.902407  0.848032  1
  Yb  Yb2  1  0.442224  0.291467  0.150755  1
  Yb  Yb3  1  0.859289  0.708533  0.150755  1
  Yb  Yb4  1  0.140711  0.291467  0.849245  1
  Yb  Yb5  1  0.249562  0.097593  0.151968  1
  Yb  Yb6  1  0.054374  0.902407  0.151968  1
  Yb  Yb7  1  0.945626  0.097593  0.848032  1
  Cu  Cu8  1  0.193360  0.693360  0.500000  1
  Cu  Cu9  1  0.806640  0.306640  0.500000  1
  Cu  Cu10  1  0.000000  0.500000  0.500000  1
  Ag  Ag11  1  0.660152  0.500000  0.160152  1
  Ag  Ag12  1  0.339848  0.500000  0.839848  1
  Ag  Ag13  1  0.411728  0.911728  0.500000  1
  Ag  Ag14  1  0.588272  0.088272  0.500000  1
  N  N15  1  0.351843  0.694786  0.657057  1
  N  N16  1  0.962270  0.305214  0.657057  1
  N  N17  1  0.037730  0.694786  0.342943  1
  N  N18  1  0.000000  0.000000  0.000000  1
  N  N19  1  0.648157  0.305214  0.342943  1
