# generated using pymatgen
data_Zr2Sc6Nb12Si15As
_symmetry_space_group_name_H-M   'P 1'
_cell_length_a   6.71747433
_cell_length_b   6.90162347
_cell_length_c   13.18813359
_cell_angle_alpha   89.90201254
_cell_angle_beta   90.22867214
_cell_angle_gamma   90.10765518
_symmetry_Int_Tables_number   1
_chemical_formula_structural   Zr2Sc6Nb12Si15As
_chemical_formula_sum   'Zr2 Sc6 Nb12 Si15 As1'
_cell_volume   611.41453709
_cell_formula_units_Z   1
loop_
 _symmetry_equiv_pos_site_id
 _symmetry_equiv_pos_as_xyz
  1  'x, y, z'
loop_
 _atom_site_type_symbol
 _atom_site_label
 _atom_site_symmetry_multiplicity
 _atom_site_fract_x
 _atom_site_fract_y
 _atom_site_fract_z
 _atom_site_occupancy
  Zr  Zr0  1  0.498967  0.674535  0.595846  1
  Zr  Zr1  1  0.000798  0.825011  0.904347  1
  Sc  Sc2  1  0.499908  0.326163  0.095162  1
  Sc  Sc3  1  0.004013  0.175790  0.403816  1
  Sc  Sc4  1  0.499027  0.327024  0.404913  1
  Sc  Sc5  1  0.999795  0.173349  0.094950  1
  Sc  Sc6  1  0.498566  0.674805  0.905645  1
  Sc  Sc7  1  0.998078  0.823921  0.595631  1
  Nb  Nb8  1  0.660148  0.173275  0.624768  1
  Nb  Nb9  1  0.162279  0.327235  0.875896  1
  Nb  Nb10  1  0.336817  0.827297  0.124592  1
  Nb  Nb11  1  0.839000  0.669795  0.374776  1
  Nb  Nb12  1  0.337936  0.827096  0.376453  1
  Nb  Nb13  1  0.837053  0.673518  0.124296  1
  Nb  Nb14  1  0.664884  0.171355  0.875005  1
  Nb  Nb15  1  0.163705  0.329441  0.624908  1
  Nb  Nb16  1  0.836968  0.495582  0.750570  1
  Nb  Nb17  1  0.337500  0.004128  0.748795  1
  Nb  Nb18  1  0.163203  0.505163  0.250192  1
  Nb  Nb19  1  0.662817  0.994158  0.248971  1
  Si  Si20  1  0.168195  0.532428  0.039618  1
  Si  Si21  1  0.332067  0.034697  0.961134  1
  Si  Si22  1  0.831771  0.465438  0.539311  1
  Si  Si23  1  0.319501  0.036226  0.540219  1
  Si  Si24  1  0.830356  0.465461  0.961213  1
  Si  Si25  1  0.669152  0.967170  0.039489  1
  Si  Si26  1  0.169953  0.533289  0.460515  1
  Si  Si27  1  0.459458  0.386017  0.751167  1
  Si  Si28  1  0.959390  0.114226  0.749210  1
  Si  Si29  1  0.540121  0.613118  0.249661  1
  Si  Si30  1  0.041348  0.885662  0.249908  1
  Si  Si31  1  0.704132  0.862541  0.750624  1
  Si  Si32  1  0.204443  0.637002  0.750334  1
  Si  Si33  1  0.295613  0.138544  0.249457  1
  Si  Si34  1  0.795803  0.361784  0.249453  1
  As  As35  1  0.677232  0.967755  0.459157  1
