# generated using pymatgen
data_Li2Pr3Dy3(Ni4As3)4
_symmetry_space_group_name_H-M   'P 1'
_cell_length_a   3.93579600
_cell_length_b   11.17089775
_cell_length_c   12.88754100
_cell_angle_alpha   90.09921072
_cell_angle_beta   90.00000000
_cell_angle_gamma   90.00000000
_symmetry_Int_Tables_number   1
_chemical_formula_structural   Li2Pr3Dy3(Ni4As3)4
_chemical_formula_sum   'Li2 Pr3 Dy3 Ni16 As12'
_cell_volume   566.61760672
_cell_formula_units_Z   1
loop_
 _symmetry_equiv_pos_site_id
 _symmetry_equiv_pos_as_xyz
  1  'x, y, z'
loop_
 _atom_site_type_symbol
 _atom_site_label
 _atom_site_symmetry_multiplicity
 _atom_site_fract_x
 _atom_site_fract_y
 _atom_site_fract_z
 _atom_site_occupancy
  Li  Li0  1  0.500000  0.499376  0.147394  1
  Li  Li1  1  0.000000  0.000149  0.852521  1
  Pr  Pr2  1  0.000000  0.499802  0.525455  1
  Pr  Pr3  1  0.500000  0.000873  0.475751  1
  Pr  Pr4  1  0.500000  0.817680  0.204183  1
  Dy  Dy5  1  0.500000  0.183269  0.203569  1
  Dy  Dy6  1  0.000000  0.681072  0.796999  1
  Dy  Dy7  1  0.000000  0.318229  0.795472  1
  Ni  Ni8  1  0.500000  0.499365  0.704060  1
  Ni  Ni9  1  0.000000  0.002608  0.296443  1
  Ni  Ni10  1  0.000000  0.497006  0.984818  1
  Ni  Ni11  1  0.500000  0.002352  0.011671  1
  Ni  Ni12  1  0.500000  0.330986  0.997073  1
  Ni  Ni13  1  0.500000  0.666951  0.994800  1
  Ni  Ni14  1  0.000000  0.170663  0.001183  1
  Ni  Ni15  1  0.000000  0.831563  0.001138  1
  Ni  Ni16  1  0.500000  0.302928  0.425662  1
  Ni  Ni17  1  0.500000  0.696763  0.428475  1
  Ni  Ni18  1  0.000000  0.197539  0.574885  1
  Ni  Ni19  1  0.000000  0.802669  0.577358  1
  Ni  Ni20  1  0.500000  0.880404  0.709393  1
  Ni  Ni21  1  0.500000  0.119800  0.708447  1
  Ni  Ni22  1  0.000000  0.617070  0.292327  1
  Ni  Ni23  1  0.000000  0.379798  0.290710  1
  As  As24  1  0.500000  0.498877  0.880469  1
  As  As25  1  0.000000  0.003725  0.117135  1
  As  As26  1  0.500000  0.500289  0.345240  1
  As  As27  1  0.000000  0.000253  0.655645  1
  As  As28  1  0.500000  0.311075  0.615681  1
  As  As29  1  0.500000  0.688297  0.617596  1
  As  As30  1  0.000000  0.190075  0.384445  1
  As  As31  1  0.000000  0.810685  0.388525  1
  As  As32  1  0.500000  0.842860  0.892971  1
  As  As33  1  0.500000  0.157928  0.891434  1
  As  As34  1  0.000000  0.653677  0.103745  1
  As  As35  1  0.000000  0.343340  0.107328  1
