# generated using pymatgen
data_Dy3AuO6
_symmetry_space_group_name_H-M   'P 1'
_cell_length_a   3.61161370
_cell_length_b   5.57520707
_cell_length_c   7.07738834
_cell_angle_alpha   89.94728289
_cell_angle_beta   102.49251515
_cell_angle_gamma   91.19869291
_symmetry_Int_Tables_number   1
_chemical_formula_structural   Dy3AuO6
_chemical_formula_sum   'Dy3 Au1 O6'
_cell_volume   139.10136579
_cell_formula_units_Z   1
loop_
 _symmetry_equiv_pos_site_id
 _symmetry_equiv_pos_as_xyz
  1  'x, y, z'
loop_
 _atom_site_type_symbol
 _atom_site_label
 _atom_site_symmetry_multiplicity
 _atom_site_fract_x
 _atom_site_fract_y
 _atom_site_fract_z
 _atom_site_occupancy
  Dy  Dy0  1  0.611174  0.529943  0.762886  1
  Dy  Dy1  1  0.388826  0.470057  0.237114  1
  Dy  Dy2  1  0.000000  0.000000  0.500000  1
  Au  Au3  1  0.000000  0.000000  0.000000  1
  O  O4  1  0.838097  0.683813  0.109418  1
  O  O5  1  0.161903  0.316187  0.890582  1
  O  O6  1  0.521374  0.256011  0.528090  1
  O  O7  1  0.478626  0.743989  0.471910  1
  O  O8  1  0.125570  0.796604  0.785891  1
  O  O9  1  0.874430  0.203396  0.214109  1
