# generated using pymatgen
data_GdAgPRh2
_symmetry_space_group_name_H-M   'P 1'
_cell_length_a   3.96744300
_cell_length_b   3.96744300
_cell_length_c   11.25222600
_cell_angle_alpha   90.00000000
_cell_angle_beta   90.00000000
_cell_angle_gamma   90.00000000
_symmetry_Int_Tables_number   1
_chemical_formula_structural   GdAgPRh2
_chemical_formula_sum   'Gd2 Ag2 P2 Rh4'
_cell_volume   177.11683311
_cell_formula_units_Z   2
loop_
 _symmetry_equiv_pos_site_id
 _symmetry_equiv_pos_as_xyz
  1  'x, y, z'
loop_
 _atom_site_type_symbol
 _atom_site_label
 _atom_site_symmetry_multiplicity
 _atom_site_fract_x
 _atom_site_fract_y
 _atom_site_fract_z
 _atom_site_occupancy
  Gd  Gd0  1  0.000000  0.500000  0.242141  1
  Gd  Gd1  1  0.500000  0.000000  0.757859  1
  Ag  Ag2  1  0.000000  0.000000  0.500000  1
  Ag  Ag3  1  0.500000  0.500000  0.500000  1
  P  P4  1  0.000000  0.500000  0.880452  1
  P  P5  1  0.500000  0.000000  0.119548  1
  Rh  Rh6  1  0.000000  0.000000  0.000000  1
  Rh  Rh7  1  0.500000  0.500000  0.000000  1
  Rh  Rh8  1  0.000000  0.500000  0.680969  1
  Rh  Rh9  1  0.500000  0.000000  0.319031  1
