# generated using pymatgen
data_Tm8Cd2InAu
_symmetry_space_group_name_H-M   'P 1'
_cell_length_a   10.46011800
_cell_length_b   10.47626315
_cell_length_c   6.86531000
_cell_angle_alpha   89.99534032
_cell_angle_beta   89.99867991
_cell_angle_gamma   119.94890065
_symmetry_Int_Tables_number   1
_chemical_formula_structural   Tm8Cd2InAu
_chemical_formula_sum   'Tm16 Cd4 In2 Au2'
_cell_volume   651.86423964
_cell_formula_units_Z   2
loop_
 _symmetry_equiv_pos_site_id
 _symmetry_equiv_pos_as_xyz
  1  'x, y, z'
loop_
 _atom_site_type_symbol
 _atom_site_label
 _atom_site_symmetry_multiplicity
 _atom_site_fract_x
 _atom_site_fract_y
 _atom_site_fract_z
 _atom_site_occupancy
  Tm  Tm0  1  0.525381  0.050750  0.796709  1
  Tm  Tm1  1  0.948156  0.475152  0.798527  1
  Tm  Tm2  1  0.526993  0.475141  0.798514  1
  Tm  Tm3  1  0.474371  0.948768  0.295253  1
  Tm  Tm4  1  0.052862  0.525169  0.296127  1
  Tm  Tm5  1  0.472291  0.525172  0.296101  1
  Tm  Tm6  1  0.826917  0.653845  0.502024  1
  Tm  Tm7  1  0.344567  0.175365  0.504074  1
  Tm  Tm8  1  0.830787  0.175362  0.504083  1
  Tm  Tm9  1  0.170213  0.340411  0.002975  1
  Tm  Tm10  1  0.659190  0.829769  0.010711  1
  Tm  Tm11  1  0.170546  0.829757  0.010754  1
  Tm  Tm12  1  0.666326  0.332636  0.154573  1
  Tm  Tm13  1  0.331513  0.662990  0.654206  1
  Tm  Tm14  1  0.999063  0.998126  0.778283  1
  Tm  Tm15  1  0.000155  0.000317  0.279364  1
  Cd  Cd16  1  0.835001  0.670062  0.038288  1
  Cd  Cd17  1  0.330126  0.164854  0.037956  1
  Cd  Cd18  1  0.834865  0.164910  0.037987  1
  Cd  Cd19  1  0.164442  0.328990  0.537285  1
  In  In20  1  0.671701  0.836658  0.535808  1
  In  In21  1  0.164929  0.836564  0.536137  1
  Au  Au22  1  0.666468  0.332866  0.565741  1
  Au  Au23  1  0.333137  0.666366  0.064431  1
