# generated using pymatgen
data_CaEu9Ge4(SbH)2
_symmetry_space_group_name_H-M   'P 1'
_cell_length_a   9.41091577
_cell_length_b   9.41091546
_cell_length_c   9.41091601
_cell_angle_alpha   128.97780997
_cell_angle_beta   128.97780893
_cell_angle_gamma   75.04628174
_symmetry_Int_Tables_number   1
_chemical_formula_structural   CaEu9Ge4(SbH)2
_chemical_formula_sum   'Ca1 Eu9 Ge4 Sb2 H2'
_cell_volume   490.46600051
_cell_formula_units_Z   1
loop_
 _symmetry_equiv_pos_site_id
 _symmetry_equiv_pos_as_xyz
  1  'x, y, z'
loop_
 _atom_site_type_symbol
 _atom_site_label
 _atom_site_symmetry_multiplicity
 _atom_site_fract_x
 _atom_site_fract_y
 _atom_site_fract_z
 _atom_site_occupancy
  Ca  Ca0  1  0.000000  0.000000  0.000000  1
  Eu  Eu1  1  0.500000  0.500000  0.000000  1
  Eu  Eu2  1  0.520233  0.019650  0.826642  1
  Eu  Eu3  1  0.193009  0.693593  0.173358  1
  Eu  Eu4  1  0.019650  0.193009  0.499417  1
  Eu  Eu5  1  0.693593  0.520233  0.500583  1
  Eu  Eu6  1  0.479767  0.980350  0.173358  1
  Eu  Eu7  1  0.806991  0.306407  0.826642  1
  Eu  Eu8  1  0.980350  0.806991  0.500583  1
  Eu  Eu9  1  0.306407  0.479767  0.499417  1
  Ge  Ge10  1  0.879239  0.378161  0.257399  1
  Ge  Ge11  1  0.120761  0.621839  0.742601  1
  Ge  Ge12  1  0.378161  0.120761  0.498922  1
  Ge  Ge13  1  0.621839  0.879239  0.501078  1
  Sb  Sb14  1  0.249858  0.249858  0.000000  1
  Sb  Sb15  1  0.750142  0.750142  0.000000  1
  H  H16  1  0.250000  0.750000  0.500000  1
  H  H17  1  0.750000  0.250000  0.500000  1
