# generated using pymatgen
data_LuUGa5Co6
_symmetry_space_group_name_H-M   'P 1'
_cell_length_a   5.06169198
_cell_length_b   6.54813633
_cell_length_c   6.54813574
_cell_angle_alpha   86.20529115
_cell_angle_beta   67.26319247
_cell_angle_gamma   67.26318828
_symmetry_Int_Tables_number   1
_chemical_formula_structural   LuUGa5Co6
_chemical_formula_sum   'Lu1 U1 Ga5 Co6'
_cell_volume   183.72939680
_cell_formula_units_Z   1
loop_
 _symmetry_equiv_pos_site_id
 _symmetry_equiv_pos_as_xyz
  1  'x, y, z'
loop_
 _atom_site_type_symbol
 _atom_site_label
 _atom_site_symmetry_multiplicity
 _atom_site_fract_x
 _atom_site_fract_y
 _atom_site_fract_z
 _atom_site_occupancy
  Lu  Lu0  1  0.000000  0.991325  0.008675  1
  U  U1  1  0.000000  0.351354  0.648646  1
  Ga  Ga2  1  0.000000  0.674414  0.325586  1
  Ga  Ga3  1  0.500000  0.164583  0.835417  1
  Ga  Ga4  1  0.500000  0.820841  0.179159  1
  Ga  Ga5  1  0.342495  0.661971  0.653037  1
  Ga  Ga6  1  0.657505  0.346963  0.338029  1
  Co  Co7  1  0.246993  0.251483  0.254530  1
  Co  Co8  1  0.753007  0.745470  0.748517  1
  Co  Co9  1  0.491968  0.004580  0.508781  1
  Co  Co10  1  0.508032  0.491219  0.995420  1
  Co  Co11  1  0.005330  0.491219  0.995420  1
  Co  Co12  1  0.994670  0.004580  0.508781  1
