# generated using pymatgen
data_Tb2NdZnGa7Ag3
_symmetry_space_group_name_H-M   'P 1'
_cell_length_a   4.36509636
_cell_length_b   8.41223443
_cell_length_c   8.41758207
_cell_angle_alpha   69.90058023
_cell_angle_beta   74.97237762
_cell_angle_gamma   74.96260581
_symmetry_Int_Tables_number   1
_chemical_formula_structural   Tb2NdZnGa7Ag3
_chemical_formula_sum   'Tb2 Nd1 Zn1 Ga7 Ag3'
_cell_volume   275.35484714
_cell_formula_units_Z   1
loop_
 _symmetry_equiv_pos_site_id
 _symmetry_equiv_pos_as_xyz
  1  'x, y, z'
loop_
 _atom_site_type_symbol
 _atom_site_label
 _atom_site_symmetry_multiplicity
 _atom_site_fract_x
 _atom_site_fract_y
 _atom_site_fract_z
 _atom_site_occupancy
  Tb  Tb0  1  0.199977  0.798773  0.801274  1
  Tb  Tb1  1  0.800860  0.201225  0.197055  1
  Nd  Nd2  1  0.499434  0.500344  0.500786  1
  Zn  Zn3  1  0.356301  0.365442  0.921956  1
  Ga  Ga4  1  0.643359  0.639000  0.074284  1
  Ga  Ga5  1  0.355457  0.927314  0.361771  1
  Ga  Ga6  1  0.642538  0.074351  0.640575  1
  Ga  Ga7  1  0.164172  0.468313  0.203343  1
  Ga  Ga8  1  0.840401  0.526013  0.793184  1
  Ga  Ga9  1  0.159871  0.208752  0.471505  1
  Ga  Ga10  1  0.839586  0.790421  0.530407  1
  Ag  Ag11  1  0.498555  0.001587  0.001303  1
  Ag  Ag12  1  0.000461  0.802713  0.196366  1
  Ag  Ag13  1  0.999028  0.195754  0.806191  1
