# generated using pymatgen
data_Pr6Ti5Al11Ir7
_symmetry_space_group_name_H-M   'P 1'
_cell_length_a   9.11580866
_cell_length_b   9.11580888
_cell_length_c   9.12126769
_cell_angle_alpha   60.01979322
_cell_angle_beta   60.01979868
_cell_angle_gamma   60.00000323
_symmetry_Int_Tables_number   1
_chemical_formula_structural   Pr6Ti5Al11Ir7
_chemical_formula_sum   'Pr6 Ti5 Al11 Ir7'
_cell_volume   536.11814886
_cell_formula_units_Z   1
loop_
 _symmetry_equiv_pos_site_id
 _symmetry_equiv_pos_as_xyz
  1  'x, y, z'
loop_
 _atom_site_type_symbol
 _atom_site_label
 _atom_site_symmetry_multiplicity
 _atom_site_fract_x
 _atom_site_fract_y
 _atom_site_fract_z
 _atom_site_occupancy
  Pr  Pr0  1  0.701609  0.701609  0.301992  1
  Pr  Pr1  1  0.294790  0.701609  0.301992  1
  Pr  Pr2  1  0.701609  0.294790  0.301992  1
  Pr  Pr3  1  0.302147  0.302147  0.700467  1
  Pr  Pr4  1  0.695238  0.302147  0.700467  1
  Pr  Pr5  1  0.302147  0.695238  0.700467  1
  Ti  Ti6  1  0.880828  0.880828  0.357518  1
  Ti  Ti7  1  0.878445  0.358755  0.884356  1
  Ti  Ti8  1  0.358755  0.878445  0.884356  1
  Ti  Ti9  1  0.878445  0.878445  0.884356  1
  Ti  Ti10  1  0.123135  0.123135  0.630593  1
  Al  Al11  1  0.118284  0.646574  0.116857  1
  Al  Al12  1  0.646574  0.118284  0.116857  1
  Al  Al13  1  0.118284  0.118284  0.116857  1
  Al  Al14  1  0.671046  0.671046  0.986861  1
  Al  Al15  1  0.672182  0.982595  0.673039  1
  Al  Al16  1  0.982595  0.672182  0.673039  1
  Al  Al17  1  0.672182  0.672182  0.673039  1
  Al  Al18  1  0.327465  0.327465  0.017606  1
  Al  Al19  1  0.327372  0.021705  0.323553  1
  Al  Al20  1  0.021705  0.327372  0.323553  1
  Al  Al21  1  0.327372  0.327372  0.323553  1
  Ir  Ir22  1  0.004354  0.004354  0.986937  1
  Ir  Ir23  1  0.998262  0.998262  0.505244  1
  Ir  Ir24  1  0.498232  0.998262  0.505244  1
  Ir  Ir25  1  0.998262  0.498232  0.505244  1
  Ir  Ir26  1  0.500224  0.500224  0.001322  1
  Ir  Ir27  1  0.998231  0.500224  0.001322  1
  Ir  Ir28  1  0.500224  0.998231  0.001322  1
