# generated using pymatgen
data_Sr6Li2GaAg21
_symmetry_space_group_name_H-M   'P 1'
_cell_length_a   9.78867000
_cell_length_b   9.78866960
_cell_length_c   8.16455300
_cell_angle_alpha   90.00000000
_cell_angle_beta   90.00000000
_cell_angle_gamma   119.99999461
_symmetry_Int_Tables_number   1
_chemical_formula_structural   Sr6Li2GaAg21
_chemical_formula_sum   'Sr6 Li2 Ga1 Ag21'
_cell_volume   677.50175605
_cell_formula_units_Z   1
loop_
 _symmetry_equiv_pos_site_id
 _symmetry_equiv_pos_as_xyz
  1  'x, y, z'
loop_
 _atom_site_type_symbol
 _atom_site_label
 _atom_site_symmetry_multiplicity
 _atom_site_fract_x
 _atom_site_fract_y
 _atom_site_fract_z
 _atom_site_occupancy
  Sr  Sr0  1  0.525813  0.051627  0.249394  1
  Sr  Sr1  1  0.477071  0.954142  0.750470  1
  Sr  Sr2  1  0.948373  0.474187  0.249394  1
  Sr  Sr3  1  0.045858  0.522929  0.750470  1
  Sr  Sr4  1  0.525813  0.474187  0.249394  1
  Sr  Sr5  1  0.477071  0.522929  0.750470  1
  Li  Li6  1  0.000000  0.000000  0.000474  1
  Li  Li7  1  0.000000  0.000000  0.500444  1
  Ga  Ga8  1  0.333333  0.666667  0.426205  1
  Ag  Ag9  1  0.168051  0.336100  0.066890  1
  Ag  Ag10  1  0.832382  0.664764  0.934450  1
  Ag  Ag11  1  0.663900  0.831949  0.066890  1
  Ag  Ag12  1  0.831974  0.663947  0.566129  1
  Ag  Ag13  1  0.335236  0.167618  0.934450  1
  Ag  Ag14  1  0.173895  0.347788  0.432773  1
  Ag  Ag15  1  0.168051  0.831949  0.066890  1
  Ag  Ag16  1  0.336053  0.168026  0.566129  1
  Ag  Ag17  1  0.832382  0.167618  0.934450  1
  Ag  Ag18  1  0.652212  0.826105  0.432773  1
  Ag  Ag19  1  0.831974  0.168026  0.566129  1
  Ag  Ag20  1  0.173895  0.826105  0.432773  1
  Ag  Ag21  1  0.896954  0.793908  0.252098  1
  Ag  Ag22  1  0.103460  0.206919  0.748463  1
  Ag  Ag23  1  0.206092  0.103046  0.252098  1
  Ag  Ag24  1  0.793081  0.896540  0.748463  1
  Ag  Ag25  1  0.896954  0.103046  0.252098  1
  Ag  Ag26  1  0.103460  0.896540  0.748463  1
  Ag  Ag27  1  0.333333  0.666667  0.073339  1
  Ag  Ag28  1  0.666667  0.333333  0.931427  1
  Ag  Ag29  1  0.666667  0.333333  0.566111  1
