# generated using pymatgen
data_LuSc3CSe3
_symmetry_space_group_name_H-M   'P 1'
_cell_length_a   6.47414136
_cell_length_b   6.47414087
_cell_length_c   6.52586200
_cell_angle_alpha   79.63655016
_cell_angle_beta   79.63655095
_cell_angle_gamma   32.51337962
_symmetry_Int_Tables_number   1
_chemical_formula_structural   LuSc3CSe3
_chemical_formula_sum   'Lu1 Sc3 C1 Se3'
_cell_volume   144.41628875
_cell_formula_units_Z   1
loop_
 _symmetry_equiv_pos_site_id
 _symmetry_equiv_pos_as_xyz
  1  'x, y, z'
loop_
 _atom_site_type_symbol
 _atom_site_label
 _atom_site_symmetry_multiplicity
 _atom_site_fract_x
 _atom_site_fract_y
 _atom_site_fract_z
 _atom_site_occupancy
  Lu  Lu0  1  0.018012  0.018012  0.026889  1
  Sc  Sc1  1  0.230443  0.230443  0.220263  1
  Sc  Sc2  1  0.516295  0.516295  0.448958  1
  Sc  Sc3  1  0.734697  0.734697  0.804376  1
  C  C4  1  0.626530  0.626530  0.127440  1
  Se  Se5  1  0.864017  0.864017  0.388479  1
  Se  Se6  1  0.127797  0.127797  0.619663  1
  Se  Se7  1  0.382209  0.382209  0.863933  1
