# generated using pymatgen
data_Tb7Y5Co5Pb
_symmetry_space_group_name_H-M   'P 1'
_cell_length_a   8.35204539
_cell_length_b   8.35490184
_cell_length_c   8.35204760
_cell_angle_alpha   110.69701501
_cell_angle_beta   110.57846691
_cell_angle_gamma   107.14929321
_symmetry_Int_Tables_number   1
_chemical_formula_structural   Tb7Y5Co5Pb
_chemical_formula_sum   'Tb7 Y5 Co5 Pb1'
_cell_volume   448.17385433
_cell_formula_units_Z   1
loop_
 _symmetry_equiv_pos_site_id
 _symmetry_equiv_pos_as_xyz
  1  'x, y, z'
loop_
 _atom_site_type_symbol
 _atom_site_label
 _atom_site_symmetry_multiplicity
 _atom_site_fract_x
 _atom_site_fract_y
 _atom_site_fract_z
 _atom_site_occupancy
  Tb  Tb0  1  0.313211  0.620751  0.307539  1
  Tb  Tb1  1  0.686905  0.994776  0.307871  1
  Tb  Tb2  1  0.313283  0.005744  0.692461  1
  Tb  Tb3  1  0.601776  0.794856  0.807107  1
  Tb  Tb4  1  0.398212  0.205214  0.193046  1
  Tb  Tb5  1  0.987750  0.794856  0.193079  1
  Tb  Tb6  1  0.012168  0.205214  0.807003  1
  Y  Y7  1  0.814738  0.706929  0.521793  1
  Y  Y8  1  0.185274  0.293014  0.478275  1
  Y  Y9  1  0.185137  0.706929  0.892193  1
  Y  Y10  1  0.814738  0.293014  0.107739  1
  Y  Y11  1  0.686791  0.379854  0.693064  1
  Co  Co12  1  0.620788  0.999571  0.620646  1
  Co  Co13  1  0.378925  0.999571  0.378782  1
  Co  Co14  1  0.111250  0.611260  0.500010  1
  Co  Co15  1  0.888917  0.388568  0.499651  1
  Co  Co16  1  0.999990  0.999939  0.999949  1
  Pb  Pb17  1  0.500148  0.499941  0.999792  1
