# generated using pymatgen
data_Tb4Dy4InAgRh2
_symmetry_space_group_name_H-M   'P 1'
_cell_length_a   9.61803002
_cell_length_b   9.61541811
_cell_length_c   9.62511000
_cell_angle_alpha   59.96865389
_cell_angle_beta   59.97804089
_cell_angle_gamma   60.02911931
_symmetry_Int_Tables_number   1
_chemical_formula_structural   Tb4Dy4InAgRh2
_chemical_formula_sum   'Tb8 Dy8 In2 Ag2 Rh4'
_cell_volume   629.31101247
_cell_formula_units_Z   2
loop_
 _symmetry_equiv_pos_site_id
 _symmetry_equiv_pos_as_xyz
  1  'x, y, z'
loop_
 _atom_site_type_symbol
 _atom_site_label
 _atom_site_symmetry_multiplicity
 _atom_site_fract_x
 _atom_site_fract_y
 _atom_site_fract_z
 _atom_site_occupancy
  Tb  Tb0  1  0.189599  0.810970  0.809610  1
  Tb  Tb1  1  0.051954  0.649082  0.649441  1
  Tb  Tb2  1  0.437530  0.066946  0.059836  1
  Tb  Tb3  1  0.437550  0.066843  0.435825  1
  Tb  Tb4  1  0.066876  0.437150  0.060119  1
  Tb  Tb5  1  0.649820  0.649627  0.050743  1
  Tb  Tb6  1  0.189434  0.811018  0.189806  1
  Tb  Tb7  1  0.066774  0.437176  0.435988  1
  Dy  Dy8  1  0.808336  0.808872  0.191452  1
  Dy  Dy9  1  0.810734  0.189745  0.809786  1
  Dy  Dy10  1  0.188040  0.188217  0.811841  1
  Dy  Dy11  1  0.649255  0.051937  0.649365  1
  Dy  Dy12  1  0.063583  0.063877  0.436357  1
  Dy  Dy13  1  0.438460  0.437933  0.061822  1
  Dy  Dy14  1  0.649932  0.649727  0.649834  1
  Dy  Dy15  1  0.810777  0.189587  0.189719  1
  In  In16  1  0.417110  0.741971  0.420563  1
  In  In17  1  0.741970  0.416759  0.420729  1
  Ag  Ag18  1  0.416879  0.416598  0.417795  1
  Ag  Ag19  1  0.416960  0.416686  0.748651  1
  Rh  Rh20  1  0.857168  0.426913  0.857721  1
  Rh  Rh21  1  0.856923  0.857624  0.858441  1
  Rh  Rh22  1  0.856669  0.857356  0.427333  1
  Rh  Rh23  1  0.427665  0.857383  0.857222  1
