# generated using pymatgen
data_LaPr13Th2(CdIr)4
_symmetry_space_group_name_H-M   'P 1'
_cell_length_a   10.03510148
_cell_length_b   10.05532529
_cell_length_c   10.05532680
_cell_angle_alpha   60.03630628
_cell_angle_beta   60.00001611
_cell_angle_gamma   60.00001328
_symmetry_Int_Tables_number   1
_chemical_formula_structural   LaPr13Th2(CdIr)4
_chemical_formula_sum   'La1 Pr13 Th2 Cd4 Ir4'
_cell_volume   717.65911225
_cell_formula_units_Z   1
loop_
 _symmetry_equiv_pos_site_id
 _symmetry_equiv_pos_as_xyz
  1  'x, y, z'
loop_
 _atom_site_type_symbol
 _atom_site_label
 _atom_site_symmetry_multiplicity
 _atom_site_fract_x
 _atom_site_fract_y
 _atom_site_fract_z
 _atom_site_occupancy
  La  La0  1  0.346636  0.348073  0.348073  1
  Pr  Pr1  1  0.950431  0.350277  0.350277  1
  Pr  Pr2  1  0.811085  0.189481  0.189481  1
  Pr  Pr3  1  0.188419  0.809521  0.809521  1
  Pr  Pr4  1  0.189985  0.810709  0.189168  1
  Pr  Pr5  1  0.809799  0.188899  0.808431  1
  Pr  Pr6  1  0.189985  0.189168  0.810709  1
  Pr  Pr7  1  0.809799  0.808431  0.188899  1
  Pr  Pr8  1  0.940871  0.562112  0.562112  1
  Pr  Pr9  1  0.559167  0.939736  0.939736  1
  Pr  Pr10  1  0.560739  0.938831  0.562399  1
  Pr  Pr11  1  0.940649  0.560038  0.937483  1
  Pr  Pr12  1  0.560739  0.562399  0.938831  1
  Pr  Pr13  1  0.940649  0.937483  0.560038  1
  Th  Th14  1  0.346253  0.347019  0.961515  1
  Th  Th15  1  0.346253  0.961515  0.347019  1
  Cd  Cd16  1  0.578074  0.580997  0.580997  1
  Cd  Cd17  1  0.579429  0.582512  0.259669  1
  Cd  Cd18  1  0.579429  0.259669  0.582512  1
  Cd  Cd19  1  0.258923  0.581782  0.581782  1
  Ir  Ir20  1  0.151902  0.142326  0.142326  1
  Ir  Ir21  1  0.147789  0.137769  0.568982  1
  Ir  Ir22  1  0.147789  0.568982  0.137769  1
  Ir  Ir23  1  0.565202  0.142270  0.142270  1
