# generated using pymatgen
data_Nd2Ni2P4RuRh
_symmetry_space_group_name_H-M   'P 1'
_cell_length_a   4.10766600
_cell_length_b   4.10766600
_cell_length_c   9.37240900
_cell_angle_alpha   90.00000000
_cell_angle_beta   90.00000000
_cell_angle_gamma   90.00000000
_symmetry_Int_Tables_number   1
_chemical_formula_structural   Nd2Ni2P4RuRh
_chemical_formula_sum   'Nd2 Ni2 P4 Ru1 Rh1'
_cell_volume   158.13990696
_cell_formula_units_Z   1
loop_
 _symmetry_equiv_pos_site_id
 _symmetry_equiv_pos_as_xyz
  1  'x, y, z'
loop_
 _atom_site_type_symbol
 _atom_site_label
 _atom_site_symmetry_multiplicity
 _atom_site_fract_x
 _atom_site_fract_y
 _atom_site_fract_z
 _atom_site_occupancy
  Nd  Nd0  1  0.000000  0.500000  0.263659  1
  Nd  Nd1  1  0.500000  0.000000  0.736341  1
  Ni  Ni2  1  0.000000  0.500000  0.610139  1
  Ni  Ni3  1  0.500000  0.000000  0.389861  1
  P  P4  1  0.000000  0.000000  0.500000  1
  P  P5  1  0.500000  0.500000  0.500000  1
  P  P6  1  0.000000  0.500000  0.861768  1
  P  P7  1  0.500000  0.000000  0.138232  1
  Ru  Ru8  1  0.000000  0.000000  0.000000  1
  Rh  Rh9  1  0.500000  0.500000  0.000000  1
