# generated using pymatgen
data_NbRe5Sb14
_symmetry_space_group_name_H-M   'P 1'
_cell_length_a   8.30390879
_cell_length_b   8.30390826
_cell_length_c   8.30390838
_cell_angle_alpha   109.28212832
_cell_angle_beta   109.28212786
_cell_angle_gamma   109.85007733
_symmetry_Int_Tables_number   1
_chemical_formula_structural   NbRe5Sb14
_chemical_formula_sum   'Nb1 Re5 Sb14'
_cell_volume   440.76945059
_cell_formula_units_Z   1
loop_
 _symmetry_equiv_pos_site_id
 _symmetry_equiv_pos_as_xyz
  1  'x, y, z'
loop_
 _atom_site_type_symbol
 _atom_site_label
 _atom_site_symmetry_multiplicity
 _atom_site_fract_x
 _atom_site_fract_y
 _atom_site_fract_z
 _atom_site_occupancy
  Nb  Nb0  1  0.343969  0.343969  0.000000  1
  Re  Re1  1  0.999999  0.342126  0.342127  1
  Re  Re2  1  0.999999  0.657873  0.657873  1
  Re  Re3  1  0.657873  0.999999  0.657873  1
  Re  Re4  1  0.342126  0.999999  0.342127  1
  Re  Re5  1  0.664134  0.664134  0.000000  1
  Sb  Sb6  1  0.750668  0.250668  0.500000  1
  Sb  Sb7  1  0.499728  0.247334  0.747606  1
  Sb  Sb8  1  0.499728  0.752123  0.252394  1
  Sb  Sb9  1  0.247334  0.499728  0.747606  1
  Sb  Sb10  1  0.752123  0.499728  0.252394  1
  Sb  Sb11  1  0.250668  0.750668  0.500000  1
  Sb  Sb12  1  0.325941  0.325941  0.327978  1
  Sb  Sb13  1  0.999394  0.999394  0.326865  1
  Sb  Sb14  1  0.325941  0.997963  0.000000  1
  Sb  Sb15  1  0.997963  0.325941  0.000000  1
  Sb  Sb16  1  0.672528  0.999394  0.000000  1
  Sb  Sb17  1  0.999394  0.672528  0.000000  1
  Sb  Sb18  1  0.997963  0.997963  0.672022  1
  Sb  Sb19  1  0.672528  0.672528  0.673135  1
