# generated using pymatgen
data_DyLu3Al18Rh5Au
_symmetry_space_group_name_H-M   'P 1'
_cell_length_a   7.56330489
_cell_length_b   7.56452263
_cell_length_c   9.41645820
_cell_angle_alpha   89.94529896
_cell_angle_beta   89.98868458
_cell_angle_gamma   119.52181096
_symmetry_Int_Tables_number   1
_chemical_formula_structural   DyLu3Al18Rh5Au
_chemical_formula_sum   'Dy1 Lu3 Al18 Rh5 Au1'
_cell_volume   468.79566769
_cell_formula_units_Z   1
loop_
 _symmetry_equiv_pos_site_id
 _symmetry_equiv_pos_as_xyz
  1  'x, y, z'
loop_
 _atom_site_type_symbol
 _atom_site_label
 _atom_site_symmetry_multiplicity
 _atom_site_fract_x
 _atom_site_fract_y
 _atom_site_fract_z
 _atom_site_occupancy
  Dy  Dy0  1  0.995574  0.674055  0.250593  1
  Lu  Lu1  1  0.004314  0.325798  0.748946  1
  Lu  Lu2  1  0.673949  0.995806  0.251044  1
  Lu  Lu3  1  0.326010  0.004430  0.748941  1
  Al  Al4  1  0.134618  0.135105  0.256868  1
  Al  Al5  1  0.865550  0.865751  0.743255  1
  Al  Al6  1  0.000378  0.343240  0.079496  1
  Al  Al7  1  0.999713  0.655758  0.918973  1
  Al  Al8  1  0.001253  0.664050  0.576039  1
  Al  Al9  1  0.336814  0.999650  0.425514  1
  Al  Al10  1  0.998757  0.335112  0.425511  1
  Al  Al11  1  0.664080  0.001231  0.575212  1
  Al  Al12  1  0.655943  0.999696  0.919753  1
  Al  Al13  1  0.345071  0.001125  0.079610  1
  Al  Al14  1  0.332520  0.332574  0.553966  1
  Al  Al15  1  0.666691  0.667445  0.447012  1
  Al  Al16  1  0.657967  0.658740  0.058412  1
  Al  Al17  1  0.341164  0.341179  0.940661  1
  Al  Al18  1  0.339532  0.551863  0.251345  1
  Al  Al19  1  0.660913  0.447869  0.748669  1
  Al  Al20  1  0.551082  0.338231  0.251315  1
  Al  Al21  1  0.447958  0.661078  0.748688  1
  Rh  Rh22  1  0.672009  0.327653  0.999735  1
  Rh  Rh23  1  0.328025  0.672171  0.999739  1
  Rh  Rh24  1  0.327898  0.672216  0.500221  1
  Rh  Rh25  1  0.672062  0.327597  0.500293  1
  Rh  Rh26  1  0.000127  0.000389  0.500342  1
  Au  Au27  1  0.000030  0.000186  0.999847  1
