# generated using pymatgen
data_Tb11Pr5Cd3InIr4
_symmetry_space_group_name_H-M   'P 1'
_cell_length_a   9.78228627
_cell_length_b   9.78355254
_cell_length_c   9.78394405
_cell_angle_alpha   60.03994221
_cell_angle_beta   60.04941950
_cell_angle_gamma   60.06288093
_symmetry_Int_Tables_number   1
_chemical_formula_structural   Tb11Pr5Cd3InIr4
_chemical_formula_sum   'Tb11 Pr5 Cd3 In1 Ir4'
_cell_volume   662.88030795
_cell_formula_units_Z   1
loop_
 _symmetry_equiv_pos_site_id
 _symmetry_equiv_pos_as_xyz
  1  'x, y, z'
loop_
 _atom_site_type_symbol
 _atom_site_label
 _atom_site_symmetry_multiplicity
 _atom_site_fract_x
 _atom_site_fract_y
 _atom_site_fract_z
 _atom_site_occupancy
  Tb  Tb0  1  0.347057  0.347376  0.347383  1
  Tb  Tb1  1  0.348568  0.350203  0.955876  1
  Tb  Tb2  1  0.348656  0.955866  0.350099  1
  Tb  Tb3  1  0.955081  0.349359  0.349154  1
  Tb  Tb4  1  0.811889  0.187239  0.187111  1
  Tb  Tb5  1  0.187499  0.810791  0.810863  1
  Tb  Tb6  1  0.186374  0.811196  0.189170  1
  Tb  Tb7  1  0.811274  0.188209  0.809892  1
  Tb  Tb8  1  0.186652  0.188837  0.811109  1
  Tb  Tb9  1  0.811039  0.809886  0.188510  1
  Tb  Tb10  1  0.944707  0.556636  0.556631  1
  Pr  Pr11  1  0.557044  0.942454  0.942521  1
  Pr  Pr12  1  0.561828  0.941711  0.559283  1
  Pr  Pr13  1  0.941392  0.558738  0.938393  1
  Pr  Pr14  1  0.561329  0.559225  0.941919  1
  Pr  Pr15  1  0.941514  0.938431  0.558978  1
  Cd  Cd16  1  0.578199  0.578718  0.262650  1
  Cd  Cd17  1  0.578245  0.262666  0.578685  1
  Cd  Cd18  1  0.259543  0.578350  0.578385  1
  In  In19  1  0.582401  0.579391  0.579147  1
  Ir  Ir20  1  0.142383  0.141536  0.141440  1
  Ir  Ir21  1  0.140537  0.145079  0.575843  1
  Ir  Ir22  1  0.140684  0.576020  0.144990  1
  Ir  Ir23  1  0.576097  0.142084  0.141965  1
