# generated using pymatgen
data_Dy12Ir3Pt
_symmetry_space_group_name_H-M   'P 1'
_cell_length_a   6.39956400
_cell_length_b   7.21046900
_cell_length_c   9.37048800
_cell_angle_alpha   90.00000000
_cell_angle_beta   90.00000000
_cell_angle_gamma   89.99721094
_symmetry_Int_Tables_number   1
_chemical_formula_structural   Dy12Ir3Pt
_chemical_formula_sum   'Dy12 Ir3 Pt1'
_cell_volume   432.39046587
_cell_formula_units_Z   1
loop_
 _symmetry_equiv_pos_site_id
 _symmetry_equiv_pos_as_xyz
  1  'x, y, z'
loop_
 _atom_site_type_symbol
 _atom_site_label
 _atom_site_symmetry_multiplicity
 _atom_site_fract_x
 _atom_site_fract_y
 _atom_site_fract_z
 _atom_site_occupancy
  Dy  Dy0  1  0.330904  0.675970  0.061081  1
  Dy  Dy1  1  0.173160  0.180571  0.439305  1
  Dy  Dy2  1  0.673056  0.322182  0.563097  1
  Dy  Dy3  1  0.825786  0.822613  0.935019  1
  Dy  Dy4  1  0.673056  0.322182  0.936903  1
  Dy  Dy5  1  0.825786  0.822613  0.564981  1
  Dy  Dy6  1  0.330904  0.675970  0.438919  1
  Dy  Dy7  1  0.173160  0.180571  0.060695  1
  Dy  Dy8  1  0.866012  0.529276  0.250000  1
  Dy  Dy9  1  0.628771  0.035838  0.250000  1
  Dy  Dy10  1  0.131132  0.465526  0.750000  1
  Dy  Dy11  1  0.368066  0.965411  0.750000  1
  Ir  Ir12  1  0.449728  0.383384  0.250000  1
  Ir  Ir13  1  0.952373  0.116879  0.750000  1
  Ir  Ir14  1  0.547838  0.616914  0.750000  1
  Pt  Pt15  1  0.050268  0.884103  0.250000  1
