# generated using pymatgen
data_Y2TmHf3(SnIr)6
_symmetry_space_group_name_H-M   'P 1'
_cell_length_a   7.46149400
_cell_length_b   7.45338817
_cell_length_c   7.61473100
_cell_angle_alpha   90.00000000
_cell_angle_beta   90.00000000
_cell_angle_gamma   120.03968842
_symmetry_Int_Tables_number   1
_chemical_formula_structural   Y2TmHf3(SnIr)6
_chemical_formula_sum   'Y2 Tm1 Hf3 Sn6 Ir6'
_cell_volume   366.59868807
_cell_formula_units_Z   1
loop_
 _symmetry_equiv_pos_site_id
 _symmetry_equiv_pos_as_xyz
  1  'x, y, z'
loop_
 _atom_site_type_symbol
 _atom_site_label
 _atom_site_symmetry_multiplicity
 _atom_site_fract_x
 _atom_site_fract_y
 _atom_site_fract_z
 _atom_site_occupancy
  Y  Y0  1  0.000081  0.406661  0.750000  1
  Y  Y1  1  0.593318  0.593435  0.750000  1
  Tm  Tm2  1  0.405580  0.999964  0.750000  1
  Hf  Hf3  1  0.999020  0.390737  0.250000  1
  Hf  Hf4  1  0.609140  0.608391  0.250000  1
  Hf  Hf5  1  0.391625  0.000872  0.250000  1
  Sn  Sn6  1  0.266229  0.266249  0.493570  1
  Sn  Sn7  1  0.001026  0.734300  0.493589  1
  Sn  Sn8  1  0.001026  0.734300  0.006411  1
  Sn  Sn9  1  0.733025  0.999498  0.494646  1
  Sn  Sn10  1  0.733025  0.999498  0.005354  1
  Sn  Sn11  1  0.266229  0.266249  0.006430  1
  Ir  Ir12  1  0.333631  0.668068  0.460774  1
  Ir  Ir13  1  0.665501  0.331853  0.462610  1
  Ir  Ir14  1  0.333631  0.668068  0.039226  1
  Ir  Ir15  1  0.002619  0.000003  0.750000  1
  Ir  Ir16  1  0.999790  0.000000  0.250000  1
  Ir  Ir17  1  0.665501  0.331853  0.037390  1
