# generated using pymatgen
data_Lu9Sc(Si3O)2
_symmetry_space_group_name_H-M   'P 1'
_cell_length_a   8.16825200
_cell_length_b   8.16825223
_cell_length_c   5.98356600
_cell_angle_alpha   90.00000000
_cell_angle_beta   90.00000000
_cell_angle_gamma   119.99999908
_symmetry_Int_Tables_number   1
_chemical_formula_structural   Lu9Sc(Si3O)2
_chemical_formula_sum   'Lu9 Sc1 Si6 O2'
_cell_volume   345.73949170
_cell_formula_units_Z   1
loop_
 _symmetry_equiv_pos_site_id
 _symmetry_equiv_pos_as_xyz
  1  'x, y, z'
loop_
 _atom_site_type_symbol
 _atom_site_label
 _atom_site_symmetry_multiplicity
 _atom_site_fract_x
 _atom_site_fract_y
 _atom_site_fract_z
 _atom_site_occupancy
  Lu  Lu0  1  0.767428  0.766666  0.249093  1
  Lu  Lu1  1  0.767428  0.000762  0.750907  1
  Lu  Lu2  1  0.999238  0.232572  0.249093  1
  Lu  Lu3  1  0.999238  0.766666  0.750907  1
  Lu  Lu4  1  0.233334  0.232572  0.750907  1
  Lu  Lu5  1  0.233334  0.000762  0.249093  1
  Lu  Lu6  1  0.333333  0.666667  0.500000  1
  Lu  Lu7  1  0.333333  0.666667  0.000000  1
  Lu  Lu8  1  0.666667  0.333333  0.500000  1
  Sc  Sc9  1  0.666667  0.333333  0.000000  1
  Si  Si10  1  0.400167  0.002341  0.753049  1
  Si  Si11  1  0.400167  0.397826  0.246951  1
  Si  Si12  1  0.997659  0.599833  0.246951  1
  Si  Si13  1  0.997659  0.397826  0.753049  1
  Si  Si14  1  0.602174  0.599833  0.753049  1
  Si  Si15  1  0.602174  0.002341  0.246951  1
  O  O16  1  0.000000  0.000000  0.500000  1
  O  O17  1  0.000000  0.000000  0.000000  1
