# generated using pymatgen
data_Ho5Cr3(P3Ir4)4
_symmetry_space_group_name_H-M   'P 1'
_cell_length_a   12.62624100
_cell_length_b   12.62624122
_cell_length_c   3.95333300
_cell_angle_alpha   90.00000000
_cell_angle_beta   90.00000000
_cell_angle_gamma   119.99999681
_symmetry_Int_Tables_number   1
_chemical_formula_structural   Ho5Cr3(P3Ir4)4
_chemical_formula_sum   'Ho5 Cr3 P12 Ir16'
_cell_volume   545.81089436
_cell_formula_units_Z   1
loop_
 _symmetry_equiv_pos_site_id
 _symmetry_equiv_pos_as_xyz
  1  'x, y, z'
loop_
 _atom_site_type_symbol
 _atom_site_label
 _atom_site_symmetry_multiplicity
 _atom_site_fract_x
 _atom_site_fract_y
 _atom_site_fract_z
 _atom_site_occupancy
  Ho  Ho0  1  0.333333  0.666667  0.500000  1
  Ho  Ho1  1  0.666667  0.333333  0.500000  1
  Ho  Ho2  1  0.000000  0.810616  0.000000  1
  Ho  Ho3  1  0.189384  0.189384  0.000000  1
  Ho  Ho4  1  0.810616  0.000000  0.000000  1
  Cr  Cr5  1  0.000000  0.453465  0.500000  1
  Cr  Cr6  1  0.546535  0.546535  0.500000  1
  Cr  Cr7  1  0.453465  0.000000  0.500000  1
  P  P8  1  0.000000  0.632470  0.500000  1
  P  P9  1  0.367530  0.367530  0.500000  1
  P  P10  1  0.632470  0.000000  0.500000  1
  P  P11  1  0.516107  0.684159  0.000000  1
  P  P12  1  0.315841  0.831948  0.000000  1
  P  P13  1  0.168052  0.483893  0.000000  1
  P  P14  1  0.483893  0.168052  0.000000  1
  P  P15  1  0.684159  0.516107  0.000000  1
  P  P16  1  0.831948  0.315841  0.000000  1
  P  P17  1  0.000000  0.177565  0.500000  1
  P  P18  1  0.822435  0.822435  0.500000  1
  P  P19  1  0.177565  0.000000  0.500000  1
  Ir  Ir20  1  0.509280  0.868477  0.000000  1
  Ir  Ir21  1  0.131523  0.640804  0.000000  1
  Ir  Ir22  1  0.359196  0.490720  0.000000  1
  Ir  Ir23  1  0.490720  0.359196  0.000000  1
  Ir  Ir24  1  0.868477  0.509280  0.000000  1
  Ir  Ir25  1  0.640804  0.131523  0.000000  1
  Ir  Ir26  1  0.000000  0.287163  0.000000  1
  Ir  Ir27  1  0.712837  0.712837  0.000000  1
  Ir  Ir28  1  0.287163  0.000000  0.000000  1
  Ir  Ir29  1  0.623839  0.802860  0.500000  1
  Ir  Ir30  1  0.197140  0.820980  0.500000  1
  Ir  Ir31  1  0.179020  0.376161  0.500000  1
  Ir  Ir32  1  0.376161  0.179020  0.500000  1
  Ir  Ir33  1  0.802860  0.623839  0.500000  1
  Ir  Ir34  1  0.820980  0.197140  0.500000  1
  Ir  Ir35  1  0.000000  0.000000  0.500000  1
