# generated using pymatgen
data_YbH5Rh
_symmetry_space_group_name_H-M   'P 1'
_cell_length_a   4.38049100
_cell_length_b   4.85452300
_cell_length_c   11.73986700
_cell_angle_alpha   90.00000000
_cell_angle_beta   90.00000000
_cell_angle_gamma   90.00000000
_symmetry_Int_Tables_number   1
_chemical_formula_structural   YbH5Rh
_chemical_formula_sum   'Yb4 H20 Rh4'
_cell_volume   249.65055294
_cell_formula_units_Z   4
loop_
 _symmetry_equiv_pos_site_id
 _symmetry_equiv_pos_as_xyz
  1  'x, y, z'
loop_
 _atom_site_type_symbol
 _atom_site_label
 _atom_site_symmetry_multiplicity
 _atom_site_fract_x
 _atom_site_fract_y
 _atom_site_fract_z
 _atom_site_occupancy
  Yb  Yb0  1  0.728366  0.654199  0.849361  1
  Yb  Yb1  1  0.228366  0.845801  0.150639  1
  Yb  Yb2  1  0.771634  0.345801  0.349361  1
  Yb  Yb3  1  0.271634  0.154199  0.650639  1
  H  H4  1  0.454108  0.891867  0.980055  1
  H  H5  1  0.954108  0.608133  0.019945  1
  H  H6  1  0.045892  0.108133  0.480055  1
  H  H7  1  0.545892  0.391867  0.519945  1
  H  H8  1  0.152481  0.944192  0.826066  1
  H  H9  1  0.652481  0.555808  0.173934  1
  H  H10  1  0.347519  0.055808  0.326066  1
  H  H11  1  0.847519  0.444192  0.673934  1
  H  H12  1  0.708720  0.070561  0.167923  1
  H  H13  1  0.208720  0.429439  0.832077  1
  H  H14  1  0.791280  0.929439  0.667923  1
  H  H15  1  0.291280  0.570561  0.332077  1
  H  H16  1  0.608252  0.145730  0.828053  1
  H  H17  1  0.108252  0.354270  0.171947  1
  H  H18  1  0.891748  0.854270  0.328053  1
  H  H19  1  0.391748  0.645730  0.671947  1
  H  H20  1  0.990823  0.096146  0.998401  1
  H  H21  1  0.490823  0.403854  0.001599  1
  H  H22  1  0.509177  0.903854  0.498401  1
  H  H23  1  0.009177  0.596146  0.501599  1
  Rh  Rh24  1  0.319660  0.158657  0.912360  1
  Rh  Rh25  1  0.819660  0.341343  0.087640  1
  Rh  Rh26  1  0.180340  0.841343  0.412360  1
  Rh  Rh27  1  0.680340  0.658657  0.587640  1
