# generated using pymatgen
data_Nd6Ga4IrRh3
_symmetry_space_group_name_H-M   'P 1'
_cell_length_a   5.72016010
_cell_length_b   8.17839135
_cell_length_c   13.65011944
_cell_angle_alpha   90.12541959
_cell_angle_beta   89.97395051
_cell_angle_gamma   90.06654014
_symmetry_Int_Tables_number   1
_chemical_formula_structural   Nd6Ga4IrRh3
_chemical_formula_sum   'Nd12 Ga8 Ir2 Rh6'
_cell_volume   638.57387397
_cell_formula_units_Z   2
loop_
 _symmetry_equiv_pos_site_id
 _symmetry_equiv_pos_as_xyz
  1  'x, y, z'
loop_
 _atom_site_type_symbol
 _atom_site_label
 _atom_site_symmetry_multiplicity
 _atom_site_fract_x
 _atom_site_fract_y
 _atom_site_fract_z
 _atom_site_occupancy
  Nd  Nd0  1  0.632490  0.257033  0.249646  1
  Nd  Nd1  1  0.367510  0.742967  0.750354  1
  Nd  Nd2  1  0.366725  0.758331  0.249456  1
  Nd  Nd3  1  0.633275  0.241669  0.750544  1
  Nd  Nd4  1  0.148141  0.396266  0.097918  1
  Nd  Nd5  1  0.851859  0.603734  0.902082  1
  Nd  Nd6  1  0.853232  0.602522  0.597729  1
  Nd  Nd7  1  0.852945  0.897903  0.402459  1
  Nd  Nd8  1  0.146768  0.397478  0.402271  1
  Nd  Nd9  1  0.147055  0.102097  0.597541  1
  Nd  Nd10  1  0.145348  0.102177  0.901398  1
  Nd  Nd11  1  0.854652  0.897823  0.098602  1
  Ga  Ga12  1  0.134641  0.108483  0.250211  1
  Ga  Ga13  1  0.865359  0.891517  0.749789  1
  Ga  Ga14  1  0.865178  0.608159  0.250058  1
  Ga  Ga15  1  0.134822  0.391841  0.749942  1
  Ga  Ga16  1  0.631997  0.250201  0.999787  1
  Ga  Ga17  1  0.368003  0.749799  0.000213  1
  Ga  Ga18  1  0.366010  0.749981  0.499979  1
  Ga  Ga19  1  0.633990  0.250019  0.500021  1
  Ir  Ir20  1  0.358832  0.033264  0.092430  1
  Ir  Ir21  1  0.641168  0.966736  0.907570  1
  Rh  Rh22  1  0.640751  0.966893  0.591558  1
  Rh  Rh23  1  0.640786  0.532831  0.408380  1
  Rh  Rh24  1  0.359249  0.033107  0.408442  1
  Rh  Rh25  1  0.359214  0.467169  0.591620  1
  Rh  Rh26  1  0.358283  0.468218  0.908182  1
  Rh  Rh27  1  0.641717  0.531782  0.091818  1
