# generated using pymatgen
data_ErTm3(ReB6)2
_symmetry_space_group_name_H-M   'P 1'
_cell_length_a   3.64592700
_cell_length_b   9.10970800
_cell_length_c   11.47736700
_cell_angle_alpha   89.99958278
_cell_angle_beta   90.00000000
_cell_angle_gamma   90.00000000
_symmetry_Int_Tables_number   1
_chemical_formula_structural   ErTm3(ReB6)2
_chemical_formula_sum   'Er2 Tm6 Re4 B24'
_cell_volume   381.20158182
_cell_formula_units_Z   2
loop_
 _symmetry_equiv_pos_site_id
 _symmetry_equiv_pos_as_xyz
  1  'x, y, z'
loop_
 _atom_site_type_symbol
 _atom_site_label
 _atom_site_symmetry_multiplicity
 _atom_site_fract_x
 _atom_site_fract_y
 _atom_site_fract_z
 _atom_site_occupancy
  Er  Er0  1  0.000000  0.323587  0.413831  1
  Er  Er1  1  0.000000  0.676413  0.586169  1
  Tm  Tm2  1  0.000000  0.823697  0.086133  1
  Tm  Tm3  1  0.000000  0.176303  0.913867  1
  Tm  Tm4  1  0.000000  0.943624  0.370274  1
  Tm  Tm5  1  0.000000  0.056376  0.629726  1
  Tm  Tm6  1  0.000000  0.443648  0.129611  1
  Tm  Tm7  1  0.000000  0.556352  0.870389  1
  Re  Re8  1  0.000000  0.639303  0.320646  1
  Re  Re9  1  0.000000  0.360697  0.679354  1
  Re  Re10  1  0.000000  0.139080  0.179085  1
  Re  Re11  1  0.000000  0.860920  0.820915  1
  B  B12  1  0.500000  0.553447  0.433249  1
  B  B13  1  0.500000  0.446553  0.566751  1
  B  B14  1  0.500000  0.053326  0.066590  1
  B  B15  1  0.500000  0.946674  0.933410  1
  B  B16  1  0.500000  0.750322  0.419329  1
  B  B17  1  0.500000  0.249678  0.580671  1
  B  B18  1  0.500000  0.250253  0.080471  1
  B  B19  1  0.500000  0.749747  0.919529  1
  B  B20  1  0.500000  0.793306  0.265396  1
  B  B21  1  0.500000  0.206694  0.734604  1
  B  B22  1  0.500000  0.293228  0.234438  1
  B  B23  1  0.500000  0.706772  0.765562  1
  B  B24  1  0.500000  0.631295  0.184969  1
  B  B25  1  0.500000  0.368705  0.815031  1
  B  B26  1  0.500000  0.131158  0.314876  1
  B  B27  1  0.500000  0.868842  0.685124  1
  B  B28  1  0.500000  0.981895  0.212075  1
  B  B29  1  0.500000  0.018105  0.787925  1
  B  B30  1  0.500000  0.482042  0.287782  1
  B  B31  1  0.500000  0.517958  0.712218  1
  B  B32  1  0.500000  0.599837  0.027927  1
  B  B33  1  0.500000  0.400163  0.972073  1
  B  B34  1  0.500000  0.099641  0.472130  1
  B  B35  1  0.500000  0.900359  0.527870  1
