# generated using pymatgen
data_TcIr4OsW2
_symmetry_space_group_name_H-M   'P 1'
_cell_length_a   5.56903699
_cell_length_b   5.51474694
_cell_length_c   4.42517000
_cell_angle_alpha   90.00000000
_cell_angle_beta   90.00000000
_cell_angle_gamma   119.67804735
_symmetry_Int_Tables_number   1
_chemical_formula_structural   TcIr4OsW2
_chemical_formula_sum   'Tc1 Ir4 Os1 W2'
_cell_volume   118.07721526
_cell_formula_units_Z   1
loop_
 _symmetry_equiv_pos_site_id
 _symmetry_equiv_pos_as_xyz
  1  'x, y, z'
loop_
 _atom_site_type_symbol
 _atom_site_label
 _atom_site_symmetry_multiplicity
 _atom_site_fract_x
 _atom_site_fract_y
 _atom_site_fract_z
 _atom_site_occupancy
  Tc  Tc0  1  0.668053  0.834026  0.750000  1
  Ir  Ir1  1  0.833178  0.164945  0.250000  1
  Ir  Ir2  1  0.167723  0.331059  0.750000  1
  Ir  Ir3  1  0.167723  0.836665  0.750000  1
  Ir  Ir4  1  0.833178  0.668235  0.250000  1
  Os  Os5  1  0.330909  0.165455  0.250000  1
  W  W6  1  0.664051  0.332025  0.750000  1
  W  W7  1  0.335182  0.667592  0.250000  1
