# generated using pymatgen
data_Mg2Fe3Ni6Mo3P7
_symmetry_space_group_name_H-M   'P 1'
_cell_length_a   3.61720800
_cell_length_b   9.12613907
_cell_length_c   9.12613900
_cell_angle_alpha   120.00000339
_cell_angle_beta   90.00000000
_cell_angle_gamma   90.00000000
_symmetry_Int_Tables_number   1
_chemical_formula_structural   Mg2Fe3Ni6Mo3P7
_chemical_formula_sum   'Mg2 Fe3 Ni6 Mo3 P7'
_cell_volume   260.90251234
_cell_formula_units_Z   1
loop_
 _symmetry_equiv_pos_site_id
 _symmetry_equiv_pos_as_xyz
  1  'x, y, z'
loop_
 _atom_site_type_symbol
 _atom_site_label
 _atom_site_symmetry_multiplicity
 _atom_site_fract_x
 _atom_site_fract_y
 _atom_site_fract_z
 _atom_site_occupancy
  Mg  Mg0  1  0.000000  0.666667  0.333333  1
  Mg  Mg1  1  0.500000  0.333333  0.666667  1
  Fe  Fe2  1  0.500000  0.949347  0.390151  1
  Fe  Fe3  1  0.500000  0.440804  0.050653  1
  Fe  Fe4  1  0.500000  0.609849  0.559196  1
  Ni  Ni5  1  0.000000  0.560390  0.926977  1
  Ni  Ni6  1  0.000000  0.366586  0.439610  1
  Ni  Ni7  1  0.000000  0.073023  0.633414  1
  Ni  Ni8  1  0.000000  0.874116  0.162958  1
  Ni  Ni9  1  0.000000  0.288842  0.125884  1
  Ni  Ni10  1  0.000000  0.837042  0.711158  1
  Mo  Mo11  1  0.500000  0.779924  0.906330  1
  Mo  Mo12  1  0.500000  0.126406  0.220076  1
  Mo  Mo13  1  0.500000  0.093670  0.873594  1
  P  P14  1  0.500000  0.710042  0.131347  1
  P  P15  1  0.500000  0.421304  0.289958  1
  P  P16  1  0.500000  0.868653  0.578696  1
  P  P17  1  0.000000  0.000000  0.000000  1
  P  P18  1  0.000000  0.585725  0.695787  1
  P  P19  1  0.000000  0.110062  0.414275  1
  P  P20  1  0.000000  0.304213  0.889938  1
