# generated using pymatgen
data_CaSm3(ZnSi3)2
_symmetry_space_group_name_H-M   'P 1'
_cell_length_a   4.15122400
_cell_length_b   4.18479100
_cell_length_c   14.07500500
_cell_angle_alpha   90.00000000
_cell_angle_beta   90.00000000
_cell_angle_gamma   90.00000000
_symmetry_Int_Tables_number   1
_chemical_formula_structural   CaSm3(ZnSi3)2
_chemical_formula_sum   'Ca1 Sm3 Zn2 Si6'
_cell_volume   244.51105490
_cell_formula_units_Z   1
loop_
 _symmetry_equiv_pos_site_id
 _symmetry_equiv_pos_as_xyz
  1  'x, y, z'
loop_
 _atom_site_type_symbol
 _atom_site_label
 _atom_site_symmetry_multiplicity
 _atom_site_fract_x
 _atom_site_fract_y
 _atom_site_fract_z
 _atom_site_occupancy
  Ca  Ca0  1  0.500000  0.500000  0.003072  1
  Sm  Sm1  1  0.000000  0.000000  0.504850  1
  Sm  Sm2  1  0.500000  0.000000  0.745655  1
  Sm  Sm3  1  0.000000  0.500000  0.246552  1
  Zn  Zn4  1  0.000000  0.000000  0.915337  1
  Zn  Zn5  1  0.500000  0.500000  0.415454  1
  Si  Si6  1  0.000000  0.500000  0.831992  1
  Si  Si7  1  0.500000  0.000000  0.333764  1
  Si  Si8  1  0.000000  0.000000  0.084927  1
  Si  Si9  1  0.500000  0.500000  0.582747  1
  Si  Si10  1  0.500000  0.000000  0.168577  1
  Si  Si11  1  0.000000  0.500000  0.667071  1
