# generated using pymatgen
data_YTm5(Co2Si)6
_symmetry_space_group_name_H-M   'P 1'
_cell_length_a   5.17756600
_cell_length_b   5.17756627
_cell_length_c   14.69736100
_cell_angle_alpha   90.00000000
_cell_angle_beta   90.00000000
_cell_angle_gamma   119.99999826
_symmetry_Int_Tables_number   1
_chemical_formula_structural   YTm5(Co2Si)6
_chemical_formula_sum   'Y1 Tm5 Co12 Si6'
_cell_volume   341.20965454
_cell_formula_units_Z   1
loop_
 _symmetry_equiv_pos_site_id
 _symmetry_equiv_pos_as_xyz
  1  'x, y, z'
loop_
 _atom_site_type_symbol
 _atom_site_label
 _atom_site_symmetry_multiplicity
 _atom_site_fract_x
 _atom_site_fract_y
 _atom_site_fract_z
 _atom_site_occupancy
  Y  Y0  1  0.333333  0.666667  0.250000  1
  Tm  Tm1  1  0.666667  0.333333  0.961275  1
  Tm  Tm2  1  0.666667  0.333333  0.538725  1
  Tm  Tm3  1  0.333333  0.666667  0.037713  1
  Tm  Tm4  1  0.666667  0.333333  0.750000  1
  Tm  Tm5  1  0.333333  0.666667  0.462287  1
  Co  Co6  1  0.167114  0.334228  0.869507  1
  Co  Co7  1  0.167114  0.334228  0.630493  1
  Co  Co8  1  0.665772  0.832886  0.869507  1
  Co  Co9  1  0.334639  0.167320  0.370626  1
  Co  Co10  1  0.832680  0.665361  0.370626  1
  Co  Co11  1  0.832680  0.167320  0.370626  1
  Co  Co12  1  0.832680  0.167320  0.129374  1
  Co  Co13  1  0.334639  0.167320  0.129374  1
  Co  Co14  1  0.665772  0.832886  0.630493  1
  Co  Co15  1  0.167114  0.832886  0.630493  1
  Co  Co16  1  0.832680  0.665361  0.129374  1
  Co  Co17  1  0.167114  0.832886  0.869507  1
  Si  Si18  1  0.666667  0.333333  0.250000  1
  Si  Si19  1  0.000000  0.000000  0.500233  1
  Si  Si20  1  0.000000  0.000000  0.250000  1
  Si  Si21  1  0.000000  0.000000  0.750000  1
  Si  Si22  1  0.333333  0.666667  0.750000  1
  Si  Si23  1  0.000000  0.000000  0.999767  1
