# generated using pymatgen
data_Er3Tm7(GaSb)4
_symmetry_space_group_name_H-M   'P 1'
_cell_length_a   8.54385868
_cell_length_b   8.54803773
_cell_length_c   7.83029542
_cell_angle_alpha   90.01571668
_cell_angle_beta   90.01858149
_cell_angle_gamma   125.50529416
_symmetry_Int_Tables_number   1
_chemical_formula_structural   Er3Tm7(GaSb)4
_chemical_formula_sum   'Er3 Tm7 Ga4 Sb4'
_cell_volume   465.53886943
_cell_formula_units_Z   1
loop_
 _symmetry_equiv_pos_site_id
 _symmetry_equiv_pos_as_xyz
  1  'x, y, z'
loop_
 _atom_site_type_symbol
 _atom_site_label
 _atom_site_symmetry_multiplicity
 _atom_site_fract_x
 _atom_site_fract_y
 _atom_site_fract_z
 _atom_site_occupancy
  Er  Er0  1  0.539210  0.797847  0.167191  1
  Er  Er1  1  0.297787  0.039112  0.332878  1
  Er  Er2  1  0.202067  0.460766  0.832741  1
  Tm  Tm3  1  0.960902  0.702450  0.667029  1
  Tm  Tm4  1  0.702429  0.960949  0.666884  1
  Tm  Tm5  1  0.460973  0.202443  0.833129  1
  Tm  Tm6  1  0.797636  0.539090  0.166865  1
  Tm  Tm7  1  0.039007  0.297452  0.333121  1
  Tm  Tm8  1  0.500266  0.500137  0.500110  1
  Tm  Tm9  1  0.999925  0.999839  0.999800  1
  Ga  Ga10  1  0.627204  0.626872  0.873178  1
  Ga  Ga11  1  0.126624  0.126578  0.626605  1
  Ga  Ga12  1  0.873100  0.873084  0.373675  1
  Ga  Ga13  1  0.373247  0.373082  0.126598  1
  Sb  Sb14  1  0.293986  0.705416  0.500200  1
  Sb  Sb15  1  0.205148  0.794342  0.999515  1
  Sb  Sb16  1  0.706443  0.294712  0.500385  1
  Sb  Sb17  1  0.794045  0.205831  0.000098  1
