# generated using pymatgen
data_Tb2Ho6Cd2PdPt
_symmetry_space_group_name_H-M   'P 1'
_cell_length_a   9.67351510
_cell_length_b   9.67351442
_cell_length_c   9.69936200
_cell_angle_alpha   59.91157169
_cell_angle_beta   59.91157402
_cell_angle_gamma   59.85980359
_symmetry_Int_Tables_number   1
_chemical_formula_structural   Tb2Ho6Cd2PdPt
_chemical_formula_sum   'Tb4 Ho12 Cd4 Pd2 Pt2'
_cell_volume   640.25646569
_cell_formula_units_Z   2
loop_
 _symmetry_equiv_pos_site_id
 _symmetry_equiv_pos_as_xyz
  1  'x, y, z'
loop_
 _atom_site_type_symbol
 _atom_site_label
 _atom_site_symmetry_multiplicity
 _atom_site_fract_x
 _atom_site_fract_y
 _atom_site_fract_z
 _atom_site_occupancy
  Tb  Tb0  1  0.352930  0.352930  0.352737  1
  Tb  Tb1  1  0.352930  0.352930  0.941405  1
  Tb  Tb2  1  0.354294  0.937808  0.353950  1
  Tb  Tb3  1  0.937808  0.354294  0.353950  1
  Ho  Ho4  1  0.812884  0.188471  0.189536  1
  Ho  Ho5  1  0.188471  0.812884  0.809109  1
  Ho  Ho6  1  0.188471  0.812884  0.189536  1
  Ho  Ho7  1  0.812884  0.188471  0.809109  1
  Ho  Ho8  1  0.189701  0.189701  0.810299  1
  Ho  Ho9  1  0.811880  0.811880  0.188120  1
  Ho  Ho10  1  0.935027  0.564156  0.566118  1
  Ho  Ho11  1  0.564156  0.935027  0.934699  1
  Ho  Ho12  1  0.564156  0.935027  0.566118  1
  Ho  Ho13  1  0.935027  0.564156  0.934699  1
  Ho  Ho14  1  0.566601  0.566601  0.933399  1
  Ho  Ho15  1  0.936366  0.936366  0.563634  1
  Cd  Cd16  1  0.581749  0.581749  0.583075  1
  Cd  Cd17  1  0.581749  0.581749  0.253426  1
  Cd  Cd18  1  0.581927  0.252332  0.582871  1
  Cd  Cd19  1  0.252332  0.581927  0.582871  1
  Pd  Pd20  1  0.142322  0.569835  0.143921  1
  Pd  Pd21  1  0.569835  0.142322  0.143921  1
  Pt  Pt22  1  0.143249  0.143249  0.144937  1
  Pt  Pt23  1  0.143249  0.143249  0.568566  1
