# generated using pymatgen
data_K2Hf3ZrSe8
_symmetry_space_group_name_H-M   'P 1'
_cell_length_a   6.53606600
_cell_length_b   7.55682800
_cell_length_c   16.50037900
_cell_angle_alpha   90.00000000
_cell_angle_beta   90.00000000
_cell_angle_gamma   90.00000000
_symmetry_Int_Tables_number   1
_chemical_formula_structural   K2Hf3ZrSe8
_chemical_formula_sum   'K4 Hf6 Zr2 Se16'
_cell_volume   814.98550776
_cell_formula_units_Z   2
loop_
 _symmetry_equiv_pos_site_id
 _symmetry_equiv_pos_as_xyz
  1  'x, y, z'
loop_
 _atom_site_type_symbol
 _atom_site_label
 _atom_site_symmetry_multiplicity
 _atom_site_fract_x
 _atom_site_fract_y
 _atom_site_fract_z
 _atom_site_occupancy
  K  K0  1  0.342905  0.000000  0.000000  1
  K  K1  1  0.658454  0.500000  0.500000  1
  K  K2  1  0.027740  0.000000  0.500000  1
  K  K3  1  0.972402  0.500000  0.000000  1
  Hf  Hf4  1  0.000689  0.000000  0.248966  1
  Hf  Hf5  1  0.000689  0.000000  0.751034  1
  Hf  Hf6  1  0.500107  0.251406  0.250055  1
  Hf  Hf7  1  0.500107  0.748594  0.749945  1
  Hf  Hf8  1  0.500107  0.748594  0.250055  1
  Hf  Hf9  1  0.500107  0.251406  0.749945  1
  Zr  Zr10  1  0.999257  0.500000  0.251068  1
  Zr  Zr11  1  0.999257  0.500000  0.748932  1
  Se  Se12  1  0.831719  0.245497  0.348257  1
  Se  Se13  1  0.831719  0.754503  0.651743  1
  Se  Se14  1  0.168107  0.751617  0.151728  1
  Se  Se15  1  0.168107  0.248383  0.848272  1
  Se  Se16  1  0.168107  0.248383  0.151728  1
  Se  Se17  1  0.168107  0.751617  0.848272  1
  Se  Se18  1  0.831719  0.754503  0.348257  1
  Se  Se19  1  0.831719  0.245497  0.651743  1
  Se  Se20  1  0.669347  0.000000  0.153630  1
  Se  Se21  1  0.669347  0.000000  0.846370  1
  Se  Se22  1  0.335220  0.500000  0.347867  1
  Se  Se23  1  0.335220  0.500000  0.652133  1
  Se  Se24  1  0.335576  0.000000  0.345251  1
  Se  Se25  1  0.335576  0.000000  0.654749  1
  Se  Se26  1  0.659293  0.500000  0.153023  1
  Se  Se27  1  0.659293  0.500000  0.846977  1
