# generated using pymatgen
data_GdBiCl6
_symmetry_space_group_name_H-M   'P 1'
_cell_length_a   7.08972782
_cell_length_b   7.08972715
_cell_length_c   7.19402700
_cell_angle_alpha   80.30171131
_cell_angle_beta   80.30171223
_cell_angle_gamma   119.84018543
_symmetry_Int_Tables_number   1
_chemical_formula_structural   GdBiCl6
_chemical_formula_sum   'Gd1 Bi1 Cl6'
_cell_volume   295.41216034
_cell_formula_units_Z   1
loop_
 _symmetry_equiv_pos_site_id
 _symmetry_equiv_pos_as_xyz
  1  'x, y, z'
loop_
 _atom_site_type_symbol
 _atom_site_label
 _atom_site_symmetry_multiplicity
 _atom_site_fract_x
 _atom_site_fract_y
 _atom_site_fract_z
 _atom_site_occupancy
  Gd  Gd0  1  0.833464  0.166536  0.000000  1
  Bi  Bi1  1  0.166649  0.833351  0.000000  1
  Cl  Cl2  1  0.945592  0.571011  0.774124  1
  Cl  Cl3  1  0.428989  0.054408  0.225876  1
  Cl  Cl4  1  0.796153  0.802267  0.229943  1
  Cl  Cl5  1  0.197733  0.203847  0.770057  1
  Cl  Cl6  1  0.582914  0.951493  0.774426  1
  Cl  Cl7  1  0.048507  0.417086  0.225574  1
