# generated using pymatgen
data_Sc12GaNi4Rh
_symmetry_space_group_name_H-M   'P 1'
_cell_length_a   7.67641791
_cell_length_b   7.67641709
_cell_length_c   7.67641707
_cell_angle_alpha   110.78001583
_cell_angle_beta   110.88134728
_cell_angle_gamma   106.78524966
_symmetry_Int_Tables_number   1
_chemical_formula_structural   Sc12GaNi4Rh
_chemical_formula_sum   'Sc12 Ga1 Ni4 Rh1'
_cell_volume   347.64924989
_cell_formula_units_Z   1
loop_
 _symmetry_equiv_pos_site_id
 _symmetry_equiv_pos_as_xyz
  1  'x, y, z'
loop_
 _atom_site_type_symbol
 _atom_site_label
 _atom_site_symmetry_multiplicity
 _atom_site_fract_x
 _atom_site_fract_y
 _atom_site_fract_z
 _atom_site_occupancy
  Sc  Sc0  1  0.424699  0.230272  0.194426  1
  Sc  Sc1  1  0.575301  0.769728  0.805574  1
  Sc  Sc2  1  0.035847  0.230272  0.805574  1
  Sc  Sc3  1  0.964153  0.769728  0.194426  1
  Sc  Sc4  1  0.323681  0.619578  0.295896  1
  Sc  Sc5  1  0.676319  0.380422  0.704104  1
  Sc  Sc6  1  0.323681  0.027785  0.704104  1
  Sc  Sc7  1  0.676319  0.972215  0.295896  1
  Sc  Sc8  1  0.183849  0.282674  0.466523  1
  Sc  Sc9  1  0.816151  0.717325  0.533477  1
  Sc  Sc10  1  0.183849  0.717325  0.901174  1
  Sc  Sc11  1  0.816151  0.282674  0.098826  1
  Ga  Ga12  1  0.500000  0.500000  0.000000  1
  Ni  Ni13  1  0.353957  0.000000  0.353957  1
  Ni  Ni14  1  0.646043  0.000000  0.646043  1
  Ni  Ni15  1  0.128826  0.628826  0.500000  1
  Ni  Ni16  1  0.871174  0.371174  0.500000  1
  Rh  Rh17  1  0.000000  0.000000  0.000000  1
