# generated using pymatgen
data_Yb2Hg(ClO)2
_symmetry_space_group_name_H-M   'P 1'
_cell_length_a   3.59583465
_cell_length_b   6.35743870
_cell_length_c   6.62514663
_cell_angle_alpha   93.93091488
_cell_angle_beta   105.74627497
_cell_angle_gamma   106.42770891
_symmetry_Int_Tables_number   1
_chemical_formula_structural   Yb2Hg(ClO)2
_chemical_formula_sum   'Yb2 Hg1 Cl2 O2'
_cell_volume   138.07589813
_cell_formula_units_Z   1
loop_
 _symmetry_equiv_pos_site_id
 _symmetry_equiv_pos_as_xyz
  1  'x, y, z'
loop_
 _atom_site_type_symbol
 _atom_site_label
 _atom_site_symmetry_multiplicity
 _atom_site_fract_x
 _atom_site_fract_y
 _atom_site_fract_z
 _atom_site_occupancy
  Yb  Yb0  1  0.405018  0.573599  0.236437  1
  Yb  Yb1  1  0.594983  0.426402  0.763564  1
  Hg  Hg2  1  0.000000  0.000000  0.000000  1
  Cl  Cl3  1  0.820683  0.247606  0.393757  1
  Cl  Cl4  1  0.179317  0.752394  0.606242  1
  O  O5  1  0.875303  0.683918  0.066684  1
  O  O6  1  0.124698  0.316082  0.933317  1
