# generated using pymatgen
data_TmHf4Sc7Ga20
_symmetry_space_group_name_H-M   'P 1'
_cell_length_a   5.74574170
_cell_length_b   9.20627162
_cell_length_c   11.12847800
_cell_angle_alpha   89.94068947
_cell_angle_beta   90.02824033
_cell_angle_gamma   90.06910453
_symmetry_Int_Tables_number   1
_chemical_formula_structural   TmHf4Sc7Ga20
_chemical_formula_sum   'Tm1 Hf4 Sc7 Ga20'
_cell_volume   588.66071414
_cell_formula_units_Z   1
loop_
 _symmetry_equiv_pos_site_id
 _symmetry_equiv_pos_as_xyz
  1  'x, y, z'
loop_
 _atom_site_type_symbol
 _atom_site_label
 _atom_site_symmetry_multiplicity
 _atom_site_fract_x
 _atom_site_fract_y
 _atom_site_fract_z
 _atom_site_occupancy
  Tm  Tm0  1  0.613307  0.500090  0.853095  1
  Hf  Hf1  1  0.857376  0.750342  0.069704  1
  Hf  Hf2  1  0.642328  0.749419  0.569087  1
  Hf  Hf3  1  0.141966  0.250958  0.930785  1
  Hf  Hf4  1  0.357233  0.249717  0.430539  1
  Sc  Sc5  1  0.886872  0.500273  0.353021  1
  Sc  Sc6  1  0.613450  0.000275  0.853351  1
  Sc  Sc7  1  0.113421  0.000359  0.645941  1
  Sc  Sc8  1  0.386611  0.499694  0.147956  1
  Sc  Sc9  1  0.113468  0.499549  0.646542  1
  Sc  Sc10  1  0.386233  0.000349  0.147456  1
  Sc  Sc11  1  0.886946  0.999143  0.353176  1
  Ga  Ga12  1  0.873715  0.050403  0.093480  1
  Ga  Ga13  1  0.627245  0.447877  0.590076  1
  Ga  Ga14  1  0.123918  0.552916  0.908316  1
  Ga  Ga15  1  0.373357  0.948885  0.406896  1
  Ga  Ga16  1  0.127314  0.950440  0.907188  1
  Ga  Ga17  1  0.372902  0.551008  0.406713  1
  Ga  Ga18  1  0.873526  0.448544  0.094539  1
  Ga  Ga19  1  0.626786  0.050400  0.592980  1
  Ga  Ga20  1  0.152154  0.750011  0.256619  1
  Ga  Ga21  1  0.345952  0.753112  0.755404  1
  Ga  Ga22  1  0.851447  0.246715  0.741556  1
  Ga  Ga23  1  0.651896  0.249629  0.244054  1
  Ga  Ga24  1  0.393971  0.751301  0.003131  1
  Ga  Ga25  1  0.104544  0.749840  0.502069  1
  Ga  Ga26  1  0.602854  0.246487  0.001125  1
  Ga  Ga27  1  0.895885  0.249466  0.497183  1
  Ga  Ga28  1  0.623307  0.750022  0.293417  1
  Ga  Ga29  1  0.880390  0.754133  0.792081  1
  Ga  Ga30  1  0.376227  0.248908  0.705776  1
  Ga  Ga31  1  0.123399  0.249735  0.206743  1
