# generated using pymatgen
data_DyHo(Lu4Pb3)2
_symmetry_space_group_name_H-M   'P 1'
_cell_length_a   8.89615400
_cell_length_b   8.92333902
_cell_length_c   6.51167900
_cell_angle_alpha   90.00000000
_cell_angle_beta   90.00000000
_cell_angle_gamma   119.89927339
_symmetry_Int_Tables_number   1
_chemical_formula_structural   DyHo(Lu4Pb3)2
_chemical_formula_sum   'Dy1 Ho1 Lu8 Pb6'
_cell_volume   448.11884754
_cell_formula_units_Z   1
loop_
 _symmetry_equiv_pos_site_id
 _symmetry_equiv_pos_as_xyz
  1  'x, y, z'
loop_
 _atom_site_type_symbol
 _atom_site_label
 _atom_site_symmetry_multiplicity
 _atom_site_fract_x
 _atom_site_fract_y
 _atom_site_fract_z
 _atom_site_occupancy
  Dy  Dy0  1  0.765239  0.000000  0.750000  1
  Ho  Ho1  1  0.233204  0.000000  0.250000  1
  Lu  Lu2  1  0.234857  0.235610  0.750000  1
  Lu  Lu3  1  0.334245  0.667781  0.000068  1
  Lu  Lu4  1  0.666465  0.332219  0.000068  1
  Lu  Lu5  1  0.999246  0.764390  0.750000  1
  Lu  Lu6  1  0.764630  0.763664  0.250000  1
  Lu  Lu7  1  0.000967  0.236336  0.250000  1
  Lu  Lu8  1  0.334245  0.667781  0.499932  1
  Lu  Lu9  1  0.666465  0.332219  0.499932  1
  Pb  Pb10  1  0.002138  0.398128  0.750000  1
  Pb  Pb11  1  0.395474  0.396053  0.250000  1
  Pb  Pb12  1  0.605890  0.000000  0.250000  1
  Pb  Pb13  1  0.604009  0.601872  0.750000  1
  Pb  Pb14  1  0.393506  0.000000  0.750000  1
  Pb  Pb15  1  0.999421  0.603947  0.250000  1
