# generated using pymatgen
data_EuGaPIr2
_symmetry_space_group_name_H-M   'P 1'
_cell_length_a   6.00118199
_cell_length_b   6.00118177
_cell_length_c   6.00118279
_cell_angle_alpha   139.78141583
_cell_angle_beta   139.78141000
_cell_angle_gamma   58.18534633
_symmetry_Int_Tables_number   1
_chemical_formula_structural   EuGaPIr2
_chemical_formula_sum   'Eu1 Ga1 P1 Ir2'
_cell_volume   89.29798567
_cell_formula_units_Z   1
loop_
 _symmetry_equiv_pos_site_id
 _symmetry_equiv_pos_as_xyz
  1  'x, y, z'
loop_
 _atom_site_type_symbol
 _atom_site_label
 _atom_site_symmetry_multiplicity
 _atom_site_fract_x
 _atom_site_fract_y
 _atom_site_fract_z
 _atom_site_occupancy
  Eu  Eu0  1  0.996538  0.996538  0.000000  1
  Ga  Ga1  1  0.618786  0.618786  0.000000  1
  P  P2  1  0.367249  0.367249  0.000000  1
  Ir  Ir3  1  0.258714  0.758714  0.500000  1
  Ir  Ir4  1  0.758714  0.258714  0.500000  1
