# generated using pymatgen
data_TbDy7Sc12Si15Sn
_symmetry_space_group_name_H-M   'P 1'
_cell_length_a   7.13690082
_cell_length_b   7.41918793
_cell_length_c   14.07749553
_cell_angle_alpha   90.01565009
_cell_angle_beta   89.60411277
_cell_angle_gamma   90.01972351
_symmetry_Int_Tables_number   1
_chemical_formula_structural   TbDy7Sc12Si15Sn
_chemical_formula_sum   'Tb1 Dy7 Sc12 Si15 Sn1'
_cell_volume   745.38564179
_cell_formula_units_Z   1
loop_
 _symmetry_equiv_pos_site_id
 _symmetry_equiv_pos_as_xyz
  1  'x, y, z'
loop_
 _atom_site_type_symbol
 _atom_site_label
 _atom_site_symmetry_multiplicity
 _atom_site_fract_x
 _atom_site_fract_y
 _atom_site_fract_z
 _atom_site_occupancy
  Tb  Tb0  1  0.500000  0.683149  0.599893  1
  Dy  Dy1  1  0.012641  0.175587  0.097007  1
  Dy  Dy2  1  0.987455  0.824970  0.903850  1
  Dy  Dy3  1  0.488235  0.675711  0.903611  1
  Dy  Dy4  1  0.987606  0.831089  0.598491  1
  Dy  Dy5  1  0.511986  0.324310  0.097217  1
  Dy  Dy6  1  0.007107  0.169404  0.398977  1
  Dy  Dy7  1  0.513532  0.321409  0.399505  1
  Sc  Sc8  1  0.161566  0.502151  0.755287  1
  Sc  Sc9  1  0.838226  0.498078  0.249247  1
  Sc  Sc10  1  0.338621  0.002204  0.249312  1
  Sc  Sc11  1  0.662649  0.997807  0.751566  1
  Sc  Sc12  1  0.341555  0.162868  0.630547  1
  Sc  Sc13  1  0.665176  0.825082  0.372837  1
  Sc  Sc14  1  0.165138  0.683134  0.369606  1
  Sc  Sc15  1  0.669068  0.823292  0.124223  1
  Sc  Sc16  1  0.822082  0.323073  0.626527  1
  Sc  Sc17  1  0.330069  0.175673  0.875462  1
  Sc  Sc18  1  0.830624  0.323431  0.875613  1
  Sc  Sc19  1  0.169348  0.676629  0.125024  1
  Si  Si20  1  0.034063  0.119658  0.751126  1
  Si  Si21  1  0.964269  0.883599  0.247261  1
  Si  Si22  1  0.466272  0.617116  0.248650  1
  Si  Si23  1  0.532434  0.383812  0.751899  1
  Si  Si24  1  0.285416  0.871413  0.752118  1
  Si  Si25  1  0.713099  0.125564  0.247912  1
  Si  Si26  1  0.212832  0.374038  0.249279  1
  Si  Si27  1  0.789004  0.626471  0.751396  1
  Si  Si28  1  0.831351  0.539033  0.458470  1
  Si  Si29  1  0.340051  0.964315  0.460046  1
  Si  Si30  1  0.843278  0.534817  0.039614  1
  Si  Si31  1  0.659895  0.037291  0.538063  1
  Si  Si32  1  0.156326  0.464710  0.961377  1
  Si  Si33  1  0.656121  0.035360  0.960635  1
  Si  Si34  1  0.343029  0.964991  0.039785  1
  Sn  Sn35  1  0.169876  0.458760  0.538571  1
