# generated using pymatgen
data_Hf4Co7Si5Ge
_symmetry_space_group_name_H-M   'P 1'
_cell_length_a   6.69638958
_cell_length_b   6.69638911
_cell_length_c   6.69638934
_cell_angle_alpha   109.52847197
_cell_angle_beta   109.52847040
_cell_angle_gamma   109.35677411
_symmetry_Int_Tables_number   1
_chemical_formula_structural   Hf4Co7Si5Ge
_chemical_formula_sum   'Hf4 Co7 Si5 Ge1'
_cell_volume   231.15267939
_cell_formula_units_Z   1
loop_
 _symmetry_equiv_pos_site_id
 _symmetry_equiv_pos_as_xyz
  1  'x, y, z'
loop_
 _atom_site_type_symbol
 _atom_site_label
 _atom_site_symmetry_multiplicity
 _atom_site_fract_x
 _atom_site_fract_y
 _atom_site_fract_z
 _atom_site_occupancy
  Hf  Hf0  1  0.490507  0.490507  0.488905  1
  Hf  Hf1  1  0.001603  0.001603  0.511095  1
  Hf  Hf2  1  0.001603  0.490507  0.000000  1
  Hf  Hf3  1  0.490507  0.001603  0.000000  1
  Co  Co4  1  0.499130  0.750835  0.251705  1
  Co  Co5  1  0.247425  0.499130  0.748295  1
  Co  Co6  1  0.748335  0.248335  0.500000  1
  Co  Co7  1  0.750835  0.499130  0.251705  1
  Co  Co8  1  0.499130  0.247425  0.748295  1
  Co  Co9  1  0.248335  0.748335  0.500000  1
  Co  Co10  1  0.016589  0.016589  0.000000  1
  Si  Si11  1  0.996608  0.321727  0.325119  1
  Si  Si12  1  0.321727  0.996608  0.325119  1
  Si  Si13  1  0.329904  0.329904  0.000000  1
  Si  Si14  1  0.996608  0.671489  0.674881  1
  Si  Si15  1  0.671489  0.996608  0.674881  1
  Ge  Ge16  1  0.689663  0.689663  0.000000  1
