# generated using pymatgen
data_ErSc3Al18Ir5Pd
_symmetry_space_group_name_H-M   'P 1'
_cell_length_a   7.50874352
_cell_length_b   7.50391280
_cell_length_c   9.34723106
_cell_angle_alpha   89.96870301
_cell_angle_beta   89.97777447
_cell_angle_gamma   119.67318568
_symmetry_Int_Tables_number   1
_chemical_formula_structural   ErSc3Al18Ir5Pd
_chemical_formula_sum   'Er1 Sc3 Al18 Ir5 Pd1'
_cell_volume   457.60344755
_cell_formula_units_Z   1
loop_
 _symmetry_equiv_pos_site_id
 _symmetry_equiv_pos_as_xyz
  1  'x, y, z'
loop_
 _atom_site_type_symbol
 _atom_site_label
 _atom_site_symmetry_multiplicity
 _atom_site_fract_x
 _atom_site_fract_y
 _atom_site_fract_z
 _atom_site_occupancy
  Er  Er0  1  0.328443  0.004601  0.751619  1
  Sc  Sc1  1  0.996418  0.671595  0.248460  1
  Sc  Sc2  1  0.004219  0.328086  0.751633  1
  Sc  Sc3  1  0.672073  0.996858  0.248421  1
  Al  Al4  1  0.123931  0.125003  0.248723  1
  Al  Al5  1  0.871382  0.872904  0.751486  1
  Al  Al6  1  0.997562  0.334685  0.078109  1
  Al  Al7  1  0.999274  0.662477  0.925386  1
  Al  Al8  1  0.999045  0.658229  0.577357  1
  Al  Al9  1  0.339025  0.998066  0.416342  1
  Al  Al10  1  0.997747  0.338651  0.419158  1
  Al  Al11  1  0.664139  0.001386  0.576883  1
  Al  Al12  1  0.667809  0.001819  0.925400  1
  Al  Al13  1  0.334928  0.997840  0.081321  1
  Al  Al14  1  0.334141  0.336499  0.556259  1
  Al  Al15  1  0.666268  0.666334  0.439572  1
  Al  Al16  1  0.669272  0.669347  0.057904  1
  Al  Al17  1  0.331076  0.333233  0.946395  1
  Al  Al18  1  0.339683  0.553333  0.249578  1
  Al  Al19  1  0.662514  0.450822  0.750377  1
  Al  Al20  1  0.553896  0.340682  0.249531  1
  Al  Al21  1  0.447716  0.658460  0.750424  1
  Ir  Ir22  1  0.671627  0.327453  0.000098  1
  Ir  Ir23  1  0.327954  0.672653  0.000295  1
  Ir  Ir24  1  0.327961  0.672686  0.499645  1
  Ir  Ir25  1  0.671565  0.327426  0.499786  1
  Ir  Ir26  1  0.000143  0.999469  0.000124  1
  Pd  Pd27  1  0.000189  0.999404  0.499709  1
