# generated using pymatgen
data_Zr2ZnCuRh4
_symmetry_space_group_name_H-M   'P 1'
_cell_length_a   5.48270173
_cell_length_b   5.48270037
_cell_length_c   8.46872500
_cell_angle_alpha   90.00000000
_cell_angle_beta   90.00000000
_cell_angle_gamma   99.83046550
_symmetry_Int_Tables_number   1
_chemical_formula_structural   Zr2ZnCuRh4
_chemical_formula_sum   'Zr4 Zn2 Cu2 Rh8'
_cell_volume   250.83217935
_cell_formula_units_Z   2
loop_
 _symmetry_equiv_pos_site_id
 _symmetry_equiv_pos_as_xyz
  1  'x, y, z'
loop_
 _atom_site_type_symbol
 _atom_site_label
 _atom_site_symmetry_multiplicity
 _atom_site_fract_x
 _atom_site_fract_y
 _atom_site_fract_z
 _atom_site_occupancy
  Zr  Zr0  1  0.765012  0.234988  0.500000  1
  Zr  Zr1  1  0.234988  0.765012  0.000000  1
  Zr  Zr2  1  0.234988  0.765012  0.500000  1
  Zr  Zr3  1  0.765012  0.234988  0.000000  1
  Zn  Zn4  1  0.500849  0.500849  0.750000  1
  Zn  Zn5  1  0.499151  0.499151  0.250000  1
  Cu  Cu6  1  0.000754  0.000754  0.250000  1
  Cu  Cu7  1  0.999246  0.999246  0.750000  1
  Rh  Rh8  1  0.735308  0.735308  0.000270  1
  Rh  Rh9  1  0.735308  0.735308  0.499730  1
  Rh  Rh10  1  0.264692  0.264692  0.999730  1
  Rh  Rh11  1  0.264692  0.264692  0.500270  1
  Rh  Rh12  1  0.499628  0.000364  0.750000  1
  Rh  Rh13  1  0.500372  0.999636  0.250000  1
  Rh  Rh14  1  0.000364  0.499628  0.750000  1
  Rh  Rh15  1  0.999636  0.500372  0.250000  1
