# generated using pymatgen
data_Y3Lu2TlSb2
_symmetry_space_group_name_H-M   'P 1'
_cell_length_a   6.40452900
_cell_length_b   8.90786493
_cell_length_c   8.91385700
_cell_angle_alpha   120.02397409
_cell_angle_beta   90.00077831
_cell_angle_gamma   89.99972634
_symmetry_Int_Tables_number   1
_chemical_formula_structural   Y3Lu2TlSb2
_chemical_formula_sum   'Y6 Lu4 Tl2 Sb4'
_cell_volume   440.30350927
_cell_formula_units_Z   2
loop_
 _symmetry_equiv_pos_site_id
 _symmetry_equiv_pos_as_xyz
  1  'x, y, z'
loop_
 _atom_site_type_symbol
 _atom_site_label
 _atom_site_symmetry_multiplicity
 _atom_site_fract_x
 _atom_site_fract_y
 _atom_site_fract_z
 _atom_site_occupancy
  Y  Y0  1  0.749993  0.243635  0.004197  1
  Y  Y1  1  0.749998  0.756438  0.760588  1
  Y  Y2  1  0.749976  0.000040  0.240816  1
  Y  Y3  1  0.250016  0.757729  0.997084  1
  Y  Y4  1  0.250008  0.242205  0.239291  1
  Y  Y5  1  0.250041  0.999966  0.756167  1
  Lu  Lu6  1  0.500934  0.336223  0.668296  1
  Lu  Lu7  1  0.500927  0.663778  0.332093  1
  Lu  Lu8  1  0.999066  0.663784  0.332091  1
  Lu  Lu9  1  0.999069  0.336225  0.668302  1
  Tl  Tl10  1  0.749939  0.604644  0.001499  1
  Tl  Tl11  1  0.750032  0.395333  0.396821  1
  Sb  Sb12  1  0.750001  0.000014  0.607192  1
  Sb  Sb13  1  0.249998  0.395179  0.998980  1
  Sb  Sb14  1  0.250001  0.604809  0.603796  1
  Sb  Sb15  1  0.249997  0.999997  0.392786  1
