# generated using pymatgen
data_NaAcSe2
_symmetry_space_group_name_H-M   'P 1'
_cell_length_a   4.51929100
_cell_length_b   4.51929091
_cell_length_c   21.18976300
_cell_angle_alpha   90.00000000
_cell_angle_beta   90.00000000
_cell_angle_gamma   119.99999333
_symmetry_Int_Tables_number   1
_chemical_formula_structural   NaAcSe2
_chemical_formula_sum   'Na3 Ac3 Se6'
_cell_volume   374.79808670
_cell_formula_units_Z   3
loop_
 _symmetry_equiv_pos_site_id
 _symmetry_equiv_pos_as_xyz
  1  'x, y, z'
loop_
 _atom_site_type_symbol
 _atom_site_label
 _atom_site_symmetry_multiplicity
 _atom_site_fract_x
 _atom_site_fract_y
 _atom_site_fract_z
 _atom_site_occupancy
  Na  Na0  1  0.000000  0.000000  0.000000  1
  Na  Na1  1  0.666667  0.333334  0.332871  1
  Na  Na2  1  0.333334  0.666667  0.667129  1
  Ac  Ac3  1  0.333334  0.666667  0.166099  1
  Ac  Ac4  1  0.000000  0.000000  0.500000  1
  Ac  Ac5  1  0.666667  0.333334  0.833901  1
  Se  Se6  1  0.666667  0.333334  0.085444  1
  Se  Se7  1  0.000000  0.000000  0.246812  1
  Se  Se8  1  0.333334  0.666667  0.419142  1
  Se  Se9  1  0.666667  0.333334  0.580858  1
  Se  Se10  1  0.000000  0.000000  0.753188  1
  Se  Se11  1  0.333334  0.666667  0.914556  1
