# generated using pymatgen
data_Th10Sn2HgPb5
_symmetry_space_group_name_H-M   'P 1'
_cell_length_a   9.74640196
_cell_length_b   9.76154222
_cell_length_c   6.67671311
_cell_angle_alpha   90.02065452
_cell_angle_beta   89.98966177
_cell_angle_gamma   120.05139642
_symmetry_Int_Tables_number   1
_chemical_formula_structural   Th10Sn2HgPb5
_chemical_formula_sum   'Th10 Sn2 Hg1 Pb5'
_cell_volume   549.83314756
_cell_formula_units_Z   1
loop_
 _symmetry_equiv_pos_site_id
 _symmetry_equiv_pos_as_xyz
  1  'x, y, z'
loop_
 _atom_site_type_symbol
 _atom_site_label
 _atom_site_symmetry_multiplicity
 _atom_site_fract_x
 _atom_site_fract_y
 _atom_site_fract_z
 _atom_site_occupancy
  Th  Th0  1  0.000000  0.721975  0.746827  1
  Th  Th1  1  0.276987  0.277035  0.746661  1
  Th  Th2  1  0.331083  0.666194  0.498980  1
  Th  Th3  1  0.668917  0.335110  0.498980  1
  Th  Th4  1  0.725311  0.722268  0.253223  1
  Th  Th5  1  0.723013  0.000048  0.746661  1
  Th  Th6  1  0.000000  0.279275  0.253031  1
  Th  Th7  1  0.274689  0.996957  0.253223  1
  Th  Th8  1  0.331104  0.666264  0.001065  1
  Th  Th9  1  0.668896  0.335160  0.001065  1
  Sn  Sn10  1  0.000000  0.621891  0.248436  1
  Sn  Sn11  1  0.000000  0.000282  0.500077  1
  Hg  Hg12  1  0.000000  0.000242  0.999932  1
  Pb  Pb13  1  0.622093  0.622481  0.751828  1
  Pb  Pb14  1  0.000000  0.377298  0.751904  1
  Pb  Pb15  1  0.377907  0.000387  0.751828  1
  Pb  Pb16  1  0.622454  0.999794  0.248141  1
  Pb  Pb17  1  0.377546  0.377340  0.248141  1
