# generated using pymatgen
data_Ca20GaSi8Hg3
_symmetry_space_group_name_H-M   'P 1'
_cell_length_a   7.72147200
_cell_length_b   7.72147200
_cell_length_c   15.31347800
_cell_angle_alpha   90.00000000
_cell_angle_beta   90.00000000
_cell_angle_gamma   90.00000000
_symmetry_Int_Tables_number   1
_chemical_formula_structural   Ca20GaSi8Hg3
_chemical_formula_sum   'Ca20 Ga1 Si8 Hg3'
_cell_volume   913.00686024
_cell_formula_units_Z   1
loop_
 _symmetry_equiv_pos_site_id
 _symmetry_equiv_pos_as_xyz
  1  'x, y, z'
loop_
 _atom_site_type_symbol
 _atom_site_label
 _atom_site_symmetry_multiplicity
 _atom_site_fract_x
 _atom_site_fract_y
 _atom_site_fract_z
 _atom_site_occupancy
  Ca  Ca0  1  0.679703  0.170148  0.110444  1
  Ca  Ca1  1  0.174765  0.674161  0.613794  1
  Ca  Ca2  1  0.320297  0.829852  0.110444  1
  Ca  Ca3  1  0.825235  0.325839  0.613794  1
  Ca  Ca4  1  0.829852  0.679703  0.110444  1
  Ca  Ca5  1  0.325839  0.174765  0.613794  1
  Ca  Ca6  1  0.170148  0.320297  0.110444  1
  Ca  Ca7  1  0.674161  0.825235  0.613794  1
  Ca  Ca8  1  0.829852  0.320297  0.889556  1
  Ca  Ca9  1  0.325839  0.825235  0.386206  1
  Ca  Ca10  1  0.170148  0.679703  0.889556  1
  Ca  Ca11  1  0.674161  0.174765  0.386206  1
  Ca  Ca12  1  0.679703  0.829852  0.889556  1
  Ca  Ca13  1  0.174765  0.325839  0.386206  1
  Ca  Ca14  1  0.320297  0.170148  0.889556  1
  Ca  Ca15  1  0.825235  0.674161  0.386206  1
  Ca  Ca16  1  0.500000  0.500000  0.754500  1
  Ca  Ca17  1  0.000000  0.000000  0.248095  1
  Ca  Ca18  1  0.000000  0.000000  0.751905  1
  Ca  Ca19  1  0.500000  0.500000  0.245500  1
  Ga  Ga20  1  0.000000  0.000000  0.000000  1
  Si  Si21  1  0.610227  0.113989  0.751696  1
  Si  Si22  1  0.113989  0.610227  0.248304  1
  Si  Si23  1  0.886011  0.389773  0.248304  1
  Si  Si24  1  0.389773  0.886011  0.751696  1
  Si  Si25  1  0.886011  0.610227  0.751696  1
  Si  Si26  1  0.389773  0.113989  0.248304  1
  Si  Si27  1  0.113989  0.389773  0.751696  1
  Si  Si28  1  0.610227  0.886011  0.248304  1
  Hg  Hg29  1  0.500000  0.500000  0.500000  1
  Hg  Hg30  1  0.500000  0.500000  0.000000  1
  Hg  Hg31  1  0.000000  0.000000  0.500000  1
