# generated using pymatgen
data_RbUF7
_symmetry_space_group_name_H-M   'P 1'
_cell_length_a   9.50404500
_cell_length_b   5.67687413
_cell_length_c   9.90033000
_cell_angle_alpha   87.52909244
_cell_angle_beta   90.00000000
_cell_angle_gamma   90.00000000
_symmetry_Int_Tables_number   1
_chemical_formula_structural   RbUF7
_chemical_formula_sum   'Rb4 U4 F28'
_cell_volume   533.65851372
_cell_formula_units_Z   4
loop_
 _symmetry_equiv_pos_site_id
 _symmetry_equiv_pos_as_xyz
  1  'x, y, z'
loop_
 _atom_site_type_symbol
 _atom_site_label
 _atom_site_symmetry_multiplicity
 _atom_site_fract_x
 _atom_site_fract_y
 _atom_site_fract_z
 _atom_site_occupancy
  Rb  Rb0  1  0.306915  0.261153  0.505761  1
  Rb  Rb1  1  0.806915  0.738847  0.994239  1
  Rb  Rb2  1  0.693085  0.738847  0.494239  1
  Rb  Rb3  1  0.193085  0.261153  0.005761  1
  U  U4  1  0.613133  0.231234  0.212556  1
  U  U5  1  0.386867  0.768766  0.787444  1
  U  U6  1  0.886867  0.231234  0.712556  1
  U  U7  1  0.113133  0.768766  0.287444  1
  F  F8  1  0.434486  0.075088  0.882427  1
  F  F9  1  0.046144  0.375966  0.600771  1
  F  F10  1  0.739902  0.525895  0.238307  1
  F  F11  1  0.260098  0.474105  0.761693  1
  F  F12  1  0.490039  0.982711  0.641158  1
  F  F13  1  0.766448  0.261441  0.535485  1
  F  F14  1  0.783172  0.054550  0.293577  1
  F  F15  1  0.990039  0.017289  0.858842  1
  F  F16  1  0.453856  0.375966  0.100771  1
  F  F17  1  0.239902  0.474105  0.261693  1
  F  F18  1  0.065514  0.075088  0.382427  1
  F  F19  1  0.565514  0.924912  0.117573  1
  F  F20  1  0.283172  0.945450  0.206423  1
  F  F21  1  0.016376  0.547663  0.149082  1
  F  F22  1  0.509961  0.017289  0.358842  1
  F  F23  1  0.009961  0.982711  0.141158  1
  F  F24  1  0.216828  0.945450  0.706423  1
  F  F25  1  0.934486  0.924912  0.617573  1
  F  F26  1  0.516376  0.452337  0.350918  1
  F  F27  1  0.953856  0.624034  0.399229  1
  F  F28  1  0.983624  0.452337  0.850918  1
  F  F29  1  0.716828  0.054550  0.793577  1
  F  F30  1  0.483624  0.547663  0.649082  1
  F  F31  1  0.266448  0.738559  0.964515  1
  F  F32  1  0.233552  0.738559  0.464515  1
  F  F33  1  0.733552  0.261441  0.035485  1
  F  F34  1  0.546144  0.624034  0.899229  1
  F  F35  1  0.760098  0.525895  0.738307  1
