# generated using pymatgen
data_Y13Er3Cd2(HgIr2)2
_symmetry_space_group_name_H-M   'P 1'
_cell_length_a   9.62833864
_cell_length_b   9.64130863
_cell_length_c   9.64680300
_cell_angle_alpha   59.98114336
_cell_angle_beta   59.93653891
_cell_angle_gamma   59.94535607
_symmetry_Int_Tables_number   1
_chemical_formula_structural   Y13Er3Cd2(HgIr2)2
_chemical_formula_sum   'Y13 Er3 Cd2 Hg2 Ir4'
_cell_volume   632.56580451
_cell_formula_units_Z   1
loop_
 _symmetry_equiv_pos_site_id
 _symmetry_equiv_pos_as_xyz
  1  'x, y, z'
loop_
 _atom_site_type_symbol
 _atom_site_label
 _atom_site_symmetry_multiplicity
 _atom_site_fract_x
 _atom_site_fract_y
 _atom_site_fract_z
 _atom_site_occupancy
  Y  Y0  1  0.948908  0.351506  0.349793  1
  Y  Y1  1  0.809139  0.189202  0.191446  1
  Y  Y2  1  0.189587  0.808960  0.809638  1
  Y  Y3  1  0.189587  0.808960  0.191815  1
  Y  Y4  1  0.809139  0.189202  0.810212  1
  Y  Y5  1  0.190012  0.189987  0.810000  1
  Y  Y6  1  0.808614  0.808925  0.191230  1
  Y  Y7  1  0.937923  0.561354  0.562338  1
  Y  Y8  1  0.560645  0.938228  0.939237  1
  Y  Y9  1  0.560645  0.938228  0.561890  1
  Y  Y10  1  0.937923  0.561354  0.938385  1
  Y  Y11  1  0.560765  0.561131  0.939052  1
  Y  Y12  1  0.938285  0.937795  0.561960  1
  Er  Er13  1  0.348975  0.348917  0.347635  1
  Er  Er14  1  0.348975  0.348917  0.954474  1
  Er  Er15  1  0.350463  0.951591  0.348973  1
  Cd  Cd16  1  0.579473  0.258846  0.580841  1
  Cd  Cd17  1  0.259086  0.579800  0.580558  1
  Hg  Hg18  1  0.583205  0.583761  0.585822  1
  Hg  Hg19  1  0.583205  0.583761  0.247214  1
  Ir  Ir20  1  0.144563  0.141712  0.141343  1
  Ir  Ir21  1  0.144563  0.141712  0.572383  1
  Ir  Ir22  1  0.144472  0.573178  0.141175  1
  Ir  Ir23  1  0.571847  0.142977  0.142587  1
