# generated using pymatgen
data_Dy5VMoO12
_symmetry_space_group_name_H-M   'P 1'
_cell_length_a   6.80901881
_cell_length_b   6.80901943
_cell_length_c   7.32367093
_cell_angle_alpha   74.37366632
_cell_angle_beta   74.37366575
_cell_angle_gamma   51.71343742
_symmetry_Int_Tables_number   1
_chemical_formula_structural   Dy5VMoO12
_chemical_formula_sum   'Dy5 V1 Mo1 O12'
_cell_volume   254.29680045
_cell_formula_units_Z   1
loop_
 _symmetry_equiv_pos_site_id
 _symmetry_equiv_pos_as_xyz
  1  'x, y, z'
loop_
 _atom_site_type_symbol
 _atom_site_label
 _atom_site_symmetry_multiplicity
 _atom_site_fract_x
 _atom_site_fract_y
 _atom_site_fract_z
 _atom_site_occupancy
  Dy  Dy0  1  0.312930  0.295089  0.361440  1
  Dy  Dy1  1  0.704911  0.687070  0.638560  1
  Dy  Dy2  1  0.312299  0.307208  0.826360  1
  Dy  Dy3  1  0.692792  0.687701  0.173640  1
  Dy  Dy4  1  0.002872  0.997128  0.500000  1
  V  V5  1  0.745010  0.254990  0.000000  1
  Mo  Mo6  1  0.231620  0.768380  0.000000  1
  O  O7  1  0.897000  0.424885  0.919123  1
  O  O8  1  0.429475  0.897968  0.918318  1
  O  O9  1  0.102032  0.570525  0.081682  1
  O  O10  1  0.575115  0.103000  0.080877  1
  O  O11  1  0.102248  0.591430  0.575092  1
  O  O12  1  0.599693  0.090225  0.576545  1
  O  O13  1  0.909775  0.400307  0.423455  1
  O  O14  1  0.408570  0.897752  0.424908  1
  O  O15  1  0.990998  0.010704  0.814260  1
  O  O16  1  0.989296  0.009002  0.185740  1
  O  O17  1  0.496264  0.502898  0.811491  1
  O  O18  1  0.497102  0.503736  0.188509  1
