# generated using pymatgen
data_Tb2B4Ru3Rh
_symmetry_space_group_name_H-M   'P 1'
_cell_length_a   6.70330393
_cell_length_b   5.93021274
_cell_length_c   5.53633471
_cell_angle_alpha   71.45500846
_cell_angle_beta   57.00657384
_cell_angle_gamma   51.99324214
_symmetry_Int_Tables_number   1
_chemical_formula_structural   Tb2B4Ru3Rh
_chemical_formula_sum   'Tb2 B4 Ru3 Rh1'
_cell_volume   145.39494611
_cell_formula_units_Z   1
loop_
 _symmetry_equiv_pos_site_id
 _symmetry_equiv_pos_as_xyz
  1  'x, y, z'
loop_
 _atom_site_type_symbol
 _atom_site_label
 _atom_site_symmetry_multiplicity
 _atom_site_fract_x
 _atom_site_fract_y
 _atom_site_fract_z
 _atom_site_occupancy
  Tb  Tb0  1  0.499257  0.499257  0.500743  1
  Tb  Tb1  1  0.748367  0.748367  0.751633  1
  B  B2  1  0.183568  0.814707  0.182053  1
  B  B3  1  0.064848  0.440445  0.055660  1
  B  B4  1  0.814707  0.183567  0.819671  1
  B  B5  1  0.440445  0.064848  0.439048  1
  Ru  Ru6  1  0.862888  0.862888  0.137112  1
  Ru  Ru7  1  0.137288  0.137288  0.862712  1
  Ru  Ru8  1  0.385770  0.385770  0.114230  1
  Rh  Rh9  1  0.112862  0.112862  0.387138  1
