# generated using pymatgen
data_Yb9AgPt5
_symmetry_space_group_name_H-M   'P 1'
_cell_length_a   7.51953307
_cell_length_b   7.51526817
_cell_length_c   7.49211400
_cell_angle_alpha   70.37684882
_cell_angle_beta   70.62750102
_cell_angle_gamma   70.30450971
_symmetry_Int_Tables_number   1
_chemical_formula_structural   Yb9AgPt5
_chemical_formula_sum   'Yb9 Ag1 Pt5'
_cell_volume   363.89066378
_cell_formula_units_Z   1
loop_
 _symmetry_equiv_pos_site_id
 _symmetry_equiv_pos_as_xyz
  1  'x, y, z'
loop_
 _atom_site_type_symbol
 _atom_site_label
 _atom_site_symmetry_multiplicity
 _atom_site_fract_x
 _atom_site_fract_y
 _atom_site_fract_z
 _atom_site_occupancy
  Yb  Yb0  1  0.996438  0.001518  0.008088  1
  Yb  Yb1  1  0.793560  0.798403  0.807570  1
  Yb  Yb2  1  0.196857  0.201460  0.187523  1
  Yb  Yb3  1  0.334759  0.587390  0.859261  1
  Yb  Yb4  1  0.839872  0.341912  0.597218  1
  Yb  Yb5  1  0.607649  0.850162  0.323314  1
  Yb  Yb6  1  0.670749  0.401056  0.151585  1
  Yb  Yb7  1  0.148484  0.659944  0.398310  1
  Yb  Yb8  1  0.409407  0.154403  0.673299  1
  Ag  Ag9  1  0.163712  0.953279  0.588293  1
  Pt  Pt10  1  0.591731  0.168922  0.953407  1
  Pt  Pt11  1  0.954220  0.591378  0.161600  1
  Pt  Pt12  1  0.837927  0.046659  0.414476  1
  Pt  Pt13  1  0.405033  0.833450  0.049139  1
  Pt  Pt14  1  0.049603  0.410064  0.826918  1
