# generated using pymatgen
data_Y4Ho3Er(B6Os)4
_symmetry_space_group_name_H-M   'P 1'
_cell_length_a   3.65324000
_cell_length_b   9.14526008
_cell_length_c   11.53161400
_cell_angle_alpha   90.00819600
_cell_angle_beta   90.00000000
_cell_angle_gamma   90.00000000
_symmetry_Int_Tables_number   1
_chemical_formula_structural   Y4Ho3Er(B6Os)4
_chemical_formula_sum   'Y4 Ho3 Er1 B24 Os4'
_cell_volume   385.26925885
_cell_formula_units_Z   1
loop_
 _symmetry_equiv_pos_site_id
 _symmetry_equiv_pos_as_xyz
  1  'x, y, z'
loop_
 _atom_site_type_symbol
 _atom_site_label
 _atom_site_symmetry_multiplicity
 _atom_site_fract_x
 _atom_site_fract_y
 _atom_site_fract_z
 _atom_site_occupancy
  Y  Y0  1  0.000000  0.322272  0.413833  1
  Y  Y1  1  0.000000  0.677736  0.586247  1
  Y  Y2  1  0.000000  0.822151  0.086076  1
  Y  Y3  1  0.000000  0.177877  0.913807  1
  Ho  Ho4  1  0.000000  0.944096  0.372964  1
  Ho  Ho5  1  0.000000  0.055918  0.627122  1
  Ho  Ho6  1  0.000000  0.444153  0.126841  1
  Er  Er7  1  0.000000  0.555942  0.872976  1
  B  B8  1  0.500000  0.554155  0.432815  1
  B  B9  1  0.500000  0.445904  0.567301  1
  B  B10  1  0.500000  0.054135  0.067147  1
  B  B11  1  0.500000  0.945668  0.932792  1
  B  B12  1  0.500000  0.748405  0.419649  1
  B  B13  1  0.500000  0.251655  0.580416  1
  B  B14  1  0.500000  0.248483  0.080286  1
  B  B15  1  0.500000  0.751206  0.919620  1
  B  B16  1  0.500000  0.791065  0.266661  1
  B  B17  1  0.500000  0.209061  0.733387  1
  B  B18  1  0.500000  0.291114  0.233269  1
  B  B19  1  0.500000  0.708598  0.766784  1
  B  B20  1  0.500000  0.631579  0.185212  1
  B  B21  1  0.500000  0.368703  0.814859  1
  B  B22  1  0.500000  0.131660  0.314690  1
  B  B23  1  0.500000  0.868253  0.685358  1
  B  B24  1  0.500000  0.983619  0.213229  1
  B  B25  1  0.500000  0.016294  0.786797  1
  B  B26  1  0.500000  0.483587  0.286711  1
  B  B27  1  0.500000  0.516594  0.713504  1
  B  B28  1  0.500000  0.607179  0.029313  1
  B  B29  1  0.500000  0.393071  0.970146  1
  B  B30  1  0.500000  0.107534  0.470338  1
  B  B31  1  0.500000  0.892459  0.529728  1
  Os  Os32  1  0.000000  0.637953  0.320996  1
  Os  Os33  1  0.000000  0.362241  0.679165  1
  Os  Os34  1  0.000000  0.138019  0.178867  1
  Os  Os35  1  0.000000  0.861659  0.821093  1
