# generated using pymatgen
data_Th2Mn3Co9As7
_symmetry_space_group_name_H-M   'P 1'
_cell_length_a   9.48927100
_cell_length_b   9.48927097
_cell_length_c   3.84170700
_cell_angle_alpha   90.00000000
_cell_angle_beta   90.00000000
_cell_angle_gamma   119.99999663
_symmetry_Int_Tables_number   1
_chemical_formula_structural   Th2Mn3Co9As7
_chemical_formula_sum   'Th2 Mn3 Co9 As7'
_cell_volume   299.58535760
_cell_formula_units_Z   1
loop_
 _symmetry_equiv_pos_site_id
 _symmetry_equiv_pos_as_xyz
  1  'x, y, z'
loop_
 _atom_site_type_symbol
 _atom_site_label
 _atom_site_symmetry_multiplicity
 _atom_site_fract_x
 _atom_site_fract_y
 _atom_site_fract_z
 _atom_site_occupancy
  Th  Th0  1  0.333333  0.666667  0.000000  1
  Th  Th1  1  0.000000  0.000000  0.500000  1
  Mn  Mn2  1  0.774738  0.226731  0.500000  1
  Mn  Mn3  1  0.773269  0.548007  0.500000  1
  Mn  Mn4  1  0.451993  0.225262  0.500000  1
  Co  Co5  1  0.036995  0.269248  0.000000  1
  Co  Co6  1  0.730752  0.767746  0.000000  1
  Co  Co7  1  0.232254  0.963005  0.000000  1
  Co  Co8  1  0.541822  0.055765  0.000000  1
  Co  Co9  1  0.944235  0.486057  0.000000  1
  Co  Co10  1  0.513943  0.458178  0.000000  1
  Co  Co11  1  0.612139  0.899804  0.500000  1
  Co  Co12  1  0.100196  0.712333  0.500000  1
  Co  Co13  1  0.287667  0.387861  0.500000  1
  As  As14  1  0.772293  0.033198  0.000000  1
  As  As15  1  0.966802  0.739096  0.000000  1
  As  As16  1  0.260904  0.227707  0.000000  1
  As  As17  1  0.372239  0.932053  0.500000  1
  As  As18  1  0.067947  0.440185  0.500000  1
  As  As19  1  0.559815  0.627761  0.500000  1
  As  As20  1  0.666667  0.333333  0.000000  1
