# generated using pymatgen
data_Hf10Ga6P
_symmetry_space_group_name_H-M   'P 1'
_cell_length_a   8.10391400
_cell_length_b   8.10391552
_cell_length_c   5.75592000
_cell_angle_alpha   90.00000000
_cell_angle_beta   90.00000000
_cell_angle_gamma   120.00001010
_symmetry_Int_Tables_number   1
_chemical_formula_structural   Hf10Ga6P
_chemical_formula_sum   'Hf10 Ga6 P1'
_cell_volume   327.36712586
_cell_formula_units_Z   1
loop_
 _symmetry_equiv_pos_site_id
 _symmetry_equiv_pos_as_xyz
  1  'x, y, z'
loop_
 _atom_site_type_symbol
 _atom_site_label
 _atom_site_symmetry_multiplicity
 _atom_site_fract_x
 _atom_site_fract_y
 _atom_site_fract_z
 _atom_site_occupancy
  Hf  Hf0  1  0.000000  0.748067  0.238886  1
  Hf  Hf1  1  0.251933  0.251933  0.238886  1
  Hf  Hf2  1  0.748067  0.000000  0.238886  1
  Hf  Hf3  1  0.000000  0.251933  0.761114  1
  Hf  Hf4  1  0.748067  0.748067  0.761114  1
  Hf  Hf5  1  0.251933  0.000000  0.761114  1
  Hf  Hf6  1  0.333333  0.666667  0.500000  1
  Hf  Hf7  1  0.666667  0.333333  0.500000  1
  Hf  Hf8  1  0.666667  0.333333  0.000000  1
  Hf  Hf9  1  0.333333  0.666667  0.000000  1
  Ga  Ga10  1  0.000000  0.392836  0.249144  1
  Ga  Ga11  1  0.607164  0.607164  0.249144  1
  Ga  Ga12  1  0.392836  0.000000  0.249144  1
  Ga  Ga13  1  0.000000  0.607164  0.750856  1
  Ga  Ga14  1  0.392836  0.392836  0.750856  1
  Ga  Ga15  1  0.607164  0.000000  0.750856  1
  P  P16  1  0.000000  0.000000  0.500000  1
