# generated using pymatgen
data_Zr10ZnSn3Sb4
_symmetry_space_group_name_H-M   'P 1'
_cell_length_a   8.75311300
_cell_length_b   8.75312312
_cell_length_c   5.93942900
_cell_angle_alpha   89.99953716
_cell_angle_beta   89.99900089
_cell_angle_gamma   119.99862517
_symmetry_Int_Tables_number   1
_chemical_formula_structural   Zr10ZnSn3Sb4
_chemical_formula_sum   'Zr10 Zn1 Sn3 Sb4'
_cell_volume   394.10043616
_cell_formula_units_Z   1
loop_
 _symmetry_equiv_pos_site_id
 _symmetry_equiv_pos_as_xyz
  1  'x, y, z'
loop_
 _atom_site_type_symbol
 _atom_site_label
 _atom_site_symmetry_multiplicity
 _atom_site_fract_x
 _atom_site_fract_y
 _atom_site_fract_z
 _atom_site_occupancy
  Zr  Zr0  1  0.333989  0.666764  0.000441  1
  Zr  Zr1  1  0.666865  0.333348  0.499622  1
  Zr  Zr2  1  0.667227  0.333232  0.000443  1
  Zr  Zr3  1  0.333515  0.666651  0.499618  1
  Zr  Zr4  1  0.275741  0.000001  0.239513  1
  Zr  Zr5  1  0.274530  0.275171  0.760176  1
  Zr  Zr6  1  0.999355  0.724833  0.760184  1
  Zr  Zr7  1  0.999528  0.274646  0.239863  1
  Zr  Zr8  1  0.724877  0.725353  0.239864  1
  Zr  Zr9  1  0.725878  0.999999  0.759916  1
  Zn  Zn10  1  0.001292  0.000002  0.000642  1
  Sn  Sn11  1  0.000547  0.614582  0.251835  1
  Sn  Sn12  1  0.385966  0.385423  0.251842  1
  Sn  Sn13  1  0.385508  0.999994  0.748156  1
  Sb  Sb14  1  0.001140  0.000000  0.499307  1
  Sb  Sb15  1  0.611721  0.000002  0.251410  1
  Sb  Sb16  1  0.611828  0.611329  0.748582  1
  Sb  Sb17  1  0.000493  0.388670  0.748586  1
