# generated using pymatgen
data_ErPuPBr2
_symmetry_space_group_name_H-M   'P 1'
_cell_length_a   4.00460100
_cell_length_b   4.00460108
_cell_length_c   10.66950100
_cell_angle_alpha   90.00000000
_cell_angle_beta   90.00000000
_cell_angle_gamma   120.00000761
_symmetry_Int_Tables_number   1
_chemical_formula_structural   ErPuPBr2
_chemical_formula_sum   'Er1 Pu1 P1 Br2'
_cell_volume   148.18123782
_cell_formula_units_Z   1
loop_
 _symmetry_equiv_pos_site_id
 _symmetry_equiv_pos_as_xyz
  1  'x, y, z'
loop_
 _atom_site_type_symbol
 _atom_site_label
 _atom_site_symmetry_multiplicity
 _atom_site_fract_x
 _atom_site_fract_y
 _atom_site_fract_z
 _atom_site_occupancy
  Er  Er0  1  0.333333  0.666666  0.854559  1
  Pu  Pu1  1  0.666666  0.333334  0.144548  1
  P  P2  1  0.000000  0.000000  0.994520  1
  Br  Br3  1  0.333333  0.666666  0.320019  1
  Br  Br4  1  0.666666  0.333334  0.686353  1
