# generated using pymatgen
data_MgCoBi2(AsO5)2
_symmetry_space_group_name_H-M   'P 1'
_cell_length_a   5.38121822
_cell_length_b   7.73835257
_cell_length_c   11.40869696
_cell_angle_alpha   93.90105457
_cell_angle_beta   96.64211608
_cell_angle_gamma   70.96553833
_symmetry_Int_Tables_number   1
_chemical_formula_structural   MgCoBi2(AsO5)2
_chemical_formula_sum   'Mg2 Co2 Bi4 As4 O20'
_cell_volume   445.85537012
_cell_formula_units_Z   2
loop_
 _symmetry_equiv_pos_site_id
 _symmetry_equiv_pos_as_xyz
  1  'x, y, z'
loop_
 _atom_site_type_symbol
 _atom_site_label
 _atom_site_symmetry_multiplicity
 _atom_site_fract_x
 _atom_site_fract_y
 _atom_site_fract_z
 _atom_site_occupancy
  Mg  Mg0  1  0.717744  0.952158  0.317938  1
  Mg  Mg1  1  0.282268  0.047844  0.682060  1
  Co  Co2  1  0.216203  0.450727  0.816048  1
  Co  Co3  1  0.783646  0.549274  0.183980  1
  Bi  Bi4  1  0.299780  0.601356  0.363064  1
  Bi  Bi5  1  0.797424  0.103470  0.864115  1
  Bi  Bi6  1  0.700205  0.398650  0.636918  1
  Bi  Bi7  1  0.202583  0.896564  0.135889  1
  As  As8  1  0.632235  0.712177  0.898568  1
  As  As9  1  0.130573  0.212265  0.398555  1
  As  As10  1  0.367789  0.287813  0.101426  1
  As  As11  1  0.869424  0.787739  0.601444  1
  O  O12  1  0.967260  0.664291  0.907021  1
  O  O13  1  0.463743  0.164268  0.405962  1
  O  O14  1  0.032771  0.335645  0.092985  1
  O  O15  1  0.536251  0.835749  0.594027  1
  O  O16  1  0.508931  0.574139  0.799037  1
  O  O17  1  0.007540  0.074043  0.299304  1
  O  O18  1  0.491081  0.425856  0.200957  1
  O  O19  1  0.992467  0.925952  0.700692  1
  O  O20  1  0.996019  0.271588  0.774279  1
  O  O21  1  0.498665  0.772316  0.274278  1
  O  O22  1  0.003996  0.728390  0.225682  1
  O  O23  1  0.501306  0.227718  0.725741  1
  O  O24  1  0.984918  0.438368  0.356246  1
  O  O25  1  0.484914  0.936988  0.854267  1
  O  O26  1  0.015010  0.561634  0.643768  1
  O  O27  1  0.515136  0.063009  0.145738  1
  O  O28  1  0.541785  0.690048  0.036162  1
  O  O29  1  0.042998  0.189797  0.536404  1
  O  O30  1  0.458326  0.309974  0.963855  1
  O  O31  1  0.957010  0.810190  0.463591  1
