# generated using pymatgen
data_Tm3TiZn2Ir3
_symmetry_space_group_name_H-M   'P 1'
_cell_length_a   7.03495387
_cell_length_b   6.89616515
_cell_length_c   4.07379300
_cell_angle_alpha   90.00000000
_cell_angle_beta   90.00000000
_cell_angle_gamma   119.34951395
_symmetry_Int_Tables_number   1
_chemical_formula_structural   Tm3TiZn2Ir3
_chemical_formula_sum   'Tm3 Ti1 Zn2 Ir3'
_cell_volume   172.26935297
_cell_formula_units_Z   1
loop_
 _symmetry_equiv_pos_site_id
 _symmetry_equiv_pos_as_xyz
  1  'x, y, z'
loop_
 _atom_site_type_symbol
 _atom_site_label
 _atom_site_symmetry_multiplicity
 _atom_site_fract_x
 _atom_site_fract_y
 _atom_site_fract_z
 _atom_site_occupancy
  Tm  Tm0  1  0.000000  0.393841  0.500000  1
  Tm  Tm1  1  0.575894  0.584692  0.500000  1
  Tm  Tm2  1  0.424106  0.008798  0.500000  1
  Ti  Ti3  1  0.000000  0.764645  0.000000  1
  Zn  Zn4  1  0.249024  0.244934  0.000000  1
  Zn  Zn5  1  0.750976  0.995910  0.000000  1
  Ir  Ir6  1  0.317443  0.673619  0.000000  1
  Ir  Ir7  1  0.682557  0.356174  0.000000  1
  Ir  Ir8  1  0.000000  0.977388  0.500000  1
