# generated using pymatgen
data_Rb12Hf(FeSe4)3
_symmetry_space_group_name_H-M   'P 1'
_cell_length_a   10.81437068
_cell_length_b   10.81438852
_cell_length_c   13.73194600
_cell_angle_alpha   90.03073961
_cell_angle_beta   90.03191055
_cell_angle_gamma   140.52747341
_symmetry_Int_Tables_number   1
_chemical_formula_structural   Rb12Hf(FeSe4)3
_chemical_formula_sum   'Rb12 Hf1 Fe3 Se12'
_cell_volume   1020.92189554
_cell_formula_units_Z   1
loop_
 _symmetry_equiv_pos_site_id
 _symmetry_equiv_pos_as_xyz
  1  'x, y, z'
loop_
 _atom_site_type_symbol
 _atom_site_label
 _atom_site_symmetry_multiplicity
 _atom_site_fract_x
 _atom_site_fract_y
 _atom_site_fract_z
 _atom_site_occupancy
  Rb  Rb0  1  0.852416  0.850695  0.336419  1
  Rb  Rb1  1  0.149548  0.147658  0.663592  1
  Rb  Rb2  1  0.639060  0.649698  0.827795  1
  Rb  Rb3  1  0.350312  0.360949  0.172151  1
  Rb  Rb4  1  0.835299  0.473084  0.136046  1
  Rb  Rb5  1  0.526873  0.164704  0.864046  1
  Rb  Rb6  1  0.010508  0.652514  0.625093  1
  Rb  Rb7  1  0.347781  0.989998  0.374979  1
  Rb  Rb8  1  0.155620  0.506896  0.871621  1
  Rb  Rb9  1  0.492988  0.844270  0.128313  1
  Rb  Rb10  1  0.991727  0.343859  0.371409  1
  Rb  Rb11  1  0.656205  0.008076  0.628498  1
  Hf  Hf12  1  0.076026  0.923895  0.000019  1
  Fe  Fe13  1  0.578717  0.421533  0.500183  1
  Fe  Fe14  1  0.916516  0.083329  0.999973  1
  Fe  Fe15  1  0.422792  0.576804  0.499800  1
  Se  Se16  1  0.014362  0.315457  0.115848  1
  Se  Se17  1  0.684434  0.985553  0.884148  1
  Se  Se18  1  0.194945  0.487050  0.612707  1
  Se  Se19  1  0.512548  0.804862  0.387018  1
  Se  Se20  1  0.979897  0.682118  0.880906  1
  Se  Se21  1  0.317803  0.020041  0.119157  1
  Se  Se22  1  0.808156  0.511531  0.387847  1
  Se  Se23  1  0.488917  0.192082  0.612462  1
  Se  Se24  1  0.785269  0.790796  0.085807  1
  Se  Se25  1  0.209201  0.214669  0.914188  1
  Se  Se26  1  0.703112  0.701280  0.580390  1
  Se  Se27  1  0.298968  0.296601  0.419586  1
