# generated using pymatgen
data_Dy3Er4Tm(CdCo)2
_symmetry_space_group_name_H-M   'P 1'
_cell_length_a   9.44413743
_cell_length_b   9.44413729
_cell_length_c   9.44527000
_cell_angle_alpha   59.99603942
_cell_angle_beta   59.99603992
_cell_angle_gamma   60.00792441
_symmetry_Int_Tables_number   1
_chemical_formula_structural   Dy3Er4Tm(CdCo)2
_chemical_formula_sum   'Dy6 Er8 Tm2 Cd4 Co4'
_cell_volume   595.69501998
_cell_formula_units_Z   2
loop_
 _symmetry_equiv_pos_site_id
 _symmetry_equiv_pos_as_xyz
  1  'x, y, z'
loop_
 _atom_site_type_symbol
 _atom_site_label
 _atom_site_symmetry_multiplicity
 _atom_site_fract_x
 _atom_site_fract_y
 _atom_site_fract_z
 _atom_site_occupancy
  Dy  Dy0  1  0.189177  0.810823  0.810823  1
  Dy  Dy1  1  0.810823  0.189177  0.189177  1
  Dy  Dy2  1  0.810823  0.189177  0.810823  1
  Dy  Dy3  1  0.189177  0.810823  0.189177  1
  Dy  Dy4  1  0.810777  0.810777  0.189223  1
  Dy  Dy5  1  0.189223  0.189223  0.810777  1
  Er  Er6  1  0.595897  0.595897  0.596266  1
  Er  Er7  1  0.595897  0.595897  0.211939  1
  Er  Er8  1  0.596266  0.211939  0.595897  1
  Er  Er9  1  0.211939  0.596266  0.595897  1
  Er  Er10  1  0.063064  0.436936  0.436936  1
  Er  Er11  1  0.436936  0.063064  0.063064  1
  Er  Er12  1  0.436936  0.063064  0.436936  1
  Er  Er13  1  0.063064  0.436936  0.063064  1
  Tm  Tm14  1  0.437372  0.437372  0.062628  1
  Tm  Tm15  1  0.062628  0.062628  0.437372  1
  Cd  Cd16  1  0.830526  0.830526  0.830283  1
  Cd  Cd17  1  0.830526  0.830526  0.508664  1
  Cd  Cd18  1  0.830283  0.508664  0.830526  1
  Cd  Cd19  1  0.508664  0.830283  0.830526  1
  Co  Co20  1  0.391178  0.391178  0.390861  1
  Co  Co21  1  0.391178  0.391178  0.826783  1
  Co  Co22  1  0.390861  0.826783  0.391178  1
  Co  Co23  1  0.826783  0.390861  0.391178  1
