# generated using pymatgen
data_Tb17Lu3(SiBi2)4
_symmetry_space_group_name_H-M   'P 1'
_cell_length_a   12.09489818
_cell_length_b   9.20051500
_cell_length_c   8.06198312
_cell_angle_alpha   90.00000000
_cell_angle_beta   89.85878981
_cell_angle_gamma   90.00000000
_symmetry_Int_Tables_number   1
_chemical_formula_structural   Tb17Lu3(SiBi2)4
_chemical_formula_sum   'Tb17 Lu3 Si4 Bi8'
_cell_volume   897.12905046
_cell_formula_units_Z   1
loop_
 _symmetry_equiv_pos_site_id
 _symmetry_equiv_pos_as_xyz
  1  'x, y, z'
loop_
 _atom_site_type_symbol
 _atom_site_label
 _atom_site_symmetry_multiplicity
 _atom_site_fract_x
 _atom_site_fract_y
 _atom_site_fract_z
 _atom_site_occupancy
  Tb  Tb0  1  0.063140  0.551613  0.818381  1
  Tb  Tb1  1  0.563639  0.947759  0.680694  1
  Tb  Tb2  1  0.936770  0.051415  0.181743  1
  Tb  Tb3  1  0.436403  0.448868  0.319269  1
  Tb  Tb4  1  0.936770  0.448585  0.181743  1
  Tb  Tb5  1  0.436403  0.051132  0.319269  1
  Tb  Tb6  1  0.063140  0.948387  0.818381  1
  Tb  Tb7  1  0.563639  0.552241  0.680694  1
  Tb  Tb8  1  0.499124  0.250000  0.960134  1
  Tb  Tb9  1  0.211229  0.750000  0.165458  1
  Tb  Tb10  1  0.711962  0.750000  0.334817  1
  Tb  Tb11  1  0.788824  0.250000  0.834743  1
  Tb  Tb12  1  0.287795  0.250000  0.665282  1
  Tb  Tb13  1  0.294634  0.750000  0.634890  1
  Tb  Tb14  1  0.795140  0.750000  0.864843  1
  Tb  Tb15  1  0.705664  0.250000  0.365011  1
  Tb  Tb16  1  0.204449  0.250000  0.135435  1
  Lu  Lu17  1  0.000991  0.750000  0.459621  1
  Lu  Lu18  1  0.501024  0.750000  0.040558  1
  Lu  Lu19  1  0.999073  0.250000  0.540638  1
  Si  Si20  1  0.479833  0.750000  0.411996  1
  Si  Si21  1  0.979853  0.750000  0.087869  1
  Si  Si22  1  0.519977  0.250000  0.584652  1
  Si  Si23  1  0.020237  0.250000  0.911838  1
  Bi  Bi24  1  0.327094  0.512210  0.932234  1
  Bi  Bi25  1  0.828369  0.988978  0.567707  1
  Bi  Bi26  1  0.673078  0.009665  0.068746  1
  Bi  Bi27  1  0.171602  0.489145  0.432334  1
  Bi  Bi28  1  0.673078  0.490335  0.068746  1
  Bi  Bi29  1  0.171602  0.010855  0.432334  1
  Bi  Bi30  1  0.327094  0.987790  0.932234  1
  Bi  Bi31  1  0.828369  0.511022  0.567707  1
