# generated using pymatgen
data_Os(PdSe4)2
_symmetry_space_group_name_H-M   'P 1'
_cell_length_a   6.10050357
_cell_length_b   6.16371947
_cell_length_c   6.18510400
_cell_angle_alpha   91.76565803
_cell_angle_beta   91.35359931
_cell_angle_gamma   90.69283126
_symmetry_Int_Tables_number   1
_chemical_formula_structural   Os(PdSe4)2
_chemical_formula_sum   'Os1 Pd2 Se8'
_cell_volume   232.37658035
_cell_formula_units_Z   1
loop_
 _symmetry_equiv_pos_site_id
 _symmetry_equiv_pos_as_xyz
  1  'x, y, z'
loop_
 _atom_site_type_symbol
 _atom_site_label
 _atom_site_symmetry_multiplicity
 _atom_site_fract_x
 _atom_site_fract_y
 _atom_site_fract_z
 _atom_site_occupancy
  Os  Os0  1  0.000000  0.500000  0.500000  1
  Pd  Pd1  1  0.500000  0.000000  0.500000  1
  Pd  Pd2  1  0.500000  0.500000  0.000000  1
  Se  Se3  1  0.384522  0.888074  0.104922  1
  Se  Se4  1  0.103946  0.386084  0.873219  1
  Se  Se5  1  0.886075  0.120453  0.388967  1
  Se  Se6  1  0.615478  0.111926  0.895078  1
  Se  Se7  1  0.896054  0.613916  0.126781  1
  Se  Se8  1  0.113925  0.879547  0.611033  1
  Se  Se9  1  0.631628  0.612606  0.614473  1
  Se  Se10  1  0.368372  0.387394  0.385527  1
