# generated using pymatgen
data_Pr16Er4Si15Au
_symmetry_space_group_name_H-M   'P 1'
_cell_length_a   7.86059987
_cell_length_b   7.83597506
_cell_length_c   15.30147856
_cell_angle_alpha   89.99629700
_cell_angle_beta   89.71197699
_cell_angle_gamma   89.99036425
_symmetry_Int_Tables_number   1
_chemical_formula_structural   Pr16Er4Si15Au
_chemical_formula_sum   'Pr16 Er4 Si15 Au1'
_cell_volume   942.48975709
_cell_formula_units_Z   1
loop_
 _symmetry_equiv_pos_site_id
 _symmetry_equiv_pos_as_xyz
  1  'x, y, z'
loop_
 _atom_site_type_symbol
 _atom_site_label
 _atom_site_symmetry_multiplicity
 _atom_site_fract_x
 _atom_site_fract_y
 _atom_site_fract_z
 _atom_site_occupancy
  Pr  Pr0  1  0.374862  0.013907  0.446993  1
  Pr  Pr1  1  0.489243  0.874971  0.697271  1
  Pr  Pr2  1  0.513306  0.119972  0.195710  1
  Pr  Pr3  1  0.880360  0.486826  0.303410  1
  Pr  Pr4  1  0.117614  0.516870  0.804177  1
  Pr  Pr5  1  0.624382  0.986845  0.947848  1
  Pr  Pr6  1  0.003913  0.380780  0.551349  1
  Pr  Pr7  1  0.988674  0.623502  0.055179  1
  Pr  Pr8  1  0.131005  0.979304  0.879001  1
  Pr  Pr9  1  0.523945  0.627989  0.128551  1
  Pr  Pr10  1  0.475142  0.372753  0.628721  1
  Pr  Pr11  1  0.626069  0.524039  0.873008  1
  Pr  Pr12  1  0.374121  0.477588  0.370230  1
  Pr  Pr13  1  0.875679  0.025141  0.378393  1
  Pr  Pr14  1  0.977554  0.125492  0.121958  1
  Pr  Pr15  1  0.019314  0.870952  0.619481  1
  Er  Er16  1  0.310509  0.309088  0.999974  1
  Er  Er17  1  0.191030  0.810460  0.250064  1
  Er  Er18  1  0.806526  0.187428  0.751323  1
  Er  Er19  1  0.689299  0.687642  0.499042  1
  Si  Si20  1  0.329003  0.688152  0.957433  1
  Si  Si21  1  0.665824  0.310711  0.457064  1
  Si  Si22  1  0.691097  0.330767  0.043513  1
  Si  Si23  1  0.311688  0.671346  0.541163  1
  Si  Si24  1  0.814495  0.827857  0.209470  1
  Si  Si25  1  0.173700  0.187716  0.291834  1
  Si  Si26  1  0.830773  0.813020  0.792538  1
  Si  Si27  1  0.285408  0.920644  0.064255  1
  Si  Si28  1  0.581322  0.785312  0.314556  1
  Si  Si29  1  0.434313  0.209483  0.817404  1
  Si  Si30  1  0.781936  0.580656  0.686683  1
  Si  Si31  1  0.214635  0.421912  0.185694  1
  Si  Si32  1  0.709578  0.077612  0.562551  1
  Si  Si33  1  0.922285  0.287310  0.937007  1
  Si  Si34  1  0.079721  0.714929  0.435377  1
  Au  Au35  1  0.181674  0.171025  0.701773  1
