# generated using pymatgen
data_NaTb6IrI12
_symmetry_space_group_name_H-M   'P 1'
_cell_length_a   9.84980059
_cell_length_b   9.84979913
_cell_length_c   9.84979876
_cell_angle_alpha   107.02147409
_cell_angle_beta   107.02148079
_cell_angle_gamma   107.02145450
_symmetry_Int_Tables_number   1
_chemical_formula_structural   NaTb6IrI12
_chemical_formula_sum   'Na1 Tb6 Ir1 I12'
_cell_volume   795.37731059
_cell_formula_units_Z   1
loop_
 _symmetry_equiv_pos_site_id
 _symmetry_equiv_pos_as_xyz
  1  'x, y, z'
loop_
 _atom_site_type_symbol
 _atom_site_label
 _atom_site_symmetry_multiplicity
 _atom_site_fract_x
 _atom_site_fract_y
 _atom_site_fract_z
 _atom_site_occupancy
  Na  Na0  1  0.500000  0.500000  0.500000  1
  Tb  Tb1  1  0.899393  0.696098  0.970615  1
  Tb  Tb2  1  0.970615  0.899393  0.696098  1
  Tb  Tb3  1  0.696098  0.970615  0.899393  1
  Tb  Tb4  1  0.100607  0.303902  0.029385  1
  Tb  Tb5  1  0.029385  0.100607  0.303902  1
  Tb  Tb6  1  0.303902  0.029385  0.100607  1
  Ir  Ir7  1  0.000000  0.000000  0.000000  1
  I  I8  1  0.626422  0.856829  0.548155  1
  I  I9  1  0.548155  0.626422  0.856829  1
  I  I10  1  0.856829  0.548155  0.626422  1
  I  I11  1  0.373578  0.143171  0.451845  1
  I  I12  1  0.451845  0.373578  0.143171  1
  I  I13  1  0.143171  0.451845  0.373578  1
  I  I14  1  0.682967  0.074567  0.223505  1
  I  I15  1  0.223505  0.682967  0.074567  1
  I  I16  1  0.074567  0.223505  0.682967  1
  I  I17  1  0.317033  0.925433  0.776495  1
  I  I18  1  0.776495  0.317033  0.925433  1
  I  I19  1  0.925433  0.776495  0.317033  1
