# generated using pymatgen
data_Tb2MgPa(Co4P3)2
_symmetry_space_group_name_H-M   'P 1'
_cell_length_a   3.75537900
_cell_length_b   10.66117800
_cell_length_c   12.25030500
_cell_angle_alpha   90.00000000
_cell_angle_beta   90.00000000
_cell_angle_gamma   90.00000000
_symmetry_Int_Tables_number   1
_chemical_formula_structural   Tb2MgPa(Co4P3)2
_chemical_formula_sum   'Tb4 Mg2 Pa2 Co16 P12'
_cell_volume   490.46256992
_cell_formula_units_Z   2
loop_
 _symmetry_equiv_pos_site_id
 _symmetry_equiv_pos_as_xyz
  1  'x, y, z'
loop_
 _atom_site_type_symbol
 _atom_site_label
 _atom_site_symmetry_multiplicity
 _atom_site_fract_x
 _atom_site_fract_y
 _atom_site_fract_z
 _atom_site_occupancy
  Tb  Tb0  1  0.500000  0.817921  0.205201  1
  Tb  Tb1  1  0.500000  0.182079  0.205201  1
  Tb  Tb2  1  0.000000  0.682079  0.794799  1
  Tb  Tb3  1  0.000000  0.317921  0.794799  1
  Mg  Mg4  1  0.500000  0.500000  0.153556  1
  Mg  Mg5  1  0.000000  0.000000  0.846444  1
  Pa  Pa6  1  0.000000  0.500000  0.531810  1
  Pa  Pa7  1  0.500000  0.000000  0.468190  1
  Co  Co8  1  0.500000  0.500000  0.695093  1
  Co  Co9  1  0.000000  0.000000  0.304907  1
  Co  Co10  1  0.000000  0.500000  0.986410  1
  Co  Co11  1  0.500000  0.000000  0.013590  1
  Co  Co12  1  0.500000  0.333645  0.994502  1
  Co  Co13  1  0.500000  0.666355  0.994502  1
  Co  Co14  1  0.000000  0.166355  0.005498  1
  Co  Co15  1  0.000000  0.833645  0.005498  1
  Co  Co16  1  0.500000  0.299648  0.433526  1
  Co  Co17  1  0.500000  0.700352  0.433526  1
  Co  Co18  1  0.000000  0.200352  0.566474  1
  Co  Co19  1  0.000000  0.799648  0.566474  1
  Co  Co20  1  0.500000  0.878827  0.706012  1
  Co  Co21  1  0.500000  0.121173  0.706012  1
  Co  Co22  1  0.000000  0.621173  0.293988  1
  Co  Co23  1  0.000000  0.378827  0.293988  1
  P  P24  1  0.500000  0.500000  0.879450  1
  P  P25  1  0.000000  0.000000  0.120550  1
  P  P26  1  0.500000  0.500000  0.353449  1
  P  P27  1  0.000000  0.000000  0.646551  1
  P  P28  1  0.500000  0.306254  0.616228  1
  P  P29  1  0.500000  0.693746  0.616228  1
  P  P30  1  0.000000  0.193746  0.383772  1
  P  P31  1  0.000000  0.806254  0.383772  1
  P  P32  1  0.500000  0.840318  0.895679  1
  P  P33  1  0.500000  0.159682  0.895679  1
  P  P34  1  0.000000  0.659682  0.104321  1
  P  P35  1  0.000000  0.340318  0.104321  1
