# generated using pymatgen
data_ErTm2Th(CdCu2)2
_symmetry_space_group_name_H-M   'P 1'
_cell_length_a   3.66672300
_cell_length_b   7.59311526
_cell_length_c   7.60305637
_cell_angle_alpha   91.09983927
_cell_angle_beta   90.00000000
_cell_angle_gamma   90.00000000
_symmetry_Int_Tables_number   1
_chemical_formula_structural   ErTm2Th(CdCu2)2
_chemical_formula_sum   'Er1 Tm2 Th1 Cd2 Cu4'
_cell_volume   211.64415838
_cell_formula_units_Z   1
loop_
 _symmetry_equiv_pos_site_id
 _symmetry_equiv_pos_as_xyz
  1  'x, y, z'
loop_
 _atom_site_type_symbol
 _atom_site_label
 _atom_site_symmetry_multiplicity
 _atom_site_fract_x
 _atom_site_fract_y
 _atom_site_fract_z
 _atom_site_occupancy
  Er  Er0  1  0.500000  0.330851  0.176078  1
  Tm  Tm1  1  0.500000  0.823931  0.324423  1
  Tm  Tm2  1  0.500000  0.676094  0.830536  1
  Th  Th3  1  0.500000  0.171398  0.671430  1
  Cd  Cd4  1  0.000000  0.996279  0.006599  1
  Cd  Cd5  1  0.000000  0.507092  0.496933  1
  Cu  Cu6  1  0.000000  0.620965  0.119783  1
  Cu  Cu7  1  0.000000  0.383443  0.882814  1
  Cu  Cu8  1  0.000000  0.873066  0.618273  1
  Cu  Cu9  1  0.000000  0.116880  0.373129  1
