# generated using pymatgen
data_LiSi6Ag5(SnP3)4
_symmetry_space_group_name_H-M   'P 1'
_cell_length_a   9.04806781
_cell_length_b   9.07013758
_cell_length_c   9.04806830
_cell_angle_alpha   109.76206466
_cell_angle_beta   108.79123236
_cell_angle_gamma   109.76206249
_symmetry_Int_Tables_number   1
_chemical_formula_structural   LiSi6Ag5(SnP3)4
_chemical_formula_sum   'Li1 Si6 Ag5 Sn4 P12'
_cell_volume   572.26654883
_cell_formula_units_Z   1
loop_
 _symmetry_equiv_pos_site_id
 _symmetry_equiv_pos_as_xyz
  1  'x, y, z'
loop_
 _atom_site_type_symbol
 _atom_site_label
 _atom_site_symmetry_multiplicity
 _atom_site_fract_x
 _atom_site_fract_y
 _atom_site_fract_z
 _atom_site_occupancy
  Li  Li0  1  0.200409  0.000000  0.200409  1
  Si  Si1  1  0.249417  0.750695  0.500390  1
  Si  Si2  1  0.749575  0.500000  0.249575  1
  Si  Si3  1  0.749695  0.249305  0.498721  1
  Si  Si4  1  0.498721  0.249305  0.749695  1
  Si  Si5  1  0.500390  0.750695  0.249417  1
  Si  Si6  1  0.249575  0.500000  0.749575  1
  Ag  Ag7  1  0.999501  0.801709  0.802120  1
  Ag  Ag8  1  0.000411  0.198291  0.197792  1
  Ag  Ag9  1  0.802120  0.801709  0.999501  1
  Ag  Ag10  1  0.802425  0.000000  0.802425  1
  Ag  Ag11  1  0.197792  0.198291  0.000411  1
  Sn  Sn12  1  0.000436  0.000000  0.590153  1
  Sn  Sn13  1  0.590153  0.000000  0.000436  1
  Sn  Sn14  1  0.000257  0.591080  0.000257  1
  Sn  Sn15  1  0.409177  0.408920  0.409177  1
  P  P16  1  0.999896  0.499506  0.247270  1
  P  P17  1  0.497609  0.000000  0.249752  1
  P  P18  1  0.500063  0.746475  0.500063  1
  P  P19  1  0.247270  0.499506  0.999896  1
  P  P20  1  0.747764  0.500494  0.500390  1
  P  P21  1  0.250738  0.752413  0.753482  1
  P  P22  1  0.753588  0.253525  0.753588  1
  P  P23  1  0.249752  0.000000  0.497609  1
  P  P24  1  0.500390  0.500494  0.747764  1
  P  P25  1  0.001069  0.247587  0.498325  1
  P  P26  1  0.753482  0.752413  0.250738  1
  P  P27  1  0.498325  0.247587  0.001069  1
