# generated using pymatgen
data_Y20Bi12As
_symmetry_space_group_name_H-M   'P 1'
_cell_length_a   15.94575500
_cell_length_b   6.44688703
_cell_length_c   9.25342600
_cell_angle_alpha   90.00594564
_cell_angle_beta   90.00000000
_cell_angle_gamma   90.00000000
_symmetry_Int_Tables_number   1
_chemical_formula_structural   Y20Bi12As
_chemical_formula_sum   'Y20 Bi12 As1'
_cell_volume   951.25664013
_cell_formula_units_Z   1
loop_
 _symmetry_equiv_pos_site_id
 _symmetry_equiv_pos_as_xyz
  1  'x, y, z'
loop_
 _atom_site_type_symbol
 _atom_site_label
 _atom_site_symmetry_multiplicity
 _atom_site_fract_x
 _atom_site_fract_y
 _atom_site_fract_z
 _atom_site_occupancy
  Y  Y0  1  0.667053  0.500000  0.500000  1
  Y  Y1  1  0.165631  0.500000  0.000000  1
  Y  Y2  1  0.834369  0.500000  0.000000  1
  Y  Y3  1  0.332947  0.500000  0.500000  1
  Y  Y4  1  0.832241  0.000000  0.000000  1
  Y  Y5  1  0.334986  0.000000  0.500000  1
  Y  Y6  1  0.665014  0.000000  0.500000  1
  Y  Y7  1  0.167759  0.000000  0.000000  1
  Y  Y8  1  0.500000  0.249326  0.752852  1
  Y  Y9  1  0.000000  0.245446  0.249270  1
  Y  Y10  1  0.621076  0.249664  0.119729  1
  Y  Y11  1  0.125008  0.244856  0.623198  1
  Y  Y12  1  0.874992  0.244856  0.623198  1
  Y  Y13  1  0.378924  0.249664  0.119729  1
  Y  Y14  1  0.000000  0.754554  0.750730  1
  Y  Y15  1  0.500000  0.750674  0.247148  1
  Y  Y16  1  0.874992  0.755144  0.376802  1
  Y  Y17  1  0.378924  0.750336  0.880271  1
  Y  Y18  1  0.621076  0.750336  0.880271  1
  Y  Y19  1  0.125008  0.755144  0.376802  1
  Bi  Bi20  1  0.000000  0.249117  0.887828  1
  Bi  Bi21  1  0.500000  0.250587  0.385834  1
  Bi  Bi22  1  0.802982  0.248772  0.303448  1
  Bi  Bi23  1  0.306399  0.251916  0.806286  1
  Bi  Bi24  1  0.693601  0.251916  0.806286  1
  Bi  Bi25  1  0.197018  0.248772  0.303448  1
  Bi  Bi26  1  0.500000  0.749413  0.614166  1
  Bi  Bi27  1  0.000000  0.750883  0.112172  1
  Bi  Bi28  1  0.693601  0.748084  0.193714  1
  Bi  Bi29  1  0.197018  0.751228  0.696552  1
  Bi  Bi30  1  0.802982  0.751228  0.696552  1
  Bi  Bi31  1  0.306399  0.748084  0.193714  1
  As  As32  1  0.000000  0.500000  0.500000  1
