# generated using pymatgen
data_La14Ir4PtRh
_symmetry_space_group_name_H-M   'P 1'
_cell_length_a   10.25973774
_cell_length_b   10.26340780
_cell_length_c   6.55021062
_cell_angle_alpha   89.91874107
_cell_angle_beta   90.03266524
_cell_angle_gamma   119.95726770
_symmetry_Int_Tables_number   1
_chemical_formula_structural   La14Ir4PtRh
_chemical_formula_sum   'La14 Ir4 Pt1 Rh1'
_cell_volume   597.58562820
_cell_formula_units_Z   1
loop_
 _symmetry_equiv_pos_site_id
 _symmetry_equiv_pos_as_xyz
  1  'x, y, z'
loop_
 _atom_site_type_symbol
 _atom_site_label
 _atom_site_symmetry_multiplicity
 _atom_site_fract_x
 _atom_site_fract_y
 _atom_site_fract_z
 _atom_site_occupancy
  La  La0  1  0.665669  0.335284  0.531037  1
  La  La1  1  0.333238  0.666698  0.027060  1
  La  La2  1  0.874812  0.750561  0.752445  1
  La  La3  1  0.248525  0.124657  0.753139  1
  La  La4  1  0.874942  0.124980  0.758443  1
  La  La5  1  0.130059  0.252458  0.251144  1
  La  La6  1  0.748017  0.869443  0.251373  1
  La  La7  1  0.124260  0.873973  0.252135  1
  La  La8  1  0.460506  0.921712  0.564848  1
  La  La9  1  0.078418  0.539930  0.564525  1
  La  La10  1  0.461188  0.539523  0.566820  1
  La  La11  1  0.533827  0.075132  0.061177  1
  La  La12  1  0.924474  0.466254  0.061741  1
  La  La13  1  0.539639  0.461128  0.064152  1
  Ir  Ir14  1  0.188037  0.376143  0.809039  1
  Ir  Ir15  1  0.623264  0.812035  0.808807  1
  Ir  Ir16  1  0.188726  0.812031  0.810102  1
  Ir  Ir17  1  0.811610  0.621475  0.308916  1
  Pt  Pt18  1  0.811902  0.188005  0.309540  1
  Rh  Rh19  1  0.378888  0.188577  0.308084  1
