# generated using pymatgen
data_Tm3Mg2ScBi2Ir
_symmetry_space_group_name_H-M   'P 1'
_cell_length_a   7.75686299
_cell_length_b   7.75686271
_cell_length_c   4.29994900
_cell_angle_alpha   90.00000000
_cell_angle_beta   90.00000000
_cell_angle_gamma   120.40724964
_symmetry_Int_Tables_number   1
_chemical_formula_structural   Tm3Mg2ScBi2Ir
_chemical_formula_sum   'Tm3 Mg2 Sc1 Bi2 Ir1'
_cell_volume   223.13580914
_cell_formula_units_Z   1
loop_
 _symmetry_equiv_pos_site_id
 _symmetry_equiv_pos_as_xyz
  1  'x, y, z'
loop_
 _atom_site_type_symbol
 _atom_site_label
 _atom_site_symmetry_multiplicity
 _atom_site_fract_x
 _atom_site_fract_y
 _atom_site_fract_z
 _atom_site_occupancy
  Tm  Tm0  1  0.624212  0.006115  0.000000  1
  Tm  Tm1  1  0.006115  0.624212  0.000000  1
  Tm  Tm2  1  0.371065  0.371065  0.000000  1
  Mg  Mg3  1  0.227066  0.999680  0.500000  1
  Mg  Mg4  1  0.999680  0.227066  0.500000  1
  Sc  Sc5  1  0.778311  0.778311  0.500000  1
  Bi  Bi6  1  0.337671  0.667716  0.500000  1
  Bi  Bi7  1  0.667716  0.337671  0.500000  1
  Ir  Ir8  1  0.988164  0.988164  0.000000  1
