# generated using pymatgen
data_BaV4(Bi3O10)2
_symmetry_space_group_name_H-M   'P 1'
_cell_length_a   7.33054047
_cell_length_b   8.19740775
_cell_length_c   9.41193847
_cell_angle_alpha   106.20904049
_cell_angle_beta   93.50315781
_cell_angle_gamma   111.41614444
_symmetry_Int_Tables_number   1
_chemical_formula_structural   BaV4(Bi3O10)2
_chemical_formula_sum   'Ba1 V4 Bi6 O20'
_cell_volume   497.11697827
_cell_formula_units_Z   1
loop_
 _symmetry_equiv_pos_site_id
 _symmetry_equiv_pos_as_xyz
  1  'x, y, z'
loop_
 _atom_site_type_symbol
 _atom_site_label
 _atom_site_symmetry_multiplicity
 _atom_site_fract_x
 _atom_site_fract_y
 _atom_site_fract_z
 _atom_site_occupancy
  Ba  Ba0  1  0.000000  0.000000  0.000000  1
  V  V1  1  0.041862  0.272023  0.748360  1
  V  V2  1  0.958138  0.727977  0.251640  1
  V  V3  1  0.354344  0.401232  0.263213  1
  V  V4  1  0.645656  0.598768  0.736787  1
  Bi  Bi5  1  0.340555  0.123190  0.517722  1
  Bi  Bi6  1  0.659445  0.876810  0.482278  1
  Bi  Bi7  1  0.445304  0.812136  0.094278  1
  Bi  Bi8  1  0.554696  0.187864  0.905722  1
  Bi  Bi9  1  0.793567  0.287273  0.326294  1
  Bi  Bi10  1  0.206433  0.712727  0.673706  1
  O  O11  1  0.116056  0.271425  0.282920  1
  O  O12  1  0.883944  0.728575  0.717080  1
  O  O13  1  0.157103  0.513733  0.814165  1
  O  O14  1  0.842897  0.486267  0.185835  1
  O  O15  1  0.665847  0.092667  0.102035  1
  O  O16  1  0.334153  0.907333  0.897965  1
  O  O17  1  0.544041  0.023143  0.361984  1
  O  O18  1  0.455959  0.976857  0.638016  1
  O  O19  1  0.400168  0.638750  0.307947  1
  O  O20  1  0.599832  0.361250  0.692053  1
  O  O21  1  0.215143  0.170285  0.753504  1
  O  O22  1  0.784857  0.829715  0.246496  1
  O  O23  1  0.525312  0.362912  0.374630  1
  O  O24  1  0.474688  0.637088  0.625370  1
  O  O25  1  0.068093  0.805698  0.439669  1
  O  O26  1  0.931907  0.194302  0.560331  1
  O  O27  1  0.138529  0.819980  0.149817  1
  O  O28  1  0.861471  0.180020  0.850183  1
  O  O29  1  0.363587  0.305744  0.077428  1
  O  O30  1  0.636413  0.694256  0.922572  1
