# generated using pymatgen
data_Rb8GdHo3F20
_symmetry_space_group_name_H-M   'P 1'
_cell_length_a   6.96032426
_cell_length_b   7.47988400
_cell_length_c   11.49870442
_cell_angle_alpha   90.00000000
_cell_angle_beta   89.81270677
_cell_angle_gamma   90.00000000
_symmetry_Int_Tables_number   1
_chemical_formula_structural   Rb8GdHo3F20
_chemical_formula_sum   'Rb8 Gd1 Ho3 F20'
_cell_volume   598.64715827
_cell_formula_units_Z   1
loop_
 _symmetry_equiv_pos_site_id
 _symmetry_equiv_pos_as_xyz
  1  'x, y, z'
loop_
 _atom_site_type_symbol
 _atom_site_label
 _atom_site_symmetry_multiplicity
 _atom_site_fract_x
 _atom_site_fract_y
 _atom_site_fract_z
 _atom_site_occupancy
  Rb  Rb0  1  0.536446  0.998774  0.828308  1
  Rb  Rb1  1  0.464125  0.496521  0.171474  1
  Rb  Rb2  1  0.963476  0.998155  0.330104  1
  Rb  Rb3  1  0.036367  0.496814  0.669852  1
  Rb  Rb4  1  0.536446  0.501226  0.828308  1
  Rb  Rb5  1  0.464125  0.003479  0.171474  1
  Rb  Rb6  1  0.963476  0.501845  0.330104  1
  Rb  Rb7  1  0.036367  0.003186  0.669852  1
  Gd  Gd8  1  0.059857  0.750000  0.997668  1
  Ho  Ho9  1  0.558225  0.250000  0.501556  1
  Ho  Ho10  1  0.441396  0.750000  0.498378  1
  Ho  Ho11  1  0.939548  0.250000  0.001887  1
  F  F12  1  0.878622  0.750000  0.836462  1
  F  F13  1  0.116925  0.250000  0.159634  1
  F  F14  1  0.617508  0.750000  0.339968  1
  F  F15  1  0.382267  0.250000  0.659935  1
  F  F16  1  0.850514  0.250000  0.818425  1
  F  F17  1  0.151404  0.750000  0.185363  1
  F  F18  1  0.648967  0.250000  0.318487  1
  F  F19  1  0.350405  0.750000  0.681816  1
  F  F20  1  0.641115  0.964801  0.568131  1
  F  F21  1  0.358336  0.464588  0.431752  1
  F  F22  1  0.856560  0.969499  0.070970  1
  F  F23  1  0.142567  0.460573  0.929550  1
  F  F24  1  0.381395  0.750000  0.984700  1
  F  F25  1  0.625284  0.250000  0.015239  1
  F  F26  1  0.127995  0.750000  0.483931  1
  F  F27  1  0.871700  0.250000  0.516267  1
  F  F28  1  0.142567  0.039427  0.929550  1
  F  F29  1  0.856560  0.530501  0.070970  1
  F  F30  1  0.358336  0.035412  0.431752  1
  F  F31  1  0.641115  0.535199  0.568131  1
