# generated using pymatgen
data_Cs6Er(NpBr6)3
_symmetry_space_group_name_H-M   'P 1'
_cell_length_a   10.58412547
_cell_length_b   10.58412632
_cell_length_c   10.58412543
_cell_angle_alpha   83.33086882
_cell_angle_beta   83.33086382
_cell_angle_gamma   83.33085841
_symmetry_Int_Tables_number   1
_chemical_formula_structural   Cs6Er(NpBr6)3
_chemical_formula_sum   'Cs6 Er1 Np3 Br18'
_cell_volume   1163.33219063
_cell_formula_units_Z   1
loop_
 _symmetry_equiv_pos_site_id
 _symmetry_equiv_pos_as_xyz
  1  'x, y, z'
loop_
 _atom_site_type_symbol
 _atom_site_label
 _atom_site_symmetry_multiplicity
 _atom_site_fract_x
 _atom_site_fract_y
 _atom_site_fract_z
 _atom_site_occupancy
  Cs  Cs0  1  0.589668  0.909587  0.251741  1
  Cs  Cs1  1  0.251741  0.589668  0.909587  1
  Cs  Cs2  1  0.909587  0.251741  0.589668  1
  Cs  Cs3  1  0.749905  0.410673  0.088319  1
  Cs  Cs4  1  0.088319  0.749905  0.410673  1
  Cs  Cs5  1  0.410673  0.088319  0.749905  1
  Er  Er6  1  0.653782  0.653782  0.653782  1
  Np  Np7  1  0.846876  0.846876  0.846876  1
  Np  Np8  1  0.347340  0.347340  0.347340  1
  Np  Np9  1  0.152885  0.152885  0.152885  1
  Br  Br10  1  0.091003  0.408524  0.250291  1
  Br  Br11  1  0.250291  0.091003  0.408524  1
  Br  Br12  1  0.408524  0.250291  0.091003  1
  Br  Br13  1  0.747003  0.901582  0.591870  1
  Br  Br14  1  0.591870  0.747003  0.901582  1
  Br  Br15  1  0.901582  0.591870  0.747003  1
  Br  Br16  1  0.232450  0.418097  0.584596  1
  Br  Br17  1  0.584596  0.232450  0.418097  1
  Br  Br18  1  0.418097  0.584596  0.232450  1
  Br  Br19  1  0.084865  0.917573  0.732012  1
  Br  Br20  1  0.732012  0.084865  0.917573  1
  Br  Br21  1  0.917573  0.732012  0.084865  1
  Br  Br22  1  0.763246  0.585780  0.424835  1
  Br  Br23  1  0.424835  0.763246  0.585780  1
  Br  Br24  1  0.585780  0.424835  0.763246  1
  Br  Br25  1  0.914644  0.082105  0.268750  1
  Br  Br26  1  0.268750  0.914644  0.082105  1
  Br  Br27  1  0.082105  0.268750  0.914644  1
