# generated using pymatgen
data_Y12GaCo4Rh
_symmetry_space_group_name_H-M   'P 1'
_cell_length_a   8.27713347
_cell_length_b   8.27713293
_cell_length_c   8.27713332
_cell_angle_alpha   106.98898442
_cell_angle_beta   110.60953115
_cell_angle_gamma   110.84338938
_symmetry_Int_Tables_number   1
_chemical_formula_structural   Y12GaCo4Rh
_chemical_formula_sum   'Y12 Ga1 Co4 Rh1'
_cell_volume   435.92081666
_cell_formula_units_Z   1
loop_
 _symmetry_equiv_pos_site_id
 _symmetry_equiv_pos_as_xyz
  1  'x, y, z'
loop_
 _atom_site_type_symbol
 _atom_site_label
 _atom_site_symmetry_multiplicity
 _atom_site_fract_x
 _atom_site_fract_y
 _atom_site_fract_z
 _atom_site_occupancy
  Y  Y0  1  0.694263  0.281862  0.976125  1
  Y  Y1  1  0.305737  0.718138  0.023875  1
  Y  Y2  1  0.694263  0.718138  0.412402  1
  Y  Y3  1  0.305737  0.281862  0.587598  1
  Y  Y4  1  0.801675  0.117841  0.316166  1
  Y  Y5  1  0.801675  0.485508  0.683834  1
  Y  Y6  1  0.198325  0.882159  0.683834  1
  Y  Y7  1  0.198325  0.514492  0.316166  1
  Y  Y8  1  0.603193  0.788802  0.814392  1
  Y  Y9  1  0.974410  0.788802  0.185608  1
  Y  Y10  1  0.025590  0.211198  0.814392  1
  Y  Y11  1  0.396807  0.211198  0.185608  1
  Ga  Ga12  1  0.500000  0.000000  0.500000  1
  Co  Co13  1  0.879777  0.500000  0.379777  1
  Co  Co14  1  0.120223  0.500000  0.620223  1
  Co  Co15  1  0.000000  0.111956  0.111956  1
  Co  Co16  1  0.000000  0.888044  0.888044  1
  Rh  Rh17  1  0.500000  0.500000  0.000000  1
