# generated using pymatgen
data_BaSr5(Si2P3)4
_symmetry_space_group_name_H-M   'P 1'
_cell_length_a   7.22643300
_cell_length_b   7.49359240
_cell_length_c   11.29567533
_cell_angle_alpha   80.28699149
_cell_angle_beta   90.00000000
_cell_angle_gamma   90.00000000
_symmetry_Int_Tables_number   1
_chemical_formula_structural   BaSr5(Si2P3)4
_chemical_formula_sum   'Ba1 Sr5 Si8 P12'
_cell_volume   602.91441466
_cell_formula_units_Z   1
loop_
 _symmetry_equiv_pos_site_id
 _symmetry_equiv_pos_as_xyz
  1  'x, y, z'
loop_
 _atom_site_type_symbol
 _atom_site_label
 _atom_site_symmetry_multiplicity
 _atom_site_fract_x
 _atom_site_fract_y
 _atom_site_fract_z
 _atom_site_occupancy
  Ba  Ba0  1  0.250000  0.593011  0.136614  1
  Sr  Sr1  1  0.750000  0.502712  0.486859  1
  Sr  Sr2  1  0.250000  0.496985  0.513881  1
  Sr  Sr3  1  0.750000  0.914299  0.846269  1
  Sr  Sr4  1  0.250000  0.086227  0.154327  1
  Sr  Sr5  1  0.750000  0.407451  0.862585  1
  Si  Si6  1  0.423648  0.975880  0.594404  1
  Si  Si7  1  0.921626  0.022512  0.408872  1
  Si  Si8  1  0.578374  0.022512  0.408872  1
  Si  Si9  1  0.076352  0.975880  0.594404  1
  Si  Si10  1  0.750000  0.329189  0.197965  1
  Si  Si11  1  0.250000  0.181177  0.796876  1
  Si  Si12  1  0.250000  0.669466  0.802251  1
  Si  Si13  1  0.750000  0.821596  0.198526  1
  P  P14  1  0.994576  0.213574  0.681242  1
  P  P15  1  0.497758  0.789541  0.318505  1
  P  P16  1  0.250000  0.388494  0.921046  1
  P  P17  1  0.750000  0.607519  0.076230  1
  P  P18  1  0.250000  0.901854  0.915639  1
  P  P19  1  0.750000  0.104108  0.079939  1
  P  P20  1  0.504019  0.695261  0.684551  1
  P  P21  1  0.002244  0.301187  0.317922  1
  P  P22  1  0.497756  0.301187  0.317922  1
  P  P23  1  0.995981  0.695261  0.684551  1
  P  P24  1  0.505424  0.213574  0.681242  1
  P  P25  1  0.002242  0.789541  0.318505  1
