# generated using pymatgen
data_TbDy2Tm2Pb3
_symmetry_space_group_name_H-M   'P 1'
_cell_length_a   6.57153100
_cell_length_b   9.04387114
_cell_length_c   9.04778604
_cell_angle_alpha   120.00985706
_cell_angle_beta   89.99972118
_cell_angle_gamma   90.00015333
_symmetry_Int_Tables_number   1
_chemical_formula_structural   TbDy2Tm2Pb3
_chemical_formula_sum   'Tb2 Dy4 Tm4 Pb6'
_cell_volume   465.64048706
_cell_formula_units_Z   2
loop_
 _symmetry_equiv_pos_site_id
 _symmetry_equiv_pos_as_xyz
  1  'x, y, z'
loop_
 _atom_site_type_symbol
 _atom_site_label
 _atom_site_symmetry_multiplicity
 _atom_site_fract_x
 _atom_site_fract_y
 _atom_site_fract_z
 _atom_site_occupancy
  Tb  Tb0  1  0.750002  0.238677  0.000066  1
  Tb  Tb1  1  0.750001  0.761260  0.761365  1
  Dy  Dy2  1  0.749997  0.999964  0.238765  1
  Dy  Dy3  1  0.250005  0.761440  0.000065  1
  Dy  Dy4  1  0.249994  0.238616  0.238645  1
  Dy  Dy5  1  0.249999  0.000033  0.761258  1
  Tm  Tm6  1  0.499945  0.333312  0.666670  1
  Tm  Tm7  1  0.499952  0.666651  0.333283  1
  Tm  Tm8  1  0.000048  0.666683  0.333284  1
  Tm  Tm9  1  0.000055  0.333346  0.666668  1
  Pb  Pb10  1  0.749989  0.605054  0.000180  1
  Pb  Pb11  1  0.750012  0.394905  0.395069  1
  Pb  Pb12  1  0.750002  0.000029  0.604650  1
  Pb  Pb13  1  0.249984  0.394987  0.000009  1
  Pb  Pb14  1  0.250006  0.605066  0.605097  1
  Pb  Pb15  1  0.250012  0.999977  0.394926  1
