# generated using pymatgen
data_La2W(SeO4)3
_symmetry_space_group_name_H-M   'P 1'
_cell_length_a   6.86521174
_cell_length_b   7.41302595
_cell_length_c   11.21603478
_cell_angle_alpha   85.76607709
_cell_angle_beta   73.47367411
_cell_angle_gamma   85.58626597
_symmetry_Int_Tables_number   1
_chemical_formula_structural   La2W(SeO4)3
_chemical_formula_sum   'La4 W2 Se6 O24'
_cell_volume   544.79693303
_cell_formula_units_Z   2
loop_
 _symmetry_equiv_pos_site_id
 _symmetry_equiv_pos_as_xyz
  1  'x, y, z'
loop_
 _atom_site_type_symbol
 _atom_site_label
 _atom_site_symmetry_multiplicity
 _atom_site_fract_x
 _atom_site_fract_y
 _atom_site_fract_z
 _atom_site_occupancy
  La  La0  1  0.730563  0.641030  0.509558  1
  La  La1  1  0.269437  0.358970  0.490442  1
  La  La2  1  0.207900  0.177395  0.160524  1
  La  La3  1  0.792100  0.822605  0.839476  1
  W  W4  1  0.721508  0.896270  0.213700  1
  W  W5  1  0.278492  0.103730  0.786300  1
  Se  Se6  1  0.193377  0.661788  0.217099  1
  Se  Se7  1  0.806623  0.338212  0.782901  1
  Se  Se8  1  0.657333  0.355070  0.141293  1
  Se  Se9  1  0.342667  0.644930  0.858707  1
  Se  Se10  1  0.792349  0.140396  0.487852  1
  Se  Se11  1  0.207651  0.859604  0.512148  1
  O  O12  1  0.691616  0.677792  0.300693  1
  O  O13  1  0.308384  0.322208  0.699307  1
  O  O14  1  0.721252  0.969529  0.409289  1
  O  O15  1  0.278748  0.030471  0.590711  1
  O  O16  1  0.454870  0.974322  0.237961  1
  O  O17  1  0.545130  0.025678  0.762039  1
  O  O18  1  0.814520  0.164116  0.179512  1
  O  O19  1  0.185480  0.835884  0.820488  1
  O  O20  1  0.780007  0.834468  0.054017  1
  O  O21  1  0.219993  0.165532  0.945983  1
  O  O22  1  0.045476  0.867357  0.199156  1
  O  O23  1  0.954524  0.132643  0.800844  1
  O  O24  1  0.098688  0.502095  0.152117  1
  O  O25  1  0.901312  0.497905  0.847883  1
  O  O26  1  0.087010  0.607584  0.378069  1
  O  O27  1  0.912990  0.392416  0.621931  1
  O  O28  1  0.561638  0.269080  0.035091  1
  O  O29  1  0.438362  0.730920  0.964909  1
  O  O30  1  0.434176  0.350963  0.264014  1
  O  O31  1  0.565824  0.649037  0.735986  1
  O  O32  1  0.035259  0.187155  0.393911  1
  O  O33  1  0.964741  0.812845  0.606089  1
  O  O34  1  0.648260  0.331837  0.457599  1
  O  O35  1  0.351740  0.668163  0.542401  1
