# generated using pymatgen
data_Tb3Y5V4O20
_symmetry_space_group_name_H-M   'P 1'
_cell_length_a   3.74244700
_cell_length_b   10.41653084
_cell_length_c   11.30005390
_cell_angle_alpha   89.95416298
_cell_angle_beta   90.00000000
_cell_angle_gamma   90.00000000
_symmetry_Int_Tables_number   1
_chemical_formula_structural   Tb3Y5V4O20
_chemical_formula_sum   'Tb3 Y5 V4 O20'
_cell_volume   440.51341501
_cell_formula_units_Z   1
loop_
 _symmetry_equiv_pos_site_id
 _symmetry_equiv_pos_as_xyz
  1  'x, y, z'
loop_
 _atom_site_type_symbol
 _atom_site_label
 _atom_site_symmetry_multiplicity
 _atom_site_fract_x
 _atom_site_fract_y
 _atom_site_fract_z
 _atom_site_occupancy
  Tb  Tb0  1  0.750000  0.880913  0.725852  1
  Tb  Tb1  1  0.250000  0.619178  0.225986  1
  Tb  Tb2  1  0.250000  0.119157  0.274081  1
  Y  Y3  1  0.250000  0.137184  0.944759  1
  Y  Y4  1  0.250000  0.636654  0.555368  1
  Y  Y5  1  0.750000  0.863175  0.054790  1
  Y  Y6  1  0.750000  0.363000  0.445294  1
  Y  Y7  1  0.750000  0.380725  0.774151  1
  V  V8  1  0.250000  0.171008  0.618427  1
  V  V9  1  0.250000  0.670762  0.881622  1
  V  V10  1  0.750000  0.829069  0.381575  1
  V  V11  1  0.750000  0.329257  0.118307  1
  O  O12  1  0.250000  0.226679  0.457727  1
  O  O13  1  0.250000  0.726507  0.042102  1
  O  O14  1  0.750000  0.773058  0.542224  1
  O  O15  1  0.750000  0.273881  0.957506  1
  O  O16  1  0.250000  0.494429  0.395242  1
  O  O17  1  0.250000  0.994421  0.105048  1
  O  O18  1  0.750000  0.505301  0.606008  1
  O  O19  1  0.750000  0.005856  0.894715  1
  O  O20  1  0.250000  0.266349  0.115936  1
  O  O21  1  0.250000  0.766272  0.383887  1
  O  O22  1  0.750000  0.733466  0.883829  1
  O  O23  1  0.750000  0.233260  0.616016  1
  O  O24  1  0.250000  0.008245  0.653536  1
  O  O25  1  0.250000  0.508019  0.846336  1
  O  O26  1  0.750000  0.991671  0.346733  1
  O  O27  1  0.750000  0.491774  0.153301  1
  O  O28  1  0.250000  0.257865  0.768667  1
  O  O29  1  0.250000  0.757228  0.731020  1
  O  O30  1  0.750000  0.742762  0.230953  1
  O  O31  1  0.750000  0.242876  0.269002  1
