# generated using pymatgen
data_In14CuPd5
_symmetry_space_group_name_H-M   'P 1'
_cell_length_a   8.30319892
_cell_length_b   8.30021048
_cell_length_c   8.30020958
_cell_angle_alpha   109.60335812
_cell_angle_beta   109.40212435
_cell_angle_gamma   109.40212919
_symmetry_Int_Tables_number   1
_chemical_formula_structural   In14CuPd5
_chemical_formula_sum   'In14 Cu1 Pd5'
_cell_volume   440.38528558
_cell_formula_units_Z   1
loop_
 _symmetry_equiv_pos_site_id
 _symmetry_equiv_pos_as_xyz
  1  'x, y, z'
loop_
 _atom_site_type_symbol
 _atom_site_label
 _atom_site_symmetry_multiplicity
 _atom_site_fract_x
 _atom_site_fract_y
 _atom_site_fract_z
 _atom_site_occupancy
  In  In0  1  0.499927  0.749762  0.250832  1
  In  In1  1  0.499927  0.250832  0.749762  1
  In  In2  1  0.250334  0.498832  0.750235  1
  In  In3  1  0.749845  0.499638  0.248656  1
  In  In4  1  0.749845  0.248656  0.499638  1
  In  In5  1  0.250334  0.750235  0.498832  1
  In  In6  1  0.323357  0.326100  0.326100  1
  In  In7  1  0.674933  0.674413  0.674413  1
  In  In8  1  0.000005  0.998818  0.674395  1
  In  In9  1  0.000005  0.674395  0.998818  1
  In  In10  1  0.000083  0.002880  0.326694  1
  In  In11  1  0.000083  0.326694  0.002880  1
  In  In12  1  0.676737  0.002822  0.002822  1
  In  In13  1  0.324932  0.999317  0.999317  1
  Cu  Cu14  1  0.999865  0.349753  0.349753  1
  Pd  Pd15  1  0.000125  0.645636  0.645636  1
  Pd  Pd16  1  0.346741  0.000327  0.346647  1
  Pd  Pd17  1  0.653090  0.000376  0.653866  1
  Pd  Pd18  1  0.346741  0.346647  0.000327  1
  Pd  Pd19  1  0.653090  0.653866  0.000376  1
