# generated using pymatgen
data_Lu4SiSb5Rh7
_symmetry_space_group_name_H-M   'P 1'
_cell_length_a   7.49338406
_cell_length_b   7.49326299
_cell_length_c   7.49338420
_cell_angle_alpha   110.32471240
_cell_angle_beta   107.76793383
_cell_angle_gamma   110.32472082
_symmetry_Int_Tables_number   1
_chemical_formula_structural   Lu4SiSb5Rh7
_chemical_formula_sum   'Lu4 Si1 Sb5 Rh7'
_cell_volume   323.72070080
_cell_formula_units_Z   1
loop_
 _symmetry_equiv_pos_site_id
 _symmetry_equiv_pos_as_xyz
  1  'x, y, z'
loop_
 _atom_site_type_symbol
 _atom_site_label
 _atom_site_symmetry_multiplicity
 _atom_site_fract_x
 _atom_site_fract_y
 _atom_site_fract_z
 _atom_site_occupancy
  Lu  Lu0  1  0.476876  0.466371  0.476876  1
  Lu  Lu1  1  0.010525  0.533722  0.010525  1
  Lu  Lu2  1  0.476780  0.999974  0.010467  1
  Lu  Lu3  1  0.010467  0.999974  0.476780  1
  Si  Si4  1  0.345845  0.000016  0.345845  1
  Sb  Sb5  1  0.688474  0.000020  0.688474  1
  Sb  Sb6  1  0.677791  0.686485  0.991377  1
  Sb  Sb7  1  0.304931  0.313539  0.991399  1
  Sb  Sb8  1  0.991377  0.686485  0.677791  1
  Sb  Sb9  1  0.991399  0.313539  0.304931  1
  Rh  Rh10  1  0.743952  0.499936  0.243887  1
  Rh  Rh11  1  0.492575  0.245165  0.737701  1
  Rh  Rh12  1  0.737701  0.245165  0.492575  1
  Rh  Rh13  1  0.247494  0.754849  0.492602  1
  Rh  Rh14  1  0.243887  0.499936  0.743952  1
  Rh  Rh15  1  0.492602  0.754849  0.247494  1
  Rh  Rh16  1  0.067326  0.999977  0.067326  1
