# generated using pymatgen
data_Dy3Ho5Ti12Si15Ge
_symmetry_space_group_name_H-M   'P 1'
_cell_length_a   7.05310374
_cell_length_b   7.04563089
_cell_length_c   12.94363703
_cell_angle_alpha   90.00152177
_cell_angle_beta   89.93071836
_cell_angle_gamma   89.97593891
_symmetry_Int_Tables_number   1
_chemical_formula_structural   Dy3Ho5Ti12Si15Ge
_chemical_formula_sum   'Dy3 Ho5 Ti12 Si15 Ge1'
_cell_volume   643.21494822
_cell_formula_units_Z   1
loop_
 _symmetry_equiv_pos_site_id
 _symmetry_equiv_pos_as_xyz
  1  'x, y, z'
loop_
 _atom_site_type_symbol
 _atom_site_label
 _atom_site_symmetry_multiplicity
 _atom_site_fract_x
 _atom_site_fract_y
 _atom_site_fract_z
 _atom_site_occupancy
  Dy  Dy0  1  0.341451  0.001773  0.465654  1
  Dy  Dy1  1  0.498641  0.840105  0.717076  1
  Dy  Dy2  1  0.502679  0.159481  0.216710  1
  Ho  Ho3  1  0.840865  0.497479  0.283236  1
  Ho  Ho4  1  0.159126  0.502939  0.783763  1
  Ho  Ho5  1  0.660052  0.996939  0.967205  1
  Ho  Ho6  1  0.000141  0.342606  0.532227  1
  Ho  Ho7  1  0.997900  0.659132  0.033528  1
  Ti  Ti8  1  0.326164  0.326510  0.000172  1
  Ti  Ti9  1  0.173504  0.826216  0.249937  1
  Ti  Ti10  1  0.823319  0.174256  0.750541  1
  Ti  Ti11  1  0.673569  0.673419  0.499922  1
  Ti  Ti12  1  0.152076  0.008756  0.877537  1
  Ti  Ti13  1  0.491774  0.651364  0.126328  1
  Ti  Ti14  1  0.510245  0.349425  0.626600  1
  Ti  Ti15  1  0.652397  0.492438  0.874205  1
  Ti  Ti16  1  0.348052  0.508676  0.373479  1
  Ti  Ti17  1  0.848005  0.991884  0.376222  1
  Ti  Ti18  1  0.008504  0.151618  0.123701  1
  Ti  Ti19  1  0.988928  0.845169  0.622570  1
  Si  Si20  1  0.369261  0.702899  0.934425  1
  Si  Si21  1  0.630316  0.297597  0.434132  1
  Si  Si22  1  0.703169  0.369553  0.066078  1
  Si  Si23  1  0.297331  0.630109  0.565812  1
  Si  Si24  1  0.797393  0.869030  0.184172  1
  Si  Si25  1  0.130009  0.202795  0.315817  1
  Si  Si26  1  0.870168  0.797876  0.816000  1
  Si  Si27  1  0.291164  0.952155  0.065163  1
  Si  Si28  1  0.548421  0.790224  0.314543  1
  Si  Si29  1  0.455404  0.209728  0.816733  1
  Si  Si30  1  0.791697  0.547053  0.685414  1
  Si  Si31  1  0.208774  0.452633  0.185169  1
  Si  Si32  1  0.709016  0.047972  0.564808  1
  Si  Si33  1  0.952633  0.291133  0.935159  1
  Si  Si34  1  0.047371  0.709256  0.434661  1
  Ge  Ge35  1  0.200480  0.129799  0.681305  1
