# generated using pymatgen
data_La16TbEr3Sn16
_symmetry_space_group_name_H-M   'P 1'
_cell_length_a   8.40321901
_cell_length_b   8.49871701
_cell_length_c   16.24699300
_cell_angle_alpha   90.00000000
_cell_angle_beta   90.00000000
_cell_angle_gamma   90.00610859
_symmetry_Int_Tables_number   1
_chemical_formula_structural   La16TbEr3Sn16
_chemical_formula_sum   'La16 Tb1 Er3 Sn16'
_cell_volume   1160.30467481
_cell_formula_units_Z   1
loop_
 _symmetry_equiv_pos_site_id
 _symmetry_equiv_pos_as_xyz
  1  'x, y, z'
loop_
 _atom_site_type_symbol
 _atom_site_label
 _atom_site_symmetry_multiplicity
 _atom_site_fract_x
 _atom_site_fract_y
 _atom_site_fract_z
 _atom_site_occupancy
  La  La0  1  0.972664  0.818791  0.899633  1
  La  La1  1  0.472862  0.681052  0.600382  1
  La  La2  1  0.527215  0.318800  0.100435  1
  La  La3  1  0.027219  0.181171  0.399550  1
  La  La4  1  0.972664  0.818791  0.600367  1
  La  La5  1  0.472862  0.681052  0.899618  1
  La  La6  1  0.527215  0.318800  0.399565  1
  La  La7  1  0.027219  0.181171  0.100450  1
  La  La8  1  0.879717  0.660421  0.382297  1
  La  La9  1  0.379703  0.839625  0.117726  1
  La  La10  1  0.620530  0.160486  0.617640  1
  La  La11  1  0.120132  0.339695  0.882345  1
  La  La12  1  0.120132  0.339695  0.617655  1
  La  La13  1  0.620530  0.160486  0.882360  1
  La  La14  1  0.379703  0.839625  0.382274  1
  La  La15  1  0.879717  0.660421  0.117703  1
  Tb  Tb16  1  0.288322  0.002720  0.750000  1
  Er  Er17  1  0.787891  0.497033  0.750000  1
  Er  Er18  1  0.212053  0.502760  0.250000  1
  Er  Er19  1  0.711963  0.997255  0.250000  1
  Sn  Sn20  1  0.781147  0.470150  0.546055  1
  Sn  Sn21  1  0.281132  0.029932  0.954148  1
  Sn  Sn22  1  0.718810  0.970160  0.453959  1
  Sn  Sn23  1  0.218838  0.529833  0.046068  1
  Sn  Sn24  1  0.218838  0.529833  0.453932  1
  Sn  Sn25  1  0.718810  0.970160  0.046041  1
  Sn  Sn26  1  0.281132  0.029932  0.545852  1
  Sn  Sn27  1  0.781147  0.470150  0.953945  1
  Sn  Sn28  1  0.168554  0.644352  0.750000  1
  Sn  Sn29  1  0.668552  0.855344  0.750000  1
  Sn  Sn30  1  0.331490  0.144796  0.250000  1
  Sn  Sn31  1  0.831447  0.355241  0.250000  1
  Sn  Sn32  1  0.923305  0.117551  0.750000  1
  Sn  Sn33  1  0.423640  0.382737  0.750000  1
  Sn  Sn34  1  0.576452  0.617540  0.250000  1
  Sn  Sn35  1  0.076396  0.882443  0.250000  1
