# generated using pymatgen
data_Sc12Mn2Si12RuAu
_symmetry_space_group_name_H-M   'P 1'
_cell_length_a   3.99083000
_cell_length_b   10.34591406
_cell_length_c   11.73886633
_cell_angle_alpha   89.92977763
_cell_angle_beta   90.00000000
_cell_angle_gamma   90.00000000
_symmetry_Int_Tables_number   1
_chemical_formula_structural   Sc12Mn2Si12RuAu
_chemical_formula_sum   'Sc12 Mn2 Si12 Ru1 Au1'
_cell_volume   484.68315482
_cell_formula_units_Z   1
loop_
 _symmetry_equiv_pos_site_id
 _symmetry_equiv_pos_as_xyz
  1  'x, y, z'
loop_
 _atom_site_type_symbol
 _atom_site_label
 _atom_site_symmetry_multiplicity
 _atom_site_fract_x
 _atom_site_fract_y
 _atom_site_fract_z
 _atom_site_occupancy
  Sc  Sc0  1  0.250000  0.877603  0.021332  1
  Sc  Sc1  1  0.250000  0.627798  0.516998  1
  Sc  Sc2  1  0.750000  0.122064  0.980900  1
  Sc  Sc3  1  0.750000  0.377743  0.475460  1
  Sc  Sc4  1  0.250000  0.923290  0.600725  1
  Sc  Sc5  1  0.250000  0.577537  0.101845  1
  Sc  Sc6  1  0.750000  0.078078  0.395838  1
  Sc  Sc7  1  0.750000  0.422383  0.899222  1
  Sc  Sc8  1  0.250000  0.665963  0.801233  1
  Sc  Sc9  1  0.250000  0.839933  0.298662  1
  Sc  Sc10  1  0.750000  0.341462  0.202265  1
  Sc  Sc11  1  0.750000  0.153523  0.702029  1
  Mn  Mn12  1  0.750000  0.611698  0.322972  1
  Mn  Mn13  1  0.750000  0.888509  0.823509  1
  Si  Si14  1  0.250000  0.012933  0.821894  1
  Si  Si15  1  0.250000  0.483574  0.324234  1
  Si  Si16  1  0.750000  0.984355  0.177839  1
  Si  Si17  1  0.750000  0.528405  0.673178  1
  Si  Si18  1  0.250000  0.245442  0.849732  1
  Si  Si19  1  0.250000  0.247487  0.341288  1
  Si  Si20  1  0.750000  0.747032  0.158223  1
  Si  Si21  1  0.750000  0.757113  0.658693  1
  Si  Si22  1  0.250000  0.183038  0.539603  1
  Si  Si23  1  0.250000  0.305489  0.047416  1
  Si  Si24  1  0.750000  0.806822  0.454136  1
  Si  Si25  1  0.750000  0.695430  0.956363  1
  Ru  Ru26  1  0.250000  0.109830  0.177304  1
  Au  Au27  1  0.250000  0.385464  0.677108  1
