# generated using pymatgen
data_Y3Cd3Hg2Au
_symmetry_space_group_name_H-M   'P 1'
_cell_length_a   8.12596300
_cell_length_b   8.12596378
_cell_length_c   3.80735200
_cell_angle_alpha   90.00000000
_cell_angle_beta   90.00000000
_cell_angle_gamma   120.00000090
_symmetry_Int_Tables_number   1
_chemical_formula_structural   Y3Cd3Hg2Au
_chemical_formula_sum   'Y3 Cd3 Hg2 Au1'
_cell_volume   217.72253429
_cell_formula_units_Z   1
loop_
 _symmetry_equiv_pos_site_id
 _symmetry_equiv_pos_as_xyz
  1  'x, y, z'
loop_
 _atom_site_type_symbol
 _atom_site_label
 _atom_site_symmetry_multiplicity
 _atom_site_fract_x
 _atom_site_fract_y
 _atom_site_fract_z
 _atom_site_occupancy
  Y  Y0  1  0.604517  0.013274  0.000000  1
  Y  Y1  1  0.986726  0.591242  0.000000  1
  Y  Y2  1  0.408758  0.395483  0.000000  1
  Cd  Cd3  1  0.274856  0.000543  0.500000  1
  Cd  Cd4  1  0.999457  0.274313  0.500000  1
  Cd  Cd5  1  0.725687  0.725144  0.500000  1
  Hg  Hg6  1  0.333333  0.666667  0.500000  1
  Hg  Hg7  1  0.000000  0.000000  0.000000  1
  Au  Au8  1  0.666667  0.333333  0.500000  1
