# generated using pymatgen
data_ErTm5FeCoSi6
_symmetry_space_group_name_H-M   'P 1'
_cell_length_a   5.56810177
_cell_length_b   5.56810058
_cell_length_c   13.31256823
_cell_angle_alpha   70.41051010
_cell_angle_beta   70.41051331
_cell_angle_gamma   43.51300088
_symmetry_Int_Tables_number   1
_chemical_formula_structural   ErTm5FeCoSi6
_chemical_formula_sum   'Er1 Tm5 Fe1 Co1 Si6'
_cell_volume   265.01644826
_cell_formula_units_Z   1
loop_
 _symmetry_equiv_pos_site_id
 _symmetry_equiv_pos_as_xyz
  1  'x, y, z'
loop_
 _atom_site_type_symbol
 _atom_site_label
 _atom_site_symmetry_multiplicity
 _atom_site_fract_x
 _atom_site_fract_y
 _atom_site_fract_z
 _atom_site_occupancy
  Er  Er0  1  0.600535  0.600535  0.081508  1
  Tm  Tm1  1  0.747925  0.747925  0.771275  1
  Tm  Tm2  1  0.251788  0.251788  0.228846  1
  Tm  Tm3  1  0.524765  0.524765  0.620607  1
  Tm  Tm4  1  0.476565  0.476565  0.379218  1
  Tm  Tm5  1  0.399511  0.399511  0.919662  1
  Fe  Fe6  1  0.247148  0.247148  0.582089  1
  Co  Co7  1  0.752371  0.752371  0.416166  1
  Si  Si8  1  0.140144  0.140144  0.456480  1
  Si  Si9  1  0.856961  0.856961  0.543960  1
  Si  Si10  1  0.115845  0.115845  0.924432  1
  Si  Si11  1  0.884674  0.884674  0.075828  1
  Si  Si12  1  0.054937  0.054937  0.757710  1
  Si  Si13  1  0.946830  0.946830  0.242220  1
