# generated using pymatgen
data_Y4Cd2Cu3Ru
_symmetry_space_group_name_H-M   'P 1'
_cell_length_a   7.50626724
_cell_length_b   7.50626724
_cell_length_c   3.82601400
_cell_angle_alpha   90.00000000
_cell_angle_beta   90.00000000
_cell_angle_gamma   89.47015697
_symmetry_Int_Tables_number   1
_chemical_formula_structural   Y4Cd2Cu3Ru
_chemical_formula_sum   'Y4 Cd2 Cu3 Ru1'
_cell_volume   215.56389846
_cell_formula_units_Z   1
loop_
 _symmetry_equiv_pos_site_id
 _symmetry_equiv_pos_as_xyz
  1  'x, y, z'
loop_
 _atom_site_type_symbol
 _atom_site_label
 _atom_site_symmetry_multiplicity
 _atom_site_fract_x
 _atom_site_fract_y
 _atom_site_fract_z
 _atom_site_occupancy
  Y  Y0  1  0.672370  0.172370  0.500000  1
  Y  Y1  1  0.313961  0.813961  0.500000  1
  Y  Y2  1  0.182212  0.339413  0.500000  1
  Y  Y3  1  0.839413  0.682212  0.500000  1
  Cd  Cd4  1  0.999234  0.005929  0.000000  1
  Cd  Cd5  1  0.505929  0.499234  0.000000  1
  Cu  Cu6  1  0.874963  0.374963  0.000000  1
  Cu  Cu7  1  0.617122  0.878274  0.000000  1
  Cu  Cu8  1  0.378274  0.117122  0.000000  1
  Ru  Ru9  1  0.116522  0.616522  0.000000  1
