# generated using pymatgen
data_ReSi4Pt3
_symmetry_space_group_name_H-M   'P 1'
_cell_length_a   3.38114800
_cell_length_b   5.66467688
_cell_length_c   6.28780156
_cell_angle_alpha   89.62752801
_cell_angle_beta   90.00000000
_cell_angle_gamma   90.00000000
_symmetry_Int_Tables_number   1
_chemical_formula_structural   ReSi4Pt3
_chemical_formula_sum   'Re1 Si4 Pt3'
_cell_volume   120.42841596
_cell_formula_units_Z   1
loop_
 _symmetry_equiv_pos_site_id
 _symmetry_equiv_pos_as_xyz
  1  'x, y, z'
loop_
 _atom_site_type_symbol
 _atom_site_label
 _atom_site_symmetry_multiplicity
 _atom_site_fract_x
 _atom_site_fract_y
 _atom_site_fract_z
 _atom_site_occupancy
  Re  Re0  1  0.250000  0.502671  0.693986  1
  Si  Si1  1  0.250000  0.667884  0.058868  1
  Si  Si2  1  0.750000  0.324165  0.930990  1
  Si  Si3  1  0.250000  0.185467  0.434010  1
  Si  Si4  1  0.750000  0.808414  0.575784  1
  Pt  Pt5  1  0.750000  0.504749  0.297601  1
  Pt  Pt6  1  0.250000  0.002239  0.802939  1
  Pt  Pt7  1  0.750000  0.004411  0.205823  1
