# generated using pymatgen
data_Ti3Al2O
_symmetry_space_group_name_H-M   'P 1'
_cell_length_a   6.91211200
_cell_length_b   6.91211200
_cell_length_c   6.91211200
_cell_angle_alpha   90.00000000
_cell_angle_beta   90.00000000
_cell_angle_gamma   90.00000000
_symmetry_Int_Tables_number   1
_chemical_formula_structural   Ti3Al2O
_chemical_formula_sum   'Ti12 Al8 O4'
_cell_volume   330.24199544
_cell_formula_units_Z   4
loop_
 _symmetry_equiv_pos_site_id
 _symmetry_equiv_pos_as_xyz
  1  'x, y, z'
loop_
 _atom_site_type_symbol
 _atom_site_label
 _atom_site_symmetry_multiplicity
 _atom_site_fract_x
 _atom_site_fract_y
 _atom_site_fract_z
 _atom_site_occupancy
  Ti  Ti0  1  0.791848  0.958152  0.375000  1
  Ti  Ti1  1  0.708152  0.041848  0.875000  1
  Ti  Ti2  1  0.208152  0.458152  0.125000  1
  Ti  Ti3  1  0.291848  0.541848  0.625000  1
  Ti  Ti4  1  0.958152  0.375000  0.791848  1
  Ti  Ti5  1  0.041848  0.875000  0.708152  1
  Ti  Ti6  1  0.458152  0.125000  0.208152  1
  Ti  Ti7  1  0.541848  0.625000  0.291848  1
  Ti  Ti8  1  0.375000  0.791848  0.958152  1
  Ti  Ti9  1  0.875000  0.708152  0.041848  1
  Ti  Ti10  1  0.125000  0.208152  0.458152  1
  Ti  Ti11  1  0.625000  0.291848  0.541848  1
  Al  Al12  1  0.179377  0.820623  0.320623  1
  Al  Al13  1  0.320623  0.179377  0.820623  1
  Al  Al14  1  0.820623  0.320623  0.179377  1
  Al  Al15  1  0.679377  0.679377  0.679377  1
  Al  Al16  1  0.570623  0.429377  0.929377  1
  Al  Al17  1  0.429377  0.929377  0.570623  1
  Al  Al18  1  0.929377  0.570623  0.429377  1
  Al  Al19  1  0.070623  0.070623  0.070623  1
  O  O20  1  0.875000  0.125000  0.625000  1
  O  O21  1  0.625000  0.875000  0.125000  1
  O  O22  1  0.125000  0.625000  0.875000  1
  O  O23  1  0.375000  0.375000  0.375000  1
