# generated using pymatgen
data_SrCa11(InAs3)4
_symmetry_space_group_name_H-M   'P 1'
_cell_length_a   4.31590500
_cell_length_b   12.46141591
_cell_length_c   13.91756793
_cell_angle_alpha   90.12948593
_cell_angle_beta   90.00000000
_cell_angle_gamma   90.00000000
_symmetry_Int_Tables_number   1
_chemical_formula_structural   SrCa11(InAs3)4
_chemical_formula_sum   'Sr1 Ca11 In4 As12'
_cell_volume   748.51672485
_cell_formula_units_Z   1
loop_
 _symmetry_equiv_pos_site_id
 _symmetry_equiv_pos_as_xyz
  1  'x, y, z'
loop_
 _atom_site_type_symbol
 _atom_site_label
 _atom_site_symmetry_multiplicity
 _atom_site_fract_x
 _atom_site_fract_y
 _atom_site_fract_z
 _atom_site_occupancy
  Sr  Sr0  1  0.750000  0.845103  0.002593  1
  Ca  Ca1  1  0.750000  0.770269  0.290896  1
  Ca  Ca2  1  0.750000  0.346831  0.493392  1
  Ca  Ca3  1  0.250000  0.652470  0.506275  1
  Ca  Ca4  1  0.250000  0.154421  0.994214  1
  Ca  Ca5  1  0.250000  0.436277  0.895269  1
  Ca  Ca6  1  0.250000  0.937205  0.604566  1
  Ca  Ca7  1  0.750000  0.561845  0.106001  1
  Ca  Ca8  1  0.250000  0.229322  0.710950  1
  Ca  Ca9  1  0.250000  0.727312  0.784779  1
  Ca  Ca10  1  0.750000  0.064255  0.394605  1
  Ca  Ca11  1  0.750000  0.272454  0.213126  1
  In  In12  1  0.250000  0.447376  0.300607  1
  In  In13  1  0.750000  0.055924  0.798495  1
  In  In14  1  0.750000  0.551921  0.698458  1
  In  In15  1  0.250000  0.946813  0.201363  1
  As  As16  1  0.250000  0.949667  0.861453  1
  As  As17  1  0.750000  0.551930  0.368699  1
  As  As18  1  0.250000  0.243689  0.373300  1
  As  As19  1  0.750000  0.257908  0.873435  1
  As  As20  1  0.250000  0.394073  0.110853  1
  As  As21  1  0.250000  0.895820  0.390455  1
  As  As22  1  0.250000  0.738512  0.134810  1
  As  As23  1  0.750000  0.603957  0.887610  1
  As  As24  1  0.750000  0.756455  0.626389  1
  As  As25  1  0.250000  0.446919  0.631734  1
  As  As26  1  0.750000  0.106230  0.609725  1
  As  As27  1  0.750000  0.055043  0.135948  1
