# generated using pymatgen
data_Dy3Ho9TlCo4Ni
_symmetry_space_group_name_H-M   'P 1'
_cell_length_a   8.27091097
_cell_length_b   8.27091061
_cell_length_c   8.26864401
_cell_angle_alpha   107.00743070
_cell_angle_beta   110.61920244
_cell_angle_gamma   110.82566145
_symmetry_Int_Tables_number   1
_chemical_formula_structural   Dy3Ho9TlCo4Ni
_chemical_formula_sum   'Dy3 Ho9 Tl1 Co4 Ni1'
_cell_volume   434.76918890
_cell_formula_units_Z   1
loop_
 _symmetry_equiv_pos_site_id
 _symmetry_equiv_pos_as_xyz
  1  'x, y, z'
loop_
 _atom_site_type_symbol
 _atom_site_label
 _atom_site_symmetry_multiplicity
 _atom_site_fract_x
 _atom_site_fract_y
 _atom_site_fract_z
 _atom_site_occupancy
  Dy  Dy0  1  0.804548  0.789213  0.593762  1
  Dy  Dy1  1  0.195481  0.789338  0.984819  1
  Dy  Dy2  1  0.804770  0.210789  0.015560  1
  Ho  Ho3  1  0.478013  0.292650  0.185544  1
  Ho  Ho4  1  0.107265  0.292743  0.814300  1
  Ho  Ho5  1  0.892894  0.707529  0.185544  1
  Ho  Ho6  1  0.521558  0.707036  0.814300  1
  Ho  Ho7  1  0.305235  0.620267  0.315295  1
  Ho  Ho8  1  0.305156  0.990145  0.684599  1
  Ho  Ho9  1  0.694455  0.379442  0.684599  1
  Ho  Ho10  1  0.695028  0.010059  0.315295  1
  Ho  Ho11  1  0.195618  0.210701  0.406319  1
  Tl  Tl12  1  0.000062  0.499861  0.499923  1
  Co  Co13  1  0.500046  0.612550  0.112596  1
  Co  Co14  1  0.499808  0.387361  0.887170  1
  Co  Co15  1  0.378211  0.000137  0.378347  1
  Co  Co16  1  0.621601  0.999953  0.621553  1
  Ni  Ni17  1  0.000251  0.000225  0.000476  1
