# generated using pymatgen
data_Sc8Si4Ir2Pt11Rh
_symmetry_space_group_name_H-M   'P 1'
_cell_length_a   4.03970400
_cell_length_b   6.54830403
_cell_length_c   16.13969487
_cell_angle_alpha   90.22791702
_cell_angle_beta   90.00000000
_cell_angle_gamma   90.00000000
_symmetry_Int_Tables_number   1
_chemical_formula_structural   Sc8Si4Ir2Pt11Rh
_chemical_formula_sum   'Sc8 Si4 Ir2 Pt11 Rh1'
_cell_volume   426.94335978
_cell_formula_units_Z   1
loop_
 _symmetry_equiv_pos_site_id
 _symmetry_equiv_pos_as_xyz
  1  'x, y, z'
loop_
 _atom_site_type_symbol
 _atom_site_label
 _atom_site_symmetry_multiplicity
 _atom_site_fract_x
 _atom_site_fract_y
 _atom_site_fract_z
 _atom_site_occupancy
  Sc  Sc0  1  0.000000  0.283325  0.461313  1
  Sc  Sc1  1  0.000000  0.717684  0.537312  1
  Sc  Sc2  1  0.000000  0.780672  0.041365  1
  Sc  Sc3  1  0.000000  0.212525  0.963886  1
  Sc  Sc4  1  0.000000  0.535353  0.291751  1
  Sc  Sc5  1  0.000000  0.465701  0.705614  1
  Sc  Sc6  1  0.000000  0.035365  0.211121  1
  Sc  Sc7  1  0.000000  0.972136  0.789042  1
  Si  Si8  1  0.500000  0.846321  0.306773  1
  Si  Si9  1  0.500000  0.154815  0.691960  1
  Si  Si10  1  0.500000  0.346990  0.193446  1
  Si  Si11  1  0.500000  0.654504  0.805724  1
  Ir  Ir12  1  0.000000  0.906208  0.380194  1
  Ir  Ir13  1  0.000000  0.093622  0.619127  1
  Pt  Pt14  1  0.000000  0.589959  0.881625  1
  Pt  Pt15  1  0.500000  0.600972  0.421481  1
  Pt  Pt16  1  0.500000  0.400132  0.577470  1
  Pt  Pt17  1  0.500000  0.100361  0.079705  1
  Pt  Pt18  1  0.500000  0.900016  0.921284  1
  Pt  Pt19  1  0.500000  0.499126  0.001472  1
  Pt  Pt20  1  0.500000  0.000763  0.499509  1
  Pt  Pt21  1  0.500000  0.217673  0.334079  1
  Pt  Pt22  1  0.500000  0.782851  0.665959  1
  Pt  Pt23  1  0.500000  0.715590  0.166251  1
  Pt  Pt24  1  0.500000  0.281187  0.832991  1
  Rh  Rh25  1  0.000000  0.406149  0.119547  1
