# generated using pymatgen
data_La7PrTe12
_symmetry_space_group_name_H-M   'P 1'
_cell_length_a   4.54533600
_cell_length_b   12.13463874
_cell_length_c   12.51658522
_cell_angle_alpha   89.94402181
_cell_angle_beta   89.99992437
_cell_angle_gamma   89.99997635
_symmetry_Int_Tables_number   1
_chemical_formula_structural   La7PrTe12
_chemical_formula_sum   'La7 Pr1 Te12'
_cell_volume   690.36457400
_cell_formula_units_Z   1
loop_
 _symmetry_equiv_pos_site_id
 _symmetry_equiv_pos_as_xyz
  1  'x, y, z'
loop_
 _atom_site_type_symbol
 _atom_site_label
 _atom_site_symmetry_multiplicity
 _atom_site_fract_x
 _atom_site_fract_y
 _atom_site_fract_z
 _atom_site_occupancy
  La  La0  1  0.249999  0.499830  0.695412  1
  La  La1  1  0.750000  0.498820  0.305267  1
  La  La2  1  0.749999  0.001613  0.805399  1
  La  La3  1  0.250001  0.000378  0.193515  1
  La  La4  1  0.250000  0.186617  0.512573  1
  La  La5  1  0.750001  0.813290  0.487454  1
  La  La6  1  0.750000  0.686795  0.987534  1
  Pr  Pr7  1  0.250000  0.313935  0.013645  1
  Te  Te8  1  0.250000  0.875976  0.954043  1
  Te  Te9  1  0.750000  0.126315  0.044681  1
  Te  Te10  1  0.750002  0.375305  0.545863  1
  Te  Te11  1  0.249997  0.624272  0.453939  1
  Te  Te12  1  0.250001  0.200098  0.773200  1
  Te  Te13  1  0.750000  0.800136  0.227459  1
  Te  Te14  1  0.749999  0.699143  0.727944  1
  Te  Te15  1  0.250000  0.299631  0.271595  1
  Te  Te16  1  0.249999  0.556955  0.120457  1
  Te  Te17  1  0.750002  0.440842  0.880179  1
  Te  Te18  1  0.750001  0.058491  0.378492  1
  Te  Te19  1  0.249998  0.941561  0.621347  1
