# generated using pymatgen
data_La4Nd3Eu(MoO6)4
_symmetry_space_group_name_H-M   'P 1'
_cell_length_a   5.60500358
_cell_length_b   10.26102639
_cell_length_c   10.29956901
_cell_angle_alpha   68.67822518
_cell_angle_beta   75.35005622
_cell_angle_gamma   75.47184909
_symmetry_Int_Tables_number   1
_chemical_formula_structural   La4Nd3Eu(MoO6)4
_chemical_formula_sum   'La4 Nd3 Eu1 Mo4 O24'
_cell_volume   525.51227961
_cell_formula_units_Z   1
loop_
 _symmetry_equiv_pos_site_id
 _symmetry_equiv_pos_as_xyz
  1  'x, y, z'
loop_
 _atom_site_type_symbol
 _atom_site_label
 _atom_site_symmetry_multiplicity
 _atom_site_fract_x
 _atom_site_fract_y
 _atom_site_fract_z
 _atom_site_occupancy
  La  La0  1  0.249418  0.366141  0.634351  1
  La  La1  1  0.750313  0.633328  0.367001  1
  La  La2  1  0.249576  0.888487  0.111941  1
  La  La3  1  0.748620  0.111767  0.889483  1
  Nd  Nd4  1  0.383958  0.941000  0.710957  1
  Nd  Nd5  1  0.617727  0.058279  0.287980  1
  Nd  Nd6  1  0.117443  0.289432  0.057840  1
  Eu  Eu7  1  0.883743  0.711184  0.943106  1
  Mo  Mo8  1  0.058652  0.799883  0.508306  1
  Mo  Mo9  1  0.942139  0.199413  0.492432  1
  Mo  Mo10  1  0.443872  0.493520  0.199933  1
  Mo  Mo11  1  0.556466  0.509636  0.800012  1
  O  O12  1  0.088074  0.160243  0.684670  1
  O  O13  1  0.911438  0.838963  0.315579  1
  O  O14  1  0.408557  0.314487  0.839308  1
  O  O15  1  0.590130  0.683998  0.161844  1
  O  O16  1  0.357847  0.828715  0.384360  1
  O  O17  1  0.642041  0.170348  0.615238  1
  O  O18  1  0.143874  0.615121  0.173098  1
  O  O19  1  0.854818  0.384989  0.828810  1
  O  O20  1  0.139431  0.788021  0.674106  1
  O  O21  1  0.864102  0.212094  0.325003  1
  O  O22  1  0.367094  0.325536  0.210385  1
  O  O23  1  0.636387  0.676692  0.785853  1
  O  O24  1  0.236246  0.069317  0.473120  1
  O  O25  1  0.764993  0.930370  0.526821  1
  O  O26  1  0.262146  0.527717  0.930143  1
  O  O27  1  0.735302  0.476790  0.066292  1
  O  O28  1  0.018181  0.619064  0.544824  1
  O  O29  1  0.982529  0.380229  0.455544  1
  O  O30  1  0.483238  0.454800  0.380880  1
  O  O31  1  0.517467  0.544477  0.619685  1
  O  O32  1  0.577022  0.919440  0.892616  1
  O  O33  1  0.420280  0.078389  0.109970  1
  O  O34  1  0.921295  0.109290  0.078217  1
  O  O35  1  0.075578  0.888840  0.920289  1
