# generated using pymatgen
data_Ca20ZnCd3Pd8
_symmetry_space_group_name_H-M   'P 1'
_cell_length_a   7.86180000
_cell_length_b   7.86180000
_cell_length_c   14.85534600
_cell_angle_alpha   90.00000000
_cell_angle_beta   90.00000000
_cell_angle_gamma   90.00000000
_symmetry_Int_Tables_number   1
_chemical_formula_structural   Ca20ZnCd3Pd8
_chemical_formula_sum   'Ca20 Zn1 Cd3 Pd8'
_cell_volume   918.17772874
_cell_formula_units_Z   1
loop_
 _symmetry_equiv_pos_site_id
 _symmetry_equiv_pos_as_xyz
  1  'x, y, z'
loop_
 _atom_site_type_symbol
 _atom_site_label
 _atom_site_symmetry_multiplicity
 _atom_site_fract_x
 _atom_site_fract_y
 _atom_site_fract_z
 _atom_site_occupancy
  Ca  Ca0  1  0.669967  0.162566  0.113124  1
  Ca  Ca1  1  0.166655  0.665519  0.616304  1
  Ca  Ca2  1  0.330033  0.837434  0.113124  1
  Ca  Ca3  1  0.833345  0.334481  0.616304  1
  Ca  Ca4  1  0.837434  0.669967  0.113124  1
  Ca  Ca5  1  0.334481  0.166655  0.616304  1
  Ca  Ca6  1  0.162566  0.330033  0.113124  1
  Ca  Ca7  1  0.665519  0.833345  0.616304  1
  Ca  Ca8  1  0.837434  0.330033  0.886876  1
  Ca  Ca9  1  0.334481  0.833345  0.383696  1
  Ca  Ca10  1  0.162566  0.669967  0.886876  1
  Ca  Ca11  1  0.665519  0.166655  0.383696  1
  Ca  Ca12  1  0.669967  0.837434  0.886876  1
  Ca  Ca13  1  0.166655  0.334481  0.383696  1
  Ca  Ca14  1  0.330033  0.162566  0.886876  1
  Ca  Ca15  1  0.833345  0.665519  0.383696  1
  Ca  Ca16  1  0.500000  0.500000  0.753869  1
  Ca  Ca17  1  0.000000  0.000000  0.250320  1
  Ca  Ca18  1  0.000000  0.000000  0.749680  1
  Ca  Ca19  1  0.500000  0.500000  0.246131  1
  Zn  Zn20  1  0.000000  0.000000  0.000000  1
  Cd  Cd21  1  0.500000  0.500000  0.500000  1
  Cd  Cd22  1  0.500000  0.500000  0.000000  1
  Cd  Cd23  1  0.000000  0.000000  0.500000  1
  Pd  Pd24  1  0.628643  0.128525  0.751419  1
  Pd  Pd25  1  0.128525  0.628643  0.248581  1
  Pd  Pd26  1  0.871475  0.371357  0.248581  1
  Pd  Pd27  1  0.371357  0.871475  0.751419  1
  Pd  Pd28  1  0.871475  0.628643  0.751419  1
  Pd  Pd29  1  0.371357  0.128525  0.248581  1
  Pd  Pd30  1  0.128525  0.371357  0.751419  1
  Pd  Pd31  1  0.628643  0.871475  0.248581  1
