# generated using pymatgen
data_Hf3Co8Si3P3Ru
_symmetry_space_group_name_H-M   'P 1'
_cell_length_a   12.00067762
_cell_length_b   12.00500381
_cell_length_c   3.65600000
_cell_angle_alpha   90.00000000
_cell_angle_beta   90.00000000
_cell_angle_gamma   120.01193538
_symmetry_Int_Tables_number   1
_chemical_formula_structural   Hf3Co8Si3P3Ru
_chemical_formula_sum   'Hf6 Co16 Si6 P6 Ru2'
_cell_volume   456.09220065
_cell_formula_units_Z   2
loop_
 _symmetry_equiv_pos_site_id
 _symmetry_equiv_pos_as_xyz
  1  'x, y, z'
loop_
 _atom_site_type_symbol
 _atom_site_label
 _atom_site_symmetry_multiplicity
 _atom_site_fract_x
 _atom_site_fract_y
 _atom_site_fract_z
 _atom_site_occupancy
  Hf  Hf0  1  0.821654  0.818446  0.500000  1
  Hf  Hf1  1  0.000000  0.177020  0.500000  1
  Hf  Hf2  1  0.335186  0.666327  0.000000  1
  Hf  Hf3  1  0.664814  0.331140  0.000000  1
  Hf  Hf4  1  0.000000  0.555986  0.000000  1
  Hf  Hf5  1  0.178346  0.996793  0.500000  1
  Co  Co6  1  0.628926  0.822852  0.000000  1
  Co  Co7  1  0.371074  0.193927  0.000000  1
  Co  Co8  1  0.000000  0.724193  0.500000  1
  Co  Co9  1  0.276615  0.274114  0.500000  1
  Co  Co10  1  0.873124  0.348841  0.500000  1
  Co  Co11  1  0.723385  0.997500  0.500000  1
  Co  Co12  1  0.817379  0.630733  0.000000  1
  Co  Co13  1  0.182621  0.813354  0.000000  1
  Co  Co14  1  0.357390  0.884314  0.500000  1
  Co  Co15  1  0.126876  0.475717  0.500000  1
  Co  Co16  1  0.642610  0.526924  0.500000  1
  Co  Co17  1  0.000000  0.000008  0.000000  1
  Co  Co18  1  0.521230  0.648928  0.500000  1
  Co  Co19  1  0.478770  0.127699  0.500000  1
  Co  Co20  1  0.192307  0.364049  0.000000  1
  Co  Co21  1  0.807693  0.171742  0.000000  1
  Si  Si22  1  0.822882  0.514515  0.500000  1
  Si  Si23  1  0.683044  0.162375  0.500000  1
  Si  Si24  1  0.517609  0.837451  0.500000  1
  Si  Si25  1  0.177118  0.691632  0.500000  1
  Si  Si26  1  0.482391  0.319841  0.500000  1
  Si  Si27  1  0.316956  0.479330  0.500000  1
  P  P28  1  0.000000  0.346239  0.000000  1
  P  P29  1  0.176211  0.173069  0.000000  1
  P  P30  1  0.639796  0.645142  0.000000  1
  P  P31  1  0.823789  0.996856  0.000000  1
  P  P32  1  0.360204  0.005346  0.000000  1
  P  P33  1  0.000000  0.824580  0.000000  1
  Ru  Ru34  1  0.447319  0.450166  0.000000  1
  Ru  Ru35  1  0.552681  0.002848  0.000000  1
