# generated using pymatgen
data_Pr3Tl2InAg2Rh
_symmetry_space_group_name_H-M   'P 1'
_cell_length_a   7.99223430
_cell_length_b   8.05902101
_cell_length_c   4.08411700
_cell_angle_alpha   90.00000000
_cell_angle_beta   90.00000000
_cell_angle_gamma   119.88985991
_symmetry_Int_Tables_number   1
_chemical_formula_structural   Pr3Tl2InAg2Rh
_chemical_formula_sum   'Pr3 Tl2 In1 Ag2 Rh1'
_cell_volume   228.06583524
_cell_formula_units_Z   1
loop_
 _symmetry_equiv_pos_site_id
 _symmetry_equiv_pos_as_xyz
  1  'x, y, z'
loop_
 _atom_site_type_symbol
 _atom_site_label
 _atom_site_symmetry_multiplicity
 _atom_site_fract_x
 _atom_site_fract_y
 _atom_site_fract_z
 _atom_site_occupancy
  Pr  Pr0  1  0.976771  0.575653  0.500000  1
  Pr  Pr1  1  0.424025  0.399914  0.500000  1
  Pr  Pr2  1  0.599692  0.024166  0.500000  1
  Tl  Tl3  1  0.740516  0.738842  0.000000  1
  Tl  Tl4  1  0.001797  0.261615  0.000000  1
  In  In5  1  0.258727  0.000851  0.000000  1
  Ag  Ag6  1  0.332869  0.672270  0.000000  1
  Ag  Ag7  1  0.006870  0.000028  0.500000  1
  Rh  Rh8  1  0.658732  0.326662  0.000000  1
