# generated using pymatgen
data_Sr5TlGa2
_symmetry_space_group_name_H-M   'P 1'
_cell_length_a   10.02590161
_cell_length_b   10.02590167
_cell_length_c   10.02590100
_cell_angle_alpha   129.54483883
_cell_angle_beta   129.54483914
_cell_angle_gamma   74.13547153
_symmetry_Int_Tables_number   1
_chemical_formula_structural   Sr5TlGa2
_chemical_formula_sum   'Sr10 Tl2 Ga4'
_cell_volume   584.31707573
_cell_formula_units_Z   2
loop_
 _symmetry_equiv_pos_site_id
 _symmetry_equiv_pos_as_xyz
  1  'x, y, z'
loop_
 _atom_site_type_symbol
 _atom_site_label
 _atom_site_symmetry_multiplicity
 _atom_site_fract_x
 _atom_site_fract_y
 _atom_site_fract_z
 _atom_site_occupancy
  Sr  Sr0  1  0.000000  0.000000  0.000000  1
  Sr  Sr1  1  0.500000  0.500000  0.000000  1
  Sr  Sr2  1  0.181936  0.681936  0.148090  1
  Sr  Sr3  1  0.466154  0.966154  0.148090  1
  Sr  Sr4  1  0.033846  0.181937  0.500000  1
  Sr  Sr5  1  0.318063  0.466154  0.500000  1
  Sr  Sr6  1  0.681936  0.533846  0.500000  1
  Sr  Sr7  1  0.966154  0.818064  0.500000  1
  Sr  Sr8  1  0.533846  0.033846  0.851910  1
  Sr  Sr9  1  0.818063  0.318063  0.851910  1
  Tl  Tl10  1  0.250000  0.250000  0.000000  1
  Tl  Tl11  1  0.750000  0.750000  0.000000  1
  Ga  Ga12  1  0.894414  0.394415  0.288832  1
  Ga  Ga13  1  0.394414  0.105585  0.499999  1
  Ga  Ga14  1  0.605584  0.894414  0.499999  1
  Ga  Ga15  1  0.105585  0.605585  0.711167  1
