# generated using pymatgen
data_Sr3Tb(Al3Pd)6
_symmetry_space_group_name_H-M   'P 1'
_cell_length_a   7.72703878
_cell_length_b   7.73135415
_cell_length_c   9.67198400
_cell_angle_alpha   90.00000000
_cell_angle_beta   90.00000000
_cell_angle_gamma   119.43053886
_symmetry_Int_Tables_number   1
_chemical_formula_structural   Sr3Tb(Al3Pd)6
_chemical_formula_sum   'Sr3 Tb1 Al18 Pd6'
_cell_volume   503.24383847
_cell_formula_units_Z   1
loop_
 _symmetry_equiv_pos_site_id
 _symmetry_equiv_pos_as_xyz
  1  'x, y, z'
loop_
 _atom_site_type_symbol
 _atom_site_label
 _atom_site_symmetry_multiplicity
 _atom_site_fract_x
 _atom_site_fract_y
 _atom_site_fract_z
 _atom_site_occupancy
  Sr  Sr0  1  0.994448  0.669199  0.250000  1
  Sr  Sr1  1  0.002934  0.330538  0.750000  1
  Sr  Sr2  1  0.670946  0.995847  0.250000  1
  Tb  Tb3  1  0.329980  0.002641  0.750000  1
  Al  Al4  1  0.137240  0.135219  0.250000  1
  Al  Al5  1  0.870957  0.867174  0.750000  1
  Al  Al6  1  0.005650  0.335021  0.072173  1
  Al  Al7  1  0.999207  0.667556  0.921730  1
  Al  Al8  1  0.999207  0.667556  0.578270  1
  Al  Al9  1  0.334601  0.003720  0.431024  1
  Al  Al10  1  0.005650  0.335021  0.427827  1
  Al  Al11  1  0.662827  0.997217  0.578116  1
  Al  Al12  1  0.662827  0.997217  0.921884  1
  Al  Al13  1  0.334601  0.003720  0.068976  1
  Al  Al14  1  0.334328  0.331928  0.557435  1
  Al  Al15  1  0.663715  0.663761  0.454426  1
  Al  Al16  1  0.663715  0.663761  0.045574  1
  Al  Al17  1  0.334328  0.331928  0.942565  1
  Al  Al18  1  0.341140  0.543086  0.250000  1
  Al  Al19  1  0.652561  0.451989  0.750000  1
  Al  Al20  1  0.540791  0.339342  0.250000  1
  Al  Al21  1  0.457903  0.665959  0.750000  1
  Pd  Pd22  1  0.670439  0.328516  0.997951  1
  Pd  Pd23  1  0.328827  0.671300  0.997643  1
  Pd  Pd24  1  0.328827  0.671300  0.502357  1
  Pd  Pd25  1  0.670439  0.328516  0.502049  1
  Pd  Pd26  1  0.000955  0.000483  0.997552  1
  Pd  Pd27  1  0.000955  0.000483  0.502448  1
