# generated using pymatgen
data_Er5ZrBiO12
_symmetry_space_group_name_H-M   'P 1'
_cell_length_a   6.47141495
_cell_length_b   6.48929714
_cell_length_c   6.44211761
_cell_angle_alpha   98.88302432
_cell_angle_beta   99.48367212
_cell_angle_gamma   99.07845137
_symmetry_Int_Tables_number   1
_chemical_formula_structural   Er5ZrBiO12
_chemical_formula_sum   'Er5 Zr1 Bi1 O12'
_cell_volume   258.93609909
_cell_formula_units_Z   1
loop_
 _symmetry_equiv_pos_site_id
 _symmetry_equiv_pos_as_xyz
  1  'x, y, z'
loop_
 _atom_site_type_symbol
 _atom_site_label
 _atom_site_symmetry_multiplicity
 _atom_site_fract_x
 _atom_site_fract_y
 _atom_site_fract_z
 _atom_site_occupancy
  Er  Er0  1  0.144137  0.607952  0.313518  1
  Er  Er1  1  0.687511  0.859045  0.390380  1
  Er  Er2  1  0.312639  0.141139  0.610822  1
  Er  Er3  1  0.860739  0.391428  0.685425  1
  Er  Er4  1  0.393236  0.680031  0.853005  1
  Zr  Zr5  1  0.609952  0.320909  0.145813  1
  Bi  Bi6  1  0.998800  0.000483  0.003054  1
  O  O7  1  0.678124  0.926930  0.049783  1
  O  O8  1  0.932561  0.316958  0.078741  1
  O  O9  1  0.432375  0.567655  0.177017  1
  O  O10  1  0.071204  0.946453  0.320363  1
  O  O11  1  0.816579  0.564091  0.403283  1
  O  O12  1  0.582975  0.183317  0.415367  1
  O  O13  1  0.417955  0.823981  0.569682  1
  O  O14  1  0.179686  0.429105  0.584542  1
  O  O15  1  0.928089  0.052894  0.683033  1
  O  O16  1  0.575415  0.407750  0.829868  1
  O  O17  1  0.056993  0.685259  0.923294  1
  O  O18  1  0.321030  0.094619  0.963009  1
