# generated using pymatgen
data_Hf18Re8HgSe
_symmetry_space_group_name_H-M   'P 1'
_cell_length_a   8.68728500
_cell_length_b   8.68728395
_cell_length_c   8.61822200
_cell_angle_alpha   90.00000000
_cell_angle_beta   90.00000000
_cell_angle_gamma   120.00000780
_symmetry_Int_Tables_number   1
_chemical_formula_structural   Hf18Re8HgSe
_chemical_formula_sum   'Hf18 Re8 Hg1 Se1'
_cell_volume   563.26966270
_cell_formula_units_Z   1
loop_
 _symmetry_equiv_pos_site_id
 _symmetry_equiv_pos_as_xyz
  1  'x, y, z'
loop_
 _atom_site_type_symbol
 _atom_site_label
 _atom_site_symmetry_multiplicity
 _atom_site_fract_x
 _atom_site_fract_y
 _atom_site_fract_z
 _atom_site_occupancy
  Hf  Hf0  1  0.188919  0.811081  0.451525  1
  Hf  Hf1  1  0.188919  0.377839  0.451525  1
  Hf  Hf2  1  0.622161  0.811081  0.451525  1
  Hf  Hf3  1  0.807054  0.192946  0.548886  1
  Hf  Hf4  1  0.807054  0.614109  0.548886  1
  Hf  Hf5  1  0.385891  0.192946  0.548886  1
  Hf  Hf6  1  0.807054  0.192946  0.951114  1
  Hf  Hf7  1  0.807054  0.614109  0.951114  1
  Hf  Hf8  1  0.385891  0.192946  0.951114  1
  Hf  Hf9  1  0.188919  0.811081  0.048475  1
  Hf  Hf10  1  0.188919  0.377839  0.048475  1
  Hf  Hf11  1  0.622161  0.811081  0.048475  1
  Hf  Hf12  1  0.542723  0.457277  0.250000  1
  Hf  Hf13  1  0.542723  0.085447  0.250000  1
  Hf  Hf14  1  0.914553  0.457277  0.250000  1
  Hf  Hf15  1  0.454105  0.545895  0.750000  1
  Hf  Hf16  1  0.454105  0.908211  0.750000  1
  Hf  Hf17  1  0.091789  0.545895  0.750000  1
  Re  Re18  1  0.890063  0.109937  0.250000  1
  Re  Re19  1  0.890063  0.780126  0.250000  1
  Re  Re20  1  0.219874  0.109937  0.250000  1
  Re  Re21  1  0.109417  0.890583  0.750000  1
  Re  Re22  1  0.109417  0.218835  0.750000  1
  Re  Re23  1  0.781165  0.890583  0.750000  1
  Re  Re24  1  0.000000  0.000000  0.500412  1
  Re  Re25  1  0.000000  0.000000  0.999588  1
  Hg  Hg26  1  0.333333  0.666667  0.250000  1
  Se  Se27  1  0.666667  0.333333  0.750000  1
