# generated using pymatgen
data_K8Hf3ZrTe12
_symmetry_space_group_name_H-M   'P 1'
_cell_length_a   14.32983931
_cell_length_b   7.00137813
_cell_length_c   9.29339467
_cell_angle_alpha   73.92453645
_cell_angle_beta   89.99165408
_cell_angle_gamma   90.01901594
_symmetry_Int_Tables_number   1
_chemical_formula_structural   K8Hf3ZrTe12
_chemical_formula_sum   'K8 Hf3 Zr1 Te12'
_cell_volume   895.93480466
_cell_formula_units_Z   1
loop_
 _symmetry_equiv_pos_site_id
 _symmetry_equiv_pos_as_xyz
  1  'x, y, z'
loop_
 _atom_site_type_symbol
 _atom_site_label
 _atom_site_symmetry_multiplicity
 _atom_site_fract_x
 _atom_site_fract_y
 _atom_site_fract_z
 _atom_site_occupancy
  K  K0  1  0.963667  0.663524  0.655548  1
  K  K1  1  0.463450  0.836946  0.344675  1
  K  K2  1  0.036549  0.336814  0.344627  1
  K  K3  1  0.536385  0.163171  0.655476  1
  K  K4  1  0.862767  0.058133  0.898495  1
  K  K5  1  0.362554  0.441728  0.101592  1
  K  K6  1  0.137386  0.941581  0.101583  1
  K  K7  1  0.637229  0.558285  0.898399  1
  Hf  Hf8  1  0.749122  0.693715  0.292404  1
  Hf  Hf9  1  0.249161  0.805827  0.707330  1
  Hf  Hf10  1  0.250866  0.305910  0.707281  1
  Zr  Zr11  1  0.750873  0.195358  0.292742  1
  Te  Te12  1  0.914782  0.922836  0.273993  1
  Te  Te13  1  0.413863  0.574426  0.725271  1
  Te  Te14  1  0.086108  0.074446  0.725218  1
  Te  Te15  1  0.584931  0.428411  0.274069  1
  Te  Te16  1  0.811620  0.335548  0.534664  1
  Te  Te17  1  0.311788  0.166024  0.467429  1
  Te  Te18  1  0.188266  0.665950  0.467501  1
  Te  Te19  1  0.688459  0.830589  0.534087  1
  Te  Te20  1  0.849695  0.502381  0.078618  1
  Te  Te21  1  0.348651  0.001046  0.919913  1
  Te  Te22  1  0.151305  0.500893  0.919995  1
  Te  Te23  1  0.650524  0.996457  0.079092  1
