# generated using pymatgen
data_Ta6Be14Co8As
_symmetry_space_group_name_H-M   'P 1'
_cell_length_a   7.58731429
_cell_length_b   7.58731408
_cell_length_c   7.58731400
_cell_angle_alpha   60.00000035
_cell_angle_beta   60.00000124
_cell_angle_gamma   59.99999994
_symmetry_Int_Tables_number   1
_chemical_formula_structural   Ta6Be14Co8As
_chemical_formula_sum   'Ta6 Be14 Co8 As1'
_cell_volume   308.85113464
_cell_formula_units_Z   1
loop_
 _symmetry_equiv_pos_site_id
 _symmetry_equiv_pos_as_xyz
  1  'x, y, z'
loop_
 _atom_site_type_symbol
 _atom_site_label
 _atom_site_symmetry_multiplicity
 _atom_site_fract_x
 _atom_site_fract_y
 _atom_site_fract_z
 _atom_site_occupancy
  Ta  Ta0  1  0.705218  0.294782  0.294782  1
  Ta  Ta1  1  0.294782  0.705218  0.705218  1
  Ta  Ta2  1  0.294782  0.705218  0.294782  1
  Ta  Ta3  1  0.705218  0.294782  0.705218  1
  Ta  Ta4  1  0.294782  0.294782  0.705218  1
  Ta  Ta5  1  0.705218  0.705218  0.294782  1
  Be  Be6  1  0.326516  0.326516  0.326516  1
  Be  Be7  1  0.673484  0.673484  0.673484  1
  Be  Be8  1  0.326516  0.326516  0.020449  1
  Be  Be9  1  0.326516  0.020449  0.326516  1
  Be  Be10  1  0.673484  0.673484  0.979551  1
  Be  Be11  1  0.673484  0.979551  0.673484  1
  Be  Be12  1  0.020449  0.326516  0.326516  1
  Be  Be13  1  0.979551  0.673484  0.673484  1
  Be  Be14  1  0.500000  0.000000  0.000000  1
  Be  Be15  1  0.000000  0.500000  0.500000  1
  Be  Be16  1  0.000000  0.500000  0.000000  1
  Be  Be17  1  0.500000  0.000000  0.500000  1
  Be  Be18  1  0.000000  0.000000  0.500000  1
  Be  Be19  1  0.500000  0.500000  0.000000  1
  Co  Co20  1  0.125279  0.125279  0.125279  1
  Co  Co21  1  0.874721  0.874722  0.874721  1
  Co  Co22  1  0.125279  0.125279  0.624163  1
  Co  Co23  1  0.125279  0.624163  0.125278  1
  Co  Co24  1  0.874721  0.874722  0.375837  1
  Co  Co25  1  0.874721  0.375837  0.874721  1
  Co  Co26  1  0.624163  0.125279  0.125279  1
  Co  Co27  1  0.375837  0.874721  0.874721  1
  As  As28  1  0.000000  0.000000  0.000000  1
