# generated using pymatgen
data_TmZnGa6Cu5
_symmetry_space_group_name_H-M   'P 1'
_cell_length_a   6.64200916
_cell_length_b   6.64200894
_cell_length_c   6.64200902
_cell_angle_alpha   134.11741551
_cell_angle_beta   99.54155709
_cell_angle_gamma   97.93826646
_symmetry_Int_Tables_number   1
_chemical_formula_structural   TmZnGa6Cu5
_chemical_formula_sum   'Tm1 Zn1 Ga6 Cu5'
_cell_volume   193.69937103
_cell_formula_units_Z   1
loop_
 _symmetry_equiv_pos_site_id
 _symmetry_equiv_pos_as_xyz
  1  'x, y, z'
loop_
 _atom_site_type_symbol
 _atom_site_label
 _atom_site_symmetry_multiplicity
 _atom_site_fract_x
 _atom_site_fract_y
 _atom_site_fract_z
 _atom_site_occupancy
  Tm  Tm0  1  0.000986  0.000000  0.000986  1
  Zn  Zn1  1  0.768140  0.500000  0.268140  1
  Ga  Ga2  1  0.648292  0.653656  0.994635  1
  Ga  Ga3  1  0.340979  0.346344  0.994635  1
  Ga  Ga4  1  0.345544  0.000000  0.345544  1
  Ga  Ga5  1  0.651719  0.000000  0.651719  1
  Ga  Ga6  1  0.201616  0.696529  0.505086  1
  Ga  Ga7  1  0.808557  0.303471  0.505086  1
  Cu  Cu8  1  0.502317  0.500307  0.499590  1
  Cu  Cu9  1  0.502317  0.002727  0.002010  1
  Cu  Cu10  1  0.999283  0.499693  0.002010  1
  Cu  Cu11  1  0.999283  0.997273  0.499590  1
  Cu  Cu12  1  0.230971  0.500000  0.730971  1
