# generated using pymatgen
data_CaTb2Y4Sn23Ir6
_symmetry_space_group_name_H-M   'P 1'
_cell_length_a   9.91156507
_cell_length_b   9.91158327
_cell_length_c   10.10653204
_cell_angle_alpha   89.99200428
_cell_angle_beta   90.00810043
_cell_angle_gamma   119.99666904
_symmetry_Int_Tables_number   1
_chemical_formula_structural   CaTb2Y4Sn23Ir6
_chemical_formula_sum   'Ca1 Tb2 Y4 Sn23 Ir6'
_cell_volume   859.86966869
_cell_formula_units_Z   1
loop_
 _symmetry_equiv_pos_site_id
 _symmetry_equiv_pos_as_xyz
  1  'x, y, z'
loop_
 _atom_site_type_symbol
 _atom_site_label
 _atom_site_symmetry_multiplicity
 _atom_site_fract_x
 _atom_site_fract_y
 _atom_site_fract_z
 _atom_site_occupancy
  Ca  Ca0  1  0.999985  0.000017  0.999950  1
  Tb  Tb1  1  0.038527  0.519177  0.306676  1
  Tb  Tb2  1  0.480823  0.961473  0.306676  1
  Y  Y3  1  0.480710  0.519290  0.307063  1
  Y  Y4  1  0.961321  0.480761  0.693095  1
  Y  Y5  1  0.519239  0.038680  0.693095  1
  Y  Y6  1  0.519241  0.480758  0.693007  1
  Sn  Sn7  1  0.999925  0.000075  0.500004  1
  Sn  Sn8  1  0.117173  0.882826  0.282957  1
  Sn  Sn9  1  0.764828  0.882207  0.282991  1
  Sn  Sn10  1  0.117793  0.235172  0.282990  1
  Sn  Sn11  1  0.882778  0.117222  0.717283  1
  Sn  Sn12  1  0.235172  0.117667  0.717090  1
  Sn  Sn13  1  0.882334  0.764829  0.717090  1
  Sn  Sn14  1  0.351633  0.000003  0.999915  1
  Sn  Sn15  1  0.648408  0.648428  0.999989  1
  Sn  Sn16  1  0.000289  0.351776  0.000093  1
  Sn  Sn17  1  0.351573  0.351592  0.999989  1
  Sn  Sn18  1  0.999997  0.648367  0.999915  1
  Sn  Sn19  1  0.648224  0.999711  0.000093  1
  Sn  Sn20  1  0.777971  0.555993  0.457654  1
  Sn  Sn21  1  0.777958  0.222041  0.457891  1
  Sn  Sn22  1  0.444006  0.222029  0.457654  1
  Sn  Sn23  1  0.221963  0.444231  0.542462  1
  Sn  Sn24  1  0.222088  0.777913  0.542346  1
  Sn  Sn25  1  0.555769  0.778037  0.542461  1
  Sn  Sn26  1  0.666722  0.333278  0.175876  1
  Sn  Sn27  1  0.333303  0.666697  0.823961  1
  Sn  Sn28  1  0.666638  0.333362  0.879474  1
  Sn  Sn29  1  0.333445  0.666555  0.120390  1
  Ir  Ir30  1  0.170105  0.829895  0.799518  1
  Ir  Ir31  1  0.659642  0.829853  0.799500  1
  Ir  Ir32  1  0.170147  0.340358  0.799500  1
  Ir  Ir33  1  0.829904  0.170096  0.200463  1
  Ir  Ir34  1  0.340485  0.170122  0.200443  1
  Ir  Ir35  1  0.829877  0.659515  0.200443  1
