# generated using pymatgen
data_Tb3Sm5(CuP)12
_symmetry_space_group_name_H-M   'P 1'
_cell_length_a   3.90356100
_cell_length_b   10.75551708
_cell_length_c   13.01468309
_cell_angle_alpha   89.98629759
_cell_angle_beta   90.00000000
_cell_angle_gamma   90.00000000
_symmetry_Int_Tables_number   1
_chemical_formula_structural   Tb3Sm5(CuP)12
_chemical_formula_sum   'Tb3 Sm5 Cu12 P12'
_cell_volume   546.41907230
_cell_formula_units_Z   1
loop_
 _symmetry_equiv_pos_site_id
 _symmetry_equiv_pos_as_xyz
  1  'x, y, z'
loop_
 _atom_site_type_symbol
 _atom_site_label
 _atom_site_symmetry_multiplicity
 _atom_site_fract_x
 _atom_site_fract_y
 _atom_site_fract_z
 _atom_site_occupancy
  Tb  Tb0  1  0.750000  0.341970  0.997567  1
  Tb  Tb1  1  0.250000  0.657920  0.002238  1
  Tb  Tb2  1  0.750000  0.158710  0.497629  1
  Sm  Sm3  1  0.250000  0.931177  0.794703  1
  Sm  Sm4  1  0.750000  0.430372  0.706834  1
  Sm  Sm5  1  0.250000  0.568766  0.292703  1
  Sm  Sm6  1  0.750000  0.069325  0.206321  1
  Sm  Sm7  1  0.250000  0.841861  0.502540  1
  Cu  Cu8  1  0.250000  0.400502  0.513020  1
  Cu  Cu9  1  0.750000  0.900945  0.987191  1
  Cu  Cu10  1  0.250000  0.099590  0.012961  1
  Cu  Cu11  1  0.750000  0.598514  0.486957  1
  Cu  Cu12  1  0.250000  0.272917  0.332669  1
  Cu  Cu13  1  0.750000  0.771909  0.166793  1
  Cu  Cu14  1  0.250000  0.227774  0.832664  1
  Cu  Cu15  1  0.750000  0.727460  0.668225  1
  Cu  Cu16  1  0.250000  0.860394  0.277750  1
  Cu  Cu17  1  0.750000  0.360002  0.220730  1
  Cu  Cu18  1  0.250000  0.639769  0.779288  1
  Cu  Cu19  1  0.750000  0.140339  0.721503  1
  P  P20  1  0.250000  0.237671  0.644261  1
  P  P21  1  0.750000  0.737646  0.855960  1
  P  P22  1  0.250000  0.262441  0.144120  1
  P  P23  1  0.750000  0.761230  0.353619  1
  P  P24  1  0.250000  0.602700  0.599601  1
  P  P25  1  0.750000  0.104857  0.901410  1
  P  P26  1  0.250000  0.895554  0.098413  1
  P  P27  1  0.750000  0.395544  0.400924  1
  P  P28  1  0.250000  0.058886  0.369364  1
  P  P29  1  0.750000  0.557347  0.129505  1
  P  P30  1  0.250000  0.442313  0.870132  1
  P  P31  1  0.750000  0.943592  0.632403  1
