# generated using pymatgen
data_HoEr7Lu2(BiAu2)2
_symmetry_space_group_name_H-M   'P 1'
_cell_length_a   8.64325254
_cell_length_b   8.64325241
_cell_length_c   8.64435610
_cell_angle_alpha   124.28513874
_cell_angle_beta   124.28513492
_cell_angle_gamma   82.71858604
_symmetry_Int_Tables_number   1
_chemical_formula_structural   HoEr7Lu2(BiAu2)2
_chemical_formula_sum   'Ho1 Er7 Lu2 Bi2 Au4'
_cell_volume   423.33674700
_cell_formula_units_Z   1
loop_
 _symmetry_equiv_pos_site_id
 _symmetry_equiv_pos_as_xyz
  1  'x, y, z'
loop_
 _atom_site_type_symbol
 _atom_site_label
 _atom_site_symmetry_multiplicity
 _atom_site_fract_x
 _atom_site_fract_y
 _atom_site_fract_z
 _atom_site_occupancy
  Ho  Ho0  1  0.514086  0.014086  0.808850  1
  Er  Er1  1  0.205378  0.705378  0.191172  1
  Er  Er2  1  0.014148  0.205434  0.500008  1
  Er  Er3  1  0.705434  0.514148  0.500008  1
  Er  Er4  1  0.485842  0.985842  0.191291  1
  Er  Er5  1  0.794575  0.294575  0.808713  1
  Er  Er6  1  0.985801  0.794541  0.499977  1
  Er  Er7  1  0.294541  0.485801  0.499977  1
  Lu  Lu8  1  0.499989  0.500060  0.000009  1
  Lu  Lu9  1  0.000060  0.999989  0.000009  1
  Bi  Bi10  1  0.249964  0.250040  0.000011  1
  Bi  Bi11  1  0.750040  0.749964  0.000011  1
  Au  Au12  1  0.139293  0.639293  0.778571  1
  Au  Au13  1  0.860818  0.360818  0.221551  1
  Au  Au14  1  0.639343  0.860688  0.499921  1
  Au  Au15  1  0.360688  0.139343  0.499921  1
