# generated using pymatgen
data_TbYFe3P7Ru9
_symmetry_space_group_name_H-M   'P 1'
_cell_length_a   3.85720700
_cell_length_b   9.29872471
_cell_length_c   9.29847704
_cell_angle_alpha   120.00418621
_cell_angle_beta   90.00000000
_cell_angle_gamma   90.00000000
_symmetry_Int_Tables_number   1
_chemical_formula_structural   TbYFe3P7Ru9
_chemical_formula_sum   'Tb1 Y1 Fe3 P7 Ru9'
_cell_volume   288.81548198
_cell_formula_units_Z   1
loop_
 _symmetry_equiv_pos_site_id
 _symmetry_equiv_pos_as_xyz
  1  'x, y, z'
loop_
 _atom_site_type_symbol
 _atom_site_label
 _atom_site_symmetry_multiplicity
 _atom_site_fract_x
 _atom_site_fract_y
 _atom_site_fract_z
 _atom_site_occupancy
  Tb  Tb0  1  0.000000  0.666658  0.333365  1
  Y  Y1  1  0.500000  0.333344  0.666645  1
  Fe  Fe2  1  0.000000  0.889977  0.732470  1
  Fe  Fe3  1  0.000000  0.267445  0.157513  1
  Fe  Fe4  1  0.000000  0.842524  0.109963  1
  P  P5  1  0.000000  0.108501  0.695977  1
  P  P6  1  0.000000  0.303986  0.412413  1
  P  P7  1  0.000000  0.587484  0.891544  1
  P  P8  1  0.500000  0.719261  0.603819  1
  P  P9  1  0.500000  0.396185  0.115462  1
  P  P10  1  0.500000  0.884572  0.280751  1
  P  P11  1  0.000000  0.000036  0.000023  1
  Ru  Ru12  1  0.000000  0.360915  0.940104  1
  Ru  Ru13  1  0.000000  0.059900  0.420850  1
  Ru  Ru14  1  0.000000  0.579130  0.639067  1
  Ru  Ru15  1  0.500000  0.948038  0.562552  1
  Ru  Ru16  1  0.500000  0.437407  0.385414  1
  Ru  Ru17  1  0.500000  0.614509  0.051968  1
  Ru  Ru18  1  0.500000  0.116582  0.912205  1
  Ru  Ru19  1  0.500000  0.087910  0.204433  1
  Ru  Ru20  1  0.500000  0.795635  0.883464  1
