# generated using pymatgen
data_Hf7Pt19Rh2
_symmetry_space_group_name_H-M   'P 1'
_cell_length_a   5.67691900
_cell_length_b   5.69806953
_cell_length_c   16.28560040
_cell_angle_alpha   90.00879298
_cell_angle_beta   90.00000000
_cell_angle_gamma   119.87728209
_symmetry_Int_Tables_number   1
_chemical_formula_structural   Hf7Pt19Rh2
_chemical_formula_sum   'Hf7 Pt19 Rh2'
_cell_volume   456.78365686
_cell_formula_units_Z   1
loop_
 _symmetry_equiv_pos_site_id
 _symmetry_equiv_pos_as_xyz
  1  'x, y, z'
loop_
 _atom_site_type_symbol
 _atom_site_label
 _atom_site_symmetry_multiplicity
 _atom_site_fract_x
 _atom_site_fract_y
 _atom_site_fract_z
 _atom_site_occupancy
  Hf  Hf0  1  0.998218  0.996437  0.717168  1
  Hf  Hf1  1  0.663429  0.326857  0.858662  1
  Hf  Hf2  1  0.336792  0.673584  0.141493  1
  Hf  Hf3  1  0.000005  0.000009  0.281457  1
  Hf  Hf4  1  0.670196  0.340391  0.432037  1
  Hf  Hf5  1  0.000215  0.000431  0.999585  1
  Hf  Hf6  1  0.332436  0.664873  0.570843  1
  Pt  Pt7  1  0.331936  0.164981  0.571554  1
  Pt  Pt8  1  0.168082  0.336164  0.856941  1
  Pt  Pt9  1  0.166360  0.332720  0.428830  1
  Pt  Pt10  1  0.166780  0.834374  0.428883  1
  Pt  Pt11  1  0.499434  0.998866  0.713210  1
  Pt  Pt12  1  0.667594  0.834374  0.428883  1
  Pt  Pt13  1  0.169354  0.827455  0.857281  1
  Pt  Pt14  1  0.658102  0.827455  0.857281  1
  Pt  Pt15  1  0.830798  0.172527  0.142379  1
  Pt  Pt16  1  0.833045  0.164981  0.571554  1
  Pt  Pt17  1  0.501821  0.499136  0.713263  1
  Pt  Pt18  1  0.341729  0.172527  0.142379  1
  Pt  Pt19  1  0.831726  0.663453  0.142879  1
  Pt  Pt20  1  0.499009  0.500937  0.286576  1
  Pt  Pt21  1  0.500866  0.001735  0.286453  1
  Pt  Pt22  1  0.001928  0.500937  0.286576  1
  Pt  Pt23  1  0.997316  0.499136  0.713263  1
  Pt  Pt24  1  0.500106  0.500237  0.999883  1
  Pt  Pt25  1  0.000131  0.500237  0.999883  1
  Rh  Rh26  1  0.832572  0.665142  0.570884  1
  Rh  Rh27  1  0.500021  0.000041  0.999916  1
