# generated using pymatgen
data_PCl30
_symmetry_space_group_name_H-M   'P 1'
_cell_length_a   13.40227001
_cell_length_b   13.40227001
_cell_length_c   15.66248572
_cell_angle_alpha   83.99635396
_cell_angle_beta   83.99635757
_cell_angle_gamma   125.66590476
_symmetry_Int_Tables_number   1
_chemical_formula_structural   PCl30
_chemical_formula_sum   'P1 Cl30'
_cell_volume   2224.84184765
_cell_formula_units_Z   1
loop_
 _symmetry_equiv_pos_site_id
 _symmetry_equiv_pos_as_xyz
  1  'x, y, z'
loop_
 _atom_site_type_symbol
 _atom_site_label
 _atom_site_symmetry_multiplicity
 _atom_site_fract_x
 _atom_site_fract_y
 _atom_site_fract_z
 _atom_site_occupancy
  P  P0  1  0.000000  0.000000  0.000000  1
  Cl  Cl1  1  0.948478  0.948478  0.145201  1
  Cl  Cl2  1  0.051522  0.051522  0.854799  1
  Cl  Cl3  1  0.058435  0.184518  0.005181  1
  Cl  Cl4  1  0.941565  0.815482  0.994819  1
  Cl  Cl5  1  0.184518  0.058435  0.005181  1
  Cl  Cl6  1  0.815482  0.941565  0.994819  1
  Cl  Cl7  1  0.203018  0.742508  0.065435  1
  Cl  Cl8  1  0.796982  0.257492  0.934565  1
  Cl  Cl9  1  0.699135  0.077506  0.264596  1
  Cl  Cl10  1  0.257492  0.796982  0.934565  1
  Cl  Cl11  1  0.300865  0.922494  0.735404  1
  Cl  Cl12  1  0.742508  0.203018  0.065435  1
  Cl  Cl13  1  0.977259  0.197699  0.782273  1
  Cl  Cl14  1  0.922494  0.300865  0.735404  1
  Cl  Cl15  1  0.022741  0.802301  0.217727  1
  Cl  Cl16  1  0.077506  0.699135  0.264596  1
  Cl  Cl17  1  0.802301  0.022741  0.217727  1
  Cl  Cl18  1  0.197699  0.977259  0.782273  1
  Cl  Cl19  1  0.463938  0.547509  0.258982  1
  Cl  Cl20  1  0.536062  0.452491  0.741018  1
  Cl  Cl21  1  0.508701  0.205643  0.450023  1
  Cl  Cl22  1  0.452491  0.536062  0.741018  1
  Cl  Cl23  1  0.491299  0.794357  0.549977  1
  Cl  Cl24  1  0.547509  0.463938  0.258982  1
  Cl  Cl25  1  0.240271  0.428388  0.544780  1
  Cl  Cl26  1  0.794357  0.491299  0.549977  1
  Cl  Cl27  1  0.759729  0.571612  0.455220  1
  Cl  Cl28  1  0.205643  0.508701  0.450023  1
  Cl  Cl29  1  0.571612  0.759729  0.455220  1
  Cl  Cl30  1  0.428388  0.240271  0.544780  1
