# generated using pymatgen
data_Li(BBr)6
_symmetry_space_group_name_H-M   'P 1'
_cell_length_a   10.06087711
_cell_length_b   10.06087626
_cell_length_c   17.03895900
_cell_angle_alpha   107.17142209
_cell_angle_beta   72.82857941
_cell_angle_gamma   119.99999470
_symmetry_Int_Tables_number   1
_chemical_formula_structural   Li(BBr)6
_chemical_formula_sum   'Li4 B24 Br24'
_cell_volume   1404.16629259
_cell_formula_units_Z   4
loop_
 _symmetry_equiv_pos_site_id
 _symmetry_equiv_pos_as_xyz
  1  'x, y, z'
loop_
 _atom_site_type_symbol
 _atom_site_label
 _atom_site_symmetry_multiplicity
 _atom_site_fract_x
 _atom_site_fract_y
 _atom_site_fract_z
 _atom_site_occupancy
  Li  Li0  1  0.655776  0.344224  0.032671  1
  Li  Li1  1  0.174010  0.825989  0.477968  1
  Li  Li2  1  0.825988  0.174011  0.522032  1
  Li  Li3  1  0.344224  0.655776  0.967329  1
  B  B4  1  0.051849  0.193642  0.019689  1
  B  B5  1  0.806359  0.877896  0.019689  1
  B  B6  1  0.122104  0.948152  0.019689  1
  B  B7  1  0.890903  0.064334  0.085129  1
  B  B8  1  0.088303  0.109097  0.085129  1
  B  B9  1  0.935665  0.911696  0.085129  1
  B  B10  1  0.451758  0.353713  0.414829  1
  B  B11  1  0.646287  0.512874  0.414829  1
  B  B12  1  0.487126  0.548242  0.414829  1
  B  B13  1  0.572570  0.370868  0.480231  1
  B  B14  1  0.318067  0.427430  0.480231  1
  B  B15  1  0.629132  0.681933  0.480231  1
  B  B16  1  0.370868  0.318067  0.519769  1
  B  B17  1  0.681933  0.572570  0.519769  1
  B  B18  1  0.427429  0.629132  0.519769  1
  B  B19  1  0.512874  0.451758  0.585171  1
  B  B20  1  0.353713  0.487126  0.585171  1
  B  B21  1  0.548242  0.646287  0.585171  1
  B  B22  1  0.064335  0.088304  0.914871  1
  B  B23  1  0.911697  0.890903  0.914871  1
  B  B24  1  0.109098  0.935665  0.914871  1
  B  B25  1  0.877896  0.051848  0.980311  1
  B  B26  1  0.193641  0.122104  0.980311  1
  B  B27  1  0.948151  0.806358  0.980311  1
  Br  Br28  1  0.105423  0.419484  0.045669  1
  Br  Br29  1  0.580516  0.731609  0.045669  1
  Br  Br30  1  0.268392  0.894577  0.045669  1
  Br  Br31  1  0.764825  0.137455  0.180603  1
  Br  Br32  1  0.192026  0.235174  0.180603  1
  Br  Br33  1  0.862545  0.807974  0.180603  1
  Br  Br34  1  0.395200  0.184367  0.319494  1
  Br  Br35  1  0.815633  0.530327  0.319494  1
  Br  Br36  1  0.469673  0.604800  0.319494  1
  Br  Br37  1  0.649873  0.211867  0.451671  1
  Br  Br38  1  0.110323  0.350127  0.451671  1
  Br  Br39  1  0.788133  0.889678  0.451671  1
  Br  Br40  1  0.211867  0.110323  0.548330  1
  Br  Br41  1  0.889677  0.649873  0.548330  1
  Br  Br42  1  0.350127  0.788133  0.548330  1
  Br  Br43  1  0.530327  0.395200  0.680507  1
  Br  Br44  1  0.184367  0.469673  0.680507  1
  Br  Br45  1  0.604800  0.815633  0.680507  1
  Br  Br46  1  0.137455  0.192026  0.819397  1
  Br  Br47  1  0.807974  0.764826  0.819397  1
  Br  Br48  1  0.235175  0.862545  0.819397  1
  Br  Br49  1  0.731608  0.105423  0.954331  1
  Br  Br50  1  0.419484  0.268391  0.954331  1
  Br  Br51  1  0.894577  0.580516  0.954331  1
