# generated using pymatgen
data_Er8Cu3Si12Rh
_symmetry_space_group_name_H-M   'P 1'
_cell_length_a   7.99889700
_cell_length_b   7.99889675
_cell_length_c   8.01390100
_cell_angle_alpha   90.00000000
_cell_angle_beta   90.00000000
_cell_angle_gamma   119.99999691
_symmetry_Int_Tables_number   1
_chemical_formula_structural   Er8Cu3Si12Rh
_chemical_formula_sum   'Er8 Cu3 Si12 Rh1'
_cell_volume   444.05300515
_cell_formula_units_Z   1
loop_
 _symmetry_equiv_pos_site_id
 _symmetry_equiv_pos_as_xyz
  1  'x, y, z'
loop_
 _atom_site_type_symbol
 _atom_site_label
 _atom_site_symmetry_multiplicity
 _atom_site_fract_x
 _atom_site_fract_y
 _atom_site_fract_z
 _atom_site_occupancy
  Er  Er0  1  0.499759  0.999520  0.251490  1
  Er  Er1  1  0.499246  0.998493  0.748396  1
  Er  Er2  1  0.000480  0.500241  0.251490  1
  Er  Er3  1  0.001507  0.500754  0.748396  1
  Er  Er4  1  0.499760  0.500240  0.251492  1
  Er  Er5  1  0.499246  0.500754  0.748394  1
  Er  Er6  1  0.000001  0.999999  0.249601  1
  Er  Er7  1  0.000001  0.999999  0.749895  1
  Cu  Cu8  1  0.333334  0.666666  0.002132  1
  Cu  Cu9  1  0.666668  0.333332  0.000539  1
  Cu  Cu10  1  0.666667  0.333333  0.500958  1
  Si  Si11  1  0.168934  0.337868  0.999692  1
  Si  Si12  1  0.831020  0.662041  0.999857  1
  Si  Si13  1  0.662132  0.831066  0.999692  1
  Si  Si14  1  0.831985  0.663969  0.500163  1
  Si  Si15  1  0.337959  0.168980  0.999857  1
  Si  Si16  1  0.167659  0.335319  0.499646  1
  Si  Si17  1  0.168933  0.831067  0.999692  1
  Si  Si18  1  0.336031  0.168015  0.500163  1
  Si  Si19  1  0.831018  0.168982  0.999857  1
  Si  Si20  1  0.664681  0.832341  0.499646  1
  Si  Si21  1  0.831984  0.168016  0.500163  1
  Si  Si22  1  0.167658  0.832342  0.499646  1
  Rh  Rh23  1  0.333333  0.666667  0.499146  1
