# generated using pymatgen
data_PrCo3P3Rh2
_symmetry_space_group_name_H-M   'P 1'
_cell_length_a   3.78572300
_cell_length_b   10.64092500
_cell_length_c   12.18301400
_cell_angle_alpha   90.00000000
_cell_angle_beta   90.00000000
_cell_angle_gamma   90.00000000
_symmetry_Int_Tables_number   1
_chemical_formula_structural   PrCo3P3Rh2
_chemical_formula_sum   'Pr4 Co12 P12 Rh8'
_cell_volume   490.77559593
_cell_formula_units_Z   4
loop_
 _symmetry_equiv_pos_site_id
 _symmetry_equiv_pos_as_xyz
  1  'x, y, z'
loop_
 _atom_site_type_symbol
 _atom_site_label
 _atom_site_symmetry_multiplicity
 _atom_site_fract_x
 _atom_site_fract_y
 _atom_site_fract_z
 _atom_site_occupancy
  Pr  Pr0  1  0.250000  0.585330  0.707485  1
  Pr  Pr1  1  0.250000  0.914670  0.207485  1
  Pr  Pr2  1  0.750000  0.414670  0.292515  1
  Pr  Pr3  1  0.750000  0.085330  0.792515  1
  Co  Co4  1  0.250000  0.222314  0.178092  1
  Co  Co5  1  0.250000  0.277686  0.678092  1
  Co  Co6  1  0.750000  0.777686  0.821908  1
  Co  Co7  1  0.750000  0.722314  0.321908  1
  Co  Co8  1  0.250000  0.883556  0.697086  1
  Co  Co9  1  0.250000  0.616444  0.197086  1
  Co  Co10  1  0.750000  0.116444  0.302914  1
  Co  Co11  1  0.750000  0.383556  0.802914  1
  Co  Co12  1  0.250000  0.465176  0.932678  1
  Co  Co13  1  0.250000  0.034824  0.432678  1
  Co  Co14  1  0.750000  0.534824  0.067322  1
  Co  Co15  1  0.750000  0.965176  0.567322  1
  P  P16  1  0.250000  0.422452  0.108761  1
  P  P17  1  0.250000  0.077548  0.608761  1
  P  P18  1  0.750000  0.577548  0.891239  1
  P  P19  1  0.750000  0.922452  0.391239  1
  P  P20  1  0.250000  0.280109  0.863199  1
  P  P21  1  0.250000  0.219891  0.363199  1
  P  P22  1  0.750000  0.719891  0.136801  1
  P  P23  1  0.750000  0.780109  0.636801  1
  P  P24  1  0.250000  0.608486  0.381397  1
  P  P25  1  0.250000  0.891514  0.881397  1
  P  P26  1  0.750000  0.391514  0.618603  1
  P  P27  1  0.750000  0.108486  0.118603  1
  Rh  Rh28  1  0.250000  0.710813  0.988397  1
  Rh  Rh29  1  0.250000  0.789187  0.488397  1
  Rh  Rh30  1  0.750000  0.289187  0.011603  1
  Rh  Rh31  1  0.750000  0.210813  0.511603  1
  Rh  Rh32  1  0.250000  0.405426  0.486688  1
  Rh  Rh33  1  0.250000  0.094574  0.986688  1
  Rh  Rh34  1  0.750000  0.594574  0.513312  1
  Rh  Rh35  1  0.750000  0.905426  0.013312  1
