# generated using pymatgen
data_Er8MgInPd2
_symmetry_space_group_name_H-M   'P 1'
_cell_length_a   9.66593437
_cell_length_b   9.66593340
_cell_length_c   9.64472600
_cell_angle_alpha   60.07255844
_cell_angle_beta   60.07256176
_cell_angle_gamma   60.24179961
_symmetry_Int_Tables_number   1
_chemical_formula_structural   Er8MgInPd2
_chemical_formula_sum   'Er16 Mg2 In2 Pd4'
_cell_volume   639.03857051
_cell_formula_units_Z   2
loop_
 _symmetry_equiv_pos_site_id
 _symmetry_equiv_pos_as_xyz
  1  'x, y, z'
loop_
 _atom_site_type_symbol
 _atom_site_label
 _atom_site_symmetry_multiplicity
 _atom_site_fract_x
 _atom_site_fract_y
 _atom_site_fract_z
 _atom_site_occupancy
  Er  Er0  1  0.350540  0.350540  0.349680  1
  Er  Er1  1  0.350540  0.350540  0.949240  1
  Er  Er2  1  0.355335  0.940817  0.351923  1
  Er  Er3  1  0.940817  0.355335  0.351923  1
  Er  Er4  1  0.809590  0.189595  0.190614  1
  Er  Er5  1  0.189595  0.809590  0.810200  1
  Er  Er6  1  0.189595  0.809590  0.190614  1
  Er  Er7  1  0.809590  0.189595  0.810200  1
  Er  Er8  1  0.187314  0.187314  0.812686  1
  Er  Er9  1  0.808076  0.808076  0.191924  1
  Er  Er10  1  0.934636  0.566087  0.565990  1
  Er  Er11  1  0.566087  0.934636  0.933287  1
  Er  Er12  1  0.566087  0.934636  0.565990  1
  Er  Er13  1  0.934636  0.566087  0.933287  1
  Er  Er14  1  0.566867  0.566867  0.933133  1
  Er  Er15  1  0.934845  0.934845  0.565155  1
  Mg  Mg16  1  0.578621  0.264544  0.578417  1
  Mg  Mg17  1  0.264544  0.578621  0.578417  1
  In  In18  1  0.582665  0.582665  0.584193  1
  In  In19  1  0.582665  0.582665  0.250476  1
  Pd  Pd20  1  0.143028  0.143028  0.146292  1
  Pd  Pd21  1  0.143028  0.143028  0.567653  1
  Pd  Pd22  1  0.140637  0.570660  0.144351  1
  Pd  Pd23  1  0.570660  0.140637  0.144351  1
