# generated using pymatgen
data_Ho3Er(CdPd2)2
_symmetry_space_group_name_H-M   'P 1'
_cell_length_a   7.77216343
_cell_length_b   7.77216343
_cell_length_c   3.64019000
_cell_angle_alpha   90.00000000
_cell_angle_beta   90.00000000
_cell_angle_gamma   89.59132929
_symmetry_Int_Tables_number   1
_chemical_formula_structural   Ho3Er(CdPd2)2
_chemical_formula_sum   'Ho3 Er1 Cd2 Pd4'
_cell_volume   219.88563233
_cell_formula_units_Z   1
loop_
 _symmetry_equiv_pos_site_id
 _symmetry_equiv_pos_as_xyz
  1  'x, y, z'
loop_
 _atom_site_type_symbol
 _atom_site_label
 _atom_site_symmetry_multiplicity
 _atom_site_fract_x
 _atom_site_fract_y
 _atom_site_fract_z
 _atom_site_occupancy
  Ho  Ho0  1  0.671142  0.170863  0.500000  1
  Ho  Ho1  1  0.329137  0.828858  0.500000  1
  Ho  Ho2  1  0.170828  0.329172  0.500000  1
  Er  Er3  1  0.829037  0.670963  0.500000  1
  Cd  Cd4  1  0.000121  0.999998  0.000000  1
  Cd  Cd5  1  0.500002  0.499879  0.000000  1
  Pd  Pd6  1  0.128739  0.629281  0.000000  1
  Pd  Pd7  1  0.870719  0.371261  0.000000  1
  Pd  Pd8  1  0.629431  0.870569  0.000000  1
  Pd  Pd9  1  0.370845  0.129155  0.000000  1
