# generated using pymatgen
data_AcGeIrO
_symmetry_space_group_name_H-M   'P 1'
_cell_length_a   4.21643800
_cell_length_b   4.21643800
_cell_length_c   8.95603000
_cell_angle_alpha   90.00000000
_cell_angle_beta   90.00000000
_cell_angle_gamma   90.00027177
_symmetry_Int_Tables_number   1
_chemical_formula_structural   AcGeIrO
_chemical_formula_sum   'Ac2 Ge2 Ir2 O2'
_cell_volume   159.22343083
_cell_formula_units_Z   2
loop_
 _symmetry_equiv_pos_site_id
 _symmetry_equiv_pos_as_xyz
  1  'x, y, z'
loop_
 _atom_site_type_symbol
 _atom_site_label
 _atom_site_symmetry_multiplicity
 _atom_site_fract_x
 _atom_site_fract_y
 _atom_site_fract_z
 _atom_site_occupancy
  Ac  Ac0  1  0.250000  0.250000  0.143124  1
  Ac  Ac1  1  0.749999  0.749999  0.856877  1
  Ge  Ge2  1  0.749999  0.749999  0.352382  1
  Ge  Ge3  1  0.250000  0.250000  0.647617  1
  Ir  Ir4  1  0.749999  0.249999  0.500001  1
  Ir  Ir5  1  0.249999  0.749999  0.500001  1
  O  O6  1  0.749999  0.249999  0.000000  1
  O  O7  1  0.249999  0.749999  0.000000  1
