# generated using pymatgen
data_LaCdIr2O7
_symmetry_space_group_name_H-M   'P 1'
_cell_length_a   7.34553472
_cell_length_b   7.34553420
_cell_length_c   7.50754400
_cell_angle_alpha   59.26768638
_cell_angle_beta   59.26768882
_cell_angle_gamma   59.28040935
_symmetry_Int_Tables_number   1
_chemical_formula_structural   LaCdIr2O7
_chemical_formula_sum   'La2 Cd2 Ir4 O14'
_cell_volume   281.68794009
_cell_formula_units_Z   2
loop_
 _symmetry_equiv_pos_site_id
 _symmetry_equiv_pos_as_xyz
  1  'x, y, z'
loop_
 _atom_site_type_symbol
 _atom_site_label
 _atom_site_symmetry_multiplicity
 _atom_site_fract_x
 _atom_site_fract_y
 _atom_site_fract_z
 _atom_site_occupancy
  La  La0  1  0.125000  0.125000  0.625000  1
  La  La1  1  0.125000  0.125000  0.125000  1
  Cd  Cd2  1  0.625000  0.125000  0.125000  1
  Cd  Cd3  1  0.125000  0.625000  0.125000  1
  Ir  Ir4  1  0.125000  0.625000  0.625000  1
  Ir  Ir5  1  0.625000  0.125000  0.625000  1
  Ir  Ir6  1  0.625000  0.625000  0.125000  1
  Ir  Ir7  1  0.625000  0.625000  0.625000  1
  O  O8  1  0.697461  0.697461  0.302539  1
  O  O9  1  0.293053  0.293053  0.706947  1
  O  O10  1  0.698797  0.299125  0.700967  1
  O  O11  1  0.299125  0.698797  0.301111  1
  O  O12  1  0.299125  0.698797  0.700967  1
  O  O13  1  0.698797  0.299125  0.301111  1
  O  O14  1  0.552539  0.552539  0.947461  1
  O  O15  1  0.956947  0.956947  0.543053  1
  O  O16  1  0.551203  0.950875  0.549033  1
  O  O17  1  0.950875  0.551203  0.948889  1
  O  O18  1  0.950875  0.551203  0.549033  1
  O  O19  1  0.551203  0.950875  0.948889  1
  O  O20  1  0.258501  0.258501  0.241499  1
  O  O21  1  0.991499  0.991499  0.008501  1
