# generated using pymatgen
data_Tb19InIr12
_symmetry_space_group_name_H-M   'P 1'
_cell_length_a   10.92249900
_cell_length_b   10.92249900
_cell_length_c   6.35762700
_cell_angle_alpha   90.00000000
_cell_angle_beta   90.00000000
_cell_angle_gamma   90.00000000
_symmetry_Int_Tables_number   1
_chemical_formula_structural   Tb19InIr12
_chemical_formula_sum   'Tb19 In1 Ir12'
_cell_volume   758.47115958
_cell_formula_units_Z   1
loop_
 _symmetry_equiv_pos_site_id
 _symmetry_equiv_pos_as_xyz
  1  'x, y, z'
loop_
 _atom_site_type_symbol
 _atom_site_label
 _atom_site_symmetry_multiplicity
 _atom_site_fract_x
 _atom_site_fract_y
 _atom_site_fract_z
 _atom_site_occupancy
  Tb  Tb0  1  0.283634  0.085436  0.380708  1
  Tb  Tb1  1  0.290618  0.911384  0.880702  1
  Tb  Tb2  1  0.709382  0.088616  0.880702  1
  Tb  Tb3  1  0.716366  0.914564  0.380708  1
  Tb  Tb4  1  0.588640  0.791561  0.881978  1
  Tb  Tb5  1  0.588476  0.207939  0.378119  1
  Tb  Tb6  1  0.411524  0.792061  0.378119  1
  Tb  Tb7  1  0.411360  0.208439  0.881978  1
  Tb  Tb8  1  0.207939  0.411524  0.621881  1
  Tb  Tb9  1  0.208439  0.588640  0.118022  1
  Tb  Tb10  1  0.791561  0.411360  0.118022  1
  Tb  Tb11  1  0.792061  0.588476  0.621881  1
  Tb  Tb12  1  0.911384  0.709382  0.119298  1
  Tb  Tb13  1  0.914564  0.283634  0.619292  1
  Tb  Tb14  1  0.085436  0.716366  0.619292  1
  Tb  Tb15  1  0.088616  0.290618  0.119298  1
  Tb  Tb16  1  0.000000  0.000000  0.000000  1
  Tb  Tb17  1  0.500000  0.500000  0.000000  1
  Tb  Tb18  1  0.500000  0.500000  0.500000  1
  In  In19  1  0.000000  0.000000  0.500000  1
  Ir  Ir20  1  0.845864  0.155350  0.246155  1
  Ir  Ir21  1  0.844650  0.845864  0.753845  1
  Ir  Ir22  1  0.155350  0.154136  0.753845  1
  Ir  Ir23  1  0.154136  0.844650  0.246155  1
  Ir  Ir24  1  0.654540  0.346121  0.747289  1
  Ir  Ir25  1  0.653879  0.654540  0.252711  1
  Ir  Ir26  1  0.346121  0.345460  0.252711  1
  Ir  Ir27  1  0.345460  0.653879  0.747289  1
  Ir  Ir28  1  0.500000  0.000000  0.124929  1
  Ir  Ir29  1  0.500000  0.000000  0.621112  1
  Ir  Ir30  1  0.000000  0.500000  0.875071  1
  Ir  Ir31  1  0.000000  0.500000  0.378888  1
