# generated using pymatgen
data_Th2Al2ZnGa
_symmetry_space_group_name_H-M   'P 1'
_cell_length_a   4.23224100
_cell_length_b   4.33981900
_cell_length_c   7.49854400
_cell_angle_alpha   90.00000000
_cell_angle_beta   90.00000000
_cell_angle_gamma   90.00000000
_symmetry_Int_Tables_number   1
_chemical_formula_structural   Th2Al2ZnGa
_chemical_formula_sum   'Th2 Al2 Zn1 Ga1'
_cell_volume   137.72695670
_cell_formula_units_Z   1
loop_
 _symmetry_equiv_pos_site_id
 _symmetry_equiv_pos_as_xyz
  1  'x, y, z'
loop_
 _atom_site_type_symbol
 _atom_site_label
 _atom_site_symmetry_multiplicity
 _atom_site_fract_x
 _atom_site_fract_y
 _atom_site_fract_z
 _atom_site_occupancy
  Th  Th0  1  0.000000  0.500000  0.002468  1
  Th  Th1  1  0.000000  0.000000  0.497825  1
  Al  Al2  1  0.500000  0.000000  0.162239  1
  Al  Al3  1  0.500000  0.500000  0.670512  1
  Zn  Zn4  1  0.500000  0.000000  0.831961  1
  Ga  Ga5  1  0.500000  0.500000  0.334995  1
