# generated using pymatgen
data_Hf7Zr3Cu2(SnSb)3
_symmetry_space_group_name_H-M   'P 1'
_cell_length_a   8.60198900
_cell_length_b   8.60202500
_cell_length_c   5.78782300
_cell_angle_alpha   90.00000000
_cell_angle_beta   90.00000000
_cell_angle_gamma   120.00022880
_symmetry_Int_Tables_number   1
_chemical_formula_structural   Hf7Zr3Cu2(SnSb)3
_chemical_formula_sum   'Hf7 Zr3 Cu2 Sn3 Sb3'
_cell_volume   370.88942874
_cell_formula_units_Z   1
loop_
 _symmetry_equiv_pos_site_id
 _symmetry_equiv_pos_as_xyz
  1  'x, y, z'
loop_
 _atom_site_type_symbol
 _atom_site_label
 _atom_site_symmetry_multiplicity
 _atom_site_fract_x
 _atom_site_fract_y
 _atom_site_fract_z
 _atom_site_occupancy
  Hf  Hf0  1  0.666667  0.333333  0.998420  1
  Hf  Hf1  1  0.333334  0.666667  0.998421  1
  Hf  Hf2  1  0.333334  0.666667  0.501579  1
  Hf  Hf3  1  0.666667  0.333333  0.501580  1
  Hf  Hf4  1  0.732969  0.732969  0.750000  1
  Hf  Hf5  1  0.267031  0.000000  0.750000  1
  Hf  Hf6  1  0.000000  0.267032  0.750000  1
  Zr  Zr7  1  0.262322  0.262321  0.250000  1
  Zr  Zr8  1  0.737678  0.999998  0.250000  1
  Zr  Zr9  1  0.999999  0.737679  0.250000  1
  Cu  Cu10  1  0.000000  0.000000  0.512868  1
  Cu  Cu11  1  0.000000  0.000000  0.987132  1
  Sn  Sn12  1  0.384744  0.384744  0.750000  1
  Sn  Sn13  1  0.615258  0.000000  0.750000  1
  Sn  Sn14  1  0.000000  0.615258  0.750000  1
  Sb  Sb15  1  0.611982  0.611981  0.250000  1
  Sb  Sb16  1  0.388018  0.999999  0.250000  1
  Sb  Sb17  1  0.000000  0.388018  0.250000  1
