# generated using pymatgen
data_Tm2LuIn3Co2Sn
_symmetry_space_group_name_H-M   'P 1'
_cell_length_a   7.80621974
_cell_length_b   7.77326244
_cell_length_c   3.60615300
_cell_angle_alpha   90.00000000
_cell_angle_beta   90.00000000
_cell_angle_gamma   119.99182014
_symmetry_Int_Tables_number   1
_chemical_formula_structural   Tm2LuIn3Co2Sn
_chemical_formula_sum   'Tm2 Lu1 In3 Co2 Sn1'
_cell_volume   189.51983714
_cell_formula_units_Z   1
loop_
 _symmetry_equiv_pos_site_id
 _symmetry_equiv_pos_as_xyz
  1  'x, y, z'
loop_
 _atom_site_type_symbol
 _atom_site_label
 _atom_site_symmetry_multiplicity
 _atom_site_fract_x
 _atom_site_fract_y
 _atom_site_fract_z
 _atom_site_occupancy
  Tm  Tm0  1  0.755614  0.046018  0.500000  1
  Tm  Tm1  1  0.955962  0.712300  0.500000  1
  Lu  Lu2  1  0.293132  0.245848  0.500000  1
  In  In3  1  0.585389  0.666682  0.000000  1
  In  In4  1  0.336869  0.920268  0.000000  1
  In  In5  1  0.666007  0.334019  0.000000  1
  Co  Co6  1  0.321374  0.653844  0.500000  1
  Co  Co7  1  0.003040  0.007027  0.000000  1
  Sn  Sn8  1  0.082613  0.413993  0.000000  1
