# generated using pymatgen
data_Y16MgTl(InPt2)2
_symmetry_space_group_name_H-M   'P 1'
_cell_length_a   9.77441621
_cell_length_b   9.76259338
_cell_length_c   9.76259360
_cell_angle_alpha   60.04230956
_cell_angle_beta   60.17337763
_cell_angle_gamma   60.17336980
_symmetry_Int_Tables_number   1
_chemical_formula_structural   Y16MgTl(InPt2)2
_chemical_formula_sum   'Y16 Mg1 Tl1 In2 Pt4'
_cell_volume   660.66115264
_cell_formula_units_Z   1
loop_
 _symmetry_equiv_pos_site_id
 _symmetry_equiv_pos_as_xyz
  1  'x, y, z'
loop_
 _atom_site_type_symbol
 _atom_site_label
 _atom_site_symmetry_multiplicity
 _atom_site_fract_x
 _atom_site_fract_y
 _atom_site_fract_z
 _atom_site_occupancy
  Y  Y0  1  0.598310  0.598399  0.598399  1
  Y  Y1  1  0.601128  0.600134  0.197744  1
  Y  Y2  1  0.601128  0.197744  0.600134  1
  Y  Y3  1  0.191959  0.602614  0.602614  1
  Y  Y4  1  0.057571  0.442311  0.442311  1
  Y  Y5  1  0.439800  0.059940  0.059940  1
  Y  Y6  1  0.440095  0.060666  0.439659  1
  Y  Y7  1  0.057817  0.443379  0.057878  1
  Y  Y8  1  0.440095  0.439659  0.060666  1
  Y  Y9  1  0.057817  0.057878  0.443379  1
  Y  Y10  1  0.187619  0.814536  0.814536  1
  Y  Y11  1  0.812060  0.187363  0.187363  1
  Y  Y12  1  0.814200  0.186067  0.813624  1
  Y  Y13  1  0.187047  0.812292  0.187571  1
  Y  Y14  1  0.814200  0.813624  0.186067  1
  Y  Y15  1  0.187047  0.187571  0.812292  1
  Mg  Mg16  1  0.521836  0.825706  0.825706  1
  Tl  Tl17  1  0.834712  0.837054  0.837054  1
  In  In18  1  0.831016  0.832885  0.500878  1
  In  In19  1  0.831016  0.500878  0.832885  1
  Pt  Pt20  1  0.391514  0.393752  0.393752  1
  Pt  Pt21  1  0.388991  0.392097  0.822875  1
  Pt  Pt22  1  0.388991  0.822875  0.392097  1
  Pt  Pt23  1  0.824034  0.390578  0.390578  1
