# generated using pymatgen
data_Dy4Y2ReTcB14
_symmetry_space_group_name_H-M   'P 1'
_cell_length_a   8.09824902
_cell_length_b   8.09824794
_cell_length_c   9.36597100
_cell_angle_alpha   90.00000000
_cell_angle_beta   90.00000000
_cell_angle_gamma   154.73764661
_symmetry_Int_Tables_number   1
_chemical_formula_structural   Dy4Y2ReTcB14
_chemical_formula_sum   'Dy4 Y2 Re1 Tc1 B14'
_cell_volume   262.13349300
_cell_formula_units_Z   1
loop_
 _symmetry_equiv_pos_site_id
 _symmetry_equiv_pos_as_xyz
  1  'x, y, z'
loop_
 _atom_site_type_symbol
 _atom_site_label
 _atom_site_symmetry_multiplicity
 _atom_site_fract_x
 _atom_site_fract_y
 _atom_site_fract_z
 _atom_site_occupancy
  Dy  Dy0  1  0.895033  0.104967  0.439332  1
  Dy  Dy1  1  0.105186  0.894814  0.559654  1
  Dy  Dy2  1  0.895033  0.104967  0.060668  1
  Dy  Dy3  1  0.105186  0.894814  0.940346  1
  Y  Y4  1  0.242068  0.757932  0.250000  1
  Y  Y5  1  0.757550  0.242450  0.750000  1
  Re  Re6  1  0.947330  0.052670  0.750000  1
  Tc  Tc7  1  0.052859  0.947141  0.250000  1
  B  B8  1  0.727035  0.272965  0.466753  1
  B  B9  1  0.272910  0.727090  0.533281  1
  B  B10  1  0.727035  0.272965  0.033247  1
  B  B11  1  0.272910  0.727090  0.966719  1
  B  B12  1  0.631685  0.368315  0.151016  1
  B  B13  1  0.368059  0.631941  0.849237  1
  B  B14  1  0.631685  0.368315  0.348984  1
  B  B15  1  0.368059  0.631941  0.650763  1
  B  B16  1  0.520914  0.479086  0.095691  1
  B  B17  1  0.479147  0.520853  0.904709  1
  B  B18  1  0.520914  0.479086  0.404309  1
  B  B19  1  0.479147  0.520853  0.595291  1
  B  B20  1  0.457636  0.542364  0.250000  1
  B  B21  1  0.542617  0.457383  0.750000  1
