# generated using pymatgen
data_HoTm5CrCo17P12
_symmetry_space_group_name_H-M   'P 1'
_cell_length_a   3.66376600
_cell_length_b   10.47296600
_cell_length_c   12.12931000
_cell_angle_alpha   90.00000000
_cell_angle_beta   90.00000000
_cell_angle_gamma   90.00000000
_symmetry_Int_Tables_number   1
_chemical_formula_structural   HoTm5CrCo17P12
_chemical_formula_sum   'Ho1 Tm5 Cr1 Co17 P12'
_cell_volume   465.40764993
_cell_formula_units_Z   1
loop_
 _symmetry_equiv_pos_site_id
 _symmetry_equiv_pos_as_xyz
  1  'x, y, z'
loop_
 _atom_site_type_symbol
 _atom_site_label
 _atom_site_symmetry_multiplicity
 _atom_site_fract_x
 _atom_site_fract_y
 _atom_site_fract_z
 _atom_site_occupancy
  Ho  Ho0  1  0.500000  0.000000  0.477208  1
  Tm  Tm1  1  0.000000  0.500000  0.523562  1
  Tm  Tm2  1  0.500000  0.818060  0.206120  1
  Tm  Tm3  1  0.500000  0.181940  0.206120  1
  Tm  Tm4  1  0.000000  0.681644  0.795632  1
  Tm  Tm5  1  0.000000  0.318356  0.795632  1
  Cr  Cr6  1  0.500000  0.500000  0.156258  1
  Co  Co7  1  0.000000  0.000000  0.839740  1
  Co  Co8  1  0.500000  0.500000  0.703034  1
  Co  Co9  1  0.000000  0.000000  0.296009  1
  Co  Co10  1  0.000000  0.500000  0.987570  1
  Co  Co11  1  0.500000  0.000000  0.014455  1
  Co  Co12  1  0.500000  0.332647  0.992969  1
  Co  Co13  1  0.500000  0.667353  0.992969  1
  Co  Co14  1  0.000000  0.166827  0.005877  1
  Co  Co15  1  0.000000  0.833173  0.005877  1
  Co  Co16  1  0.500000  0.297423  0.430769  1
  Co  Co17  1  0.500000  0.702577  0.430769  1
  Co  Co18  1  0.000000  0.203718  0.569130  1
  Co  Co19  1  0.000000  0.796282  0.569130  1
  Co  Co20  1  0.500000  0.878352  0.708842  1
  Co  Co21  1  0.500000  0.121648  0.708842  1
  Co  Co22  1  0.000000  0.620973  0.291071  1
  Co  Co23  1  0.000000  0.379027  0.291071  1
  P  P24  1  0.500000  0.500000  0.881537  1
  P  P25  1  0.000000  0.000000  0.117794  1
  P  P26  1  0.500000  0.500000  0.347747  1
  P  P27  1  0.000000  0.000000  0.655297  1
  P  P28  1  0.500000  0.312401  0.616770  1
  P  P29  1  0.500000  0.687599  0.616770  1
  P  P30  1  0.000000  0.188216  0.383424  1
  P  P31  1  0.000000  0.811784  0.383424  1
  P  P32  1  0.500000  0.848128  0.891556  1
  P  P33  1  0.500000  0.151872  0.891556  1
  P  P34  1  0.000000  0.654453  0.107734  1
  P  P35  1  0.000000  0.345547  0.107734  1
