# generated using pymatgen
data_Nd6Dy10MgHg3Pt4
_symmetry_space_group_name_H-M   'P 1'
_cell_length_a   9.80089653
_cell_length_b   9.79628197
_cell_length_c   9.79628200
_cell_angle_alpha   59.99999314
_cell_angle_beta   60.01556686
_cell_angle_gamma   60.01557168
_symmetry_Int_Tables_number   1
_chemical_formula_structural   Nd6Dy10MgHg3Pt4
_chemical_formula_sum   'Nd6 Dy10 Mg1 Hg3 Pt4'
_cell_volume   665.23562926
_cell_formula_units_Z   1
loop_
 _symmetry_equiv_pos_site_id
 _symmetry_equiv_pos_as_xyz
  1  'x, y, z'
loop_
 _atom_site_type_symbol
 _atom_site_label
 _atom_site_symmetry_multiplicity
 _atom_site_fract_x
 _atom_site_fract_y
 _atom_site_fract_z
 _atom_site_occupancy
  Nd  Nd0  1  0.935202  0.564207  0.564207  1
  Nd  Nd1  1  0.561265  0.937883  0.937883  1
  Nd  Nd2  1  0.561265  0.937883  0.562968  1
  Nd  Nd3  1  0.935202  0.564207  0.936382  1
  Nd  Nd4  1  0.561265  0.562968  0.937883  1
  Nd  Nd5  1  0.935202  0.936382  0.564207  1
  Dy  Dy6  1  0.349635  0.349113  0.349113  1
  Dy  Dy7  1  0.349635  0.349113  0.952140  1
  Dy  Dy8  1  0.349635  0.952140  0.349113  1
  Dy  Dy9  1  0.946043  0.351320  0.351320  1
  Dy  Dy10  1  0.809154  0.190346  0.190346  1
  Dy  Dy11  1  0.185605  0.813166  0.813166  1
  Dy  Dy12  1  0.185605  0.813166  0.188063  1
  Dy  Dy13  1  0.809154  0.190346  0.810153  1
  Dy  Dy14  1  0.185605  0.188063  0.813166  1
  Dy  Dy15  1  0.809154  0.810153  0.190346  1
  Mg  Mg16  1  0.285653  0.571449  0.571449  1
  Hg  Hg17  1  0.582600  0.584061  0.584061  1
  Hg  Hg18  1  0.582600  0.584061  0.249279  1
  Hg  Hg19  1  0.582600  0.249279  0.584061  1
  Pt  Pt20  1  0.141391  0.142956  0.142956  1
  Pt  Pt21  1  0.141391  0.142956  0.572696  1
  Pt  Pt22  1  0.141391  0.572696  0.142956  1
  Pt  Pt23  1  0.573745  0.142085  0.142085  1
