# generated using pymatgen
data_Y4HoInPd4
_symmetry_space_group_name_H-M   'P 1'
_cell_length_a   7.87269100
_cell_length_b   7.87269100
_cell_length_c   3.75875400
_cell_angle_alpha   90.00000000
_cell_angle_beta   90.00000000
_cell_angle_gamma   90.00000000
_symmetry_Int_Tables_number   1
_chemical_formula_structural   Y4HoInPd4
_chemical_formula_sum   'Y4 Ho1 In1 Pd4'
_cell_volume   232.96480490
_cell_formula_units_Z   1
loop_
 _symmetry_equiv_pos_site_id
 _symmetry_equiv_pos_as_xyz
  1  'x, y, z'
loop_
 _atom_site_type_symbol
 _atom_site_label
 _atom_site_symmetry_multiplicity
 _atom_site_fract_x
 _atom_site_fract_y
 _atom_site_fract_z
 _atom_site_occupancy
  Y  Y0  1  0.682796  0.143471  0.500000  1
  Y  Y1  1  0.317204  0.856529  0.500000  1
  Y  Y2  1  0.143471  0.317204  0.500000  1
  Y  Y3  1  0.856529  0.682796  0.500000  1
  Ho  Ho4  1  0.500000  0.500000  0.000000  1
  In  In5  1  0.000000  0.000000  0.000000  1
  Pd  Pd6  1  0.143098  0.620769  0.000000  1
  Pd  Pd7  1  0.856902  0.379231  0.000000  1
  Pd  Pd8  1  0.620769  0.856902  0.000000  1
  Pd  Pd9  1  0.379231  0.143098  0.000000  1
