# generated using pymatgen
data_La3Gd(WC2)2
_symmetry_space_group_name_H-M   'P 1'
_cell_length_a   5.82271600
_cell_length_b   5.82271633
_cell_length_c   10.52301700
_cell_angle_alpha   90.00000000
_cell_angle_beta   90.00000000
_cell_angle_gamma   89.86019253
_symmetry_Int_Tables_number   1
_chemical_formula_structural   La3Gd(WC2)2
_chemical_formula_sum   'La6 Gd2 W4 C8'
_cell_volume   356.77155421
_cell_formula_units_Z   2
loop_
 _symmetry_equiv_pos_site_id
 _symmetry_equiv_pos_as_xyz
  1  'x, y, z'
loop_
 _atom_site_type_symbol
 _atom_site_label
 _atom_site_symmetry_multiplicity
 _atom_site_fract_x
 _atom_site_fract_y
 _atom_site_fract_z
 _atom_site_occupancy
  La  La0  1  0.200176  0.200176  0.343136  1
  La  La1  1  0.300879  0.686512  0.842427  1
  La  La2  1  0.686512  0.300879  0.842427  1
  La  La3  1  0.686512  0.300879  0.157573  1
  La  La4  1  0.300879  0.686512  0.157573  1
  La  La5  1  0.200176  0.200176  0.656864  1
  Gd  Gd6  1  0.807767  0.807767  0.346976  1
  Gd  Gd7  1  0.807767  0.807767  0.653024  1
  W  W8  1  0.331459  0.687565  0.500000  1
  W  W9  1  0.815326  0.815326  0.000000  1
  W  W10  1  0.166729  0.166729  0.000000  1
  W  W11  1  0.687565  0.331459  0.500000  1
  C  C12  1  0.989501  0.989501  0.143788  1
  C  C13  1  0.510559  0.510559  0.639442  1
  C  C14  1  0.518887  0.006259  0.500000  1
  C  C15  1  0.510559  0.510559  0.360558  1
  C  C16  1  0.989501  0.989501  0.856212  1
  C  C17  1  0.490991  0.991997  0.000000  1
  C  C18  1  0.991997  0.490991  0.000000  1
  C  C19  1  0.006259  0.518887  0.500000  1
