# generated using pymatgen
data_Ho6SnB2Rh12Pb
_symmetry_space_group_name_H-M   'P 1'
_cell_length_a   5.82216200
_cell_length_b   5.82216233
_cell_length_c   13.85304900
_cell_angle_alpha   90.00000000
_cell_angle_beta   90.00000000
_cell_angle_gamma   120.00000949
_symmetry_Int_Tables_number   1
_chemical_formula_structural   Ho6SnB2Rh12Pb
_chemical_formula_sum   'Ho6 Sn1 B2 Rh12 Pb1'
_cell_volume   406.67226623
_cell_formula_units_Z   1
loop_
 _symmetry_equiv_pos_site_id
 _symmetry_equiv_pos_as_xyz
  1  'x, y, z'
loop_
 _atom_site_type_symbol
 _atom_site_label
 _atom_site_symmetry_multiplicity
 _atom_site_fract_x
 _atom_site_fract_y
 _atom_site_fract_z
 _atom_site_occupancy
  Ho  Ho0  1  0.000000  0.000000  0.750000  1
  Ho  Ho1  1  0.000000  0.000000  0.250000  1
  Ho  Ho2  1  0.333333  0.666667  0.411212  1
  Ho  Ho3  1  0.666667  0.333333  0.913223  1
  Ho  Ho4  1  0.666667  0.333333  0.586777  1
  Ho  Ho5  1  0.333333  0.666667  0.088788  1
  Sn  Sn6  1  0.666667  0.333333  0.250000  1
  B  B7  1  0.000000  0.000000  0.498539  1
  B  B8  1  0.000000  0.000000  0.001461  1
  Rh  Rh9  1  0.344349  0.172176  0.412521  1
  Rh  Rh10  1  0.827824  0.172176  0.412521  1
  Rh  Rh11  1  0.827824  0.655651  0.412521  1
  Rh  Rh12  1  0.170816  0.341630  0.915233  1
  Rh  Rh13  1  0.658370  0.829184  0.584767  1
  Rh  Rh14  1  0.658370  0.829184  0.915233  1
  Rh  Rh15  1  0.344349  0.172176  0.087479  1
  Rh  Rh16  1  0.170816  0.341630  0.584767  1
  Rh  Rh17  1  0.170816  0.829184  0.584767  1
  Rh  Rh18  1  0.827824  0.172176  0.087479  1
  Rh  Rh19  1  0.827824  0.655651  0.087479  1
  Rh  Rh20  1  0.170816  0.829184  0.915233  1
  Pb  Pb21  1  0.333333  0.666667  0.750000  1
