# generated using pymatgen
data_Lu4Al15Si3(OsRh2)2
_symmetry_space_group_name_H-M   'P 1'
_cell_length_a   7.48481409
_cell_length_b   7.46496934
_cell_length_c   9.27426702
_cell_angle_alpha   90.02143920
_cell_angle_beta   89.92600398
_cell_angle_gamma   119.19436755
_symmetry_Int_Tables_number   1
_chemical_formula_structural   Lu4Al15Si3(OsRh2)2
_chemical_formula_sum   'Lu4 Al15 Si3 Os2 Rh4'
_cell_volume   452.36354165
_cell_formula_units_Z   1
loop_
 _symmetry_equiv_pos_site_id
 _symmetry_equiv_pos_as_xyz
  1  'x, y, z'
loop_
 _atom_site_type_symbol
 _atom_site_label
 _atom_site_symmetry_multiplicity
 _atom_site_fract_x
 _atom_site_fract_y
 _atom_site_fract_z
 _atom_site_occupancy
  Lu  Lu0  1  0.993270  0.675343  0.247734  1
  Lu  Lu1  1  0.005797  0.317871  0.753675  1
  Lu  Lu2  1  0.687502  0.000694  0.247568  1
  Lu  Lu3  1  0.317212  0.006071  0.749723  1
  Al  Al4  1  0.997952  0.665389  0.919944  1
  Al  Al5  1  0.998730  0.662399  0.578071  1
  Al  Al6  1  0.337384  0.999688  0.421734  1
  Al  Al7  1  0.001845  0.337777  0.425709  1
  Al  Al8  1  0.661710  0.999202  0.577880  1
  Al  Al9  1  0.656904  0.994603  0.920191  1
  Al  Al10  1  0.336619  0.999917  0.077928  1
  Al  Al11  1  0.334495  0.334014  0.553827  1
  Al  Al12  1  0.666966  0.667623  0.446068  1
  Al  Al13  1  0.666868  0.668008  0.054941  1
  Al  Al14  1  0.337467  0.334316  0.946227  1
  Al  Al15  1  0.337774  0.553205  0.250056  1
  Al  Al16  1  0.662290  0.445126  0.750276  1
  Al  Al17  1  0.550879  0.338476  0.250103  1
  Al  Al18  1  0.444781  0.660102  0.749379  1
  Si  Si19  1  0.133336  0.128738  0.250909  1
  Si  Si20  1  0.869517  0.871285  0.750186  1
  Si  Si21  1  0.002033  0.338052  0.076578  1
  Os  Os22  1  0.999261  0.008395  0.001108  1
  Os  Os23  1  0.999709  0.000798  0.499581  1
  Rh  Rh24  1  0.680127  0.328710  0.002126  1
  Rh  Rh25  1  0.319844  0.664280  0.000574  1
  Rh  Rh26  1  0.327168  0.671615  0.499088  1
  Rh  Rh27  1  0.672558  0.328303  0.498815  1
