# generated using pymatgen
data_Tb3Dy2Y3(WO6)4
_symmetry_space_group_name_H-M   'P 1'
_cell_length_a   5.41551100
_cell_length_b   7.72720176
_cell_length_c   11.50804200
_cell_angle_alpha   75.60288971
_cell_angle_beta   90.00000000
_cell_angle_gamma   90.00000000
_symmetry_Int_Tables_number   1
_chemical_formula_structural   Tb3Dy2Y3(WO6)4
_chemical_formula_sum   'Tb3 Dy2 Y3 W4 O24'
_cell_volume   466.45061582
_cell_formula_units_Z   1
loop_
 _symmetry_equiv_pos_site_id
 _symmetry_equiv_pos_as_xyz
  1  'x, y, z'
loop_
 _atom_site_type_symbol
 _atom_site_label
 _atom_site_symmetry_multiplicity
 _atom_site_fract_x
 _atom_site_fract_y
 _atom_site_fract_z
 _atom_site_occupancy
  Tb  Tb0  1  0.260921  0.000000  0.750000  1
  Tb  Tb1  1  0.316407  0.500000  0.750000  1
  Tb  Tb2  1  0.683652  0.500000  0.250000  1
  Dy  Dy3  1  0.185941  0.794722  0.077732  1
  Dy  Dy4  1  0.185941  0.205278  0.422268  1
  Y  Y5  1  0.739066  0.000000  0.250000  1
  Y  Y6  1  0.813876  0.205287  0.922366  1
  Y  Y7  1  0.813876  0.794713  0.577634  1
  W  W8  1  0.745362  0.723515  0.885490  1
  W  W9  1  0.254589  0.723415  0.385170  1
  W  W10  1  0.745362  0.276485  0.614510  1
  W  W11  1  0.254589  0.276585  0.114830  1
  O  O12  1  0.850000  0.364308  0.452403  1
  O  O13  1  0.469314  0.847882  0.931000  1
  O  O14  1  0.850000  0.635692  0.047597  1
  O  O15  1  0.018393  0.290558  0.727684  1
  O  O16  1  0.981934  0.290398  0.227936  1
  O  O17  1  0.150732  0.364353  0.952460  1
  O  O18  1  0.638227  0.490861  0.886274  1
  O  O19  1  0.530383  0.151656  0.069405  1
  O  O20  1  0.150732  0.635647  0.547540  1
  O  O21  1  0.018393  0.709442  0.772316  1
  O  O22  1  0.457408  0.210277  0.272153  1
  O  O23  1  0.043430  0.939794  0.395112  1
  O  O24  1  0.469314  0.152118  0.569000  1
  O  O25  1  0.981934  0.709602  0.272064  1
  O  O26  1  0.956548  0.060765  0.604463  1
  O  O27  1  0.542454  0.210514  0.771936  1
  O  O28  1  0.542454  0.789486  0.728064  1
  O  O29  1  0.043430  0.060206  0.104888  1
  O  O30  1  0.638227  0.509139  0.613726  1
  O  O31  1  0.361385  0.509286  0.113801  1
  O  O32  1  0.457408  0.789723  0.227847  1
  O  O33  1  0.361385  0.490714  0.386199  1
  O  O34  1  0.530383  0.848344  0.430595  1
  O  O35  1  0.956548  0.939235  0.895537  1
