# generated using pymatgen
data_Hf4Sc(Re3Tc5)3
_symmetry_space_group_name_H-M   'P 1'
_cell_length_a   8.41207735
_cell_length_b   8.45311681
_cell_length_c   8.45311709
_cell_angle_alpha   109.56936285
_cell_angle_beta   109.37289007
_cell_angle_gamma   109.37290711
_symmetry_Int_Tables_number   1
_chemical_formula_structural   Hf4Sc(Re3Tc5)3
_chemical_formula_sum   'Hf4 Sc1 Re9 Tc15'
_cell_volume   463.27692692
_cell_formula_units_Z   1
loop_
 _symmetry_equiv_pos_site_id
 _symmetry_equiv_pos_as_xyz
  1  'x, y, z'
loop_
 _atom_site_type_symbol
 _atom_site_label
 _atom_site_symmetry_multiplicity
 _atom_site_fract_x
 _atom_site_fract_y
 _atom_site_fract_z
 _atom_site_occupancy
  Hf  Hf0  1  0.625740  0.000000  0.000000  1
  Hf  Hf1  1  0.000708  0.627861  0.000000  1
  Hf  Hf2  1  0.000708  0.000000  0.627861  1
  Hf  Hf3  1  0.372848  0.372139  0.372139  1
  Sc  Sc4  1  0.999738  0.000000  0.000000  1
  Re  Re5  1  0.196065  0.374696  0.000000  1
  Re  Re6  1  0.999114  0.375213  0.192588  1
  Re  Re7  1  0.806526  0.182624  0.807412  1
  Re  Re8  1  0.806526  0.807412  0.182624  1
  Re  Re9  1  0.999114  0.192588  0.375213  1
  Re  Re10  1  0.196065  0.000000  0.374696  1
  Re  Re11  1  0.623902  0.624787  0.817376  1
  Re  Re12  1  0.821370  0.625304  0.625304  1
  Re  Re13  1  0.623902  0.817376  0.624787  1
  Tc  Tc14  1  0.396498  0.674386  0.000000  1
  Tc  Tc15  1  0.722114  0.325614  0.325614  1
  Tc  Tc16  1  0.396498  0.000000  0.674386  1
  Tc  Tc17  1  0.673649  0.396196  0.000000  1
  Tc  Tc18  1  0.999224  0.394153  0.676267  1
  Tc  Tc19  1  0.322957  0.717887  0.323733  1
  Tc  Tc20  1  0.322957  0.323733  0.717887  1
  Tc  Tc21  1  0.999224  0.676267  0.394153  1
  Tc  Tc22  1  0.673649  0.000000  0.396196  1
  Tc  Tc23  1  0.605072  0.605847  0.282113  1
  Tc  Tc24  1  0.277452  0.603804  0.603804  1
  Tc  Tc25  1  0.605072  0.282113  0.605847  1
  Tc  Tc26  1  0.375497  0.193184  0.000000  1
  Tc  Tc27  1  0.182313  0.806816  0.806816  1
  Tc  Tc28  1  0.375497  0.000000  0.193184  1
