# generated using pymatgen
data_Dy7Sc12USi15P
_symmetry_space_group_name_H-M   'P 1'
_cell_length_a   7.08495837
_cell_length_b   7.36718655
_cell_length_c   13.96264200
_cell_angle_alpha   89.94561432
_cell_angle_beta   89.96436076
_cell_angle_gamma   90.09546971
_symmetry_Int_Tables_number   1
_chemical_formula_structural   Dy7Sc12USi15P
_chemical_formula_sum   'Dy7 Sc12 U1 Si15 P1'
_cell_volume   728.79551278
_cell_formula_units_Z   1
loop_
 _symmetry_equiv_pos_site_id
 _symmetry_equiv_pos_as_xyz
  1  'x, y, z'
loop_
 _atom_site_type_symbol
 _atom_site_label
 _atom_site_symmetry_multiplicity
 _atom_site_fract_x
 _atom_site_fract_y
 _atom_site_fract_z
 _atom_site_occupancy
  Dy  Dy0  1  0.992835  0.830657  0.902249  1
  Dy  Dy1  1  0.491165  0.677371  0.904104  1
  Dy  Dy2  1  0.991364  0.826589  0.599528  1
  Dy  Dy3  1  0.508191  0.323711  0.095259  1
  Dy  Dy4  1  0.009709  0.176240  0.401568  1
  Dy  Dy5  1  0.510511  0.325228  0.403842  1
  Dy  Dy6  1  0.490872  0.675169  0.596040  1
  Sc  Sc7  1  0.160423  0.502287  0.750598  1
  Sc  Sc8  1  0.839102  0.493590  0.247597  1
  Sc  Sc9  1  0.336791  0.002658  0.248473  1
  Sc  Sc10  1  0.662731  0.997941  0.751057  1
  Sc  Sc11  1  0.327505  0.172827  0.627784  1
  Sc  Sc12  1  0.669984  0.823907  0.375235  1
  Sc  Sc13  1  0.167775  0.677111  0.374624  1
  Sc  Sc14  1  0.669509  0.825696  0.123744  1
  Sc  Sc15  1  0.831905  0.323282  0.626814  1
  Sc  Sc16  1  0.325527  0.171429  0.873349  1
  Sc  Sc17  1  0.833905  0.322695  0.875105  1
  Sc  Sc18  1  0.167969  0.676547  0.124706  1
  U  U19  1  0.011706  0.176171  0.097960  1
  Si  Si20  1  0.965652  0.888995  0.247463  1
  Si  Si21  1  0.466768  0.615976  0.249910  1
  Si  Si22  1  0.532003  0.382142  0.750625  1
  Si  Si23  1  0.296626  0.862404  0.750004  1
  Si  Si24  1  0.714813  0.127408  0.247685  1
  Si  Si25  1  0.212347  0.370778  0.247725  1
  Si  Si26  1  0.787457  0.628421  0.750519  1
  Si  Si27  1  0.156869  0.463000  0.539521  1
  Si  Si28  1  0.842684  0.536562  0.461426  1
  Si  Si29  1  0.340124  0.964978  0.460785  1
  Si  Si30  1  0.845030  0.528131  0.040884  1
  Si  Si31  1  0.659031  0.037041  0.539584  1
  Si  Si32  1  0.157913  0.460423  0.963478  1
  Si  Si33  1  0.664180  0.038311  0.961296  1
  Si  Si34  1  0.330448  0.968074  0.039941  1
  P  P35  1  0.028574  0.126254  0.749513  1
