# generated using pymatgen
data_Er3Pa(MnB6)2
_symmetry_space_group_name_H-M   'P 1'
_cell_length_a   3.57212800
_cell_length_b   9.05678531
_cell_length_c   11.40989103
_cell_angle_alpha   90.27946120
_cell_angle_beta   90.00000000
_cell_angle_gamma   90.00000000
_symmetry_Int_Tables_number   1
_chemical_formula_structural   Er3Pa(MnB6)2
_chemical_formula_sum   'Er6 Pa2 Mn4 B24'
_cell_volume   369.12836258
_cell_formula_units_Z   2
loop_
 _symmetry_equiv_pos_site_id
 _symmetry_equiv_pos_as_xyz
  1  'x, y, z'
loop_
 _atom_site_type_symbol
 _atom_site_label
 _atom_site_symmetry_multiplicity
 _atom_site_fract_x
 _atom_site_fract_y
 _atom_site_fract_z
 _atom_site_occupancy
  Er  Er0  1  0.000000  0.825130  0.085053  1
  Er  Er1  1  0.000000  0.174870  0.914947  1
  Er  Er2  1  0.000000  0.943140  0.370060  1
  Er  Er3  1  0.000000  0.056860  0.629940  1
  Er  Er4  1  0.000000  0.442662  0.128795  1
  Er  Er5  1  0.000000  0.557338  0.871205  1
  Pa  Pa6  1  0.000000  0.323281  0.413273  1
  Pa  Pa7  1  0.000000  0.676719  0.586727  1
  Mn  Mn8  1  0.000000  0.635937  0.324188  1
  Mn  Mn9  1  0.000000  0.364063  0.675812  1
  Mn  Mn10  1  0.000000  0.140688  0.182074  1
  Mn  Mn11  1  0.000000  0.859312  0.817926  1
  B  B12  1  0.500000  0.554315  0.431663  1
  B  B13  1  0.500000  0.445685  0.568337  1
  B  B14  1  0.500000  0.054121  0.067739  1
  B  B15  1  0.500000  0.945879  0.932261  1
  B  B16  1  0.500000  0.747076  0.417661  1
  B  B17  1  0.500000  0.252924  0.582339  1
  B  B18  1  0.500000  0.246583  0.080954  1
  B  B19  1  0.500000  0.753417  0.919046  1
  B  B20  1  0.500000  0.789943  0.265618  1
  B  B21  1  0.500000  0.210057  0.734382  1
  B  B22  1  0.500000  0.290180  0.232921  1
  B  B23  1  0.500000  0.709820  0.767079  1
  B  B24  1  0.500000  0.631839  0.185802  1
  B  B25  1  0.500000  0.368161  0.814198  1
  B  B26  1  0.500000  0.131867  0.313015  1
  B  B27  1  0.500000  0.868133  0.686985  1
  B  B28  1  0.500000  0.984439  0.210995  1
  B  B29  1  0.500000  0.015561  0.789005  1
  B  B30  1  0.500000  0.485624  0.287595  1
  B  B31  1  0.500000  0.514376  0.712405  1
  B  B32  1  0.500000  0.605682  0.029484  1
  B  B33  1  0.500000  0.394318  0.970516  1
  B  B34  1  0.500000  0.108342  0.470131  1
  B  B35  1  0.500000  0.891658  0.529869  1
