# generated using pymatgen
data_Ho10Ga2SnSb3
_symmetry_space_group_name_H-M   'P 1'
_cell_length_a   8.70293800
_cell_length_b   8.73047942
_cell_length_c   6.37545700
_cell_angle_alpha   90.00000000
_cell_angle_beta   90.00000000
_cell_angle_gamma   119.93570105
_symmetry_Int_Tables_number   1
_chemical_formula_structural   Ho10Ga2SnSb3
_chemical_formula_sum   'Ho10 Ga2 Sn1 Sb3'
_cell_volume   419.78504088
_cell_formula_units_Z   1
loop_
 _symmetry_equiv_pos_site_id
 _symmetry_equiv_pos_as_xyz
  1  'x, y, z'
loop_
 _atom_site_type_symbol
 _atom_site_label
 _atom_site_symmetry_multiplicity
 _atom_site_fract_x
 _atom_site_fract_y
 _atom_site_fract_z
 _atom_site_occupancy
  Ho  Ho0  1  0.341835  0.685897  0.000458  1
  Ho  Ho1  1  0.657922  0.314828  0.499505  1
  Ho  Ho2  1  0.657922  0.314828  0.000495  1
  Ho  Ho3  1  0.341835  0.685897  0.499542  1
  Ho  Ho4  1  0.241359  0.997699  0.250000  1
  Ho  Ho5  1  0.757544  0.000737  0.750000  1
  Ho  Ho6  1  0.986077  0.231023  0.250000  1
  Ho  Ho7  1  0.757073  0.768675  0.250000  1
  Ho  Ho8  1  0.244095  0.231261  0.750000  1
  Ho  Ho9  1  0.013878  0.769693  0.750000  1
  Ga  Ga10  1  0.603254  0.999923  0.250000  1
  Ga  Ga11  1  0.398189  0.001293  0.750000  1
  Sn  Sn12  1  0.993455  0.602880  0.250000  1
  Sb  Sb13  1  0.388126  0.394623  0.250000  1
  Sb  Sb14  1  0.611423  0.605542  0.750000  1
  Sb  Sb15  1  0.006015  0.395200  0.750000  1
