# generated using pymatgen
data_Mn7CrAgO16
_symmetry_space_group_name_H-M   'P 1'
_cell_length_a   5.88941942
_cell_length_b   7.12181158
_cell_length_c   7.17625361
_cell_angle_alpha   87.84495488
_cell_angle_beta   78.17332968
_cell_angle_gamma   78.15699209
_symmetry_Int_Tables_number   1
_chemical_formula_structural   Mn7CrAgO16
_chemical_formula_sum   'Mn7 Cr1 Ag1 O16'
_cell_volume   288.33226581
_cell_formula_units_Z   1
loop_
 _symmetry_equiv_pos_site_id
 _symmetry_equiv_pos_as_xyz
  1  'x, y, z'
loop_
 _atom_site_type_symbol
 _atom_site_label
 _atom_site_symmetry_multiplicity
 _atom_site_fract_x
 _atom_site_fract_y
 _atom_site_fract_z
 _atom_site_occupancy
  Mn  Mn0  1  0.069505  0.515142  0.182970  1
  Mn  Mn1  1  0.160298  0.816158  0.519870  1
  Mn  Mn2  1  0.659051  0.820117  0.519507  1
  Mn  Mn3  1  0.327305  0.185778  0.481111  1
  Mn  Mn4  1  0.829005  0.182445  0.482631  1
  Mn  Mn5  1  0.421665  0.484886  0.817983  1
  Mn  Mn6  1  0.918257  0.484867  0.819262  1
  Cr  Cr7  1  0.572077  0.516785  0.183096  1
  Ag  Ag8  1  0.226260  0.997981  0.001802  1
  O  O9  1  0.833360  0.641420  0.045291  1
  O  O10  1  0.313773  0.648631  0.044571  1
  O  O11  1  0.971312  0.706850  0.381141  1
  O  O12  1  0.470750  0.712742  0.384759  1
  O  O13  1  0.846556  0.953792  0.641862  1
  O  O14  1  0.341619  0.956050  0.649290  1
  O  O15  1  0.324060  0.372490  0.289062  1
  O  O16  1  0.837147  0.369795  0.288312  1
  O  O17  1  0.163411  0.620916  0.707936  1
  O  O18  1  0.660496  0.627211  0.713064  1
  O  O19  1  0.145307  0.043642  0.354216  1
  O  O20  1  0.641660  0.047018  0.360261  1
  O  O21  1  0.017111  0.291387  0.619734  1
  O  O22  1  0.517024  0.294958  0.617687  1
  O  O23  1  0.170932  0.350612  0.950810  1
  O  O24  1  0.669158  0.358329  0.943761  1
