# generated using pymatgen
data_Ce2Er2In2IrAu3
_symmetry_space_group_name_H-M   'P 1'
_cell_length_a   7.99075213
_cell_length_b   7.97708568
_cell_length_c   3.69184500
_cell_angle_alpha   90.00000000
_cell_angle_beta   90.00000000
_cell_angle_gamma   90.61348613
_symmetry_Int_Tables_number   1
_chemical_formula_structural   Ce2Er2In2IrAu3
_chemical_formula_sum   'Ce2 Er2 In2 Ir1 Au3'
_cell_volume   235.31546979
_cell_formula_units_Z   1
loop_
 _symmetry_equiv_pos_site_id
 _symmetry_equiv_pos_as_xyz
  1  'x, y, z'
loop_
 _atom_site_type_symbol
 _atom_site_label
 _atom_site_symmetry_multiplicity
 _atom_site_fract_x
 _atom_site_fract_y
 _atom_site_fract_z
 _atom_site_occupancy
  Ce  Ce0  1  0.315014  0.812680  0.500000  1
  Ce  Ce1  1  0.846165  0.671786  0.500000  1
  Er  Er2  1  0.666915  0.169942  0.500000  1
  Er  Er3  1  0.178000  0.344583  0.500000  1
  In  In4  1  0.002136  0.003882  0.000000  1
  In  In5  1  0.500098  0.495422  0.000000  1
  Ir  Ir6  1  0.121443  0.638352  0.000000  1
  Au  Au7  1  0.875749  0.361405  0.000000  1
  Au  Au8  1  0.625779  0.872581  0.000000  1
  Au  Au9  1  0.368701  0.129367  0.000000  1
