# generated using pymatgen
data_Tc5WCl18
_symmetry_space_group_name_H-M   'P 1'
_cell_length_a   9.41832601
_cell_length_b   9.43582025
_cell_length_c   9.43937380
_cell_angle_alpha   112.96048025
_cell_angle_beta   67.22153810
_cell_angle_gamma   112.24346906
_symmetry_Int_Tables_number   1
_chemical_formula_structural   Tc5WCl18
_chemical_formula_sum   'Tc5 W1 Cl18'
_cell_volume   686.12245228
_cell_formula_units_Z   1
loop_
 _symmetry_equiv_pos_site_id
 _symmetry_equiv_pos_as_xyz
  1  'x, y, z'
loop_
 _atom_site_type_symbol
 _atom_site_label
 _atom_site_symmetry_multiplicity
 _atom_site_fract_x
 _atom_site_fract_y
 _atom_site_fract_z
 _atom_site_occupancy
  Tc  Tc0  1  0.140152  0.613759  0.143464  1
  Tc  Tc1  1  0.144502  0.852151  0.376063  1
  Tc  Tc2  1  0.855657  0.144657  0.622135  1
  Tc  Tc3  1  0.854270  0.378682  0.856590  1
  Tc  Tc4  1  0.622901  0.147163  0.855215  1
  W  W5  1  0.384533  0.856977  0.142018  1
  Cl  Cl6  1  0.328176  0.993159  0.011244  1
  Cl  Cl7  1  0.003458  0.668583  0.010339  1
  Cl  Cl8  1  0.624343  0.376278  0.087308  1
  Cl  Cl9  1  0.541901  0.783783  0.215823  1
  Cl  Cl10  1  0.219885  0.463995  0.219933  1
  Cl  Cl11  1  0.007758  0.992731  0.330958  1
  Cl  Cl12  1  0.374354  0.085839  0.372368  1
  Cl  Cl13  1  0.914826  0.624203  0.375155  1
  Cl  Cl14  1  0.777647  0.221684  0.471841  1
  Cl  Cl15  1  0.221817  0.779759  0.531312  1
  Cl  Cl16  1  0.083728  0.373938  0.625989  1
  Cl  Cl17  1  0.626702  0.916075  0.625400  1
  Cl  Cl18  1  0.990504  0.012472  0.675759  1
  Cl  Cl19  1  0.775945  0.529292  0.780279  1
  Cl  Cl20  1  0.471705  0.224337  0.779195  1
  Cl  Cl21  1  0.372200  0.627060  0.912903  1
  Cl  Cl22  1  0.989548  0.323176  0.987843  1
  Cl  Cl23  1  0.673488  0.010249  0.990869  1
