# generated using pymatgen
data_Y3Ho7Cd3Fe
_symmetry_space_group_name_H-M   'P 1'
_cell_length_a   9.52615400
_cell_length_b   9.52615368
_cell_length_c   9.78865000
_cell_angle_alpha   90.00000000
_cell_angle_beta   90.00000000
_cell_angle_gamma   120.00000110
_symmetry_Int_Tables_number   1
_chemical_formula_structural   Y3Ho7Cd3Fe
_chemical_formula_sum   'Y6 Ho14 Cd6 Fe2'
_cell_volume   769.28738160
_cell_formula_units_Z   2
loop_
 _symmetry_equiv_pos_site_id
 _symmetry_equiv_pos_as_xyz
  1  'x, y, z'
loop_
 _atom_site_type_symbol
 _atom_site_label
 _atom_site_symmetry_multiplicity
 _atom_site_fract_x
 _atom_site_fract_y
 _atom_site_fract_z
 _atom_site_occupancy
  Y  Y0  1  0.540537  0.459463  0.250000  1
  Y  Y1  1  0.540537  0.081074  0.250000  1
  Y  Y2  1  0.918926  0.459463  0.250000  1
  Y  Y3  1  0.459463  0.540537  0.750000  1
  Y  Y4  1  0.459463  0.918926  0.750000  1
  Y  Y5  1  0.081074  0.540537  0.750000  1
  Ho  Ho6  1  0.000000  0.000000  0.500000  1
  Ho  Ho7  1  0.000000  0.000000  0.000000  1
  Ho  Ho8  1  0.211988  0.788012  0.436653  1
  Ho  Ho9  1  0.211988  0.423977  0.436653  1
  Ho  Ho10  1  0.576023  0.788012  0.436653  1
  Ho  Ho11  1  0.788012  0.211988  0.563347  1
  Ho  Ho12  1  0.788012  0.576023  0.563347  1
  Ho  Ho13  1  0.423977  0.211988  0.563347  1
  Ho  Ho14  1  0.788012  0.211988  0.936653  1
  Ho  Ho15  1  0.788012  0.576023  0.936653  1
  Ho  Ho16  1  0.423977  0.211988  0.936653  1
  Ho  Ho17  1  0.211988  0.788012  0.063347  1
  Ho  Ho18  1  0.211988  0.423977  0.063347  1
  Ho  Ho19  1  0.576023  0.788012  0.063347  1
  Cd  Cd20  1  0.885969  0.114031  0.250000  1
  Cd  Cd21  1  0.885969  0.771939  0.250000  1
  Cd  Cd22  1  0.228061  0.114031  0.250000  1
  Cd  Cd23  1  0.114031  0.885969  0.750000  1
  Cd  Cd24  1  0.114031  0.228061  0.750000  1
  Cd  Cd25  1  0.771939  0.885969  0.750000  1
  Fe  Fe26  1  0.333333  0.666667  0.250000  1
  Fe  Fe27  1  0.666667  0.333333  0.750000  1
