# generated using pymatgen
data_Pr2Ga2SiPIr6
_symmetry_space_group_name_H-M   'P 1'
_cell_length_a   6.80047356
_cell_length_b   6.78348051
_cell_length_c   6.80047356
_cell_angle_alpha   130.58044548
_cell_angle_beta   113.48566028
_cell_angle_gamma   87.27583218
_symmetry_Int_Tables_number   1
_chemical_formula_structural   Pr2Ga2SiPIr6
_chemical_formula_sum   'Pr2 Ga2 Si1 P1 Ir6'
_cell_volume   208.18649387
_cell_formula_units_Z   1
loop_
 _symmetry_equiv_pos_site_id
 _symmetry_equiv_pos_as_xyz
  1  'x, y, z'
loop_
 _atom_site_type_symbol
 _atom_site_label
 _atom_site_symmetry_multiplicity
 _atom_site_fract_x
 _atom_site_fract_y
 _atom_site_fract_z
 _atom_site_occupancy
  Pr  Pr0  1  0.248674  0.989061  0.740388  1
  Pr  Pr1  1  0.748612  0.012973  0.264360  1
  Ga  Ga2  1  0.060302  0.291391  0.231090  1
  Ga  Ga3  1  0.922218  0.687807  0.765589  1
  Si  Si4  1  0.609069  0.370365  0.761296  1
  P  P5  1  0.412670  0.649101  0.236431  1
  Ir  Ir6  1  0.482348  0.498436  0.482209  1
  Ir  Ir7  1  0.016227  0.498436  0.016088  1
  Ir  Ir8  1  0.285519  0.000394  0.287507  1
  Ir  Ir9  1  0.712886  0.000394  0.714875  1
  Ir  Ir10  1  0.271147  0.500821  0.770493  1
  Ir  Ir11  1  0.730328  0.500821  0.229674  1
