# generated using pymatgen
data_SrTm3(Ir2O7)2
_symmetry_space_group_name_H-M   'P 1'
_cell_length_a   7.26543798
_cell_length_b   7.23015234
_cell_length_c   7.23015400
_cell_angle_alpha   60.00000157
_cell_angle_beta   60.16052837
_cell_angle_gamma   60.16051892
_symmetry_Int_Tables_number   1
_chemical_formula_structural   SrTm3(Ir2O7)2
_chemical_formula_sum   'Sr1 Tm3 Ir4 O14'
_cell_volume   269.21006163
_cell_formula_units_Z   1
loop_
 _symmetry_equiv_pos_site_id
 _symmetry_equiv_pos_as_xyz
  1  'x, y, z'
loop_
 _atom_site_type_symbol
 _atom_site_label
 _atom_site_symmetry_multiplicity
 _atom_site_fract_x
 _atom_site_fract_y
 _atom_site_fract_z
 _atom_site_occupancy
  Sr  Sr0  1  0.125000  0.625000  0.625000  1
  Tm  Tm1  1  0.625000  0.625000  0.125000  1
  Tm  Tm2  1  0.625000  0.625000  0.625000  1
  Tm  Tm3  1  0.625000  0.125000  0.625000  1
  Ir  Ir4  1  0.125000  0.125000  0.125000  1
  Ir  Ir5  1  0.625000  0.125000  0.125000  1
  Ir  Ir6  1  0.125000  0.625000  0.125000  1
  Ir  Ir7  1  0.125000  0.125000  0.625000  1
  O  O8  1  0.025598  0.457749  0.457749  1
  O  O9  1  0.788752  0.791661  0.209794  1
  O  O10  1  0.788752  0.209794  0.209794  1
  O  O11  1  0.461248  0.040206  0.458339  1
  O  O12  1  0.025598  0.058902  0.457749  1
  O  O13  1  0.025598  0.457749  0.058902  1
  O  O14  1  0.723365  0.758878  0.758878  1
  O  O15  1  0.526635  0.491122  0.491122  1
  O  O16  1  0.788752  0.209794  0.791661  1
  O  O17  1  0.224402  0.792251  0.191098  1
  O  O18  1  0.224402  0.191098  0.792251  1
  O  O19  1  0.461248  0.040206  0.040206  1
  O  O20  1  0.461248  0.458339  0.040206  1
  O  O21  1  0.224402  0.792251  0.792251  1
