# generated using pymatgen
data_La2Pa(GaRh)3
_symmetry_space_group_name_H-M   'P 1'
_cell_length_a   7.33044158
_cell_length_b   7.37373086
_cell_length_c   4.01502100
_cell_angle_alpha   90.00000000
_cell_angle_beta   90.00000000
_cell_angle_gamma   120.19554373
_symmetry_Int_Tables_number   1
_chemical_formula_structural   La2Pa(GaRh)3
_chemical_formula_sum   'La2 Pa1 Ga3 Rh3'
_cell_volume   187.57577457
_cell_formula_units_Z   1
loop_
 _symmetry_equiv_pos_site_id
 _symmetry_equiv_pos_as_xyz
  1  'x, y, z'
loop_
 _atom_site_type_symbol
 _atom_site_label
 _atom_site_symmetry_multiplicity
 _atom_site_fract_x
 _atom_site_fract_y
 _atom_site_fract_z
 _atom_site_occupancy
  La  La0  1  0.416089  0.418428  0.500000  1
  La  La1  1  0.583911  0.002339  0.500000  1
  Pa  Pa2  1  0.000000  0.587663  0.500000  1
  Ga  Ga3  1  0.760191  0.760875  0.000000  1
  Ga  Ga4  1  0.239809  0.000685  0.000000  1
  Ga  Ga5  1  0.000000  0.230535  0.000000  1
  Rh  Rh6  1  0.714022  0.370050  0.000000  1
  Rh  Rh7  1  0.285978  0.656028  0.000000  1
  Rh  Rh8  1  0.000000  0.973397  0.500000  1
