# generated using pymatgen
data_La2Eu4TaWO14
_symmetry_space_group_name_H-M   'P 1'
_cell_length_a   6.67272242
_cell_length_b   6.67272167
_cell_length_c   7.76560053
_cell_angle_alpha   89.93069643
_cell_angle_beta   89.93069855
_cell_angle_gamma   111.39260385
_symmetry_Int_Tables_number   1
_chemical_formula_structural   La2Eu4TaWO14
_chemical_formula_sum   'La2 Eu4 Ta1 W1 O14'
_cell_volume   321.94211938
_cell_formula_units_Z   1
loop_
 _symmetry_equiv_pos_site_id
 _symmetry_equiv_pos_as_xyz
  1  'x, y, z'
loop_
 _atom_site_type_symbol
 _atom_site_label
 _atom_site_symmetry_multiplicity
 _atom_site_fract_x
 _atom_site_fract_y
 _atom_site_fract_z
 _atom_site_occupancy
  La  La0  1  0.000000  0.000000  0.000000  1
  La  La1  1  0.000000  0.000000  0.500000  1
  Eu  Eu2  1  0.481730  0.947681  0.745437  1
  Eu  Eu3  1  0.518270  0.052319  0.254563  1
  Eu  Eu4  1  0.947681  0.481730  0.745437  1
  Eu  Eu5  1  0.052319  0.518270  0.254563  1
  Ta  Ta6  1  0.500000  0.500000  0.500000  1
  W  W7  1  0.500000  0.500000  0.000000  1
  O  O8  1  0.845553  0.114087  0.751873  1
  O  O9  1  0.154447  0.885913  0.248127  1
  O  O10  1  0.114087  0.845553  0.751873  1
  O  O11  1  0.885913  0.154447  0.248127  1
  O  O12  1  0.439403  0.192885  0.970456  1
  O  O13  1  0.564838  0.814986  0.471582  1
  O  O14  1  0.185014  0.435162  0.528418  1
  O  O15  1  0.807115  0.560597  0.029544  1
  O  O16  1  0.443972  0.443972  0.246366  1
  O  O17  1  0.556028  0.556028  0.753634  1
  O  O18  1  0.192885  0.439403  0.970456  1
  O  O19  1  0.814986  0.564838  0.471582  1
  O  O20  1  0.435162  0.185014  0.528418  1
  O  O21  1  0.560597  0.807115  0.029544  1
