# generated using pymatgen
data_Er5Ga2P10Ir15Ru4
_symmetry_space_group_name_H-M   'P 1'
_cell_length_a   12.66265118
_cell_length_b   12.72708177
_cell_length_c   3.97238800
_cell_angle_alpha   90.00000000
_cell_angle_beta   90.00000000
_cell_angle_gamma   119.70444628
_symmetry_Int_Tables_number   1
_chemical_formula_structural   Er5Ga2P10Ir15Ru4
_chemical_formula_sum   'Er5 Ga2 P10 Ir15 Ru4'
_cell_volume   556.05979563
_cell_formula_units_Z   1
loop_
 _symmetry_equiv_pos_site_id
 _symmetry_equiv_pos_as_xyz
  1  'x, y, z'
loop_
 _atom_site_type_symbol
 _atom_site_label
 _atom_site_symmetry_multiplicity
 _atom_site_fract_x
 _atom_site_fract_y
 _atom_site_fract_z
 _atom_site_occupancy
  Er  Er0  1  0.664380  0.331047  0.000000  1
  Er  Er1  1  0.336723  0.667577  0.000000  1
  Er  Er2  1  0.820933  0.817864  0.500000  1
  Er  Er3  1  0.177182  0.997264  0.500000  1
  Er  Er4  1  0.998851  0.183139  0.500000  1
  Ga  Ga5  1  0.641824  0.641062  0.000000  1
  Ga  Ga6  1  0.357886  0.002437  0.000000  1
  P  P7  1  0.693845  0.175473  0.500000  1
  P  P8  1  0.823423  0.511967  0.500000  1
  P  P9  1  0.478223  0.308176  0.500000  1
  P  P10  1  0.177155  0.692698  0.500000  1
  P  P11  1  0.523033  0.833906  0.500000  1
  P  P12  1  0.314871  0.482008  0.500000  1
  P  P13  1  0.993921  0.358245  0.000000  1
  P  P14  1  0.176539  0.178761  0.000000  1
  P  P15  1  0.821941  0.000791  0.000000  1
  P  P16  1  0.998156  0.811861  0.000000  1
  Ir  Ir17  1  0.806922  0.181669  0.000000  1
  Ir  Ir18  1  0.824063  0.613483  0.000000  1
  Ir  Ir19  1  0.378353  0.208606  0.000000  1
  Ir  Ir20  1  0.176578  0.794055  0.000000  1
  Ir  Ir21  1  0.624413  0.828765  0.000000  1
  Ir  Ir22  1  0.181926  0.368114  0.000000  1
  Ir  Ir23  1  0.436192  0.455322  0.000000  1
  Ir  Ir24  1  0.555998  0.007223  0.000000  1
  Ir  Ir25  1  0.005348  0.543094  0.000000  1
  Ir  Ir26  1  0.631077  0.502680  0.500000  1
  Ir  Ir27  1  0.495950  0.134383  0.500000  1
  Ir  Ir28  1  0.366107  0.871441  0.500000  1
  Ir  Ir29  1  0.507950  0.643955  0.500000  1
  Ir  Ir30  1  0.138250  0.496906  0.500000  1
  Ir  Ir31  1  0.000148  0.994636  0.000000  1
  Ru  Ru32  1  0.281023  0.287440  0.500000  1
  Ru  Ru33  1  0.716619  0.005128  0.500000  1
  Ru  Ru34  1  0.999870  0.706119  0.500000  1
  Ru  Ru35  1  0.874324  0.362707  0.500000  1
