# generated using pymatgen
data_Bi2INO8
_symmetry_space_group_name_H-M   'P 1'
_cell_length_a   5.78067508
_cell_length_b   5.75249900
_cell_length_c   10.96528591
_cell_angle_alpha   90.00000000
_cell_angle_beta   85.95352510
_cell_angle_gamma   90.00000000
_symmetry_Int_Tables_number   1
_chemical_formula_structural   Bi2INO8
_chemical_formula_sum   'Bi4 I2 N2 O16'
_cell_volume   363.72326755
_cell_formula_units_Z   2
loop_
 _symmetry_equiv_pos_site_id
 _symmetry_equiv_pos_as_xyz
  1  'x, y, z'
loop_
 _atom_site_type_symbol
 _atom_site_label
 _atom_site_symmetry_multiplicity
 _atom_site_fract_x
 _atom_site_fract_y
 _atom_site_fract_z
 _atom_site_occupancy
  Bi  Bi0  1  0.515599  0.289839  0.886409  1
  Bi  Bi1  1  0.484401  0.789839  0.113591  1
  Bi  Bi2  1  0.013884  0.779922  0.890206  1
  Bi  Bi3  1  0.986116  0.279922  0.109794  1
  I  I4  1  0.599416  0.831571  0.627713  1
  I  I5  1  0.400584  0.331571  0.372287  1
  N  N6  1  0.042897  0.266397  0.692731  1
  N  N7  1  0.957103  0.766397  0.307269  1
  O  O8  1  0.237952  0.039537  0.999067  1
  O  O9  1  0.762048  0.539537  0.000933  1
  O  O10  1  0.260198  0.536135  0.001117  1
  O  O11  1  0.739802  0.036135  0.998883  1
  O  O12  1  0.161133  0.409612  0.750892  1
  O  O13  1  0.838867  0.909612  0.249108  1
  O  O14  1  0.388763  0.966456  0.742443  1
  O  O15  1  0.611237  0.466456  0.257557  1
  O  O16  1  0.890229  0.141235  0.756763  1
  O  O17  1  0.109771  0.641235  0.243237  1
  O  O18  1  0.706223  0.618592  0.739737  1
  O  O19  1  0.293777  0.118592  0.260263  1
  O  O20  1  0.066848  0.239217  0.581550  1
  O  O21  1  0.933152  0.739217  0.418450  1
  O  O22  1  0.410268  0.658310  0.541135  1
  O  O23  1  0.589732  0.158310  0.458865  1
