# generated using pymatgen
data_LiCd3Pt2
_symmetry_space_group_name_H-M   'P 1'
_cell_length_a   8.47570600
_cell_length_b   8.47567645
_cell_length_c   8.47565200
_cell_angle_alpha   119.99998198
_cell_angle_beta   89.99990536
_cell_angle_gamma   120.00022490
_symmetry_Int_Tables_number   1
_chemical_formula_structural   LiCd3Pt2
_chemical_formula_sum   'Li4 Cd12 Pt8'
_cell_volume   430.53391944
_cell_formula_units_Z   4
loop_
 _symmetry_equiv_pos_site_id
 _symmetry_equiv_pos_as_xyz
  1  'x, y, z'
loop_
 _atom_site_type_symbol
 _atom_site_label
 _atom_site_symmetry_multiplicity
 _atom_site_fract_x
 _atom_site_fract_y
 _atom_site_fract_z
 _atom_site_occupancy
  Li  Li0  1  0.374997  0.749994  0.124990  1
  Li  Li1  1  0.374997  0.250007  0.625003  1
  Li  Li2  1  0.374997  0.749994  0.625003  1
  Li  Li3  1  0.875010  0.250006  0.625004  1
  Cd  Cd4  1  0.948861  0.500000  0.051139  1
  Cd  Cd5  1  0.551139  0.102278  0.051138  1
  Cd  Cd6  1  0.551139  0.500001  0.051140  1
  Cd  Cd7  1  0.801136  0.000001  0.198865  1
  Cd  Cd8  1  0.198865  0.000000  0.198865  1
  Cd  Cd9  1  0.198865  0.397730  0.198866  1
  Cd  Cd10  1  0.551139  0.500000  0.448861  1
  Cd  Cd11  1  0.948862  0.500001  0.448862  1
  Cd  Cd12  1  0.948861  0.897722  0.448861  1
  Cd  Cd13  1  0.198865  0.999999  0.801135  1
  Cd  Cd14  1  0.801136  0.602271  0.801136  1
  Cd  Cd15  1  0.801135  0.000000  0.801135  1
  Pt  Pt16  1  0.584856  0.169710  0.415144  1
  Pt  Pt17  1  0.245434  0.830289  0.415144  1
  Pt  Pt18  1  0.584855  0.830292  0.415146  1
  Pt  Pt19  1  0.165141  0.330283  0.495424  1
  Pt  Pt20  1  0.584854  0.169708  0.754562  1
  Pt  Pt21  1  0.165140  0.330282  0.834862  1
  Pt  Pt22  1  0.165141  0.669718  0.834859  1
  Pt  Pt23  1  0.504580  0.669721  0.834861  1
