# generated using pymatgen
data_Nd2Lu4Ir13Rh5
_symmetry_space_group_name_H-M   'P 1'
_cell_length_a   5.30371800
_cell_length_b   5.30371841
_cell_length_c   17.42333200
_cell_angle_alpha   90.00000000
_cell_angle_beta   90.00000000
_cell_angle_gamma   119.99999742
_symmetry_Int_Tables_number   1
_chemical_formula_structural   Nd2Lu4Ir13Rh5
_chemical_formula_sum   'Nd2 Lu4 Ir13 Rh5'
_cell_volume   424.44628615
_cell_formula_units_Z   1
loop_
 _symmetry_equiv_pos_site_id
 _symmetry_equiv_pos_as_xyz
  1  'x, y, z'
loop_
 _atom_site_type_symbol
 _atom_site_label
 _atom_site_symmetry_multiplicity
 _atom_site_fract_x
 _atom_site_fract_y
 _atom_site_fract_z
 _atom_site_occupancy
  Nd  Nd0  1  0.333333  0.666667  0.750575  1
  Nd  Nd1  1  0.666667  0.333333  0.249425  1
  Lu  Lu2  1  0.333333  0.666667  0.540482  1
  Lu  Lu3  1  0.666667  0.333333  0.039893  1
  Lu  Lu4  1  0.666667  0.333333  0.459518  1
  Lu  Lu5  1  0.333333  0.666667  0.960107  1
  Ir  Ir6  1  0.168028  0.336056  0.124011  1
  Ir  Ir7  1  0.832163  0.664327  0.624177  1
  Ir  Ir8  1  0.663944  0.831972  0.124011  1
  Ir  Ir9  1  0.168028  0.831972  0.124011  1
  Ir  Ir10  1  0.832163  0.167837  0.624177  1
  Ir  Ir11  1  0.335673  0.167837  0.624177  1
  Ir  Ir12  1  0.831972  0.663944  0.875989  1
  Ir  Ir13  1  0.831972  0.168028  0.875989  1
  Ir  Ir14  1  0.336056  0.168028  0.875989  1
  Ir  Ir15  1  0.664327  0.832163  0.375823  1
  Ir  Ir16  1  0.167837  0.832163  0.375823  1
  Ir  Ir17  1  0.167837  0.335673  0.375823  1
  Ir  Ir18  1  0.000000  0.000000  0.000000  1
  Rh  Rh19  1  0.000000  0.000000  0.250111  1
  Rh  Rh20  1  0.000000  0.000000  0.749889  1
  Rh  Rh21  1  0.333333  0.666667  0.250570  1
  Rh  Rh22  1  0.666667  0.333333  0.749430  1
  Rh  Rh23  1  0.000000  0.000000  0.500000  1
