# generated using pymatgen
data_Eu(ZnAu2)2
_symmetry_space_group_name_H-M   'P 1'
_cell_length_a   5.70546753
_cell_length_b   5.70546785
_cell_length_c   5.70546759
_cell_angle_alpha   102.97623709
_cell_angle_beta   102.97623863
_cell_angle_gamma   123.42920282
_symmetry_Int_Tables_number   1
_chemical_formula_structural   Eu(ZnAu2)2
_chemical_formula_sum   'Eu1 Zn2 Au4'
_cell_volume   136.49375983
_cell_formula_units_Z   1
loop_
 _symmetry_equiv_pos_site_id
 _symmetry_equiv_pos_as_xyz
  1  'x, y, z'
loop_
 _atom_site_type_symbol
 _atom_site_label
 _atom_site_symmetry_multiplicity
 _atom_site_fract_x
 _atom_site_fract_y
 _atom_site_fract_z
 _atom_site_occupancy
  Eu  Eu0  1  0.000000  0.000000  0.000000  1
  Zn  Zn1  1  0.250000  0.750000  0.500000  1
  Zn  Zn2  1  0.750000  0.250000  0.500000  1
  Au  Au3  1  0.301788  0.301788  0.603576  1
  Au  Au4  1  0.698212  0.698212  0.396424  1
  Au  Au5  1  0.698212  0.301788  0.000000  1
  Au  Au6  1  0.301788  0.698212  0.000000  1
