# generated using pymatgen
data_Sc6MnOsC8
_symmetry_space_group_name_H-M   'P 1'
_cell_length_a   6.74998438
_cell_length_b   6.74998455
_cell_length_c   6.76167035
_cell_angle_alpha   75.50468453
_cell_angle_beta   75.50468517
_cell_angle_gamma   38.33124953
_symmetry_Int_Tables_number   1
_chemical_formula_structural   Sc6MnOsC8
_chemical_formula_sum   'Sc6 Mn1 Os1 C8'
_cell_volume   184.24112183
_cell_formula_units_Z   1
loop_
 _symmetry_equiv_pos_site_id
 _symmetry_equiv_pos_as_xyz
  1  'x, y, z'
loop_
 _atom_site_type_symbol
 _atom_site_label
 _atom_site_symmetry_multiplicity
 _atom_site_fract_x
 _atom_site_fract_y
 _atom_site_fract_z
 _atom_site_occupancy
  Sc  Sc0  1  0.500018  0.500018  0.002190  1
  Sc  Sc1  1  0.499928  0.499928  0.496658  1
  Sc  Sc2  1  0.188661  0.188661  0.907272  1
  Sc  Sc3  1  0.191746  0.191746  0.402885  1
  Sc  Sc4  1  0.809396  0.809396  0.594486  1
  Sc  Sc5  1  0.810242  0.810242  0.095829  1
  Mn  Mn6  1  0.000261  0.000261  0.261338  1
  Os  Os7  1  0.999742  0.999742  0.740701  1
  C  C8  1  0.790172  0.465442  0.684347  1
  C  C9  1  0.465442  0.790172  0.684347  1
  C  C10  1  0.788726  0.460371  0.189138  1
  C  C11  1  0.460371  0.788726  0.189138  1
  C  C12  1  0.533325  0.209444  0.813957  1
  C  C13  1  0.209444  0.533325  0.813957  1
  C  C14  1  0.540983  0.211544  0.311878  1
  C  C15  1  0.211544  0.540983  0.311878  1
