# generated using pymatgen
data_La8Al9GaBr4
_symmetry_space_group_name_H-M   'P 1'
_cell_length_a   11.87996232
_cell_length_b   11.84365293
_cell_length_c   4.34908900
_cell_angle_alpha   90.00000000
_cell_angle_beta   90.00000000
_cell_angle_gamma   93.46399926
_symmetry_Int_Tables_number   1
_chemical_formula_structural   La8Al9GaBr4
_chemical_formula_sum   'La8 Al9 Ga1 Br4'
_cell_volume   610.80816176
_cell_formula_units_Z   1
loop_
 _symmetry_equiv_pos_site_id
 _symmetry_equiv_pos_as_xyz
  1  'x, y, z'
loop_
 _atom_site_type_symbol
 _atom_site_label
 _atom_site_symmetry_multiplicity
 _atom_site_fract_x
 _atom_site_fract_y
 _atom_site_fract_z
 _atom_site_occupancy
  La  La0  1  0.734160  0.735194  0.000000  1
  La  La1  1  0.040092  0.677004  0.500000  1
  La  La2  1  0.363754  0.636665  0.000000  1
  La  La3  1  0.959942  0.322920  0.500000  1
  La  La4  1  0.265017  0.264744  0.000000  1
  La  La5  1  0.636493  0.363879  0.000000  1
  La  La6  1  0.675714  0.039544  0.500000  1
  La  La7  1  0.323265  0.959805  0.500000  1
  Al  Al8  1  0.579661  0.580011  0.500000  1
  Al  Al9  1  0.420357  0.420201  0.500000  1
  Al  Al10  1  0.215971  0.479480  0.500000  1
  Al  Al11  1  0.784080  0.520478  0.500000  1
  Al  Al12  1  0.520131  0.785428  0.500000  1
  Al  Al13  1  0.471388  0.100715  0.000000  1
  Al  Al14  1  0.102072  0.471437  0.000000  1
  Al  Al15  1  0.479912  0.215511  0.500000  1
  Al  Al16  1  0.897923  0.528577  0.000000  1
  Ga  Ga17  1  0.530034  0.898399  0.000000  1
  Br  Br18  1  0.878107  0.878586  0.500000  1
  Br  Br19  1  0.172539  0.827897  0.000000  1
  Br  Br20  1  0.121900  0.121497  0.500000  1
  Br  Br21  1  0.827489  0.172029  0.000000  1
