# generated using pymatgen
data_YHo11AlCo4Sn
_symmetry_space_group_name_H-M   'P 1'
_cell_length_a   8.32028506
_cell_length_b   8.32137531
_cell_length_c   8.32137507
_cell_angle_alpha   112.03656914
_cell_angle_beta   109.38665100
_cell_angle_gamma   107.03417580
_symmetry_Int_Tables_number   1
_chemical_formula_structural   YHo11AlCo4Sn
_chemical_formula_sum   'Y1 Ho11 Al1 Co4 Sn1'
_cell_volume   442.63861792
_cell_formula_units_Z   1
loop_
 _symmetry_equiv_pos_site_id
 _symmetry_equiv_pos_as_xyz
  1  'x, y, z'
loop_
 _atom_site_type_symbol
 _atom_site_label
 _atom_site_symmetry_multiplicity
 _atom_site_fract_x
 _atom_site_fract_y
 _atom_site_fract_z
 _atom_site_occupancy
  Y  Y0  1  0.436134  0.234908  0.201226  1
  Ho  Ho1  1  0.562740  0.765737  0.797003  1
  Ho  Ho2  1  0.031399  0.234154  0.797245  1
  Ho  Ho3  1  0.968162  0.766081  0.202081  1
  Ho  Ho4  1  0.180561  0.281496  0.463061  1
  Ho  Ho5  1  0.819851  0.719154  0.537917  1
  Ho  Ho6  1  0.180561  0.717498  0.899066  1
  Ho  Ho7  1  0.819851  0.281936  0.100696  1
  Ho  Ho8  1  0.323477  0.637248  0.313122  1
  Ho  Ho9  1  0.676647  0.363294  0.686987  1
  Ho  Ho10  1  0.323477  0.010354  0.686229  1
  Ho  Ho11  1  0.676647  0.989662  0.313353  1
  Al  Al12  1  0.998499  0.999499  0.998999  1
  Co  Co13  1  0.337757  0.998883  0.338874  1
  Co  Co14  1  0.664347  0.999879  0.664468  1
  Co  Co15  1  0.113779  0.613986  0.499793  1
  Co  Co16  1  0.886845  0.385862  0.500983  1
  Sn  Sn17  1  0.499266  0.500371  0.998896  1
