# generated using pymatgen
data_Tb8Si12Pd3Au
_symmetry_space_group_name_H-M   'P 1'
_cell_length_a   8.18907700
_cell_length_b   8.18907576
_cell_length_c   8.19967200
_cell_angle_alpha   90.00000000
_cell_angle_beta   90.00000000
_cell_angle_gamma   120.00000903
_symmetry_Int_Tables_number   1
_chemical_formula_structural   Tb8Si12Pd3Au
_chemical_formula_sum   'Tb8 Si12 Pd3 Au1'
_cell_volume   476.20825142
_cell_formula_units_Z   1
loop_
 _symmetry_equiv_pos_site_id
 _symmetry_equiv_pos_as_xyz
  1  'x, y, z'
loop_
 _atom_site_type_symbol
 _atom_site_label
 _atom_site_symmetry_multiplicity
 _atom_site_fract_x
 _atom_site_fract_y
 _atom_site_fract_z
 _atom_site_occupancy
  Tb  Tb0  1  0.501347  0.002693  0.252353  1
  Tb  Tb1  1  0.500482  0.000966  0.747967  1
  Tb  Tb2  1  0.997307  0.498653  0.252353  1
  Tb  Tb3  1  0.999034  0.499518  0.747967  1
  Tb  Tb4  1  0.501347  0.498653  0.252353  1
  Tb  Tb5  1  0.500482  0.499518  0.747967  1
  Tb  Tb6  1  0.000000  0.000000  0.251234  1
  Tb  Tb7  1  0.000000  0.000000  0.747764  1
  Si  Si8  1  0.162083  0.324167  0.999139  1
  Si  Si9  1  0.833120  0.666241  0.999606  1
  Si  Si10  1  0.675833  0.837917  0.999139  1
  Si  Si11  1  0.834375  0.668751  0.502141  1
  Si  Si12  1  0.333759  0.166880  0.999606  1
  Si  Si13  1  0.165800  0.331600  0.497986  1
  Si  Si14  1  0.162083  0.837917  0.999139  1
  Si  Si15  1  0.331249  0.165625  0.502141  1
  Si  Si16  1  0.833120  0.166880  0.999606  1
  Si  Si17  1  0.668400  0.834200  0.497986  1
  Si  Si18  1  0.834375  0.165625  0.502141  1
  Si  Si19  1  0.165800  0.834200  0.497986  1
  Pd  Pd20  1  0.666667  0.333333  0.001516  1
  Pd  Pd21  1  0.666667  0.333333  0.500494  1
  Pd  Pd22  1  0.333333  0.666667  0.499269  1
  Au  Au23  1  0.333333  0.666667  0.002147  1
