# generated using pymatgen
data_TbY3Er4(WO6)4
_symmetry_space_group_name_H-M   'P 1'
_cell_length_a   5.39907700
_cell_length_b   7.70250418
_cell_length_c   11.43221521
_cell_angle_alpha   75.53836014
_cell_angle_beta   90.00000000
_cell_angle_gamma   90.00000000
_symmetry_Int_Tables_number   1
_chemical_formula_structural   TbY3Er4(WO6)4
_chemical_formula_sum   'Tb1 Y3 Er4 W4 O24'
_cell_volume   460.36101566
_cell_formula_units_Z   1
loop_
 _symmetry_equiv_pos_site_id
 _symmetry_equiv_pos_as_xyz
  1  'x, y, z'
loop_
 _atom_site_type_symbol
 _atom_site_label
 _atom_site_symmetry_multiplicity
 _atom_site_fract_x
 _atom_site_fract_y
 _atom_site_fract_z
 _atom_site_occupancy
  Tb  Tb0  1  0.683882  0.500000  0.250000  1
  Y  Y1  1  0.316222  0.500000  0.750000  1
  Y  Y2  1  0.741510  0.000000  0.250000  1
  Y  Y3  1  0.258520  0.000000  0.750000  1
  Er  Er4  1  0.183245  0.206243  0.421706  1
  Er  Er5  1  0.183245  0.793757  0.078294  1
  Er  Er6  1  0.816770  0.793606  0.578380  1
  Er  Er7  1  0.816770  0.206394  0.921620  1
  W  W8  1  0.255960  0.275970  0.114502  1
  W  W9  1  0.255960  0.724030  0.385498  1
  W  W10  1  0.744025  0.723975  0.885331  1
  W  W11  1  0.744025  0.276025  0.614669  1
  O  O12  1  0.455978  0.208850  0.273504  1
  O  O13  1  0.455978  0.791150  0.226496  1
  O  O14  1  0.543990  0.791143  0.726474  1
  O  O15  1  0.543990  0.208857  0.773526  1
  O  O16  1  0.046708  0.059751  0.103395  1
  O  O17  1  0.046708  0.940249  0.396605  1
  O  O18  1  0.953233  0.940226  0.896556  1
  O  O19  1  0.953233  0.059774  0.603444  1
  O  O20  1  0.981768  0.288154  0.228976  1
  O  O21  1  0.981768  0.711846  0.271024  1
  O  O22  1  0.018539  0.711573  0.771047  1
  O  O23  1  0.018539  0.288427  0.728953  1
  O  O24  1  0.850644  0.364834  0.451493  1
  O  O25  1  0.850644  0.635166  0.048507  1
  O  O26  1  0.149464  0.635162  0.548628  1
  O  O27  1  0.149464  0.364838  0.951372  1
  O  O28  1  0.641258  0.510398  0.614042  1
  O  O29  1  0.641258  0.489602  0.885958  1
  O  O30  1  0.358312  0.489568  0.386067  1
  O  O31  1  0.358312  0.510432  0.113933  1
  O  O32  1  0.463873  0.155575  0.568211  1
  O  O33  1  0.463873  0.844425  0.931789  1
  O  O34  1  0.536166  0.844396  0.431777  1
  O  O35  1  0.536166  0.155604  0.068223  1
