# generated using pymatgen
data_PrNp7TiS17
_symmetry_space_group_name_H-M   'P 1'
_cell_length_a   7.83756079
_cell_length_b   7.82300648
_cell_length_c   10.38495000
_cell_angle_alpha   80.60737210
_cell_angle_beta   80.58898246
_cell_angle_gamma   65.05615307
_symmetry_Int_Tables_number   1
_chemical_formula_structural   PrNp7TiS17
_chemical_formula_sum   'Pr1 Np7 Ti1 S17'
_cell_volume   566.40145357
_cell_formula_units_Z   1
loop_
 _symmetry_equiv_pos_site_id
 _symmetry_equiv_pos_as_xyz
  1  'x, y, z'
loop_
 _atom_site_type_symbol
 _atom_site_label
 _atom_site_symmetry_multiplicity
 _atom_site_fract_x
 _atom_site_fract_y
 _atom_site_fract_z
 _atom_site_occupancy
  Pr  Pr0  1  0.811038  0.305847  0.298557  1
  Np  Np1  1  0.299246  0.818254  0.297343  1
  Np  Np2  1  0.184037  0.699187  0.699806  1
  Np  Np3  1  0.699157  0.184090  0.703719  1
  Np  Np4  1  0.205548  0.206130  0.542907  1
  Np  Np5  1  0.792983  0.792062  0.457823  1
  Np  Np6  1  0.679674  0.681643  0.979518  1
  Np  Np7  1  0.317436  0.319260  0.018792  1
  Ti  Ti8  1  0.001176  0.998942  0.998984  1
  S  S9  1  0.826026  0.431877  0.544308  1
  S  S10  1  0.430792  0.820651  0.534400  1
  S  S11  1  0.176264  0.567675  0.466384  1
  S  S12  1  0.568658  0.166931  0.476235  1
  S  S13  1  0.943165  0.325106  0.019340  1
  S  S14  1  0.322854  0.943239  0.028872  1
  S  S15  1  0.059589  0.676315  0.968776  1
  S  S16  1  0.676256  0.061762  0.972322  1
  S  S17  1  0.224580  0.202136  0.278889  1
  S  S18  1  0.791959  0.790445  0.722551  1
  S  S19  1  0.063322  0.058496  0.770560  1
  S  S20  1  0.946184  0.924683  0.227580  1
  S  S21  1  0.303513  0.304910  0.755245  1
  S  S22  1  0.685842  0.715386  0.241295  1
  S  S23  1  0.519763  0.521488  0.829536  1
  S  S24  1  0.466070  0.490955  0.162466  1
  S  S25  1  0.004865  0.992528  0.503791  1
