# generated using pymatgen
data_NdY4Pd14Pt
_symmetry_space_group_name_H-M   'P 1'
_cell_length_a   4.15511100
_cell_length_b   4.13861500
_cell_length_c   20.84613000
_cell_angle_alpha   90.00000000
_cell_angle_beta   90.00000000
_cell_angle_gamma   90.00000000
_symmetry_Int_Tables_number   1
_chemical_formula_structural   NdY4Pd14Pt
_chemical_formula_sum   'Nd1 Y4 Pd14 Pt1'
_cell_volume   358.47848814
_cell_formula_units_Z   1
loop_
 _symmetry_equiv_pos_site_id
 _symmetry_equiv_pos_as_xyz
  1  'x, y, z'
loop_
 _atom_site_type_symbol
 _atom_site_label
 _atom_site_symmetry_multiplicity
 _atom_site_fract_x
 _atom_site_fract_y
 _atom_site_fract_z
 _atom_site_occupancy
  Nd  Nd0  1  0.000000  0.000000  0.000000  1
  Y  Y1  1  0.000000  0.000000  0.201688  1
  Y  Y2  1  0.000000  0.000000  0.400807  1
  Y  Y3  1  0.000000  0.000000  0.599193  1
  Y  Y4  1  0.000000  0.000000  0.798312  1
  Pd  Pd5  1  0.500000  0.500000  0.000000  1
  Pd  Pd6  1  0.500000  0.500000  0.201091  1
  Pd  Pd7  1  0.500000  0.500000  0.400386  1
  Pd  Pd8  1  0.500000  0.500000  0.599614  1
  Pd  Pd9  1  0.500000  0.500000  0.798909  1
  Pd  Pd10  1  0.500000  0.000000  0.102561  1
  Pd  Pd11  1  0.500000  0.000000  0.300739  1
  Pd  Pd12  1  0.500000  0.000000  0.699261  1
  Pd  Pd13  1  0.500000  0.000000  0.897439  1
  Pd  Pd14  1  0.000000  0.500000  0.102529  1
  Pd  Pd15  1  0.000000  0.500000  0.300506  1
  Pd  Pd16  1  0.000000  0.500000  0.500000  1
  Pd  Pd17  1  0.000000  0.500000  0.699494  1
  Pd  Pd18  1  0.000000  0.500000  0.897471  1
  Pt  Pt19  1  0.500000  0.000000  0.500000  1
