# generated using pymatgen
data_HoErThP4Pd7
_symmetry_space_group_name_H-M   'P 1'
_cell_length_a   7.97065606
_cell_length_b   7.97065649
_cell_length_c   9.50387201
_cell_angle_alpha   55.59463434
_cell_angle_beta   55.59463340
_cell_angle_gamma   29.15071497
_symmetry_Int_Tables_number   1
_chemical_formula_structural   HoErThP4Pd7
_chemical_formula_sum   'Ho1 Er1 Th1 P4 Pd7'
_cell_volume   238.78270121
_cell_formula_units_Z   1
loop_
 _symmetry_equiv_pos_site_id
 _symmetry_equiv_pos_as_xyz
  1  'x, y, z'
loop_
 _atom_site_type_symbol
 _atom_site_label
 _atom_site_symmetry_multiplicity
 _atom_site_fract_x
 _atom_site_fract_y
 _atom_site_fract_z
 _atom_site_occupancy
  Ho  Ho0  1  0.820885  0.820885  0.175375  1
  Er  Er1  1  0.179083  0.179083  0.824719  1
  Th  Th2  1  0.499961  0.499961  0.500023  1
  P  P3  1  0.392833  0.392833  0.318020  1
  P  P4  1  0.607279  0.607279  0.682124  1
  P  P5  1  0.838760  0.838760  0.754326  1
  P  P6  1  0.161016  0.161016  0.245874  1
  Pd  Pd7  1  0.668075  0.668075  0.074688  1
  Pd  Pd8  1  0.009630  0.009630  0.212933  1
  Pd  Pd9  1  0.990475  0.990475  0.786940  1
  Pd  Pd10  1  0.500260  0.500260  0.999713  1
  Pd  Pd11  1  0.194223  0.194223  0.471522  1
  Pd  Pd12  1  0.805663  0.805663  0.528846  1
  Pd  Pd13  1  0.331859  0.331859  0.924895  1
