# generated using pymatgen
data_Sc2InSnPd2
_symmetry_space_group_name_H-M   'P 1'
_cell_length_a   7.70875900
_cell_length_b   7.71475505
_cell_length_c   6.86890330
_cell_angle_alpha   89.97450304
_cell_angle_beta   90.00000000
_cell_angle_gamma   119.97428886
_symmetry_Int_Tables_number   1
_chemical_formula_structural   Sc2InSnPd2
_chemical_formula_sum   'Sc6 In3 Sn3 Pd6'
_cell_volume   353.86454110
_cell_formula_units_Z   3
loop_
 _symmetry_equiv_pos_site_id
 _symmetry_equiv_pos_as_xyz
  1  'x, y, z'
loop_
 _atom_site_type_symbol
 _atom_site_label
 _atom_site_symmetry_multiplicity
 _atom_site_fract_x
 _atom_site_fract_y
 _atom_site_fract_z
 _atom_site_occupancy
  Sc  Sc0  1  0.392477  0.003592  0.251229  1
  Sc  Sc1  1  0.610902  0.607320  0.251519  1
  Sc  Sc2  1  0.995822  0.388629  0.251966  1
  Sc  Sc3  1  0.388885  0.996408  0.748771  1
  Sc  Sc4  1  0.607193  0.611371  0.748034  1
  Sc  Sc5  1  0.003582  0.392680  0.748481  1
  In  In6  1  0.715669  0.000000  0.000000  1
  In  In7  1  0.281144  0.278140  0.500162  1
  In  In8  1  0.003005  0.721860  0.499838  1
  Sn  Sn9  1  0.996769  0.718172  0.999960  1
  Sn  Sn10  1  0.278598  0.281828  0.000040  1
  Sn  Sn11  1  0.725544  0.000000  0.500000  1
  Pd  Pd12  1  0.330007  0.666124  0.005835  1
  Pd  Pd13  1  0.337170  0.667836  0.495002  1
  Pd  Pd14  1  0.663884  0.333876  0.994165  1
  Pd  Pd15  1  0.669335  0.332164  0.504998  1
  Pd  Pd16  1  0.000006  0.999997  0.245004  1
  Pd  Pd17  1  0.000009  0.000003  0.754996  1
