# generated using pymatgen
data_Y3TmAl16(GaRh3)2
_symmetry_space_group_name_H-M   'P 1'
_cell_length_a   7.52211548
_cell_length_b   7.52773737
_cell_length_c   9.53464800
_cell_angle_alpha   90.00000000
_cell_angle_beta   90.00000000
_cell_angle_gamma   119.25089939
_symmetry_Int_Tables_number   1
_chemical_formula_structural   Y3TmAl16(GaRh3)2
_chemical_formula_sum   'Y3 Tm1 Al16 Ga2 Rh6'
_cell_volume   471.05188909
_cell_formula_units_Z   1
loop_
 _symmetry_equiv_pos_site_id
 _symmetry_equiv_pos_as_xyz
  1  'x, y, z'
loop_
 _atom_site_type_symbol
 _atom_site_label
 _atom_site_symmetry_multiplicity
 _atom_site_fract_x
 _atom_site_fract_y
 _atom_site_fract_z
 _atom_site_occupancy
  Y  Y0  1  0.994436  0.674961  0.250000  1
  Y  Y1  1  0.005797  0.324899  0.750000  1
  Y  Y2  1  0.674940  0.994346  0.250000  1
  Tm  Tm3  1  0.324515  0.005589  0.750000  1
  Al  Al4  1  0.002187  0.336277  0.073304  1
  Al  Al5  1  0.998632  0.664492  0.925910  1
  Al  Al6  1  0.998632  0.664492  0.574090  1
  Al  Al7  1  0.336244  0.002112  0.427579  1
  Al  Al8  1  0.002187  0.336277  0.426696  1
  Al  Al9  1  0.662892  0.997857  0.574132  1
  Al  Al10  1  0.662892  0.997857  0.925868  1
  Al  Al11  1  0.336244  0.002112  0.072421  1
  Al  Al12  1  0.334627  0.333853  0.552705  1
  Al  Al13  1  0.665389  0.665351  0.448358  1
  Al  Al14  1  0.665389  0.665351  0.051642  1
  Al  Al15  1  0.334627  0.333853  0.947295  1
  Al  Al16  1  0.338011  0.550310  0.250000  1
  Al  Al17  1  0.660952  0.448394  0.750000  1
  Al  Al18  1  0.550098  0.337740  0.250000  1
  Al  Al19  1  0.449464  0.662926  0.750000  1
  Ga  Ga20  1  0.134008  0.133886  0.250000  1
  Ga  Ga21  1  0.867086  0.866443  0.750000  1
  Rh  Rh22  1  0.671744  0.327969  0.999804  1
  Rh  Rh23  1  0.328200  0.672140  0.999773  1
  Rh  Rh24  1  0.328200  0.672140  0.500227  1
  Rh  Rh25  1  0.671744  0.327969  0.500196  1
  Rh  Rh26  1  0.000430  0.000202  0.999608  1
  Rh  Rh27  1  0.000430  0.000202  0.500392  1
