# generated using pymatgen
data_Y3Er2TmMnBi2
_symmetry_space_group_name_H-M   'P 1'
_cell_length_a   8.26631400
_cell_length_b   8.26560047
_cell_length_c   4.29506100
_cell_angle_alpha   90.00000000
_cell_angle_beta   90.00000000
_cell_angle_gamma   120.00285564
_symmetry_Int_Tables_number   1
_chemical_formula_structural   Y3Er2TmMnBi2
_chemical_formula_sum   'Y3 Er2 Tm1 Mn1 Bi2'
_cell_volume   254.14044020
_cell_formula_units_Z   1
loop_
 _symmetry_equiv_pos_site_id
 _symmetry_equiv_pos_as_xyz
  1  'x, y, z'
loop_
 _atom_site_type_symbol
 _atom_site_label
 _atom_site_symmetry_multiplicity
 _atom_site_fract_x
 _atom_site_fract_y
 _atom_site_fract_z
 _atom_site_occupancy
  Y  Y0  1  0.606215  0.000000  0.000000  1
  Y  Y1  1  0.000208  0.606710  0.000000  1
  Y  Y2  1  0.393497  0.393290  0.000000  1
  Er  Er3  1  0.000023  0.231047  0.500000  1
  Er  Er4  1  0.768975  0.768953  0.500000  1
  Tm  Tm5  1  0.230802  0.000000  0.500000  1
  Mn  Mn6  1  0.000601  0.000000  0.000000  1
  Bi  Bi7  1  0.333310  0.666942  0.500000  1
  Bi  Bi8  1  0.666369  0.333058  0.500000  1
