# generated using pymatgen
data_Nd4Tm2Zn4Pt13
_symmetry_space_group_name_H-M   'P 1'
_cell_length_a   8.34083654
_cell_length_b   8.33396019
_cell_length_c   8.33396107
_cell_angle_alpha   109.48587888
_cell_angle_beta   109.44719831
_cell_angle_gamma   109.44720001
_symmetry_Int_Tables_number   1
_chemical_formula_structural   Nd4Tm2Zn4Pt13
_chemical_formula_sum   'Nd4 Tm2 Zn4 Pt13'
_cell_volume   446.13815242
_cell_formula_units_Z   1
loop_
 _symmetry_equiv_pos_site_id
 _symmetry_equiv_pos_as_xyz
  1  'x, y, z'
loop_
 _atom_site_type_symbol
 _atom_site_label
 _atom_site_symmetry_multiplicity
 _atom_site_fract_x
 _atom_site_fract_y
 _atom_site_fract_z
 _atom_site_occupancy
  Nd  Nd0  1  0.000000  0.300608  0.299947  1
  Nd  Nd1  1  0.296822  0.296388  0.000434  1
  Nd  Nd2  1  0.703178  0.999566  0.703612  1
  Nd  Nd3  1  0.000000  0.700053  0.699392  1
  Tm  Tm4  1  0.691787  0.692167  0.999620  1
  Tm  Tm5  1  0.308213  0.000380  0.307833  1
  Zn  Zn6  1  0.000000  0.001551  0.495616  1
  Zn  Zn7  1  0.000000  0.504384  0.998449  1
  Zn  Zn8  1  0.500000  0.001498  0.998502  1
  Zn  Zn9  1  0.500000  0.501498  0.498502  1
  Pt  Pt10  1  0.333177  0.331496  0.661887  1
  Pt  Pt11  1  0.666823  0.998319  0.328711  1
  Pt  Pt12  1  0.000000  0.677843  0.322157  1
  Pt  Pt13  1  0.667644  0.336129  0.000817  1
  Pt  Pt14  1  0.332356  0.668484  0.333173  1
  Pt  Pt15  1  0.000000  0.330239  0.669761  1
  Pt  Pt16  1  0.333177  0.671289  0.001681  1
  Pt  Pt17  1  0.332356  0.999183  0.663871  1
  Pt  Pt18  1  0.653340  0.325412  0.327929  1
  Pt  Pt19  1  0.667644  0.666827  0.331516  1
  Pt  Pt20  1  0.666823  0.338113  0.668504  1
  Pt  Pt21  1  0.346660  0.672071  0.674588  1
  Pt  Pt22  1  0.000000  0.986499  0.013501  1
