# generated using pymatgen
data_La2Ce(BN2)2
_symmetry_space_group_name_H-M   'P 1'
_cell_length_a   6.49796863
_cell_length_b   6.49792774
_cell_length_c   6.49792806
_cell_angle_alpha   147.65389271
_cell_angle_beta   121.43765581
_cell_angle_gamma   68.50604053
_symmetry_Int_Tables_number   1
_chemical_formula_structural   La2Ce(BN2)2
_chemical_formula_sum   'La2 Ce1 B2 N4'
_cell_volume   123.57837943
_cell_formula_units_Z   1
loop_
 _symmetry_equiv_pos_site_id
 _symmetry_equiv_pos_as_xyz
  1  'x, y, z'
loop_
 _atom_site_type_symbol
 _atom_site_label
 _atom_site_symmetry_multiplicity
 _atom_site_fract_x
 _atom_site_fract_y
 _atom_site_fract_z
 _atom_site_occupancy
  La  La0  1  0.698680  0.198686  0.499994  1
  La  La1  1  0.000494  0.000490  0.000003  1
  Ce  Ce2  1  0.299064  0.799060  0.500004  1
  B  B3  1  0.361118  0.501825  0.859293  1
  B  B4  1  0.642532  0.501824  0.140708  1
  N  N5  1  0.357782  0.620491  0.737291  1
  N  N6  1  0.883194  0.620484  0.262710  1
  N  N7  1  0.133334  0.378571  0.754762  1
  N  N8  1  0.623803  0.378569  0.245234  1
