# generated using pymatgen
data_ErTmBe25Co
_symmetry_space_group_name_H-M   'P 1'
_cell_length_a   7.20119450
_cell_length_b   7.24527590
_cell_length_c   7.18538803
_cell_angle_alpha   59.86851479
_cell_angle_beta   59.92541581
_cell_angle_gamma   59.65260946
_symmetry_Int_Tables_number   1
_chemical_formula_structural   ErTmBe25Co
_chemical_formula_sum   'Er1 Tm1 Be25 Co1'
_cell_volume   263.97738558
_cell_formula_units_Z   1
loop_
 _symmetry_equiv_pos_site_id
 _symmetry_equiv_pos_as_xyz
  1  'x, y, z'
loop_
 _atom_site_type_symbol
 _atom_site_label
 _atom_site_symmetry_multiplicity
 _atom_site_fract_x
 _atom_site_fract_y
 _atom_site_fract_z
 _atom_site_occupancy
  Er  Er0  1  0.749851  0.751747  0.753930  1
  Tm  Tm1  1  0.245990  0.255614  0.250128  1
  Be  Be2  1  0.502641  0.501597  0.497364  1
  Be  Be3  1  0.998745  0.003019  0.001264  1
  Be  Be4  1  0.203098  0.440143  0.796990  1
  Be  Be5  1  0.566499  0.788122  0.433435  1
  Be  Be6  1  0.434892  0.207513  0.565029  1
  Be  Be7  1  0.291280  0.934077  0.708644  1
  Be  Be8  1  0.707084  0.064159  0.292855  1
  Be  Be9  1  0.934187  0.289563  0.065882  1
  Be  Be10  1  0.066009  0.713786  0.934069  1
  Be  Be11  1  0.206072  0.796136  0.561816  1
  Be  Be12  1  0.792066  0.207030  0.436229  1
  Be  Be13  1  0.438119  0.563961  0.793993  1
  Be  Be14  1  0.563696  0.435257  0.208002  1
  Be  Be15  1  0.710253  0.285105  0.934391  1
  Be  Be16  1  0.288663  0.711795  0.064246  1
  Be  Be17  1  0.065660  0.929792  0.289682  1
  Be  Be18  1  0.935820  0.064763  0.711261  1
  Be  Be19  1  0.559683  0.208577  0.794281  1
  Be  Be20  1  0.439075  0.791494  0.206280  1
  Be  Be21  1  0.793805  0.436765  0.560877  1
  Be  Be22  1  0.205776  0.562478  0.440256  1
  Be  Be23  1  0.936391  0.709100  0.289690  1
  Be  Be24  1  0.065358  0.289425  0.708443  1
  Be  Be25  1  0.291483  0.063288  0.934703  1
  Be  Be26  1  0.710233  0.935236  0.063694  1
  Co  Co27  1  0.797572  0.560456  0.202568  1
