# generated using pymatgen
data_Nd8Zn7HgPdRh7
_symmetry_space_group_name_H-M   'P 1'
_cell_length_a   4.00733200
_cell_length_b   7.41962407
_cell_length_c   16.76857988
_cell_angle_alpha   89.75697457
_cell_angle_beta   90.00000000
_cell_angle_gamma   90.00000000
_symmetry_Int_Tables_number   1
_chemical_formula_structural   Nd8Zn7HgPdRh7
_chemical_formula_sum   'Nd8 Zn7 Hg1 Pd1 Rh7'
_cell_volume   498.57397278
_cell_formula_units_Z   1
loop_
 _symmetry_equiv_pos_site_id
 _symmetry_equiv_pos_as_xyz
  1  'x, y, z'
loop_
 _atom_site_type_symbol
 _atom_site_label
 _atom_site_symmetry_multiplicity
 _atom_site_fract_x
 _atom_site_fract_y
 _atom_site_fract_z
 _atom_site_occupancy
  Nd  Nd0  1  0.250000  0.170058  0.938496  1
  Nd  Nd1  1  0.250000  0.666598  0.567954  1
  Nd  Nd2  1  0.750000  0.324642  0.440589  1
  Nd  Nd3  1  0.750000  0.951621  0.279749  1
  Nd  Nd4  1  0.750000  0.830816  0.057856  1
  Nd  Nd5  1  0.750000  0.444140  0.210336  1
  Nd  Nd6  1  0.250000  0.051258  0.717969  1
  Nd  Nd7  1  0.250000  0.549932  0.785992  1
  Zn  Zn8  1  0.750000  0.007855  0.566060  1
  Zn  Zn9  1  0.750000  0.377947  0.653870  1
  Zn  Zn10  1  0.250000  0.499465  0.057469  1
  Zn  Zn11  1  0.750000  0.500926  0.940394  1
  Zn  Zn12  1  0.250000  0.006386  0.441939  1
  Zn  Zn13  1  0.250000  0.120215  0.148459  1
  Zn  Zn14  1  0.750000  0.878889  0.848973  1
  Hg  Hg15  1  0.250000  0.614929  0.345181  1
  Pd  Pd16  1  0.750000  0.771618  0.442828  1
  Rh  Rh17  1  0.250000  0.227765  0.311757  1
  Rh  Rh18  1  0.750000  0.255115  0.814005  1
  Rh  Rh19  1  0.750000  0.757301  0.687088  1
  Rh  Rh20  1  0.250000  0.248958  0.567000  1
  Rh  Rh21  1  0.250000  0.745447  0.179945  1
  Rh  Rh22  1  0.750000  0.253341  0.063091  1
  Rh  Rh23  1  0.250000  0.744776  0.933001  1
