# generated using pymatgen
data_ErTa4Nb(B2Ru5)2
_symmetry_space_group_name_H-M   'P 1'
_cell_length_a   9.50189383
_cell_length_b   9.50189350
_cell_length_c   3.05030200
_cell_angle_alpha   90.00000000
_cell_angle_beta   90.00000000
_cell_angle_gamma   90.34854391
_symmetry_Int_Tables_number   1
_chemical_formula_structural   ErTa4Nb(B2Ru5)2
_chemical_formula_sum   'Er1 Ta4 Nb1 B4 Ru10'
_cell_volume   275.39441939
_cell_formula_units_Z   1
loop_
 _symmetry_equiv_pos_site_id
 _symmetry_equiv_pos_as_xyz
  1  'x, y, z'
loop_
 _atom_site_type_symbol
 _atom_site_label
 _atom_site_symmetry_multiplicity
 _atom_site_fract_x
 _atom_site_fract_y
 _atom_site_fract_z
 _atom_site_occupancy
  Er  Er0  1  0.824678  0.675322  0.000000  1
  Ta  Ta1  1  0.324473  0.823403  0.000000  1
  Ta  Ta2  1  0.676597  0.175527  0.000000  1
  Ta  Ta3  1  0.500781  0.500504  0.000000  1
  Ta  Ta4  1  0.999496  0.999219  0.000000  1
  Nb  Nb5  1  0.178007  0.321993  0.000000  1
  B  B6  1  0.619339  0.880661  0.000000  1
  B  B7  1  0.377472  0.122528  0.000000  1
  B  B8  1  0.122355  0.620106  0.000000  1
  B  B9  1  0.879894  0.377645  0.000000  1
  Ru  Ru10  1  0.559456  0.723523  0.500000  1
  Ru  Ru11  1  0.428378  0.282670  0.500000  1
  Ru  Ru12  1  0.081187  0.783409  0.500000  1
  Ru  Ru13  1  0.929495  0.216182  0.500000  1
  Ru  Ru14  1  0.283818  0.570505  0.500000  1
  Ru  Ru15  1  0.716591  0.418813  0.500000  1
  Ru  Ru16  1  0.217330  0.071622  0.500000  1
  Ru  Ru17  1  0.776477  0.940544  0.500000  1
  Ru  Ru18  1  0.496815  0.003185  0.500000  1
  Ru  Ru19  1  0.007362  0.492638  0.500000  1
