# generated using pymatgen
data_TbEr3Fe5Os3
_symmetry_space_group_name_H-M   'P 1'
_cell_length_a   5.24735707
_cell_length_b   5.23188832
_cell_length_c   9.02909056
_cell_angle_alpha   72.80596146
_cell_angle_beta   90.89497060
_cell_angle_gamma   120.32372897
_symmetry_Int_Tables_number   1
_chemical_formula_structural   TbEr3Fe5Os3
_chemical_formula_sum   'Tb1 Er3 Fe5 Os3'
_cell_volume   201.70332517
_cell_formula_units_Z   1
loop_
 _symmetry_equiv_pos_site_id
 _symmetry_equiv_pos_as_xyz
  1  'x, y, z'
loop_
 _atom_site_type_symbol
 _atom_site_label
 _atom_site_symmetry_multiplicity
 _atom_site_fract_x
 _atom_site_fract_y
 _atom_site_fract_z
 _atom_site_occupancy
  Tb  Tb0  1  0.876038  0.750582  0.376422  1
  Er  Er1  1  0.375940  0.749950  0.873635  1
  Er  Er2  1  0.998752  0.999434  0.998742  1
  Er  Er3  1  0.498904  0.000047  0.501468  1
  Fe  Fe4  1  0.937463  0.874703  0.688463  1
  Fe  Fe5  1  0.183760  0.369550  0.443668  1
  Fe  Fe6  1  0.691437  0.380537  0.931589  1
  Fe  Fe7  1  0.937698  0.375708  0.186401  1
  Fe  Fe8  1  0.436903  0.374052  0.688508  1
  Os  Os9  1  0.437676  0.376208  0.186250  1
  Os  Os10  1  0.937682  0.373657  0.688623  1
  Os  Os11  1  0.437745  0.875575  0.186235  1
