# generated using pymatgen
data_LuSc3Al17GaIr6
_symmetry_space_group_name_H-M   'P 1'
_cell_length_a   7.47586336
_cell_length_b   7.47461154
_cell_length_c   9.37579300
_cell_angle_alpha   90.00000000
_cell_angle_beta   90.00000000
_cell_angle_gamma   119.55284927
_symmetry_Int_Tables_number   1
_chemical_formula_structural   LuSc3Al17GaIr6
_chemical_formula_sum   'Lu1 Sc3 Al17 Ga1 Ir6'
_cell_volume   455.75126283
_cell_formula_units_Z   1
loop_
 _symmetry_equiv_pos_site_id
 _symmetry_equiv_pos_as_xyz
  1  'x, y, z'
loop_
 _atom_site_type_symbol
 _atom_site_label
 _atom_site_symmetry_multiplicity
 _atom_site_fract_x
 _atom_site_fract_y
 _atom_site_fract_z
 _atom_site_occupancy
  Lu  Lu0  1  0.674477  0.994006  0.250000  1
  Sc  Sc1  1  0.993779  0.673929  0.250000  1
  Sc  Sc2  1  0.004691  0.327988  0.750000  1
  Sc  Sc3  1  0.327894  0.004490  0.750000  1
  Al  Al4  1  0.875018  0.874291  0.750000  1
  Al  Al5  1  0.000907  0.337323  0.073139  1
  Al  Al6  1  0.001627  0.664933  0.923611  1
  Al  Al7  1  0.001627  0.664933  0.576389  1
  Al  Al8  1  0.332970  0.998878  0.426514  1
  Al  Al9  1  0.000907  0.337323  0.426861  1
  Al  Al10  1  0.664556  0.001276  0.578868  1
  Al  Al11  1  0.664556  0.001276  0.921132  1
  Al  Al12  1  0.332970  0.998878  0.073486  1
  Al  Al13  1  0.330900  0.330872  0.560287  1
  Al  Al14  1  0.667914  0.666081  0.445334  1
  Al  Al15  1  0.667914  0.666081  0.054666  1
  Al  Al16  1  0.330900  0.330872  0.939713  1
  Al  Al17  1  0.337132  0.550155  0.250000  1
  Al  Al18  1  0.660898  0.447190  0.750000  1
  Al  Al19  1  0.552724  0.340573  0.250000  1
  Al  Al20  1  0.446806  0.660248  0.750000  1
  Ga  Ga21  1  0.133226  0.131879  0.250000  1
  Ir  Ir22  1  0.671151  0.326625  0.999629  1
  Ir  Ir23  1  0.327821  0.671810  0.999917  1
  Ir  Ir24  1  0.327821  0.671810  0.500083  1
  Ir  Ir25  1  0.671151  0.326625  0.500371  1
  Ir  Ir26  1  0.998831  0.999826  0.997823  1
  Ir  Ir27  1  0.998831  0.999826  0.502177  1
