# generated using pymatgen
data_Nd2Y4Co17MoP12
_symmetry_space_group_name_H-M   'P 1'
_cell_length_a   3.72325000
_cell_length_b   10.56392800
_cell_length_c   12.26141300
_cell_angle_alpha   90.00000000
_cell_angle_beta   90.00000000
_cell_angle_gamma   90.00000000
_symmetry_Int_Tables_number   1
_chemical_formula_structural   Nd2Y4Co17MoP12
_chemical_formula_sum   'Nd2 Y4 Co17 Mo1 P12'
_cell_volume   482.26767311
_cell_formula_units_Z   1
loop_
 _symmetry_equiv_pos_site_id
 _symmetry_equiv_pos_as_xyz
  1  'x, y, z'
loop_
 _atom_site_type_symbol
 _atom_site_label
 _atom_site_symmetry_multiplicity
 _atom_site_fract_x
 _atom_site_fract_y
 _atom_site_fract_z
 _atom_site_occupancy
  Nd  Nd0  1  0.000000  0.500000  0.525515  1
  Nd  Nd1  1  0.500000  0.000000  0.477401  1
  Y  Y2  1  0.500000  0.818038  0.205452  1
  Y  Y3  1  0.500000  0.181962  0.205452  1
  Y  Y4  1  0.000000  0.683125  0.796547  1
  Y  Y5  1  0.000000  0.316875  0.796547  1
  Co  Co6  1  0.000000  0.000000  0.841686  1
  Co  Co7  1  0.500000  0.500000  0.704500  1
  Co  Co8  1  0.000000  0.000000  0.294045  1
  Co  Co9  1  0.000000  0.500000  0.985925  1
  Co  Co10  1  0.500000  0.000000  0.014196  1
  Co  Co11  1  0.500000  0.331086  0.990701  1
  Co  Co12  1  0.500000  0.668914  0.990701  1
  Co  Co13  1  0.000000  0.165642  0.005531  1
  Co  Co14  1  0.000000  0.834358  0.005531  1
  Co  Co15  1  0.500000  0.295611  0.430538  1
  Co  Co16  1  0.500000  0.704389  0.430538  1
  Co  Co17  1  0.000000  0.203465  0.570606  1
  Co  Co18  1  0.000000  0.796535  0.570606  1
  Co  Co19  1  0.500000  0.880062  0.711085  1
  Co  Co20  1  0.500000  0.119938  0.711085  1
  Co  Co21  1  0.000000  0.621209  0.290182  1
  Co  Co22  1  0.000000  0.378791  0.290182  1
  Mo  Mo23  1  0.500000  0.500000  0.154171  1
  P  P24  1  0.500000  0.500000  0.882033  1
  P  P25  1  0.000000  0.000000  0.116216  1
  P  P26  1  0.500000  0.500000  0.345932  1
  P  P27  1  0.000000  0.000000  0.659888  1
  P  P28  1  0.500000  0.307300  0.618048  1
  P  P29  1  0.500000  0.692700  0.618048  1
  P  P30  1  0.000000  0.191763  0.383589  1
  P  P31  1  0.000000  0.808237  0.383589  1
  P  P32  1  0.500000  0.849695  0.892532  1
  P  P33  1  0.500000  0.150305  0.892532  1
  P  P34  1  0.000000  0.656768  0.104436  1
  P  P35  1  0.000000  0.343232  0.104436  1
