# generated using pymatgen
data_Ti3Cr2As2PRu
_symmetry_space_group_name_H-M   'P 1'
_cell_length_a   6.56825484
_cell_length_b   6.56793517
_cell_length_c   3.37731900
_cell_angle_alpha   90.00000000
_cell_angle_beta   90.00000000
_cell_angle_gamma   119.99837818
_symmetry_Int_Tables_number   1
_chemical_formula_structural   Ti3Cr2As2PRu
_chemical_formula_sum   'Ti3 Cr2 As2 P1 Ru1'
_cell_volume   126.17946004
_cell_formula_units_Z   1
loop_
 _symmetry_equiv_pos_site_id
 _symmetry_equiv_pos_as_xyz
  1  'x, y, z'
loop_
 _atom_site_type_symbol
 _atom_site_label
 _atom_site_symmetry_multiplicity
 _atom_site_fract_x
 _atom_site_fract_y
 _atom_site_fract_z
 _atom_site_occupancy
  Ti  Ti0  1  0.405096  0.399781  0.500000  1
  Ti  Ti1  1  0.594904  0.994686  0.500000  1
  Ti  Ti2  1  0.000000  0.609688  0.500000  1
  Cr  Cr3  1  0.245893  0.999925  0.000000  1
  Cr  Cr4  1  0.754107  0.754033  0.000000  1
  As  As5  1  0.665243  0.333727  0.000000  1
  As  As6  1  0.334757  0.668485  0.000000  1
  P  P7  1  0.000000  0.996845  0.500000  1
  Ru  Ru8  1  0.000000  0.242831  0.000000  1
