# generated using pymatgen
data_Rb6Na4TiNbAs6
_symmetry_space_group_name_H-M   'P 1'
_cell_length_a   10.84936953
_cell_length_b   10.84937073
_cell_length_c   15.87091200
_cell_angle_alpha   90.00000000
_cell_angle_beta   90.00000000
_cell_angle_gamma   142.58035971
_symmetry_Int_Tables_number   1
_chemical_formula_structural   Rb6Na4TiNbAs6
_chemical_formula_sum   'Rb12 Na8 Ti2 Nb2 As12'
_cell_volume   1135.17571805
_cell_formula_units_Z   2
loop_
 _symmetry_equiv_pos_site_id
 _symmetry_equiv_pos_as_xyz
  1  'x, y, z'
loop_
 _atom_site_type_symbol
 _atom_site_label
 _atom_site_symmetry_multiplicity
 _atom_site_fract_x
 _atom_site_fract_y
 _atom_site_fract_z
 _atom_site_occupancy
  Rb  Rb0  1  0.605379  0.941629  0.824563  1
  Rb  Rb1  1  0.273641  0.274448  0.316515  1
  Rb  Rb2  1  0.226359  0.225552  0.816515  1
  Rb  Rb3  1  0.725552  0.726359  0.683485  1
  Rb  Rb4  1  0.441629  0.105379  0.675437  1
  Rb  Rb5  1  0.894621  0.558371  0.324563  1
  Rb  Rb6  1  0.058371  0.394621  0.175437  1
  Rb  Rb7  1  0.394812  0.059359  0.174541  1
  Rb  Rb8  1  0.559359  0.894812  0.325459  1
  Rb  Rb9  1  0.105188  0.440641  0.674541  1
  Rb  Rb10  1  0.940641  0.605188  0.825459  1
  Rb  Rb11  1  0.774448  0.773641  0.183485  1
  Na  Na12  1  0.080104  0.919896  0.000000  1
  Na  Na13  1  0.579544  0.420456  0.500000  1
  Na  Na14  1  0.920456  0.079544  0.000000  1
  Na  Na15  1  0.754361  0.245639  0.000000  1
  Na  Na16  1  0.745639  0.254361  0.500000  1
  Na  Na17  1  0.244320  0.755680  0.000000  1
  Na  Na18  1  0.255680  0.744320  0.500000  1
  Na  Na19  1  0.419896  0.580104  0.500000  1
  Ti  Ti20  1  0.915292  0.084708  0.500000  1
  Ti  Ti21  1  0.584708  0.415292  0.000000  1
  Nb  Nb22  1  0.083168  0.916832  0.500000  1
  Nb  Nb23  1  0.416832  0.583168  0.000000  1
  As  As24  1  0.055006  0.363266  0.405160  1
  As  As25  1  0.863266  0.555006  0.094840  1
  As  As26  1  0.444994  0.136734  0.905160  1
  As  As27  1  0.636734  0.944994  0.594840  1
  As  As28  1  0.945154  0.637752  0.594507  1
  As  As29  1  0.137752  0.445154  0.905493  1
  As  As30  1  0.554846  0.862248  0.094507  1
  As  As31  1  0.362248  0.054846  0.405493  1
  As  As32  1  0.196840  0.195255  0.586365  1
  As  As33  1  0.695255  0.696840  0.913635  1
  As  As34  1  0.303160  0.304745  0.086365  1
  As  As35  1  0.804745  0.803160  0.413635  1
