# generated using pymatgen
data_Ac20Sn7Pb9
_symmetry_space_group_name_H-M   'P 1'
_cell_length_a   8.94777900
_cell_length_b   9.00653252
_cell_length_c   17.08748000
_cell_angle_alpha   90.00000000
_cell_angle_beta   90.00000000
_cell_angle_gamma   90.01952369
_symmetry_Int_Tables_number   1
_chemical_formula_structural   Ac20Sn7Pb9
_chemical_formula_sum   'Ac20 Sn7 Pb9'
_cell_volume   1377.05366247
_cell_formula_units_Z   1
loop_
 _symmetry_equiv_pos_site_id
 _symmetry_equiv_pos_as_xyz
  1  'x, y, z'
loop_
 _atom_site_type_symbol
 _atom_site_label
 _atom_site_symmetry_multiplicity
 _atom_site_fract_x
 _atom_site_fract_y
 _atom_site_fract_z
 _atom_site_occupancy
  Ac  Ac0  1  0.381298  0.840356  0.881238  1
  Ac  Ac1  1  0.881287  0.659313  0.618812  1
  Ac  Ac2  1  0.618419  0.159691  0.382532  1
  Ac  Ac3  1  0.118513  0.339466  0.117477  1
  Ac  Ac4  1  0.618419  0.159691  0.117468  1
  Ac  Ac5  1  0.118513  0.339466  0.382523  1
  Ac  Ac6  1  0.381298  0.840356  0.618762  1
  Ac  Ac7  1  0.881287  0.659313  0.881188  1
  Ac  Ac8  1  0.533138  0.323456  0.895816  1
  Ac  Ac9  1  0.033069  0.176570  0.604268  1
  Ac  Ac10  1  0.469172  0.677227  0.397702  1
  Ac  Ac11  1  0.965531  0.825231  0.101515  1
  Ac  Ac12  1  0.469172  0.677227  0.102298  1
  Ac  Ac13  1  0.965531  0.825231  0.398485  1
  Ac  Ac14  1  0.533138  0.323456  0.604184  1
  Ac  Ac15  1  0.033069  0.176570  0.895732  1
  Ac  Ac16  1  0.214037  0.499160  0.750000  1
  Ac  Ac17  1  0.714089  0.000065  0.750000  1
  Ac  Ac18  1  0.783962  0.498802  0.250000  1
  Ac  Ac19  1  0.288104  0.002729  0.250000  1
  Sn  Sn20  1  0.584325  0.616074  0.750000  1
  Sn  Sn21  1  0.085307  0.884290  0.750000  1
  Sn  Sn22  1  0.416567  0.382397  0.250000  1
  Sn  Sn23  1  0.914247  0.113323  0.250000  1
  Sn  Sn24  1  0.334353  0.138588  0.750000  1
  Sn  Sn25  1  0.834844  0.360334  0.750000  1
  Sn  Sn26  1  0.666171  0.861846  0.250000  1
  Pb  Pb27  1  0.278433  0.029901  0.043216  1
  Pb  Pb28  1  0.779271  0.468590  0.456834  1
  Pb  Pb29  1  0.721092  0.969141  0.544204  1
  Pb  Pb30  1  0.221244  0.531053  0.956179  1
  Pb  Pb31  1  0.721092  0.969141  0.955796  1
  Pb  Pb32  1  0.221244  0.531053  0.543821  1
  Pb  Pb33  1  0.278433  0.029901  0.456784  1
  Pb  Pb34  1  0.779271  0.468590  0.043166  1
  Pb  Pb35  1  0.163054  0.642405  0.250000  1
