# generated using pymatgen
data_Nd2SmY3CoI10
_symmetry_space_group_name_H-M   'P 1'
_cell_length_a   7.78539515
_cell_length_b   9.84402700
_cell_length_c   9.77584191
_cell_angle_alpha   107.00520024
_cell_angle_beta   96.27436770
_cell_angle_gamma   104.93676155
_symmetry_Int_Tables_number   1
_chemical_formula_structural   Nd2SmY3CoI10
_chemical_formula_sum   'Nd2 Sm1 Y3 Co1 I10'
_cell_volume   678.28364971
_cell_formula_units_Z   1
loop_
 _symmetry_equiv_pos_site_id
 _symmetry_equiv_pos_as_xyz
  1  'x, y, z'
loop_
 _atom_site_type_symbol
 _atom_site_label
 _atom_site_symmetry_multiplicity
 _atom_site_fract_x
 _atom_site_fract_y
 _atom_site_fract_z
 _atom_site_occupancy
  Nd  Nd0  1  0.887832  0.959399  0.231587  1
  Nd  Nd1  1  0.112826  0.041490  0.768952  1
  Sm  Sm2  1  0.031080  0.714536  0.914366  1
  Y  Y3  1  0.969421  0.281773  0.084787  1
  Y  Y4  1  0.655830  0.878389  0.837448  1
  Y  Y5  1  0.343730  0.123509  0.162737  1
  Co  Co6  1  0.000147  0.999902  0.000050  1
  I  I7  1  0.644481  0.552486  0.728296  1
  I  I8  1  0.348405  0.447348  0.269537  1
  I  I9  1  0.736545  0.911772  0.542782  1
  I  I10  1  0.264178  0.088725  0.457041  1
  I  I11  1  0.083900  0.372194  0.822527  1
  I  I12  1  0.914419  0.623615  0.181441  1
  I  I13  1  0.453581  0.819232  0.092141  1
  I  I14  1  0.549858  0.182808  0.909960  1
  I  I15  1  0.229603  0.743103  0.654627  1
  I  I16  1  0.774164  0.259719  0.341719  1
