# generated using pymatgen
data_Tm12Co2Tc2NiBi
_symmetry_space_group_name_H-M   'P 1'
_cell_length_a   8.27199621
_cell_length_b   8.27196382
_cell_length_c   8.27199541
_cell_angle_alpha   110.97090726
_cell_angle_beta   112.14680117
_cell_angle_gamma   105.37454401
_symmetry_Int_Tables_number   1
_chemical_formula_structural   Tm12Co2Tc2NiBi
_chemical_formula_sum   'Tm12 Co2 Tc2 Ni1 Bi1'
_cell_volume   434.01449020
_cell_formula_units_Z   1
loop_
 _symmetry_equiv_pos_site_id
 _symmetry_equiv_pos_as_xyz
  1  'x, y, z'
loop_
 _atom_site_type_symbol
 _atom_site_label
 _atom_site_symmetry_multiplicity
 _atom_site_fract_x
 _atom_site_fract_y
 _atom_site_fract_z
 _atom_site_occupancy
  Tm  Tm0  1  0.274440  0.182871  0.457313  1
  Tm  Tm1  1  0.721948  0.818376  0.540327  1
  Tm  Tm2  1  0.278049  0.818376  0.096427  1
  Tm  Tm3  1  0.725559  0.182871  0.908433  1
  Tm  Tm4  1  0.613836  0.301140  0.302458  1
  Tm  Tm5  1  0.386161  0.688614  0.687331  1
  Tm  Tm6  1  0.998682  0.301140  0.687304  1
  Tm  Tm7  1  0.001283  0.688614  0.302452  1
  Tm  Tm8  1  0.223277  0.418549  0.195273  1
  Tm  Tm9  1  0.779290  0.581246  0.801955  1
  Tm  Tm10  1  0.220705  0.022646  0.801941  1
  Tm  Tm11  1  0.776726  0.971996  0.195270  1
  Co  Co12  1  0.390624  0.889008  0.498384  1
  Co  Co13  1  0.609439  0.107833  0.498394  1
  Tc  Tc14  1  0.000003  0.383512  0.383509  1
  Tc  Tc15  1  0.999993  0.999879  0.999886  1
  Ni  Ni16  1  0.999993  0.645118  0.645125  1
  Bi  Bi17  1  0.499993  0.498212  0.998219  1
