# generated using pymatgen
data_Hf3Pa2InRh10
_symmetry_space_group_name_H-M   'P 1'
_cell_length_a   4.25065300
_cell_length_b   5.71330901
_cell_length_c   11.27437799
_cell_angle_alpha   88.50990990
_cell_angle_beta   90.00000000
_cell_angle_gamma   90.00000000
_symmetry_Int_Tables_number   1
_chemical_formula_structural   Hf3Pa2InRh10
_chemical_formula_sum   'Hf3 Pa2 In1 Rh10'
_cell_volume   273.70899555
_cell_formula_units_Z   1
loop_
 _symmetry_equiv_pos_site_id
 _symmetry_equiv_pos_as_xyz
  1  'x, y, z'
loop_
 _atom_site_type_symbol
 _atom_site_label
 _atom_site_symmetry_multiplicity
 _atom_site_fract_x
 _atom_site_fract_y
 _atom_site_fract_z
 _atom_site_occupancy
  Hf  Hf0  1  0.500000  0.665729  0.860131  1
  Hf  Hf1  1  0.500000  0.334271  0.139869  1
  Hf  Hf2  1  0.000000  0.000000  0.000000  1
  Pa  Pa3  1  0.500000  0.177657  0.647379  1
  Pa  Pa4  1  0.500000  0.822343  0.352621  1
  In  In5  1  0.000000  0.500000  0.500000  1
  Rh  Rh6  1  0.500000  0.188956  0.893308  1
  Rh  Rh7  1  0.500000  0.811044  0.106692  1
  Rh  Rh8  1  0.500000  0.705906  0.617687  1
  Rh  Rh9  1  0.500000  0.294094  0.382313  1
  Rh  Rh10  1  0.000000  0.428287  0.750102  1
  Rh  Rh11  1  0.000000  0.571713  0.249898  1
  Rh  Rh12  1  0.000000  0.000000  0.500000  1
  Rh  Rh13  1  0.000000  0.500000  0.000000  1
  Rh  Rh14  1  0.000000  0.078104  0.240826  1
  Rh  Rh15  1  0.000000  0.921896  0.759174  1
