# generated using pymatgen
data_Ca5(Pr5Ga4)3
_symmetry_space_group_name_H-M   'P 1'
_cell_length_a   7.89775504
_cell_length_b   7.90832567
_cell_length_c   14.78310604
_cell_angle_alpha   89.92565234
_cell_angle_beta   89.73955497
_cell_angle_gamma   89.82696092
_symmetry_Int_Tables_number   1
_chemical_formula_structural   Ca5(Pr5Ga4)3
_chemical_formula_sum   'Ca5 Pr15 Ga12'
_cell_volume   923.30900594
_cell_formula_units_Z   1
loop_
 _symmetry_equiv_pos_site_id
 _symmetry_equiv_pos_as_xyz
  1  'x, y, z'
loop_
 _atom_site_type_symbol
 _atom_site_label
 _atom_site_symmetry_multiplicity
 _atom_site_fract_x
 _atom_site_fract_y
 _atom_site_fract_z
 _atom_site_occupancy
  Ca  Ca0  1  0.827709  0.835893  0.605135  1
  Ca  Ca1  1  0.998165  0.504461  0.743251  1
  Ca  Ca2  1  0.999307  0.499841  0.243811  1
  Ca  Ca3  1  0.499362  0.999231  0.253669  1
  Ca  Ca4  1  0.502491  0.998297  0.756185  1
  Pr  Pr5  1  0.172762  0.832103  0.101038  1
  Pr  Pr6  1  0.167696  0.823866  0.397501  1
  Pr  Pr7  1  0.827934  0.174236  0.397114  1
  Pr  Pr8  1  0.670956  0.666769  0.396166  1
  Pr  Pr9  1  0.673706  0.322723  0.601988  1
  Pr  Pr10  1  0.331160  0.677691  0.601892  1
  Pr  Pr11  1  0.670449  0.675920  0.101102  1
  Pr  Pr12  1  0.675721  0.329691  0.900074  1
  Pr  Pr13  1  0.831934  0.825405  0.897467  1
  Pr  Pr14  1  0.323891  0.329183  0.397820  1
  Pr  Pr15  1  0.179055  0.173663  0.605739  1
  Pr  Pr16  1  0.826955  0.167704  0.101016  1
  Pr  Pr17  1  0.325260  0.668242  0.900050  1
  Pr  Pr18  1  0.330238  0.324680  0.101108  1
  Pr  Pr19  1  0.171983  0.178410  0.897510  1
  Ga  Ga20  1  0.616123  0.381365  0.248296  1
  Ga  Ga21  1  0.121704  0.883998  0.752750  1
  Ga  Ga22  1  0.383244  0.383070  0.749276  1
  Ga  Ga23  1  0.381252  0.616597  0.248674  1
  Ga  Ga24  1  0.881803  0.882489  0.249867  1
  Ga  Ga25  1  0.614413  0.613022  0.752323  1
  Ga  Ga26  1  0.998609  0.498116  0.500800  1
  Ga  Ga27  1  0.884487  0.120801  0.752686  1
  Ga  Ga28  1  0.497723  0.998104  0.494733  1
  Ga  Ga29  1  0.498960  0.998430  0.996929  1
  Ga  Ga30  1  0.116418  0.116636  0.249276  1
  Ga  Ga31  1  0.998529  0.499362  0.004756  1
