# generated using pymatgen
data_Li2Pr3(Sn2Au)2
_symmetry_space_group_name_H-M   'P 1'
_cell_length_a   4.71927102
_cell_length_b   7.36523554
_cell_length_c   8.93807800
_cell_angle_alpha   116.32337350
_cell_angle_beta   105.30744608
_cell_angle_gamma   89.99999719
_symmetry_Int_Tables_number   1
_chemical_formula_structural   Li2Pr3(Sn2Au)2
_chemical_formula_sum   'Li2 Pr3 Sn4 Au2'
_cell_volume   266.10661162
_cell_formula_units_Z   1
loop_
 _symmetry_equiv_pos_site_id
 _symmetry_equiv_pos_as_xyz
  1  'x, y, z'
loop_
 _atom_site_type_symbol
 _atom_site_label
 _atom_site_symmetry_multiplicity
 _atom_site_fract_x
 _atom_site_fract_y
 _atom_site_fract_z
 _atom_site_occupancy
  Li  Li0  1  0.322206  0.634007  0.644412  1
  Li  Li1  1  0.677794  0.365993  0.355588  1
  Pr  Pr2  1  0.870090  0.344506  0.740183  1
  Pr  Pr3  1  0.129910  0.655494  0.259817  1
  Pr  Pr4  1  0.000000  0.000000  0.000000  1
  Sn  Sn5  1  0.219164  0.207525  0.438329  1
  Sn  Sn6  1  0.780836  0.792475  0.561671  1
  Sn  Sn7  1  0.488487  0.681667  0.976975  1
  Sn  Sn8  1  0.511513  0.318333  0.023025  1
  Au  Au9  1  0.342123  0.016526  0.684245  1
  Au  Au10  1  0.657877  0.983474  0.315755  1
