# generated using pymatgen
data_SmThZn14Cu3
_symmetry_space_group_name_H-M   'P 1'
_cell_length_a   8.97072300
_cell_length_b   8.97072274
_cell_length_c   8.67681600
_cell_angle_alpha   90.00000000
_cell_angle_beta   90.00000000
_cell_angle_gamma   119.99999726
_symmetry_Int_Tables_number   1
_chemical_formula_structural   SmThZn14Cu3
_chemical_formula_sum   'Sm2 Th2 Zn28 Cu6'
_cell_volume   604.70827609
_cell_formula_units_Z   2
loop_
 _symmetry_equiv_pos_site_id
 _symmetry_equiv_pos_as_xyz
  1  'x, y, z'
loop_
 _atom_site_type_symbol
 _atom_site_label
 _atom_site_symmetry_multiplicity
 _atom_site_fract_x
 _atom_site_fract_y
 _atom_site_fract_z
 _atom_site_occupancy
  Sm  Sm0  1  0.333333  0.666667  0.750000  1
  Sm  Sm1  1  0.666667  0.333333  0.250000  1
  Th  Th2  1  0.000000  0.000000  0.250000  1
  Th  Th3  1  0.000000  0.000000  0.750000  1
  Zn  Zn4  1  0.333333  0.666667  0.405362  1
  Zn  Zn5  1  0.666667  0.333333  0.594638  1
  Zn  Zn6  1  0.666667  0.333333  0.905362  1
  Zn  Zn7  1  0.333333  0.666667  0.094638  1
  Zn  Zn8  1  0.334850  0.373597  0.250000  1
  Zn  Zn9  1  0.626403  0.961253  0.250000  1
  Zn  Zn10  1  0.038747  0.665150  0.250000  1
  Zn  Zn11  1  0.626403  0.665150  0.250000  1
  Zn  Zn12  1  0.038747  0.373597  0.250000  1
  Zn  Zn13  1  0.334850  0.961253  0.250000  1
  Zn  Zn14  1  0.665150  0.626403  0.750000  1
  Zn  Zn15  1  0.373597  0.038747  0.750000  1
  Zn  Zn16  1  0.961253  0.334850  0.750000  1
  Zn  Zn17  1  0.373597  0.334850  0.750000  1
  Zn  Zn18  1  0.961253  0.626403  0.750000  1
  Zn  Zn19  1  0.665150  0.038747  0.750000  1
  Zn  Zn20  1  0.165132  0.834868  0.518501  1
  Zn  Zn21  1  0.165132  0.330264  0.518501  1
  Zn  Zn22  1  0.669736  0.834868  0.518501  1
  Zn  Zn23  1  0.834868  0.165132  0.481499  1
  Zn  Zn24  1  0.834868  0.669736  0.481499  1
  Zn  Zn25  1  0.330264  0.165132  0.481499  1
  Zn  Zn26  1  0.834868  0.165132  0.018501  1
  Zn  Zn27  1  0.834868  0.669736  0.018501  1
  Zn  Zn28  1  0.330264  0.165132  0.018501  1
  Zn  Zn29  1  0.165132  0.834868  0.981499  1
  Zn  Zn30  1  0.165132  0.330264  0.981499  1
  Zn  Zn31  1  0.669736  0.834868  0.981499  1
  Cu  Cu32  1  0.500000  0.500000  0.500000  1
  Cu  Cu33  1  0.500000  0.000000  0.500000  1
  Cu  Cu34  1  0.000000  0.500000  0.500000  1
  Cu  Cu35  1  0.500000  0.500000  0.000000  1
  Cu  Cu36  1  0.500000  0.000000  0.000000  1
  Cu  Cu37  1  0.000000  0.500000  0.000000  1
