# generated using pymatgen
data_NaHf3ScNi9As7
_symmetry_space_group_name_H-M   'P 1'
_cell_length_a   9.75157200
_cell_length_b   9.75157157
_cell_length_c   3.80725800
_cell_angle_alpha   90.00000000
_cell_angle_beta   90.00000000
_cell_angle_gamma   120.00000826
_symmetry_Int_Tables_number   1
_chemical_formula_structural   NaHf3ScNi9As7
_chemical_formula_sum   'Na1 Hf3 Sc1 Ni9 As7'
_cell_volume   313.53941774
_cell_formula_units_Z   1
loop_
 _symmetry_equiv_pos_site_id
 _symmetry_equiv_pos_as_xyz
  1  'x, y, z'
loop_
 _atom_site_type_symbol
 _atom_site_label
 _atom_site_symmetry_multiplicity
 _atom_site_fract_x
 _atom_site_fract_y
 _atom_site_fract_z
 _atom_site_occupancy
  Na  Na0  1  0.666667  0.333333  0.500000  1
  Hf  Hf1  1  0.232082  0.124061  0.500000  1
  Hf  Hf2  1  0.875939  0.108021  0.500000  1
  Hf  Hf3  1  0.891979  0.767918  0.500000  1
  Sc  Sc4  1  0.333333  0.666667  0.000000  1
  Ni  Ni5  1  0.125584  0.285184  0.000000  1
  Ni  Ni6  1  0.714816  0.840400  0.000000  1
  Ni  Ni7  1  0.159600  0.874416  0.000000  1
  Ni  Ni8  1  0.420988  0.361953  0.000000  1
  Ni  Ni9  1  0.638047  0.059037  0.000000  1
  Ni  Ni10  1  0.940963  0.579012  0.000000  1
  Ni  Ni11  1  0.060155  0.437936  0.500000  1
  Ni  Ni12  1  0.562064  0.622219  0.500000  1
  Ni  Ni13  1  0.377781  0.939845  0.500000  1
  As  As14  1  0.295763  0.424679  0.500000  1
  As  As15  1  0.575321  0.871083  0.500000  1
  As  As16  1  0.128917  0.704237  0.500000  1
  As  As17  1  0.427315  0.111717  0.000000  1
  As  As18  1  0.888283  0.315598  0.000000  1
  As  As19  1  0.684402  0.572685  0.000000  1
  As  As20  1  0.000000  0.000000  0.000000  1
