# generated using pymatgen
data_BaLiErS3
_symmetry_space_group_name_H-M   'P 1'
_cell_length_a   4.09213300
_cell_length_b   7.08393037
_cell_length_c   10.25441800
_cell_angle_alpha   90.00063429
_cell_angle_beta   89.99927279
_cell_angle_gamma   106.78247865
_symmetry_Int_Tables_number   1
_chemical_formula_structural   BaLiErS3
_chemical_formula_sum   'Ba2 Li2 Er2 S6'
_cell_volume   284.59811604
_cell_formula_units_Z   2
loop_
 _symmetry_equiv_pos_site_id
 _symmetry_equiv_pos_as_xyz
  1  'x, y, z'
loop_
 _atom_site_type_symbol
 _atom_site_label
 _atom_site_symmetry_multiplicity
 _atom_site_fract_x
 _atom_site_fract_y
 _atom_site_fract_z
 _atom_site_occupancy
  Ba  Ba0  1  0.254921  0.509905  0.250002  1
  Ba  Ba1  1  0.745066  0.490095  0.750012  1
  Li  Li2  1  0.528885  0.057656  0.250006  1
  Li  Li3  1  0.471096  0.942313  0.750002  1
  Er  Er4  1  0.000062  0.000004  0.999995  1
  Er  Er5  1  0.999956  0.999984  0.499985  1
  S  S6  1  0.628266  0.256661  0.059376  1
  S  S7  1  0.935123  0.870073  0.249994  1
  S  S8  1  0.628251  0.256642  0.440630  1
  S  S9  1  0.371726  0.743362  0.559374  1
  S  S10  1  0.064876  0.129950  0.750000  1
  S  S11  1  0.371754  0.743357  0.940628  1
