# generated using pymatgen
data_Nd7LuSc12Si15Sb
_symmetry_space_group_name_H-M   'P 1'
_cell_length_a   7.26297894
_cell_length_b   7.50834340
_cell_length_c   14.22007531
_cell_angle_alpha   90.04214128
_cell_angle_beta   89.09630217
_cell_angle_gamma   90.38417440
_symmetry_Int_Tables_number   1
_chemical_formula_structural   Nd7LuSc12Si15Sb
_chemical_formula_sum   'Nd7 Lu1 Sc12 Si15 Sb1'
_cell_volume   775.34847607
_cell_formula_units_Z   1
loop_
 _symmetry_equiv_pos_site_id
 _symmetry_equiv_pos_as_xyz
  1  'x, y, z'
loop_
 _atom_site_type_symbol
 _atom_site_label
 _atom_site_symmetry_multiplicity
 _atom_site_fract_x
 _atom_site_fract_y
 _atom_site_fract_z
 _atom_site_occupancy
  Nd  Nd0  1  0.010648  0.173505  0.097318  1
  Nd  Nd1  1  0.989962  0.827285  0.901167  1
  Nd  Nd2  1  0.489636  0.672125  0.904010  1
  Nd  Nd3  1  0.993013  0.828603  0.598592  1
  Nd  Nd4  1  0.510929  0.327158  0.097900  1
  Nd  Nd5  1  0.003827  0.170661  0.401528  1
  Nd  Nd6  1  0.507977  0.322253  0.399787  1
  Lu  Lu7  1  0.510710  0.682965  0.602128  1
  Sc  Sc8  1  0.165676  0.500655  0.753589  1
  Sc  Sc9  1  0.834823  0.501895  0.251690  1
  Sc  Sc10  1  0.335319  0.997640  0.250420  1
  Sc  Sc11  1  0.666188  0.001113  0.749940  1
  Sc  Sc12  1  0.345666  0.161063  0.630926  1
  Sc  Sc13  1  0.659435  0.825595  0.373069  1
  Sc  Sc14  1  0.155756  0.679418  0.372015  1
  Sc  Sc15  1  0.666723  0.824617  0.124580  1
  Sc  Sc16  1  0.829142  0.328328  0.624406  1
  Sc  Sc17  1  0.332157  0.173895  0.873112  1
  Sc  Sc18  1  0.831490  0.324499  0.874059  1
  Sc  Sc19  1  0.166638  0.676449  0.124990  1
  Si  Si20  1  0.036487  0.127215  0.749046  1
  Si  Si21  1  0.959860  0.876951  0.248334  1
  Si  Si22  1  0.457985  0.624015  0.248562  1
  Si  Si23  1  0.538700  0.380267  0.750790  1
  Si  Si24  1  0.296078  0.871136  0.749750  1
  Si  Si25  1  0.708022  0.118190  0.248084  1
  Si  Si26  1  0.206657  0.382156  0.249597  1
  Si  Si27  1  0.790743  0.621204  0.748747  1
  Si  Si28  1  0.815928  0.544475  0.457885  1
  Si  Si29  1  0.341323  0.957586  0.462634  1
  Si  Si30  1  0.847226  0.537092  0.039056  1
  Si  Si31  1  0.658808  0.033570  0.540440  1
  Si  Si32  1  0.150975  0.463386  0.960192  1
  Si  Si33  1  0.652499  0.036681  0.959670  1
  Si  Si34  1  0.346876  0.964670  0.039481  1
  Sb  Sb35  1  0.186116  0.461687  0.542510  1
