# generated using pymatgen
data_Pr16AlIn(AgRh2)2
_symmetry_space_group_name_H-M   'P 1'
_cell_length_a   9.94911704
_cell_length_b   9.95802781
_cell_length_c   9.98874895
_cell_angle_alpha   59.91228683
_cell_angle_beta   59.90194857
_cell_angle_gamma   59.94929658
_symmetry_Int_Tables_number   1
_chemical_formula_structural   Pr16AlIn(AgRh2)2
_chemical_formula_sum   'Pr16 Al1 In1 Ag2 Rh4'
_cell_volume   698.51638977
_cell_formula_units_Z   1
loop_
 _symmetry_equiv_pos_site_id
 _symmetry_equiv_pos_as_xyz
  1  'x, y, z'
loop_
 _atom_site_type_symbol
 _atom_site_label
 _atom_site_symmetry_multiplicity
 _atom_site_fract_x
 _atom_site_fract_y
 _atom_site_fract_z
 _atom_site_occupancy
  Pr  Pr0  1  0.349241  0.350361  0.350250  1
  Pr  Pr1  1  0.349615  0.351618  0.949452  1
  Pr  Pr2  1  0.350591  0.948528  0.351964  1
  Pr  Pr3  1  0.948196  0.352047  0.350934  1
  Pr  Pr4  1  0.809191  0.188893  0.192848  1
  Pr  Pr5  1  0.190603  0.808191  0.805473  1
  Pr  Pr6  1  0.189744  0.808753  0.193372  1
  Pr  Pr7  1  0.808542  0.191420  0.806226  1
  Pr  Pr8  1  0.194921  0.194875  0.805609  1
  Pr  Pr9  1  0.808975  0.809472  0.187490  1
  Pr  Pr10  1  0.938025  0.562589  0.563921  1
  Pr  Pr11  1  0.558762  0.934652  0.942715  1
  Pr  Pr12  1  0.563116  0.931402  0.563935  1
  Pr  Pr13  1  0.939498  0.558947  0.937409  1
  Pr  Pr14  1  0.561490  0.560598  0.940458  1
  Pr  Pr15  1  0.942201  0.932740  0.561410  1
  Al  Al16  1  0.268108  0.580422  0.575458  1
  In  In17  1  0.578558  0.264152  0.578112  1
  Ag  Ag18  1  0.573937  0.582091  0.581817  1
  Ag  Ag19  1  0.574680  0.582394  0.260056  1
  Rh  Rh20  1  0.142263  0.142927  0.142535  1
  Rh  Rh21  1  0.143386  0.144401  0.574162  1
  Rh  Rh22  1  0.142007  0.575674  0.142319  1
  Rh  Rh23  1  0.574347  0.142854  0.142073  1
