# generated using pymatgen
data_Y2Ho6Tc3B24Rh
_symmetry_space_group_name_H-M   'P 1'
_cell_length_a   3.67387800
_cell_length_b   9.14505014
_cell_length_c   11.52842506
_cell_angle_alpha   90.12829189
_cell_angle_beta   90.00000000
_cell_angle_gamma   90.00000000
_symmetry_Int_Tables_number   1
_chemical_formula_structural   Y2Ho6Tc3B24Rh
_chemical_formula_sum   'Y2 Ho6 Tc3 B24 Rh1'
_cell_volume   387.32873156
_cell_formula_units_Z   1
loop_
 _symmetry_equiv_pos_site_id
 _symmetry_equiv_pos_as_xyz
  1  'x, y, z'
loop_
 _atom_site_type_symbol
 _atom_site_label
 _atom_site_symmetry_multiplicity
 _atom_site_fract_x
 _atom_site_fract_y
 _atom_site_fract_z
 _atom_site_occupancy
  Y  Y0  1  0.500000  0.318484  0.415840  1
  Y  Y1  1  0.500000  0.678133  0.590915  1
  Ho  Ho2  1  0.500000  0.177168  0.912985  1
  Ho  Ho3  1  0.500000  0.827336  0.080952  1
  Ho  Ho4  1  0.500000  0.440400  0.128986  1
  Ho  Ho5  1  0.500000  0.557358  0.871255  1
  Ho  Ho6  1  0.500000  0.056408  0.629912  1
  Ho  Ho7  1  0.500000  0.943465  0.369333  1
  Tc  Tc8  1  0.500000  0.138062  0.179865  1
  Tc  Tc9  1  0.500000  0.861979  0.821034  1
  Tc  Tc10  1  0.500000  0.362409  0.678302  1
  B  B11  1  0.000000  0.101047  0.471355  1
  B  B12  1  0.000000  0.895796  0.528061  1
  B  B13  1  0.000000  0.396805  0.971893  1
  B  B14  1  0.000000  0.604297  0.029445  1
  B  B15  1  0.000000  0.130186  0.314631  1
  B  B16  1  0.000000  0.869013  0.685796  1
  B  B17  1  0.000000  0.369434  0.814546  1
  B  B18  1  0.000000  0.631516  0.183780  1
  B  B19  1  0.000000  0.053505  0.066407  1
  B  B20  1  0.000000  0.947445  0.932731  1
  B  B21  1  0.000000  0.446348  0.566972  1
  B  B22  1  0.000000  0.553976  0.433443  1
  B  B23  1  0.000000  0.483062  0.287657  1
  B  B24  1  0.000000  0.517978  0.712674  1
  B  B25  1  0.000000  0.017830  0.787520  1
  B  B26  1  0.000000  0.982566  0.211440  1
  B  B27  1  0.000000  0.248793  0.081086  1
  B  B28  1  0.000000  0.752184  0.919085  1
  B  B29  1  0.000000  0.250456  0.581526  1
  B  B30  1  0.000000  0.749031  0.419732  1
  B  B31  1  0.000000  0.291119  0.234984  1
  B  B32  1  0.000000  0.708776  0.766163  1
  B  B33  1  0.000000  0.208683  0.734719  1
  B  B34  1  0.000000  0.790947  0.264490  1
  Rh  Rh35  1  0.500000  0.638010  0.320486  1
