# generated using pymatgen
data_Yb2Dy3Tm(Si3Ru)8
_symmetry_space_group_name_H-M   'P 1'
_cell_length_a   10.12835694
_cell_length_b   10.12835738
_cell_length_c   8.13825397
_cell_angle_alpha   89.99873491
_cell_angle_beta   89.99873221
_cell_angle_gamma   132.64703826
_symmetry_Int_Tables_number   1
_chemical_formula_structural   Yb2Dy3Tm(Si3Ru)8
_chemical_formula_sum   'Yb2 Dy3 Tm1 Si24 Ru8'
_cell_volume   614.06765627
_cell_formula_units_Z   1
loop_
 _symmetry_equiv_pos_site_id
 _symmetry_equiv_pos_as_xyz
  1  'x, y, z'
loop_
 _atom_site_type_symbol
 _atom_site_label
 _atom_site_symmetry_multiplicity
 _atom_site_fract_x
 _atom_site_fract_y
 _atom_site_fract_z
 _atom_site_occupancy
  Yb  Yb0  1  0.501240  0.001260  0.750021  1
  Yb  Yb1  1  0.998740  0.498760  0.249979  1
  Dy  Dy2  1  0.000090  0.999910  0.000000  1
  Dy  Dy3  1  0.496731  0.996702  0.249993  1
  Dy  Dy4  1  0.003298  0.503269  0.750007  1
  Tm  Tm5  1  0.499870  0.500130  0.500000  1
  Si  Si6  1  0.794407  0.205593  0.500000  1
  Si  Si7  1  0.294340  0.705660  0.000000  1
  Si  Si8  1  0.205843  0.794157  0.500000  1
  Si  Si9  1  0.705410  0.294590  0.000000  1
  Si  Si10  1  0.330523  0.335537  0.832530  1
  Si  Si11  1  0.664463  0.669477  0.167470  1
  Si  Si12  1  0.170083  0.165096  0.333170  1
  Si  Si13  1  0.834904  0.829917  0.666830  1
  Si  Si14  1  0.121715  0.887329  0.727594  1
  Si  Si15  1  0.112671  0.878285  0.272406  1
  Si  Si16  1  0.609861  0.376538  0.228415  1
  Si  Si17  1  0.623462  0.390139  0.771585  1
  Si  Si18  1  0.876536  0.110469  0.272130  1
  Si  Si19  1  0.889531  0.123464  0.727870  1
  Si  Si20  1  0.387841  0.621700  0.771994  1
  Si  Si21  1  0.378300  0.612159  0.228006  1
  Si  Si22  1  0.344537  0.111278  0.503602  1
  Si  Si23  1  0.888722  0.655463  0.496398  1
  Si  Si24  1  0.388881  0.155344  0.005677  1
  Si  Si25  1  0.844656  0.611119  0.994323  1
  Si  Si26  1  0.655196  0.888290  0.494174  1
  Si  Si27  1  0.111710  0.344804  0.505826  1
  Si  Si28  1  0.610763  0.844384  0.996588  1
  Si  Si29  1  0.155616  0.389237  0.003412  1
  Ru  Ru30  1  0.669475  0.330525  0.500000  1
  Ru  Ru31  1  0.169136  0.830864  0.000000  1
  Ru  Ru32  1  0.331325  0.668675  0.500000  1
  Ru  Ru33  1  0.830113  0.169887  0.000000  1
  Ru  Ru34  1  0.126150  0.126835  0.626210  1
  Ru  Ru35  1  0.873165  0.873850  0.373790  1
  Ru  Ru36  1  0.374351  0.373653  0.126753  1
  Ru  Ru37  1  0.626347  0.625649  0.873247  1
