# generated using pymatgen
data_Cd2B3Ir4
_symmetry_space_group_name_H-M   'P 1'
_cell_length_a   14.75794376
_cell_length_b   14.75794332
_cell_length_c   2.82622600
_cell_angle_alpha   90.00000000
_cell_angle_beta   90.00000000
_cell_angle_gamma   168.61780078
_symmetry_Int_Tables_number   1
_chemical_formula_structural   Cd2B3Ir4
_chemical_formula_sum   'Cd2 B3 Ir4'
_cell_volume   121.47917131
_cell_formula_units_Z   1
loop_
 _symmetry_equiv_pos_site_id
 _symmetry_equiv_pos_as_xyz
  1  'x, y, z'
loop_
 _atom_site_type_symbol
 _atom_site_label
 _atom_site_symmetry_multiplicity
 _atom_site_fract_x
 _atom_site_fract_y
 _atom_site_fract_z
 _atom_site_occupancy
  Cd  Cd0  1  0.293629  0.706371  0.500000  1
  Cd  Cd1  1  0.703799  0.296201  0.000000  1
  B  B2  1  0.397542  0.602458  0.500000  1
  B  B3  1  0.599528  0.400472  0.000000  1
  B  B4  1  0.991097  0.008903  0.500000  1
  Ir  Ir5  1  0.129420  0.870580  0.500000  1
  Ir  Ir6  1  0.868934  0.131066  0.000000  1
  Ir  Ir7  1  0.542861  0.457139  0.500000  1
  Ir  Ir8  1  0.457191  0.542809  0.000000  1
