# generated using pymatgen
data_Y3Zn(Ga4Pd)2
_symmetry_space_group_name_H-M   'P 1'
_cell_length_a   8.15269161
_cell_length_b   8.15269050
_cell_length_c   8.15269094
_cell_angle_alpha   149.26143213
_cell_angle_beta   108.98125215
_cell_angle_gamma   79.35243724
_symmetry_Int_Tables_number   1
_chemical_formula_structural   Y3Zn(Ga4Pd)2
_chemical_formula_sum   'Y3 Zn1 Ga8 Pd2'
_cell_volume   256.81965497
_cell_formula_units_Z   1
loop_
 _symmetry_equiv_pos_site_id
 _symmetry_equiv_pos_as_xyz
  1  'x, y, z'
loop_
 _atom_site_type_symbol
 _atom_site_label
 _atom_site_symmetry_multiplicity
 _atom_site_fract_x
 _atom_site_fract_y
 _atom_site_fract_z
 _atom_site_occupancy
  Y  Y0  1  0.500000  0.500000  0.000000  1
  Y  Y1  1  0.201032  0.201032  0.000000  1
  Y  Y2  1  0.798968  0.798968  0.000000  1
  Zn  Zn3  1  0.000000  0.500000  0.500000  1
  Ga  Ga4  1  0.648059  0.363834  0.284224  1
  Ga  Ga5  1  0.351941  0.636166  0.715776  1
  Ga  Ga6  1  0.079610  0.363834  0.715776  1
  Ga  Ga7  1  0.920390  0.636166  0.284224  1
  Ga  Ga8  1  0.521525  0.155985  0.365541  1
  Ga  Ga9  1  0.478475  0.844015  0.634459  1
  Ga  Ga10  1  0.790444  0.155985  0.634459  1
  Ga  Ga11  1  0.209556  0.844015  0.365541  1
  Pd  Pd12  1  0.183716  0.000000  0.183716  1
  Pd  Pd13  1  0.816284  0.000000  0.816284  1
