# generated using pymatgen
data_Ti3CrRe2P3
_symmetry_space_group_name_H-M   'P 1'
_cell_length_a   6.59285242
_cell_length_b   6.59285363
_cell_length_c   3.27044200
_cell_angle_alpha   90.00000000
_cell_angle_beta   90.00000000
_cell_angle_gamma   120.49058356
_symmetry_Int_Tables_number   1
_chemical_formula_structural   Ti3CrRe2P3
_chemical_formula_sum   'Ti3 Cr1 Re2 P3'
_cell_volume   122.49423880
_cell_formula_units_Z   1
loop_
 _symmetry_equiv_pos_site_id
 _symmetry_equiv_pos_as_xyz
  1  'x, y, z'
loop_
 _atom_site_type_symbol
 _atom_site_label
 _atom_site_symmetry_multiplicity
 _atom_site_fract_x
 _atom_site_fract_y
 _atom_site_fract_z
 _atom_site_occupancy
  Ti  Ti0  1  0.412488  0.412488  0.500000  1
  Ti  Ti1  1  0.596511  0.994619  0.500000  1
  Ti  Ti2  1  0.994619  0.596511  0.500000  1
  Cr  Cr3  1  0.744413  0.744413  0.000000  1
  Re  Re4  1  0.001219  0.256368  0.000000  1
  Re  Re5  1  0.256368  0.001219  0.000000  1
  P  P6  1  0.668964  0.340387  0.000000  1
  P  P7  1  0.340387  0.668964  0.000000  1
  P  P8  1  0.985031  0.985031  0.500000  1
