# generated using pymatgen
data_Sc2MnH6
_symmetry_space_group_name_H-M   'P 1'
_cell_length_a   4.61415976
_cell_length_b   4.61422663
_cell_length_c   4.61431892
_cell_angle_alpha   120.01600198
_cell_angle_beta   59.98077558
_cell_angle_gamma   90.03060245
_symmetry_Int_Tables_number   1
_chemical_formula_structural   Sc2MnH6
_chemical_formula_sum   'Sc2 Mn1 H6'
_cell_volume   69.44945280
_cell_formula_units_Z   1
loop_
 _symmetry_equiv_pos_site_id
 _symmetry_equiv_pos_as_xyz
  1  'x, y, z'
loop_
 _atom_site_type_symbol
 _atom_site_label
 _atom_site_symmetry_multiplicity
 _atom_site_fract_x
 _atom_site_fract_y
 _atom_site_fract_z
 _atom_site_occupancy
  Sc  Sc0  1  0.800595  0.699417  0.157994  1
  Sc  Sc1  1  0.300570  0.199437  0.158189  1
  Mn  Mn2  1  0.549508  0.449586  0.658911  1
  H  H3  1  0.298683  0.700070  0.161872  1
  H  H4  1  0.803694  0.198104  0.656805  1
  H  H5  1  0.802339  0.198893  0.154496  1
  H  H6  1  0.800895  0.702747  0.659117  1
  H  H7  1  0.300380  0.195857  0.656967  1
  H  H8  1  0.296849  0.700845  0.659455  1
