# generated using pymatgen
data_Sn7IrRuRh
_symmetry_space_group_name_H-M   'P 1'
_cell_length_a   9.48209978
_cell_length_b   8.22138797
_cell_length_c   8.21687642
_cell_angle_alpha   70.68847926
_cell_angle_beta   54.77978494
_cell_angle_gamma   54.78068489
_symmetry_Int_Tables_number   1
_chemical_formula_structural   Sn7IrRuRh
_chemical_formula_sum   'Sn14 Ir2 Ru2 Rh2'
_cell_volume   427.50516880
_cell_formula_units_Z   2
loop_
 _symmetry_equiv_pos_site_id
 _symmetry_equiv_pos_as_xyz
  1  'x, y, z'
loop_
 _atom_site_type_symbol
 _atom_site_label
 _atom_site_symmetry_multiplicity
 _atom_site_fract_x
 _atom_site_fract_y
 _atom_site_fract_z
 _atom_site_occupancy
  Sn  Sn0  1  0.673172  0.327078  0.002255  1
  Sn  Sn1  1  0.999817  0.003128  0.324820  1
  Sn  Sn2  1  0.326995  0.000966  0.675215  1
  Sn  Sn3  1  0.999049  0.672874  0.000108  1
  Sn  Sn4  1  0.327823  0.675291  0.000228  1
  Sn  Sn5  1  0.999244  0.001050  0.673015  1
  Sn  Sn6  1  0.672190  0.003253  0.327175  1
  Sn  Sn7  1  0.999955  0.324723  0.002342  1
  Sn  Sn8  1  0.253472  0.497355  0.497853  1
  Sn  Sn9  1  0.500125  0.247026  0.747858  1
  Sn  Sn10  1  0.747077  0.750470  0.750893  1
  Sn  Sn11  1  0.500185  0.746967  0.247996  1
  Sn  Sn12  1  0.751122  0.497388  0.497684  1
  Sn  Sn13  1  0.249586  0.247840  0.248482  1
  Ir  Ir14  1  0.000325  0.656116  0.343603  1
  Ir  Ir15  1  0.341563  0.658226  0.658964  1
  Ru  Ru16  1  0.654037  0.345891  0.346765  1
  Ru  Ru17  1  0.345947  0.999458  0.000286  1
  Rh  Rh18  1  0.657979  0.999528  0.000114  1
  Rh  Rh19  1  0.000333  0.345370  0.654345  1
