# generated using pymatgen
data_Th4TcWC4
_symmetry_space_group_name_H-M   'P 1'
_cell_length_a   5.36444100
_cell_length_b   6.69246100
_cell_length_c   10.15726700
_cell_angle_alpha   90.00000000
_cell_angle_beta   90.00000000
_cell_angle_gamma   90.00000000
_symmetry_Int_Tables_number   1
_chemical_formula_structural   Th4TcWC4
_chemical_formula_sum   'Th8 Tc2 W2 C8'
_cell_volume   364.65921346
_cell_formula_units_Z   2
loop_
 _symmetry_equiv_pos_site_id
 _symmetry_equiv_pos_as_xyz
  1  'x, y, z'
loop_
 _atom_site_type_symbol
 _atom_site_label
 _atom_site_symmetry_multiplicity
 _atom_site_fract_x
 _atom_site_fract_y
 _atom_site_fract_z
 _atom_site_occupancy
  Th  Th0  1  0.250000  0.469812  0.778358  1
  Th  Th1  1  0.750000  0.030188  0.278358  1
  Th  Th2  1  0.250000  0.972738  0.721664  1
  Th  Th3  1  0.750000  0.527262  0.221664  1
  Th  Th4  1  0.250000  0.812820  0.050199  1
  Th  Th5  1  0.750000  0.687180  0.550199  1
  Th  Th6  1  0.250000  0.308332  0.448799  1
  Th  Th7  1  0.750000  0.191668  0.948799  1
  Tc  Tc8  1  0.250000  0.276233  0.134294  1
  Tc  Tc9  1  0.750000  0.223767  0.634294  1
  W  W10  1  0.250000  0.777698  0.365223  1
  W  W11  1  0.750000  0.722302  0.865223  1
  C  C12  1  0.250000  0.164625  0.945795  1
  C  C13  1  0.750000  0.834502  0.055164  1
  C  C14  1  0.250000  0.665498  0.555164  1
  C  C15  1  0.750000  0.335375  0.445795  1
  C  C16  1  0.250000  0.038210  0.255650  1
  C  C17  1  0.750000  0.461790  0.755650  1
  C  C18  1  0.250000  0.535208  0.244855  1
  C  C19  1  0.750000  0.964792  0.744855  1
