# generated using pymatgen
data_CeTc2(GeOs)2
_symmetry_space_group_name_H-M   'P 1'
_cell_length_a   7.52486977
_cell_length_b   7.52487025
_cell_length_c   4.07428300
_cell_angle_alpha   90.00000000
_cell_angle_beta   90.00000000
_cell_angle_gamma   148.54040019
_symmetry_Int_Tables_number   1
_chemical_formula_structural   CeTc2(GeOs)2
_chemical_formula_sum   'Ce1 Tc2 Ge2 Os2'
_cell_volume   120.40213369
_cell_formula_units_Z   1
loop_
 _symmetry_equiv_pos_site_id
 _symmetry_equiv_pos_as_xyz
  1  'x, y, z'
loop_
 _atom_site_type_symbol
 _atom_site_label
 _atom_site_symmetry_multiplicity
 _atom_site_fract_x
 _atom_site_fract_y
 _atom_site_fract_z
 _atom_site_occupancy
  Ce  Ce0  1  0.000000  0.000000  0.000000  1
  Tc  Tc1  1  0.695988  0.304013  0.000000  1
  Tc  Tc2  1  0.304013  0.695988  0.000000  1
  Ge  Ge3  1  0.586765  0.413235  0.500001  1
  Ge  Ge4  1  0.413235  0.586765  0.500001  1
  Os  Os5  1  0.810544  0.189456  0.500001  1
  Os  Os6  1  0.189456  0.810544  0.500001  1
