# generated using pymatgen
data_Ce3Er5(TcB6)4
_symmetry_space_group_name_H-M   'P 1'
_cell_length_a   3.71114800
_cell_length_b   9.16192280
_cell_length_c   11.55251400
_cell_angle_alpha   90.07061810
_cell_angle_beta   90.00000000
_cell_angle_gamma   90.00000000
_symmetry_Int_Tables_number   1
_chemical_formula_structural   Ce3Er5(TcB6)4
_chemical_formula_sum   'Ce3 Er5 Tc4 B24'
_cell_volume   392.79963519
_cell_formula_units_Z   1
loop_
 _symmetry_equiv_pos_site_id
 _symmetry_equiv_pos_as_xyz
  1  'x, y, z'
loop_
 _atom_site_type_symbol
 _atom_site_label
 _atom_site_symmetry_multiplicity
 _atom_site_fract_x
 _atom_site_fract_y
 _atom_site_fract_z
 _atom_site_occupancy
  Ce  Ce0  1  0.000000  0.321816  0.414554  1
  Ce  Ce1  1  0.000000  0.677790  0.586388  1
  Ce  Ce2  1  0.000000  0.823820  0.085214  1
  Er  Er3  1  0.000000  0.177374  0.913976  1
  Er  Er4  1  0.000000  0.944381  0.371792  1
  Er  Er5  1  0.000000  0.056554  0.629092  1
  Er  Er6  1  0.000000  0.442622  0.128104  1
  Er  Er7  1  0.000000  0.555878  0.871250  1
  Tc  Tc8  1  0.000000  0.638884  0.320364  1
  Tc  Tc9  1  0.000000  0.361841  0.679041  1
  Tc  Tc10  1  0.000000  0.138854  0.179671  1
  Tc  Tc11  1  0.000000  0.860962  0.820679  1
  B  B12  1  0.500000  0.554551  0.431471  1
  B  B13  1  0.500000  0.445375  0.568708  1
  B  B14  1  0.500000  0.054491  0.067106  1
  B  B15  1  0.500000  0.946504  0.932233  1
  B  B16  1  0.500000  0.749383  0.418166  1
  B  B17  1  0.500000  0.250331  0.582496  1
  B  B18  1  0.500000  0.249031  0.080300  1
  B  B19  1  0.500000  0.751328  0.918212  1
  B  B20  1  0.500000  0.791580  0.265674  1
  B  B21  1  0.500000  0.207574  0.735246  1
  B  B22  1  0.500000  0.291320  0.233200  1
  B  B23  1  0.500000  0.708710  0.766146  1
  B  B24  1  0.500000  0.630803  0.185219  1
  B  B25  1  0.500000  0.368267  0.815413  1
  B  B26  1  0.500000  0.131231  0.314107  1
  B  B27  1  0.500000  0.869635  0.686144  1
  B  B28  1  0.500000  0.983800  0.212180  1
  B  B29  1  0.500000  0.018128  0.787815  1
  B  B30  1  0.500000  0.483298  0.286793  1
  B  B31  1  0.500000  0.516213  0.713449  1
  B  B32  1  0.500000  0.601865  0.028183  1
  B  B33  1  0.500000  0.395605  0.970933  1
  B  B34  1  0.500000  0.104372  0.471503  1
  B  B35  1  0.500000  0.895827  0.529178  1
