# generated using pymatgen
data_SmYNi7B2Pt
_symmetry_space_group_name_H-M   'P 1'
_cell_length_a   5.05045600
_cell_length_b   5.05045633
_cell_length_c   7.09017000
_cell_angle_alpha   90.00000000
_cell_angle_beta   90.00000000
_cell_angle_gamma   120.00001094
_symmetry_Int_Tables_number   1
_chemical_formula_structural   SmYNi7B2Pt
_chemical_formula_sum   'Sm1 Y1 Ni7 B2 Pt1'
_cell_volume   156.62044161
_cell_formula_units_Z   1
loop_
 _symmetry_equiv_pos_site_id
 _symmetry_equiv_pos_as_xyz
  1  'x, y, z'
loop_
 _atom_site_type_symbol
 _atom_site_label
 _atom_site_symmetry_multiplicity
 _atom_site_fract_x
 _atom_site_fract_y
 _atom_site_fract_z
 _atom_site_occupancy
  Sm  Sm0  1  0.000000  0.000000  0.000000  1
  Y  Y1  1  0.000000  0.000000  0.500000  1
  Ni  Ni2  1  0.666667  0.333333  0.000000  1
  Ni  Ni3  1  0.501017  0.002035  0.300654  1
  Ni  Ni4  1  0.501017  0.498983  0.300654  1
  Ni  Ni5  1  0.997965  0.498983  0.300654  1
  Ni  Ni6  1  0.501017  0.002035  0.699346  1
  Ni  Ni7  1  0.501017  0.498983  0.699346  1
  Ni  Ni8  1  0.997965  0.498983  0.699346  1
  B  B9  1  0.666667  0.333333  0.500000  1
  B  B10  1  0.333333  0.666667  0.500000  1
  Pt  Pt11  1  0.333333  0.666667  0.000000  1
