# generated using pymatgen
data_TbY2Lu3MnBi2
_symmetry_space_group_name_H-M   'P 1'
_cell_length_a   8.19615678
_cell_length_b   8.19615689
_cell_length_c   4.28189000
_cell_angle_alpha   90.00000000
_cell_angle_beta   90.00000000
_cell_angle_gamma   120.12376013
_symmetry_Int_Tables_number   1
_chemical_formula_structural   TbY2Lu3MnBi2
_chemical_formula_sum   'Tb1 Y2 Lu3 Mn1 Bi2'
_cell_volume   248.79617662
_cell_formula_units_Z   1
loop_
 _symmetry_equiv_pos_site_id
 _symmetry_equiv_pos_as_xyz
  1  'x, y, z'
loop_
 _atom_site_type_symbol
 _atom_site_label
 _atom_site_symmetry_multiplicity
 _atom_site_fract_x
 _atom_site_fract_y
 _atom_site_fract_z
 _atom_site_occupancy
  Tb  Tb0  1  0.390058  0.390058  0.000000  1
  Y  Y1  1  0.609765  0.000362  0.000000  1
  Y  Y2  1  0.000362  0.609765  0.000000  1
  Lu  Lu3  1  0.229138  0.000240  0.500000  1
  Lu  Lu4  1  0.000240  0.229138  0.500000  1
  Lu  Lu5  1  0.770307  0.770307  0.500000  1
  Mn  Mn6  1  0.999551  0.999551  0.000000  1
  Bi  Bi7  1  0.333109  0.667470  0.500000  1
  Bi  Bi8  1  0.667470  0.333109  0.500000  1
