# generated using pymatgen
data_Dy4LuIrPt2
_symmetry_space_group_name_H-M   'P 1'
_cell_length_a   11.01517300
_cell_length_b   11.01517300
_cell_length_c   6.30918200
_cell_angle_alpha   90.00000000
_cell_angle_beta   90.00000000
_cell_angle_gamma   90.00000000
_symmetry_Int_Tables_number   1
_chemical_formula_structural   Dy4LuIrPt2
_chemical_formula_sum   'Dy16 Lu4 Ir4 Pt8'
_cell_volume   765.51851731
_cell_formula_units_Z   4
loop_
 _symmetry_equiv_pos_site_id
 _symmetry_equiv_pos_as_xyz
  1  'x, y, z'
loop_
 _atom_site_type_symbol
 _atom_site_label
 _atom_site_symmetry_multiplicity
 _atom_site_fract_x
 _atom_site_fract_y
 _atom_site_fract_z
 _atom_site_occupancy
  Dy  Dy0  1  0.293573  0.087181  0.375577  1
  Dy  Dy1  1  0.293573  0.912819  0.875577  1
  Dy  Dy2  1  0.706427  0.087181  0.875577  1
  Dy  Dy3  1  0.706427  0.912819  0.375577  1
  Dy  Dy4  1  0.587181  0.793573  0.875577  1
  Dy  Dy5  1  0.587181  0.206427  0.375577  1
  Dy  Dy6  1  0.412819  0.793573  0.375577  1
  Dy  Dy7  1  0.412819  0.206427  0.875577  1
  Dy  Dy8  1  0.206427  0.412819  0.624423  1
  Dy  Dy9  1  0.206427  0.587181  0.124423  1
  Dy  Dy10  1  0.793573  0.412819  0.124423  1
  Dy  Dy11  1  0.793573  0.587181  0.624423  1
  Dy  Dy12  1  0.912819  0.706427  0.124423  1
  Dy  Dy13  1  0.912819  0.293573  0.624423  1
  Dy  Dy14  1  0.087181  0.706427  0.624423  1
  Dy  Dy15  1  0.087181  0.293573  0.124423  1
  Lu  Lu16  1  0.000000  0.000000  0.500000  1
  Lu  Lu17  1  0.000000  0.000000  0.000000  1
  Lu  Lu18  1  0.500000  0.500000  0.000000  1
  Lu  Lu19  1  0.500000  0.500000  0.500000  1
  Ir  Ir20  1  0.500000  0.000000  0.121699  1
  Ir  Ir21  1  0.500000  0.000000  0.621699  1
  Ir  Ir22  1  0.000000  0.500000  0.878301  1
  Ir  Ir23  1  0.000000  0.500000  0.378301  1
  Pt  Pt24  1  0.848456  0.151544  0.250000  1
  Pt  Pt25  1  0.848456  0.848456  0.750000  1
  Pt  Pt26  1  0.151544  0.151544  0.750000  1
  Pt  Pt27  1  0.151544  0.848456  0.250000  1
  Pt  Pt28  1  0.651544  0.348456  0.750000  1
  Pt  Pt29  1  0.651544  0.651544  0.250000  1
  Pt  Pt30  1  0.348456  0.348456  0.250000  1
  Pt  Pt31  1  0.348456  0.651544  0.750000  1
