# generated using pymatgen
data_Tb4Sm(Hg2Pt)2
_symmetry_space_group_name_H-M   'P 1'
_cell_length_a   3.68397400
_cell_length_b   8.00039200
_cell_length_c   18.38738000
_cell_angle_alpha   90.00000000
_cell_angle_beta   90.00000000
_cell_angle_gamma   90.00000000
_symmetry_Int_Tables_number   1
_chemical_formula_structural   Tb4Sm(Hg2Pt)2
_chemical_formula_sum   'Tb8 Sm2 Hg8 Pt4'
_cell_volume   541.93559233
_cell_formula_units_Z   2
loop_
 _symmetry_equiv_pos_site_id
 _symmetry_equiv_pos_as_xyz
  1  'x, y, z'
loop_
 _atom_site_type_symbol
 _atom_site_label
 _atom_site_symmetry_multiplicity
 _atom_site_fract_x
 _atom_site_fract_y
 _atom_site_fract_z
 _atom_site_occupancy
  Tb  Tb0  1  0.000000  0.112938  0.413025  1
  Tb  Tb1  1  0.000000  0.887062  0.586975  1
  Tb  Tb2  1  0.000000  0.387062  0.913025  1
  Tb  Tb3  1  0.000000  0.612938  0.086975  1
  Tb  Tb4  1  0.000000  0.237783  0.216893  1
  Tb  Tb5  1  0.000000  0.762217  0.783107  1
  Tb  Tb6  1  0.000000  0.262217  0.716893  1
  Tb  Tb7  1  0.000000  0.737783  0.283107  1
  Sm  Sm8  1  0.000000  0.000000  0.000000  1
  Sm  Sm9  1  0.000000  0.500000  0.500000  1
  Hg  Hg10  1  0.500000  0.423001  0.353918  1
  Hg  Hg11  1  0.500000  0.576999  0.646082  1
  Hg  Hg12  1  0.500000  0.076999  0.853918  1
  Hg  Hg13  1  0.500000  0.923001  0.146082  1
  Hg  Hg14  1  0.500000  0.290554  0.063795  1
  Hg  Hg15  1  0.500000  0.709446  0.936205  1
  Hg  Hg16  1  0.500000  0.209446  0.563795  1
  Hg  Hg17  1  0.500000  0.790554  0.436205  1
  Pt  Pt18  1  0.500000  0.025042  0.303023  1
  Pt  Pt19  1  0.500000  0.974958  0.696977  1
  Pt  Pt20  1  0.500000  0.474958  0.803023  1
  Pt  Pt21  1  0.500000  0.525042  0.196977  1
