# generated using pymatgen
data_Er8CdGaPd23
_symmetry_space_group_name_H-M   'P 1'
_cell_length_a   8.26808200
_cell_length_b   8.39723600
_cell_length_c   8.39723600
_cell_angle_alpha   90.00000000
_cell_angle_beta   90.00000000
_cell_angle_gamma   90.00000000
_symmetry_Int_Tables_number   1
_chemical_formula_structural   Er8CdGaPd23
_chemical_formula_sum   'Er8 Cd1 Ga1 Pd23'
_cell_volume   583.01199904
_cell_formula_units_Z   1
loop_
 _symmetry_equiv_pos_site_id
 _symmetry_equiv_pos_as_xyz
  1  'x, y, z'
loop_
 _atom_site_type_symbol
 _atom_site_label
 _atom_site_symmetry_multiplicity
 _atom_site_fract_x
 _atom_site_fract_y
 _atom_site_fract_z
 _atom_site_occupancy
  Er  Er0  1  0.251908  0.241711  0.241711  1
  Er  Er1  1  0.747487  0.746824  0.746824  1
  Er  Er2  1  0.747487  0.746824  0.253176  1
  Er  Er3  1  0.747487  0.253176  0.746824  1
  Er  Er4  1  0.251908  0.241711  0.758289  1
  Er  Er5  1  0.251908  0.758289  0.241711  1
  Er  Er6  1  0.251908  0.758289  0.758289  1
  Er  Er7  1  0.747487  0.253176  0.253176  1
  Cd  Cd8  1  0.254932  0.500000  0.500000  1
  Ga  Ga9  1  0.998922  0.000000  0.000000  1
  Pd  Pd10  1  0.258309  0.500000  0.000000  1
  Pd  Pd11  1  0.740579  0.500000  0.000000  1
  Pd  Pd12  1  0.004099  0.258358  0.500000  1
  Pd  Pd13  1  0.501782  0.262579  0.000000  1
  Pd  Pd14  1  0.004099  0.741642  0.500000  1
  Pd  Pd15  1  0.501782  0.737421  0.000000  1
  Pd  Pd16  1  0.501782  0.000000  0.262579  1
  Pd  Pd17  1  0.258309  0.000000  0.500000  1
  Pd  Pd18  1  0.501782  0.000000  0.737421  1
  Pd  Pd19  1  0.740579  0.000000  0.500000  1
  Pd  Pd20  1  0.004099  0.500000  0.258358  1
  Pd  Pd21  1  0.004099  0.500000  0.741642  1
  Pd  Pd22  1  0.747724  0.500000  0.500000  1
  Pd  Pd23  1  0.496500  0.251479  0.500000  1
  Pd  Pd24  1  0.496500  0.748521  0.500000  1
  Pd  Pd25  1  0.496500  0.500000  0.251479  1
  Pd  Pd26  1  0.496500  0.500000  0.748521  1
  Pd  Pd27  1  0.295123  0.000000  0.000000  1
  Pd  Pd28  1  0.706687  0.000000  0.000000  1
  Pd  Pd29  1  0.997933  0.289376  0.000000  1
  Pd  Pd30  1  0.997933  0.710624  0.000000  1
  Pd  Pd31  1  0.997933  0.000000  0.289376  1
  Pd  Pd32  1  0.997933  0.000000  0.710624  1
