# generated using pymatgen
data_HoFe2(Sb6Os)2
_symmetry_space_group_name_H-M   'P 1'
_cell_length_a   8.06373234
_cell_length_b   8.06373308
_cell_length_c   8.02843761
_cell_angle_alpha   109.51891358
_cell_angle_beta   109.49264901
_cell_angle_gamma   109.57978679
_symmetry_Int_Tables_number   1
_chemical_formula_structural   HoFe2(Sb6Os)2
_chemical_formula_sum   'Ho1 Fe2 Sb12 Os2'
_cell_volume   400.98226328
_cell_formula_units_Z   1
loop_
 _symmetry_equiv_pos_site_id
 _symmetry_equiv_pos_as_xyz
  1  'x, y, z'
loop_
 _atom_site_type_symbol
 _atom_site_label
 _atom_site_symmetry_multiplicity
 _atom_site_fract_x
 _atom_site_fract_y
 _atom_site_fract_z
 _atom_site_occupancy
  Ho  Ho0  1  0.000000  0.000000  0.000000  1
  Fe  Fe1  1  0.500000  0.000000  0.000000  1
  Fe  Fe2  1  0.000000  0.500000  0.000000  1
  Sb  Sb3  1  0.843994  0.660778  0.504772  1
  Sb  Sb4  1  0.156006  0.339222  0.495228  1
  Sb  Sb5  1  0.161070  0.668509  0.829579  1
  Sb  Sb6  1  0.838930  0.331491  0.170421  1
  Sb  Sb7  1  0.671281  0.506286  0.847321  1
  Sb  Sb8  1  0.328719  0.493714  0.152679  1
  Sb  Sb9  1  0.658965  0.823961  0.152679  1
  Sb  Sb10  1  0.341035  0.176039  0.847321  1
  Sb  Sb11  1  0.506368  0.847035  0.670959  1
  Sb  Sb12  1  0.493632  0.152965  0.329041  1
  Sb  Sb13  1  0.176075  0.835410  0.329041  1
  Sb  Sb14  1  0.823925  0.164590  0.670959  1
  Os  Os15  1  0.500000  0.500000  0.500000  1
  Os  Os16  1  0.000000  0.000000  0.500000  1
