# generated using pymatgen
data_Nd(EuSb)3
_symmetry_space_group_name_H-M   'P 1'
_cell_length_a   8.33959484
_cell_length_b   8.33959457
_cell_length_c   8.37821545
_cell_angle_alpha   70.56909545
_cell_angle_beta   70.56909628
_cell_angle_gamma   109.25691692
_symmetry_Int_Tables_number   1
_chemical_formula_structural   Nd(EuSb)3
_chemical_formula_sum   'Nd2 Eu6 Sb6'
_cell_volume   450.18322216
_cell_formula_units_Z   2
loop_
 _symmetry_equiv_pos_site_id
 _symmetry_equiv_pos_as_xyz
  1  'x, y, z'
loop_
 _atom_site_type_symbol
 _atom_site_label
 _atom_site_symmetry_multiplicity
 _atom_site_fract_x
 _atom_site_fract_y
 _atom_site_fract_z
 _atom_site_occupancy
  Nd  Nd0  1  0.857404  0.000156  0.999480  1
  Nd  Nd1  1  0.000156  0.857404  0.499480  1
  Eu  Eu2  1  0.001316  0.359935  0.495759  1
  Eu  Eu3  1  0.496783  0.496013  0.145896  1
  Eu  Eu4  1  0.642706  0.145608  0.358491  1
  Eu  Eu5  1  0.359935  0.001316  0.995759  1
  Eu  Eu6  1  0.496013  0.496783  0.645896  1
  Eu  Eu7  1  0.145608  0.642706  0.858491  1
  Sb  Sb8  1  0.631945  0.874544  0.750044  1
  Sb  Sb9  1  0.874544  0.631945  0.250044  1
  Sb  Sb10  1  0.241855  0.119967  0.628417  1
  Sb  Sb11  1  0.755034  0.376731  0.871911  1
  Sb  Sb12  1  0.376731  0.755034  0.371911  1
  Sb  Sb13  1  0.119967  0.241855  0.128417  1
