# generated using pymatgen
data_Hf3Zr7Sn2(BSb2)2
_symmetry_space_group_name_H-M   'P 1'
_cell_length_a   8.49383519
_cell_length_b   8.49383562
_cell_length_c   5.79481800
_cell_angle_alpha   90.00000000
_cell_angle_beta   90.00000000
_cell_angle_gamma   119.97108982
_symmetry_Int_Tables_number   1
_chemical_formula_structural   Hf3Zr7Sn2(BSb2)2
_chemical_formula_sum   'Hf3 Zr7 Sn2 B2 Sb4'
_cell_volume   362.16339924
_cell_formula_units_Z   1
loop_
 _symmetry_equiv_pos_site_id
 _symmetry_equiv_pos_as_xyz
  1  'x, y, z'
loop_
 _atom_site_type_symbol
 _atom_site_label
 _atom_site_symmetry_multiplicity
 _atom_site_fract_x
 _atom_site_fract_y
 _atom_site_fract_z
 _atom_site_occupancy
  Hf  Hf0  1  0.230382  0.230382  0.250000  1
  Hf  Hf1  1  0.769867  0.000956  0.250000  1
  Hf  Hf2  1  0.000956  0.769867  0.250000  1
  Zr  Zr3  1  0.666478  0.334486  0.000719  1
  Zr  Zr4  1  0.334486  0.666478  0.000719  1
  Zr  Zr5  1  0.334486  0.666478  0.499281  1
  Zr  Zr6  1  0.666478  0.334486  0.499281  1
  Zr  Zr7  1  0.767419  0.767419  0.750000  1
  Zr  Zr8  1  0.230764  0.999134  0.750000  1
  Zr  Zr9  1  0.999134  0.230764  0.750000  1
  Sn  Sn10  1  0.399230  0.000258  0.250000  1
  Sn  Sn11  1  0.000258  0.399230  0.250000  1
  B  B12  1  0.999985  0.999985  0.003559  1
  B  B13  1  0.999985  0.999985  0.496441  1
  Sb  Sb14  1  0.397790  0.397790  0.750000  1
  Sb  Sb15  1  0.599292  0.000797  0.750000  1
  Sb  Sb16  1  0.000797  0.599292  0.750000  1
  Sb  Sb17  1  0.602210  0.602210  0.250000  1
