# generated using pymatgen
data_Tm4ReTc3Ru4
_symmetry_space_group_name_H-M   'P 1'
_cell_length_a   5.18720839
_cell_length_b   5.41400914
_cell_length_c   8.99942500
_cell_angle_alpha   90.00000000
_cell_angle_beta   90.00000000
_cell_angle_gamma   121.45721251
_symmetry_Int_Tables_number   1
_chemical_formula_structural   Tm4ReTc3Ru4
_chemical_formula_sum   'Tm4 Re1 Tc3 Ru4'
_cell_volume   215.59158654
_cell_formula_units_Z   1
loop_
 _symmetry_equiv_pos_site_id
 _symmetry_equiv_pos_as_xyz
  1  'x, y, z'
loop_
 _atom_site_type_symbol
 _atom_site_label
 _atom_site_symmetry_multiplicity
 _atom_site_fract_x
 _atom_site_fract_y
 _atom_site_fract_z
 _atom_site_occupancy
  Tm  Tm0  1  0.333864  0.666933  0.437131  1
  Tm  Tm1  1  0.655264  0.327631  0.566761  1
  Tm  Tm2  1  0.655264  0.327631  0.933239  1
  Tm  Tm3  1  0.333864  0.666933  0.062869  1
  Re  Re4  1  0.677644  0.838823  0.750000  1
  Tc  Tc5  1  0.831754  0.171083  0.250000  1
  Tc  Tc6  1  0.831754  0.660670  0.250000  1
  Tc  Tc7  1  0.351549  0.175775  0.250000  1
  Ru  Ru8  1  0.982166  0.991084  0.501967  1
  Ru  Ru9  1  0.982166  0.991084  0.998033  1
  Ru  Ru10  1  0.182355  0.829500  0.750000  1
  Ru  Ru11  1  0.182355  0.352856  0.750000  1
