# generated using pymatgen
data_Sc4BeOs7
_symmetry_space_group_name_H-M   'P 1'
_cell_length_a   5.11551563
_cell_length_b   5.23821866
_cell_length_c   8.51783000
_cell_angle_alpha   90.00000000
_cell_angle_beta   90.00000000
_cell_angle_gamma   120.79687364
_symmetry_Int_Tables_number   1
_chemical_formula_structural   Sc4BeOs7
_chemical_formula_sum   'Sc4 Be1 Os7'
_cell_volume   196.06001018
_cell_formula_units_Z   1
loop_
 _symmetry_equiv_pos_site_id
 _symmetry_equiv_pos_as_xyz
  1  'x, y, z'
loop_
 _atom_site_type_symbol
 _atom_site_label
 _atom_site_symmetry_multiplicity
 _atom_site_fract_x
 _atom_site_fract_y
 _atom_site_fract_z
 _atom_site_occupancy
  Sc  Sc0  1  0.334579  0.667285  0.065197  1
  Sc  Sc1  1  0.334579  0.667285  0.434803  1
  Sc  Sc2  1  0.662076  0.331037  0.564249  1
  Sc  Sc3  1  0.662076  0.331037  0.935751  1
  Be  Be4  1  0.343905  0.171951  0.250000  1
  Os  Os5  1  0.997402  0.998699  0.005181  1
  Os  Os6  1  0.829691  0.178449  0.250000  1
  Os  Os7  1  0.829690  0.651247  0.250000  1
  Os  Os8  1  0.997402  0.998699  0.494819  1
  Os  Os9  1  0.173098  0.345425  0.750000  1
  Os  Os10  1  0.173103  0.827685  0.750000  1
  Os  Os11  1  0.662403  0.831201  0.750000  1
