# generated using pymatgen
data_Zr11Ta9GaSi15
_symmetry_space_group_name_H-M   'P 1'
_cell_length_a   6.96073501
_cell_length_b   6.95065228
_cell_length_c   12.82746898
_cell_angle_alpha   90.13805191
_cell_angle_beta   89.79966925
_cell_angle_gamma   90.01105802
_symmetry_Int_Tables_number   1
_chemical_formula_structural   Zr11Ta9GaSi15
_chemical_formula_sum   'Zr11 Ta9 Ga1 Si15'
_cell_volume   620.60849208
_cell_formula_units_Z   1
loop_
 _symmetry_equiv_pos_site_id
 _symmetry_equiv_pos_as_xyz
  1  'x, y, z'
loop_
 _atom_site_type_symbol
 _atom_site_label
 _atom_site_symmetry_multiplicity
 _atom_site_fract_x
 _atom_site_fract_y
 _atom_site_fract_z
 _atom_site_occupancy
  Zr  Zr0  1  0.500066  0.350533  0.623161  1
  Zr  Zr1  1  0.501741  0.650060  0.124728  1
  Zr  Zr2  1  0.148153  0.998697  0.874142  1
  Zr  Zr3  1  0.001275  0.654630  0.032845  1
  Zr  Zr4  1  0.996760  0.340453  0.530717  1
  Zr  Zr5  1  0.657997  0.999743  0.968950  1
  Zr  Zr6  1  0.153083  0.498405  0.781371  1
  Zr  Zr7  1  0.843740  0.500000  0.279946  1
  Zr  Zr8  1  0.501843  0.157477  0.219784  1
  Zr  Zr9  1  0.500447  0.843740  0.717788  1
  Zr  Zr10  1  0.343973  0.003051  0.468259  1
  Ta  Ta11  1  0.352924  0.506176  0.374624  1
  Ta  Ta12  1  0.848581  0.002008  0.372466  1
  Ta  Ta13  1  0.007052  0.152625  0.126072  1
  Ta  Ta14  1  0.991527  0.849368  0.628732  1
  Ta  Ta15  1  0.651728  0.490812  0.875900  1
  Ta  Ta16  1  0.667870  0.673830  0.500060  1
  Ta  Ta17  1  0.827528  0.169686  0.749666  1
  Ta  Ta18  1  0.173190  0.834012  0.250072  1
  Ta  Ta19  1  0.330160  0.326929  0.000444  1
  Ga  Ga20  1  0.042513  0.701731  0.435398  1
  Si  Si21  1  0.953748  0.299235  0.936536  1
  Si  Si22  1  0.703720  0.044569  0.562326  1
  Si  Si23  1  0.201377  0.453330  0.187384  1
  Si  Si24  1  0.799381  0.546474  0.685518  1
  Si  Si25  1  0.455204  0.199472  0.814772  1
  Si  Si26  1  0.548116  0.801167  0.316059  1
  Si  Si27  1  0.300671  0.956379  0.065120  1
  Si  Si28  1  0.855044  0.788719  0.821917  1
  Si  Si29  1  0.138317  0.209563  0.323747  1
  Si  Si30  1  0.800808  0.865082  0.179790  1
  Si  Si31  1  0.289073  0.644129  0.571543  1
  Si  Si32  1  0.709658  0.356185  0.071453  1
  Si  Si33  1  0.638038  0.295115  0.425266  1
  Si  Si34  1  0.363631  0.699492  0.926782  1
  Si  Si35  1  0.201065  0.137124  0.676657  1
