# generated using pymatgen
data_LaSmY4Ta2O14
_symmetry_space_group_name_H-M   'P 1'
_cell_length_a   6.52206759
_cell_length_b   6.52206721
_cell_length_c   7.62444028
_cell_angle_alpha   89.97476459
_cell_angle_beta   90.02523330
_cell_angle_gamma   109.34558765
_symmetry_Int_Tables_number   1
_chemical_formula_structural   LaSmY4Ta2O14
_chemical_formula_sum   'La1 Sm1 Y4 Ta2 O14'
_cell_volume   306.01147736
_cell_formula_units_Z   1
loop_
 _symmetry_equiv_pos_site_id
 _symmetry_equiv_pos_as_xyz
  1  'x, y, z'
loop_
 _atom_site_type_symbol
 _atom_site_label
 _atom_site_symmetry_multiplicity
 _atom_site_fract_x
 _atom_site_fract_y
 _atom_site_fract_z
 _atom_site_occupancy
  La  La0  1  0.500000  0.500000  0.500000  1
  Sm  Sm1  1  0.500000  0.500000  0.000000  1
  Y  Y2  1  0.533001  0.000705  0.751606  1
  Y  Y3  1  0.000705  0.533001  0.248394  1
  Y  Y4  1  0.466999  0.999295  0.248394  1
  Y  Y5  1  0.999295  0.466999  0.751606  1
  Ta  Ta6  1  0.000000  0.000000  0.500000  1
  Ta  Ta7  1  0.000000  0.000000  0.000000  1
  O  O8  1  0.680767  0.933034  0.467959  1
  O  O9  1  0.933034  0.680767  0.532041  1
  O  O10  1  0.680364  0.929690  0.031629  1
  O  O11  1  0.929690  0.680364  0.968371  1
  O  O12  1  0.319233  0.066966  0.532041  1
  O  O13  1  0.066966  0.319233  0.467959  1
  O  O14  1  0.319636  0.070310  0.968371  1
  O  O15  1  0.070310  0.319636  0.031629  1
  O  O16  1  0.936973  0.063027  0.749979  1
  O  O17  1  0.063027  0.936973  0.250021  1
  O  O18  1  0.364839  0.635160  0.755717  1
  O  O19  1  0.635160  0.364839  0.244283  1
  O  O20  1  0.641960  0.358040  0.754648  1
  O  O21  1  0.358040  0.641960  0.245352  1
