# generated using pymatgen
data_Zr2Sc(InNi2)3
_symmetry_space_group_name_H-M   'P 1'
_cell_length_a   4.43702404
_cell_length_b   6.31473079
_cell_length_c   13.47678606
_cell_angle_alpha   89.87500626
_cell_angle_beta   90.00408534
_cell_angle_gamma   89.98562104
_symmetry_Int_Tables_number   1
_chemical_formula_structural   Zr2Sc(InNi2)3
_chemical_formula_sum   'Zr4 Sc2 In6 Ni12'
_cell_volume   377.59993239
_cell_formula_units_Z   2
loop_
 _symmetry_equiv_pos_site_id
 _symmetry_equiv_pos_as_xyz
  1  'x, y, z'
loop_
 _atom_site_type_symbol
 _atom_site_label
 _atom_site_symmetry_multiplicity
 _atom_site_fract_x
 _atom_site_fract_y
 _atom_site_fract_z
 _atom_site_occupancy
  Zr  Zr0  1  0.000115  0.500025  0.332457  1
  Zr  Zr1  1  0.499831  0.999938  0.498955  1
  Zr  Zr2  1  0.999759  0.499976  0.667721  1
  Zr  Zr3  1  0.499781  0.999998  0.834168  1
  Sc  Sc4  1  0.000125  0.500011  0.000112  1
  Sc  Sc5  1  0.500387  0.000065  0.166588  1
  In  In6  1  0.000112  0.000081  0.003518  1
  In  In7  1  0.500432  0.500035  0.163102  1
  In  In8  1  0.000080  0.000153  0.330698  1
  In  In9  1  0.499822  0.499919  0.500493  1
  In  In10  1  0.999816  0.999951  0.666156  1
  In  In11  1  0.499619  0.500010  0.836051  1
  Ni  Ni12  1  0.500272  0.243066  0.999680  1
  Ni  Ni13  1  0.500089  0.756883  0.999846  1
  Ni  Ni14  1  0.000470  0.256939  0.166967  1
  Ni  Ni15  1  0.000662  0.743194  0.166860  1
  Ni  Ni16  1  0.500211  0.248437  0.331933  1
  Ni  Ni17  1  0.500041  0.751564  0.332009  1
  Ni  Ni18  1  0.999640  0.257868  0.498827  1
  Ni  Ni19  1  0.999867  0.742012  0.498737  1
  Ni  Ni20  1  0.499875  0.242106  0.667841  1
  Ni  Ni21  1  0.499625  0.757800  0.667901  1
  Ni  Ni22  1  0.999562  0.251572  0.834728  1
  Ni  Ni23  1  0.999801  0.748401  0.834650  1
