# generated using pymatgen
data_Be(AsPd3)2
_symmetry_space_group_name_H-M   'P 1'
_cell_length_a   6.58885200
_cell_length_b   6.58885181
_cell_length_c   3.53150100
_cell_angle_alpha   90.00000000
_cell_angle_beta   90.00000000
_cell_angle_gamma   120.00000093
_symmetry_Int_Tables_number   1
_chemical_formula_structural   Be(AsPd3)2
_chemical_formula_sum   'Be1 As2 Pd6'
_cell_volume   132.77290390
_cell_formula_units_Z   1
loop_
 _symmetry_equiv_pos_site_id
 _symmetry_equiv_pos_as_xyz
  1  'x, y, z'
loop_
 _atom_site_type_symbol
 _atom_site_label
 _atom_site_symmetry_multiplicity
 _atom_site_fract_x
 _atom_site_fract_y
 _atom_site_fract_z
 _atom_site_occupancy
  Be  Be0  1  0.000000  0.000000  0.500000  1
  As  As1  1  0.333333  0.666667  0.000000  1
  As  As2  1  0.666667  0.333333  0.000000  1
  Pd  Pd3  1  0.000000  0.748339  0.000000  1
  Pd  Pd4  1  0.251661  0.251661  0.000000  1
  Pd  Pd5  1  0.748339  0.000000  0.000000  1
  Pd  Pd6  1  0.000000  0.386294  0.500000  1
  Pd  Pd7  1  0.613706  0.613706  0.500000  1
  Pd  Pd8  1  0.386294  0.000000  0.500000  1
