# generated using pymatgen
data_Th5P12Ru18Rh
_symmetry_space_group_name_H-M   'P 1'
_cell_length_a   12.71486097
_cell_length_b   12.65662828
_cell_length_c   4.01722100
_cell_angle_alpha   90.00000000
_cell_angle_beta   90.00000000
_cell_angle_gamma   119.84862139
_symmetry_Int_Tables_number   1
_chemical_formula_structural   Th5P12Ru18Rh
_chemical_formula_sum   'Th5 P12 Ru18 Rh1'
_cell_volume   560.72051664
_cell_formula_units_Z   1
loop_
 _symmetry_equiv_pos_site_id
 _symmetry_equiv_pos_as_xyz
  1  'x, y, z'
loop_
 _atom_site_type_symbol
 _atom_site_label
 _atom_site_symmetry_multiplicity
 _atom_site_fract_x
 _atom_site_fract_y
 _atom_site_fract_z
 _atom_site_occupancy
  Th  Th0  1  0.000000  0.186279  0.500000  1
  Th  Th1  1  0.812668  0.812724  0.500000  1
  Th  Th2  1  0.187332  0.000055  0.500000  1
  Th  Th3  1  0.664820  0.332229  0.000000  1
  Th  Th4  1  0.335180  0.667409  0.000000  1
  P  P5  1  0.000000  0.811833  0.000000  1
  P  P6  1  0.186173  0.186519  0.000000  1
  P  P7  1  0.813827  0.000346  0.000000  1
  P  P8  1  0.694492  0.171296  0.500000  1
  P  P9  1  0.824909  0.523093  0.500000  1
  P  P10  1  0.475066  0.305217  0.500000  1
  P  P11  1  0.175091  0.698184  0.500000  1
  P  P12  1  0.524934  0.830151  0.500000  1
  P  P13  1  0.305508  0.476804  0.500000  1
  P  P14  1  0.000000  0.371935  0.000000  1
  P  P15  1  0.624692  0.624709  0.000000  1
  P  P16  1  0.375308  0.000019  0.000000  1
  Ru  Ru17  1  0.444845  0.445260  0.000000  1
  Ru  Ru18  1  0.555155  0.000415  0.000000  1
  Ru  Ru19  1  0.000000  0.712928  0.500000  1
  Ru  Ru20  1  0.284193  0.284859  0.500000  1
  Ru  Ru21  1  0.715807  0.000665  0.500000  1
  Ru  Ru22  1  0.806308  0.184362  0.000000  1
  Ru  Ru23  1  0.816238  0.622305  0.000000  1
  Ru  Ru24  1  0.375972  0.192797  0.000000  1
  Ru  Ru25  1  0.183762  0.806068  0.000000  1
  Ru  Ru26  1  0.624028  0.816826  0.000000  1
  Ru  Ru27  1  0.193692  0.378053  0.000000  1
  Ru  Ru28  1  0.874012  0.367782  0.500000  1
  Ru  Ru29  1  0.631990  0.507573  0.500000  1
  Ru  Ru30  1  0.492907  0.126463  0.500000  1
  Ru  Ru31  1  0.368010  0.875582  0.500000  1
  Ru  Ru32  1  0.507093  0.633557  0.500000  1
  Ru  Ru33  1  0.125988  0.493770  0.500000  1
  Ru  Ru34  1  0.000000  0.998927  0.000000  1
  Rh  Rh35  1  0.000000  0.553003  0.000000  1
