# generated using pymatgen
data_Lu5Th3Pt8
_symmetry_space_group_name_H-M   'P 1'
_cell_length_a   4.49959500
_cell_length_b   5.65520954
_cell_length_c   14.24141700
_cell_angle_alpha   89.73055165
_cell_angle_beta   90.00000000
_cell_angle_gamma   90.00000000
_symmetry_Int_Tables_number   1
_chemical_formula_structural   Lu5Th3Pt8
_chemical_formula_sum   'Lu5 Th3 Pt8'
_cell_volume   362.38526220
_cell_formula_units_Z   1
loop_
 _symmetry_equiv_pos_site_id
 _symmetry_equiv_pos_as_xyz
  1  'x, y, z'
loop_
 _atom_site_type_symbol
 _atom_site_label
 _atom_site_symmetry_multiplicity
 _atom_site_fract_x
 _atom_site_fract_y
 _atom_site_fract_z
 _atom_site_occupancy
  Lu  Lu0  1  0.250000  0.531959  0.284953  1
  Lu  Lu1  1  0.750000  0.473689  0.715314  1
  Lu  Lu2  1  0.250000  0.967911  0.780867  1
  Lu  Lu3  1  0.250000  0.752376  0.539661  1
  Lu  Lu4  1  0.250000  0.745755  0.031085  1
  Th  Th5  1  0.750000  0.258272  0.961724  1
  Th  Th6  1  0.750000  0.027714  0.215757  1
  Th  Th7  1  0.750000  0.244840  0.471049  1
  Pt  Pt8  1  0.250000  0.048973  0.352582  1
  Pt  Pt9  1  0.750000  0.548758  0.148161  1
  Pt  Pt10  1  0.750000  0.725780  0.399345  1
  Pt  Pt11  1  0.250000  0.451238  0.845387  1
  Pt  Pt12  1  0.750000  0.947140  0.650399  1
  Pt  Pt13  1  0.750000  0.774128  0.893215  1
  Pt  Pt14  1  0.250000  0.225779  0.101262  1
  Pt  Pt15  1  0.250000  0.275688  0.609239  1
