# generated using pymatgen
data_Li2Hf3Zr3(Co4P3)4
_symmetry_space_group_name_H-M   'P 1'
_cell_length_a   11.90250606
_cell_length_b   11.96482906
_cell_length_c   3.62983400
_cell_angle_alpha   90.00000000
_cell_angle_beta   90.00000000
_cell_angle_gamma   120.17335004
_symmetry_Int_Tables_number   1
_chemical_formula_structural   Li2Hf3Zr3(Co4P3)4
_chemical_formula_sum   'Li2 Hf3 Zr3 Co16 P12'
_cell_volume   446.89040600
_cell_formula_units_Z   1
loop_
 _symmetry_equiv_pos_site_id
 _symmetry_equiv_pos_as_xyz
  1  'x, y, z'
loop_
 _atom_site_type_symbol
 _atom_site_label
 _atom_site_symmetry_multiplicity
 _atom_site_fract_x
 _atom_site_fract_y
 _atom_site_fract_z
 _atom_site_occupancy
  Li  Li0  1  0.442926  0.441408  0.000000  1
  Li  Li1  1  0.557074  0.998482  0.000000  1
  Hf  Hf2  1  0.000000  0.557276  0.000000  1
  Hf  Hf3  1  0.813404  0.812433  0.500000  1
  Hf  Hf4  1  0.186596  0.999029  0.500000  1
  Zr  Zr5  1  0.666546  0.331315  0.000000  1
  Zr  Zr6  1  0.333454  0.664769  0.000000  1
  Zr  Zr7  1  0.000000  0.181165  0.500000  1
  Co  Co8  1  0.200524  0.376045  0.000000  1
  Co  Co9  1  0.180939  0.811014  0.000000  1
  Co  Co10  1  0.819061  0.630075  0.000000  1
  Co  Co11  1  0.799476  0.175521  0.000000  1
  Co  Co12  1  0.375404  0.197585  0.000000  1
  Co  Co13  1  0.127055  0.479316  0.500000  1
  Co  Co14  1  0.357489  0.874096  0.500000  1
  Co  Co15  1  0.519298  0.647042  0.500000  1
  Co  Co16  1  0.642511  0.516607  0.500000  1
  Co  Co17  1  0.872945  0.352260  0.500000  1
  Co  Co18  1  0.480702  0.127744  0.500000  1
  Co  Co19  1  0.000000  0.001897  0.000000  1
  Co  Co20  1  0.716651  0.999288  0.500000  1
  Co  Co21  1  0.000000  0.723478  0.500000  1
  Co  Co22  1  0.624596  0.822181  0.000000  1
  Co  Co23  1  0.283349  0.282637  0.500000  1
  P  P24  1  0.634959  0.639710  0.000000  1
  P  P25  1  0.365041  0.004752  0.000000  1
  P  P26  1  0.000000  0.346168  0.000000  1
  P  P27  1  0.482926  0.314345  0.500000  1
  P  P28  1  0.683271  0.166410  0.500000  1
  P  P29  1  0.824806  0.516918  0.500000  1
  P  P30  1  0.517074  0.831420  0.500000  1
  P  P31  1  0.175194  0.692113  0.500000  1
  P  P32  1  0.820696  0.997704  0.000000  1
  P  P33  1  0.000000  0.827648  0.000000  1
  P  P34  1  0.316729  0.483138  0.500000  1
  P  P35  1  0.179304  0.177008  0.000000  1
