# generated using pymatgen
data_Tb5FePtO12
_symmetry_space_group_name_H-M   'P 1'
_cell_length_a   6.85696889
_cell_length_b   6.85696725
_cell_length_c   7.34005300
_cell_angle_alpha   74.41169392
_cell_angle_beta   74.41169778
_cell_angle_gamma   51.24940899
_symmetry_Int_Tables_number   1
_chemical_formula_structural   Tb5FePtO12
_chemical_formula_sum   'Tb5 Fe1 Pt1 O12'
_cell_volume   256.91584615
_cell_formula_units_Z   1
loop_
 _symmetry_equiv_pos_site_id
 _symmetry_equiv_pos_as_xyz
  1  'x, y, z'
loop_
 _atom_site_type_symbol
 _atom_site_label
 _atom_site_symmetry_multiplicity
 _atom_site_fract_x
 _atom_site_fract_y
 _atom_site_fract_z
 _atom_site_occupancy
  Tb  Tb0  1  0.692562  0.691085  0.669931  1
  Tb  Tb1  1  0.694828  0.698511  0.140027  1
  Tb  Tb2  1  0.997891  0.002109  0.000000  1
  Tb  Tb3  1  0.301489  0.305172  0.859973  1
  Tb  Tb4  1  0.308915  0.307438  0.330069  1
  Fe  Fe5  1  0.244990  0.755010  0.500000  1
  Pt  Pt6  1  0.755978  0.244022  0.500000  1
  O  O7  1  0.401327  0.903277  0.925494  1
  O  O8  1  0.569318  0.094888  0.582257  1
  O  O9  1  0.905112  0.430682  0.417743  1
  O  O10  1  0.096723  0.598673  0.074506  1
  O  O11  1  0.001495  0.999976  0.314706  1
  O  O12  1  0.504432  0.495098  0.686897  1
  O  O13  1  0.903684  0.405941  0.923036  1
  O  O14  1  0.102532  0.580259  0.579945  1
  O  O15  1  0.419741  0.897468  0.420055  1
  O  O16  1  0.594059  0.096316  0.076964  1
  O  O17  1  0.504902  0.495568  0.313103  1
  O  O18  1  0.000024  0.998505  0.685294  1
