# generated using pymatgen
data_Tm2Ga18CoNi5
_symmetry_space_group_name_H-M   'P 1'
_cell_length_a   10.11069624
_cell_length_b   10.12605175
_cell_length_c   10.11486600
_cell_angle_alpha   42.18676223
_cell_angle_beta   42.15668884
_cell_angle_gamma   42.19838181
_symmetry_Int_Tables_number   1
_chemical_formula_structural   Tm2Ga18CoNi5
_chemical_formula_sum   'Tm2 Ga18 Co1 Ni5'
_cell_volume   422.50698629
_cell_formula_units_Z   1
loop_
 _symmetry_equiv_pos_site_id
 _symmetry_equiv_pos_as_xyz
  1  'x, y, z'
loop_
 _atom_site_type_symbol
 _atom_site_label
 _atom_site_symmetry_multiplicity
 _atom_site_fract_x
 _atom_site_fract_y
 _atom_site_fract_z
 _atom_site_occupancy
  Tm  Tm0  1  0.167756  0.167245  0.166659  1
  Tm  Tm1  1  0.833105  0.833823  0.833099  1
  Ga  Ga2  1  0.050095  0.051510  0.051635  1
  Ga  Ga3  1  0.710304  0.499246  0.290515  1
  Ga  Ga4  1  0.665931  0.332858  0.000070  1
  Ga  Ga5  1  0.105045  0.435155  0.765115  1
  Ga  Ga6  1  0.434740  0.765395  0.104745  1
  Ga  Ga7  1  0.386136  0.386848  0.385702  1
  Ga  Ga8  1  0.333385  0.997993  0.666822  1
  Ga  Ga9  1  0.610744  0.615175  0.613687  1
  Ga  Ga10  1  0.235677  0.567999  0.894179  1
  Ga  Ga11  1  0.564294  0.896207  0.237824  1
  Ga  Ga12  1  0.500616  0.290167  0.708352  1
  Ga  Ga13  1  0.765076  0.104137  0.434608  1
  Ga  Ga14  1  0.950538  0.948548  0.946226  1
  Ga  Ga15  1  0.290111  0.711679  0.500404  1
  Ga  Ga16  1  0.000740  0.667157  0.331686  1
  Ga  Ga17  1  0.716951  0.715772  0.717750  1
  Ga  Ga18  1  0.282066  0.280276  0.285710  1
  Ga  Ga19  1  0.898735  0.233791  0.565733  1
  Co  Co20  1  0.240982  0.922552  0.582070  1
  Ni  Ni21  1  0.922349  0.581373  0.240741  1
  Ni  Ni22  1  0.758524  0.418492  0.077654  1
  Ni  Ni23  1  0.077791  0.758499  0.419059  1
  Ni  Ni24  1  0.417001  0.077905  0.758052  1
  Ni  Ni25  1  0.581305  0.240199  0.921902  1
