# generated using pymatgen
data_KMnFe2Sb12Ir
_symmetry_space_group_name_H-M   'P 1'
_cell_length_a   8.11149966
_cell_length_b   8.08264406
_cell_length_c   8.11898858
_cell_angle_alpha   109.50071093
_cell_angle_beta   109.90927803
_cell_angle_gamma   109.42329269
_symmetry_Int_Tables_number   1
_chemical_formula_structural   KMnFe2Sb12Ir
_chemical_formula_sum   'K1 Mn1 Fe2 Sb12 Ir1'
_cell_volume   407.62260992
_cell_formula_units_Z   1
loop_
 _symmetry_equiv_pos_site_id
 _symmetry_equiv_pos_as_xyz
  1  'x, y, z'
loop_
 _atom_site_type_symbol
 _atom_site_label
 _atom_site_symmetry_multiplicity
 _atom_site_fract_x
 _atom_site_fract_y
 _atom_site_fract_z
 _atom_site_occupancy
  K  K0  1  0.000000  0.000000  0.000000  1
  Mn  Mn1  1  0.500000  0.500000  0.500000  1
  Fe  Fe2  1  0.500000  0.000000  0.000000  1
  Fe  Fe3  1  0.000000  0.000000  0.500000  1
  Sb  Sb4  1  0.849830  0.668421  0.500488  1
  Sb  Sb5  1  0.150170  0.331579  0.499512  1
  Sb  Sb6  1  0.166315  0.668189  0.820599  1
  Sb  Sb7  1  0.833685  0.331811  0.179401  1
  Sb  Sb8  1  0.653638  0.498006  0.845737  1
  Sb  Sb9  1  0.346362  0.501994  0.154263  1
  Sb  Sb10  1  0.668041  0.830878  0.162416  1
  Sb  Sb11  1  0.331959  0.169122  0.837584  1
  Sb  Sb12  1  0.501332  0.850480  0.669064  1
  Sb  Sb13  1  0.498668  0.149520  0.330936  1
  Sb  Sb14  1  0.179390  0.848443  0.345662  1
  Sb  Sb15  1  0.820610  0.151557  0.654338  1
  Ir  Ir16  1  0.000000  0.500000  0.000000  1
