# generated using pymatgen
data_Al2PbCl8
_symmetry_space_group_name_H-M   'P 1'
_cell_length_a   7.07047300
_cell_length_b   7.61791973
_cell_length_c   12.85017303
_cell_angle_alpha   85.48977535
_cell_angle_beta   90.00000000
_cell_angle_gamma   90.00000000
_symmetry_Int_Tables_number   1
_chemical_formula_structural   Al2PbCl8
_chemical_formula_sum   'Al4 Pb2 Cl16'
_cell_volume   689.99648192
_cell_formula_units_Z   2
loop_
 _symmetry_equiv_pos_site_id
 _symmetry_equiv_pos_as_xyz
  1  'x, y, z'
loop_
 _atom_site_type_symbol
 _atom_site_label
 _atom_site_symmetry_multiplicity
 _atom_site_fract_x
 _atom_site_fract_y
 _atom_site_fract_z
 _atom_site_occupancy
  Al  Al0  1  0.260342  0.677204  0.580329  1
  Al  Al1  1  0.739658  0.677204  0.080329  1
  Al  Al2  1  0.739658  0.322796  0.419671  1
  Al  Al3  1  0.260342  0.322796  0.919671  1
  Pb  Pb4  1  0.843602  0.500000  0.750000  1
  Pb  Pb5  1  0.156398  0.500000  0.250000  1
  Cl  Cl6  1  0.820296  0.405457  0.115351  1
  Cl  Cl7  1  0.820296  0.594543  0.384649  1
  Cl  Cl8  1  0.302977  0.737195  0.414599  1
  Cl  Cl9  1  0.302977  0.262805  0.085401  1
  Cl  Cl10  1  0.697023  0.262805  0.585401  1
  Cl  Cl11  1  0.697023  0.737195  0.914599  1
  Cl  Cl12  1  0.026814  0.826018  0.637754  1
  Cl  Cl13  1  0.026814  0.173982  0.862246  1
  Cl  Cl14  1  0.973186  0.173982  0.362246  1
  Cl  Cl15  1  0.973186  0.826018  0.137754  1
  Cl  Cl16  1  0.522174  0.740349  0.655073  1
  Cl  Cl17  1  0.522174  0.259651  0.844927  1
  Cl  Cl18  1  0.477826  0.259651  0.344927  1
  Cl  Cl19  1  0.477826  0.740349  0.155073  1
  Cl  Cl20  1  0.179704  0.405457  0.615351  1
  Cl  Cl21  1  0.179704  0.594543  0.884649  1
