# generated using pymatgen
data_Ac2MgCuNi
_symmetry_space_group_name_H-M   'P 1'
_cell_length_a   8.00981219
_cell_length_b   8.00981104
_cell_length_c   4.04012300
_cell_angle_alpha   90.00000000
_cell_angle_beta   90.00000000
_cell_angle_gamma   89.22571415
_symmetry_Int_Tables_number   1
_chemical_formula_structural   Ac2MgCuNi
_chemical_formula_sum   'Ac4 Mg2 Cu2 Ni2'
_cell_volume   259.17883529
_cell_formula_units_Z   2
loop_
 _symmetry_equiv_pos_site_id
 _symmetry_equiv_pos_as_xyz
  1  'x, y, z'
loop_
 _atom_site_type_symbol
 _atom_site_label
 _atom_site_symmetry_multiplicity
 _atom_site_fract_x
 _atom_site_fract_y
 _atom_site_fract_z
 _atom_site_occupancy
  Ac  Ac0  1  0.668585  0.168585  0.500000  1
  Ac  Ac1  1  0.331415  0.831415  0.500000  1
  Ac  Ac2  1  0.184931  0.315069  0.500000  1
  Ac  Ac3  1  0.815069  0.684931  0.500000  1
  Mg  Mg4  1  0.000000  0.000000  0.000000  1
  Mg  Mg5  1  0.500000  0.500000  0.000000  1
  Cu  Cu6  1  0.117740  0.617740  0.000000  1
  Cu  Cu7  1  0.882260  0.382260  0.000000  1
  Ni  Ni8  1  0.615945  0.884055  0.000000  1
  Ni  Ni9  1  0.384055  0.115945  0.000000  1
