# generated using pymatgen
data_BaLuTi4N7
_symmetry_space_group_name_H-M   'P 1'
_cell_length_a   6.43062700
_cell_length_b   6.43062682
_cell_length_c   10.41870300
_cell_angle_alpha   90.00000000
_cell_angle_beta   90.00000000
_cell_angle_gamma   119.99998550
_symmetry_Int_Tables_number   1
_chemical_formula_structural   BaLuTi4N7
_chemical_formula_sum   'Ba2 Lu2 Ti8 N14'
_cell_volume   373.12210609
_cell_formula_units_Z   2
loop_
 _symmetry_equiv_pos_site_id
 _symmetry_equiv_pos_as_xyz
  1  'x, y, z'
loop_
 _atom_site_type_symbol
 _atom_site_label
 _atom_site_symmetry_multiplicity
 _atom_site_fract_x
 _atom_site_fract_y
 _atom_site_fract_z
 _atom_site_occupancy
  Ba  Ba0  1  0.666667  0.333333  0.581946  1
  Ba  Ba1  1  0.333333  0.666667  0.081946  1
  Lu  Lu2  1  0.666667  0.333333  0.948820  1
  Lu  Lu3  1  0.333333  0.666667  0.448820  1
  Ti  Ti4  1  0.169778  0.339555  0.763691  1
  Ti  Ti5  1  0.830222  0.169778  0.263691  1
  Ti  Ti6  1  0.339555  0.169778  0.263691  1
  Ti  Ti7  1  0.660445  0.830222  0.763691  1
  Ti  Ti8  1  0.169778  0.830222  0.763691  1
  Ti  Ti9  1  0.830222  0.660445  0.263691  1
  Ti  Ti10  1  0.000000  0.000000  0.023196  1
  Ti  Ti11  1  0.000000  0.000000  0.523196  1
  N  N12  1  0.000000  0.000000  0.829768  1
  N  N13  1  0.000000  0.000000  0.329768  1
  N  N14  1  0.838581  0.677163  0.081906  1
  N  N15  1  0.161419  0.838581  0.581906  1
  N  N16  1  0.677163  0.838581  0.581906  1
  N  N17  1  0.322837  0.161419  0.081906  1
  N  N18  1  0.838581  0.161419  0.081906  1
  N  N19  1  0.161419  0.322837  0.581906  1
  N  N20  1  0.496201  0.503799  0.817433  1
  N  N21  1  0.992403  0.496201  0.317433  1
  N  N22  1  0.503799  0.007597  0.317433  1
  N  N23  1  0.496201  0.992403  0.817433  1
  N  N24  1  0.503799  0.496201  0.317433  1
  N  N25  1  0.007597  0.503799  0.817433  1
