# generated using pymatgen
data_TaSe6BrF6
_symmetry_space_group_name_H-M   'P 1'
_cell_length_a   7.34875300
_cell_length_b   9.38085824
_cell_length_c   11.69343239
_cell_angle_alpha   61.66955608
_cell_angle_beta   90.00000000
_cell_angle_gamma   90.00000000
_symmetry_Int_Tables_number   1
_chemical_formula_structural   TaSe6BrF6
_chemical_formula_sum   'Ta2 Se12 Br2 F12'
_cell_volume   709.56484693
_cell_formula_units_Z   2
loop_
 _symmetry_equiv_pos_site_id
 _symmetry_equiv_pos_as_xyz
  1  'x, y, z'
loop_
 _atom_site_type_symbol
 _atom_site_label
 _atom_site_symmetry_multiplicity
 _atom_site_fract_x
 _atom_site_fract_y
 _atom_site_fract_z
 _atom_site_occupancy
  Ta  Ta0  1  0.000000  0.000000  0.000000  1
  Ta  Ta1  1  0.000000  0.000000  0.500000  1
  Se  Se2  1  0.737070  0.341863  0.617694  1
  Se  Se3  1  0.262930  0.658137  0.382306  1
  Se  Se4  1  0.245263  0.551901  0.894076  1
  Se  Se5  1  0.754737  0.448099  0.105924  1
  Se  Se6  1  0.433641  0.242872  0.618441  1
  Se  Se7  1  0.737070  0.658137  0.882306  1
  Se  Se8  1  0.566359  0.757128  0.381559  1
  Se  Se9  1  0.754737  0.551901  0.394076  1
  Se  Se10  1  0.245263  0.448099  0.605924  1
  Se  Se11  1  0.262930  0.341863  0.117694  1
  Se  Se12  1  0.566359  0.242872  0.118441  1
  Se  Se13  1  0.433641  0.757128  0.881559  1
  Br  Br14  1  0.719037  0.500000  0.750000  1
  Br  Br15  1  0.280963  0.500000  0.250000  1
  F  F16  1  0.102606  0.210458  0.885788  1
  F  F17  1  0.784531  0.945849  0.606922  1
  F  F18  1  0.215469  0.945849  0.106922  1
  F  F19  1  0.889635  0.088547  0.102047  1
  F  F20  1  0.897394  0.789542  0.114212  1
  F  F21  1  0.215469  0.054151  0.393078  1
  F  F22  1  0.897394  0.210458  0.385788  1
  F  F23  1  0.110365  0.911453  0.897953  1
  F  F24  1  0.110365  0.088547  0.602047  1
  F  F25  1  0.102606  0.789542  0.614212  1
  F  F26  1  0.889635  0.911453  0.397953  1
  F  F27  1  0.784531  0.054151  0.893078  1
