# generated using pymatgen
data_TbPr2Cd(Pt2O7)2
_symmetry_space_group_name_H-M   'P 1'
_cell_length_a   7.26841555
_cell_length_b   7.41633842
_cell_length_c   7.41633800
_cell_angle_alpha   60.23202817
_cell_angle_beta   59.40827446
_cell_angle_gamma   59.40827802
_symmetry_Int_Tables_number   1
_chemical_formula_structural   TbPr2Cd(Pt2O7)2
_chemical_formula_sum   'Tb1 Pr2 Cd1 Pt4 O14'
_cell_volume   280.60978506
_cell_formula_units_Z   1
loop_
 _symmetry_equiv_pos_site_id
 _symmetry_equiv_pos_as_xyz
  1  'x, y, z'
loop_
 _atom_site_type_symbol
 _atom_site_label
 _atom_site_symmetry_multiplicity
 _atom_site_fract_x
 _atom_site_fract_y
 _atom_site_fract_z
 _atom_site_occupancy
  Tb  Tb0  1  0.125000  0.125000  0.125000  1
  Pr  Pr1  1  0.125000  0.125000  0.625000  1
  Pr  Pr2  1  0.125000  0.625000  0.125000  1
  Cd  Cd3  1  0.625000  0.125000  0.125000  1
  Pt  Pt4  1  0.625000  0.625000  0.625000  1
  Pt  Pt5  1  0.125000  0.625000  0.625000  1
  Pt  Pt6  1  0.625000  0.125000  0.625000  1
  Pt  Pt7  1  0.625000  0.625000  0.125000  1
  O  O8  1  0.964876  0.537733  0.537733  1
  O  O9  1  0.284870  0.289411  0.719538  1
  O  O10  1  0.965130  0.530462  0.960589  1
  O  O11  1  0.714446  0.294614  0.294614  1
  O  O12  1  0.546251  0.544841  0.954790  1
  O  O13  1  0.546251  0.954790  0.544841  1
  O  O14  1  0.535554  0.955386  0.955386  1
  O  O15  1  0.256236  0.242617  0.242617  1
  O  O16  1  0.285124  0.712267  0.712267  1
  O  O17  1  0.703749  0.295210  0.705159  1
  O  O18  1  0.993764  0.007383  0.007383  1
  O  O19  1  0.965130  0.960589  0.530462  1
  O  O20  1  0.284870  0.719538  0.289411  1
  O  O21  1  0.703749  0.705159  0.295210  1
