# generated using pymatgen
data_Lu4MgSc(B2Ir5)2
_symmetry_space_group_name_H-M   'P 1'
_cell_length_a   3.13330100
_cell_length_b   9.67712400
_cell_length_c   9.67712400
_cell_angle_alpha   90.00000000
_cell_angle_beta   90.00000000
_cell_angle_gamma   90.00000000
_symmetry_Int_Tables_number   1
_chemical_formula_structural   Lu4MgSc(B2Ir5)2
_chemical_formula_sum   'Lu4 Mg1 Sc1 B4 Ir10'
_cell_volume   293.42338934
_cell_formula_units_Z   1
loop_
 _symmetry_equiv_pos_site_id
 _symmetry_equiv_pos_as_xyz
  1  'x, y, z'
loop_
 _atom_site_type_symbol
 _atom_site_label
 _atom_site_symmetry_multiplicity
 _atom_site_fract_x
 _atom_site_fract_y
 _atom_site_fract_z
 _atom_site_occupancy
  Lu  Lu0  1  0.000000  0.175236  0.678707  1
  Lu  Lu1  1  0.000000  0.824764  0.321293  1
  Lu  Lu2  1  0.000000  0.321293  0.175236  1
  Lu  Lu3  1  0.000000  0.678707  0.824764  1
  Mg  Mg4  1  0.000000  0.000000  0.000000  1
  Sc  Sc5  1  0.000000  0.500000  0.500000  1
  B  B6  1  0.000000  0.624236  0.120068  1
  B  B7  1  0.000000  0.375764  0.879932  1
  B  B8  1  0.000000  0.879932  0.624236  1
  B  B9  1  0.000000  0.120068  0.375764  1
  Ir  Ir10  1  0.500000  0.069905  0.222778  1
  Ir  Ir11  1  0.500000  0.930095  0.777222  1
  Ir  Ir12  1  0.500000  0.777222  0.069905  1
  Ir  Ir13  1  0.500000  0.431168  0.723901  1
  Ir  Ir14  1  0.500000  0.222778  0.930095  1
  Ir  Ir15  1  0.500000  0.568832  0.276099  1
  Ir  Ir16  1  0.500000  0.723901  0.568832  1
  Ir  Ir17  1  0.500000  0.276099  0.431168  1
  Ir  Ir18  1  0.500000  0.000000  0.500000  1
  Ir  Ir19  1  0.500000  0.500000  0.000000  1
