# generated using pymatgen
data_PrDySi6PRh12
_symmetry_space_group_name_H-M   'P 1'
_cell_length_a   9.78290852
_cell_length_b   9.75326622
_cell_length_c   3.87840201
_cell_angle_alpha   90.00096557
_cell_angle_beta   90.02510273
_cell_angle_gamma   120.18878556
_symmetry_Int_Tables_number   1
_chemical_formula_structural   PrDySi6PRh12
_chemical_formula_sum   'Pr1 Dy1 Si6 P1 Rh12'
_cell_volume   319.86899830
_cell_formula_units_Z   1
loop_
 _symmetry_equiv_pos_site_id
 _symmetry_equiv_pos_as_xyz
  1  'x, y, z'
loop_
 _atom_site_type_symbol
 _atom_site_label
 _atom_site_symmetry_multiplicity
 _atom_site_fract_x
 _atom_site_fract_y
 _atom_site_fract_z
 _atom_site_occupancy
  Pr  Pr0  1  0.332136  0.665814  0.747386  1
  Dy  Dy1  1  0.664711  0.332128  0.251401  1
  Si  Si2  1  0.000349  0.999684  0.504588  1
  Si  Si3  1  0.400072  0.289837  0.749650  1
  Si  Si4  1  0.708393  0.109248  0.750810  1
  Si  Si5  1  0.888364  0.598183  0.751220  1
  Si  Si6  1  0.604248  0.711490  0.249620  1
  Si  Si7  1  0.290128  0.892844  0.249227  1
  P  P8  1  0.108981  0.397704  0.246982  1
  Rh  Rh9  1  0.444050  0.065757  0.752373  1
  Rh  Rh10  1  0.932841  0.378235  0.752169  1
  Rh  Rh11  1  0.619918  0.555966  0.751689  1
  Rh  Rh12  1  0.559476  0.940974  0.247872  1
  Rh  Rh13  1  0.059767  0.613579  0.248057  1
  Rh  Rh14  1  0.379621  0.442277  0.247500  1
  Rh  Rh15  1  0.144109  0.265796  0.744464  1
  Rh  Rh16  1  0.740418  0.882266  0.745665  1
  Rh  Rh17  1  0.119494  0.855625  0.744713  1
  Rh  Rh18  1  0.859416  0.737069  0.255457  1
  Rh  Rh19  1  0.259313  0.119345  0.253406  1
  Rh  Rh20  1  0.884194  0.146179  0.255751  1
