# generated using pymatgen
data_Th(CoB)4
_symmetry_space_group_name_H-M   'P 1'
_cell_length_a   7.10463924
_cell_length_b   7.10311100
_cell_length_c   3.80166313
_cell_angle_alpha   90.00103529
_cell_angle_beta   89.97017023
_cell_angle_gamma   89.99706432
_symmetry_Int_Tables_number   1
_chemical_formula_structural   Th(CoB)4
_chemical_formula_sum   'Th2 Co8 B8'
_cell_volume   191.85106006
_cell_formula_units_Z   2
loop_
 _symmetry_equiv_pos_site_id
 _symmetry_equiv_pos_as_xyz
  1  'x, y, z'
loop_
 _atom_site_type_symbol
 _atom_site_label
 _atom_site_symmetry_multiplicity
 _atom_site_fract_x
 _atom_site_fract_y
 _atom_site_fract_z
 _atom_site_occupancy
  Th  Th0  1  0.249924  0.250142  0.249883  1
  Th  Th1  1  0.750049  0.749868  0.749949  1
  Co  Co2  1  0.395958  0.634507  0.145602  1
  Co  Co3  1  0.104077  0.865378  0.145513  1
  Co  Co4  1  0.634614  0.104319  0.354428  1
  Co  Co5  1  0.865428  0.395774  0.354501  1
  Co  Co6  1  0.134574  0.604087  0.645501  1
  Co  Co7  1  0.365398  0.895846  0.645568  1
  Co  Co8  1  0.895718  0.134625  0.854515  1
  Co  Co9  1  0.604258  0.365487  0.854425  1
  B  B10  1  0.044821  0.589150  0.147454  1
  B  B11  1  0.455097  0.910923  0.147333  1
  B  B12  1  0.910865  0.044932  0.352658  1
  B  B13  1  0.589192  0.454975  0.352552  1
  B  B14  1  0.410875  0.544897  0.647454  1
  B  B15  1  0.089100  0.955188  0.647392  1
  B  B16  1  0.544998  0.089124  0.852703  1
  B  B17  1  0.955048  0.410773  0.852570  1
