# generated using pymatgen
data_Hf16TiFePt6
_symmetry_space_group_name_H-M   'P 1'
_cell_length_a   8.83739732
_cell_length_b   8.83739894
_cell_length_c   8.83739800
_cell_angle_alpha   59.54539972
_cell_angle_beta   59.54540106
_cell_angle_gamma   59.54539761
_symmetry_Int_Tables_number   1
_chemical_formula_structural   Hf16TiFePt6
_chemical_formula_sum   'Hf16 Ti1 Fe1 Pt6'
_cell_volume   482.99878433
_cell_formula_units_Z   1
loop_
 _symmetry_equiv_pos_site_id
 _symmetry_equiv_pos_as_xyz
  1  'x, y, z'
loop_
 _atom_site_type_symbol
 _atom_site_label
 _atom_site_symmetry_multiplicity
 _atom_site_fract_x
 _atom_site_fract_y
 _atom_site_fract_z
 _atom_site_occupancy
  Hf  Hf0  1  0.127331  0.127331  0.127331  1
  Hf  Hf1  1  0.672147  0.103050  0.103050  1
  Hf  Hf2  1  0.103050  0.672147  0.103050  1
  Hf  Hf3  1  0.103050  0.103050  0.672147  1
  Hf  Hf4  1  0.683055  0.311465  0.683055  1
  Hf  Hf5  1  0.951445  0.552092  0.552092  1
  Hf  Hf6  1  0.569311  0.939425  0.939425  1
  Hf  Hf7  1  0.939425  0.569311  0.939425  1
  Hf  Hf8  1  0.552092  0.552092  0.951445  1
  Hf  Hf9  1  0.939425  0.939425  0.569311  1
  Hf  Hf10  1  0.683055  0.683055  0.311465  1
  Hf  Hf11  1  0.311465  0.683055  0.683055  1
  Hf  Hf12  1  0.671537  0.314068  0.314068  1
  Hf  Hf13  1  0.314068  0.314068  0.671537  1
  Hf  Hf14  1  0.552092  0.951445  0.552092  1
  Hf  Hf15  1  0.314068  0.671537  0.314068  1
  Ti  Ti16  1  0.330210  0.330210  0.330210  1
  Fe  Fe17  1  0.892092  0.892092  0.892092  1
  Pt  Pt18  1  0.302586  0.906777  0.906777  1
  Pt  Pt19  1  0.906777  0.302586  0.906777  1
  Pt  Pt20  1  0.906777  0.906777  0.302586  1
  Pt  Pt21  1  0.348844  0.977257  0.348844  1
  Pt  Pt22  1  0.348844  0.348844  0.977257  1
  Pt  Pt23  1  0.977257  0.348844  0.348844  1
