# generated using pymatgen
data_BaBiRhPb2
_symmetry_space_group_name_H-M   'P 1'
_cell_length_a   6.90362502
_cell_length_b   6.90362421
_cell_length_c   6.90362485
_cell_angle_alpha   136.73770864
_cell_angle_beta   136.73771116
_cell_angle_gamma   62.84185928
_symmetry_Int_Tables_number   1
_chemical_formula_structural   BaBiRhPb2
_chemical_formula_sum   'Ba1 Bi1 Rh1 Pb2'
_cell_volume   152.61778551
_cell_formula_units_Z   1
loop_
 _symmetry_equiv_pos_site_id
 _symmetry_equiv_pos_as_xyz
  1  'x, y, z'
loop_
 _atom_site_type_symbol
 _atom_site_label
 _atom_site_symmetry_multiplicity
 _atom_site_fract_x
 _atom_site_fract_y
 _atom_site_fract_z
 _atom_site_occupancy
  Ba  Ba0  1  0.007602  0.007602  0.000000  1
  Bi  Bi1  1  0.568008  0.568008  0.000000  1
  Rh  Rh2  1  0.339329  0.339329  0.000000  1
  Pb  Pb3  1  0.752986  0.252985  0.500001  1
  Pb  Pb4  1  0.252985  0.752986  0.500001  1
