# generated using pymatgen
data_Y4Ti5NbSn8
_symmetry_space_group_name_H-M   'P 1'
_cell_length_a   7.52919400
_cell_length_b   7.59606700
_cell_length_c   14.28541100
_cell_angle_alpha   90.00000000
_cell_angle_beta   90.00000000
_cell_angle_gamma   90.00000000
_symmetry_Int_Tables_number   1
_chemical_formula_structural   Y4Ti5NbSn8
_chemical_formula_sum   'Y8 Ti10 Nb2 Sn16'
_cell_volume   817.01496983
_cell_formula_units_Z   2
loop_
 _symmetry_equiv_pos_site_id
 _symmetry_equiv_pos_as_xyz
  1  'x, y, z'
loop_
 _atom_site_type_symbol
 _atom_site_label
 _atom_site_symmetry_multiplicity
 _atom_site_fract_x
 _atom_site_fract_y
 _atom_site_fract_z
 _atom_site_occupancy
  Y  Y0  1  0.514476  0.324969  0.906209  1
  Y  Y1  1  0.014476  0.175031  0.593791  1
  Y  Y2  1  0.485106  0.673557  0.407733  1
  Y  Y3  1  0.985106  0.826443  0.092267  1
  Y  Y4  1  0.485106  0.673557  0.092267  1
  Y  Y5  1  0.985106  0.826443  0.407733  1
  Y  Y6  1  0.514476  0.324969  0.593791  1
  Y  Y7  1  0.014476  0.175031  0.906209  1
  Ti  Ti8  1  0.348599  0.838803  0.870619  1
  Ti  Ti9  1  0.848599  0.661197  0.629381  1
  Ti  Ti10  1  0.651930  0.160316  0.370585  1
  Ti  Ti11  1  0.151930  0.339684  0.129415  1
  Ti  Ti12  1  0.651930  0.160316  0.129415  1
  Ti  Ti13  1  0.151930  0.339684  0.370585  1
  Ti  Ti14  1  0.348599  0.838803  0.629381  1
  Ti  Ti15  1  0.848599  0.661197  0.870619  1
  Ti  Ti16  1  0.828463  0.486920  0.250000  1
  Ti  Ti17  1  0.328463  0.013080  0.250000  1
  Nb  Nb18  1  0.170253  0.512497  0.750000  1
  Nb  Nb19  1  0.670253  0.987503  0.750000  1
  Sn  Sn20  1  0.317330  0.046550  0.044231  1
  Sn  Sn21  1  0.817330  0.453450  0.455769  1
  Sn  Sn22  1  0.683641  0.953431  0.544638  1
  Sn  Sn23  1  0.183641  0.546569  0.955362  1
  Sn  Sn24  1  0.683641  0.953431  0.955362  1
  Sn  Sn25  1  0.183641  0.546569  0.544638  1
  Sn  Sn26  1  0.317330  0.046550  0.455769  1
  Sn  Sn27  1  0.817330  0.453450  0.044231  1
  Sn  Sn28  1  0.542683  0.626558  0.750000  1
  Sn  Sn29  1  0.042683  0.873442  0.750000  1
  Sn  Sn30  1  0.458997  0.371468  0.250000  1
  Sn  Sn31  1  0.958997  0.128532  0.250000  1
  Sn  Sn32  1  0.318068  0.148468  0.750000  1
  Sn  Sn33  1  0.818068  0.351532  0.750000  1
  Sn  Sn34  1  0.679373  0.850706  0.250000  1
  Sn  Sn35  1  0.179373  0.649294  0.250000  1
