# generated using pymatgen
data_Tb3Pr(Ir2O7)2
_symmetry_space_group_name_H-M   'P 1'
_cell_length_a   7.33006938
_cell_length_b   7.28749557
_cell_length_c   7.28749600
_cell_angle_alpha   59.99999804
_cell_angle_beta   60.19194337
_cell_angle_gamma   60.19194534
_symmetry_Int_Tables_number   1
_chemical_formula_structural   Tb3Pr(Ir2O7)2
_chemical_formula_sum   'Tb3 Pr1 Ir4 O14'
_cell_volume   276.06009441
_cell_formula_units_Z   1
loop_
 _symmetry_equiv_pos_site_id
 _symmetry_equiv_pos_as_xyz
  1  'x, y, z'
loop_
 _atom_site_type_symbol
 _atom_site_label
 _atom_site_symmetry_multiplicity
 _atom_site_fract_x
 _atom_site_fract_y
 _atom_site_fract_z
 _atom_site_occupancy
  Tb  Tb0  1  0.125000  0.125000  0.625000  1
  Tb  Tb1  1  0.125000  0.125000  0.125000  1
  Tb  Tb2  1  0.125000  0.625000  0.125000  1
  Pr  Pr3  1  0.625000  0.125000  0.125000  1
  Ir  Ir4  1  0.625000  0.625000  0.625000  1
  Ir  Ir5  1  0.125000  0.625000  0.625000  1
  Ir  Ir6  1  0.625000  0.125000  0.625000  1
  Ir  Ir7  1  0.625000  0.625000  0.125000  1
  O  O8  1  0.960780  0.539528  0.539528  1
  O  O9  1  0.289220  0.289836  0.710472  1
  O  O10  1  0.960780  0.539528  0.960164  1
  O  O11  1  0.718279  0.289860  0.289860  1
  O  O12  1  0.531721  0.547999  0.960140  1
  O  O13  1  0.531721  0.960140  0.547999  1
  O  O14  1  0.531721  0.960140  0.960140  1
  O  O15  1  0.239592  0.253469  0.253469  1
  O  O16  1  0.289220  0.710472  0.710472  1
  O  O17  1  0.718279  0.289860  0.702001  1
  O  O18  1  0.010408  0.996531  0.996531  1
  O  O19  1  0.960780  0.960164  0.539528  1
  O  O20  1  0.289220  0.710472  0.289836  1
  O  O21  1  0.718279  0.702001  0.289860  1
