# generated using pymatgen
data_Yb3SmRu8
_symmetry_space_group_name_H-M   'P 1'
_cell_length_a   5.25967759
_cell_length_b   5.25967803
_cell_length_c   8.87315506
_cell_angle_alpha   89.98856756
_cell_angle_beta   90.01143480
_cell_angle_gamma   119.99693188
_symmetry_Int_Tables_number   1
_chemical_formula_structural   Yb3SmRu8
_chemical_formula_sum   'Yb3 Sm1 Ru8'
_cell_volume   212.58880940
_cell_formula_units_Z   1
loop_
 _symmetry_equiv_pos_site_id
 _symmetry_equiv_pos_as_xyz
  1  'x, y, z'
loop_
 _atom_site_type_symbol
 _atom_site_label
 _atom_site_symmetry_multiplicity
 _atom_site_fract_x
 _atom_site_fract_y
 _atom_site_fract_z
 _atom_site_occupancy
  Yb  Yb0  1  0.333315  0.666685  0.429442  1
  Yb  Yb1  1  0.333330  0.666670  0.065771  1
  Yb  Yb2  1  0.666647  0.333353  0.938464  1
  Sm  Sm3  1  0.666635  0.333365  0.567034  1
  Ru  Ru4  1  0.999888  0.000112  0.499522  1
  Ru  Ru5  1  0.999936  0.000064  0.998336  1
  Ru  Ru6  1  0.172063  0.344064  0.752127  1
  Ru  Ru7  1  0.172178  0.827822  0.752100  1
  Ru  Ru8  1  0.655936  0.827937  0.752127  1
  Ru  Ru9  1  0.828960  0.657728  0.248360  1
  Ru  Ru10  1  0.828840  0.171160  0.248356  1
  Ru  Ru11  1  0.342272  0.171040  0.248360  1
