# generated using pymatgen
data_Ho4LuP12Ru19
_symmetry_space_group_name_H-M   'P 1'
_cell_length_a   12.52102903
_cell_length_b   12.52102883
_cell_length_c   3.97344600
_cell_angle_alpha   90.00000000
_cell_angle_beta   90.00000000
_cell_angle_gamma   119.99204262
_symmetry_Int_Tables_number   1
_chemical_formula_structural   Ho4LuP12Ru19
_chemical_formula_sum   'Ho4 Lu1 P12 Ru19'
_cell_volume   539.52652729
_cell_formula_units_Z   1
loop_
 _symmetry_equiv_pos_site_id
 _symmetry_equiv_pos_as_xyz
  1  'x, y, z'
loop_
 _atom_site_type_symbol
 _atom_site_label
 _atom_site_symmetry_multiplicity
 _atom_site_fract_x
 _atom_site_fract_y
 _atom_site_fract_z
 _atom_site_occupancy
  Ho  Ho0  1  0.816915  0.000007  0.500000  1
  Ho  Ho1  1  0.000007  0.816915  0.500000  1
  Ho  Ho2  1  0.333291  0.666617  0.000000  1
  Ho  Ho3  1  0.666617  0.333291  0.000000  1
  Lu  Lu4  1  0.182933  0.182933  0.500000  1
  P  P5  1  0.183997  0.000290  0.000000  1
  P  P6  1  0.000290  0.183997  0.000000  1
  P  P7  1  0.816173  0.816173  0.000000  1
  P  P8  1  0.522039  0.693532  0.500000  1
  P  P9  1  0.306370  0.828595  0.500000  1
  P  P10  1  0.171497  0.477909  0.500000  1
  P  P11  1  0.477909  0.171497  0.500000  1
  P  P12  1  0.693532  0.522039  0.500000  1
  P  P13  1  0.828595  0.306370  0.500000  1
  P  P14  1  0.627566  0.000005  0.000000  1
  P  P15  1  0.000005  0.627566  0.000000  1
  P  P16  1  0.372252  0.372252  0.000000  1
  Ru  Ru17  1  0.445366  0.000030  0.000000  1
  Ru  Ru18  1  0.000030  0.445366  0.000000  1
  Ru  Ru19  1  0.554540  0.554540  0.000000  1
  Ru  Ru20  1  0.282574  0.000317  0.500000  1
  Ru  Ru21  1  0.000317  0.282574  0.500000  1
  Ru  Ru22  1  0.717219  0.717219  0.500000  1
  Ru  Ru23  1  0.623233  0.808096  0.000000  1
  Ru  Ru24  1  0.191929  0.815200  0.000000  1
  Ru  Ru25  1  0.184987  0.376027  0.000000  1
  Ru  Ru26  1  0.376027  0.184987  0.000000  1
  Ru  Ru27  1  0.808096  0.623233  0.000000  1
  Ru  Ru28  1  0.815200  0.191929  0.000000  1
  Ru  Ru29  1  0.507911  0.873883  0.500000  1
  Ru  Ru30  1  0.126107  0.634067  0.500000  1
  Ru  Ru31  1  0.365806  0.491909  0.500000  1
  Ru  Ru32  1  0.491909  0.365806  0.500000  1
  Ru  Ru33  1  0.873883  0.507911  0.500000  1
  Ru  Ru34  1  0.634067  0.126107  0.500000  1
  Ru  Ru35  1  0.000809  0.000809  0.000000  1
