# generated using pymatgen
data_Zr10Ga5BiO
_symmetry_space_group_name_H-M   'P 1'
_cell_length_a   8.21629640
_cell_length_b   8.20552516
_cell_length_c   5.74138242
_cell_angle_alpha   90.28024901
_cell_angle_beta   89.86006284
_cell_angle_gamma   119.95663963
_symmetry_Int_Tables_number   1
_chemical_formula_structural   Zr10Ga5BiO
_chemical_formula_sum   'Zr10 Ga5 Bi1 O1'
_cell_volume   335.36210004
_cell_formula_units_Z   1
loop_
 _symmetry_equiv_pos_site_id
 _symmetry_equiv_pos_as_xyz
  1  'x, y, z'
loop_
 _atom_site_type_symbol
 _atom_site_label
 _atom_site_symmetry_multiplicity
 _atom_site_fract_x
 _atom_site_fract_y
 _atom_site_fract_z
 _atom_site_occupancy
  Zr  Zr0  1  0.000000  0.772930  0.255154  1
  Zr  Zr1  1  0.246452  0.234811  0.254610  1
  Zr  Zr2  1  0.753548  0.988359  0.254610  1
  Zr  Zr3  1  0.000000  0.233019  0.742163  1
  Zr  Zr4  1  0.761410  0.760432  0.748320  1
  Zr  Zr5  1  0.238590  0.999022  0.748320  1
  Zr  Zr6  1  0.348083  0.675425  0.504016  1
  Zr  Zr7  1  0.651917  0.327340  0.504016  1
  Zr  Zr8  1  0.652162  0.328731  0.995466  1
  Zr  Zr9  1  0.347838  0.676571  0.995466  1
  Ga  Ga10  1  0.605573  0.601565  0.246061  1
  Ga  Ga11  1  0.394427  0.995992  0.246061  1
  Ga  Ga12  1  0.000000  0.605047  0.751967  1
  Ga  Ga13  1  0.390881  0.395359  0.754307  1
  Ga  Ga14  1  0.609119  0.004479  0.754307  1
  Bi  Bi15  1  0.000000  0.399588  0.244711  1
  O  O16  1  0.000000  0.001330  0.500445  1
