# generated using pymatgen
data_Ho3NbZn2Ru3
_symmetry_space_group_name_H-M   'P 1'
_cell_length_a   7.01998783
_cell_length_b   6.89576492
_cell_length_c   4.12965200
_cell_angle_alpha   90.00000000
_cell_angle_beta   90.00000000
_cell_angle_gamma   119.41633161
_symmetry_Int_Tables_number   1
_chemical_formula_structural   Ho3NbZn2Ru3
_chemical_formula_sum   'Ho3 Nb1 Zn2 Ru3'
_cell_volume   174.13546820
_cell_formula_units_Z   1
loop_
 _symmetry_equiv_pos_site_id
 _symmetry_equiv_pos_as_xyz
  1  'x, y, z'
loop_
 _atom_site_type_symbol
 _atom_site_label
 _atom_site_symmetry_multiplicity
 _atom_site_fract_x
 _atom_site_fract_y
 _atom_site_fract_z
 _atom_site_occupancy
  Ho  Ho0  1  0.570941  0.579513  0.000000  1
  Ho  Ho1  1  0.429059  0.008573  0.000000  1
  Ho  Ho2  1  0.000000  0.402302  0.000000  1
  Nb  Nb3  1  0.000000  0.759190  0.500000  1
  Zn  Zn4  1  0.245758  0.244532  0.500000  1
  Zn  Zn5  1  0.754242  0.998773  0.500000  1
  Ru  Ru6  1  0.000000  0.977090  0.000000  1
  Ru  Ru7  1  0.675931  0.352978  0.500000  1
  Ru  Ru8  1  0.324069  0.677048  0.500000  1
