# generated using pymatgen
data_Ho10Er2Co4BiIr
_symmetry_space_group_name_H-M   'P 1'
_cell_length_a   8.26650725
_cell_length_b   8.27218282
_cell_length_c   8.26650595
_cell_angle_alpha   110.67654120
_cell_angle_beta   111.20175315
_cell_angle_gamma   106.54790582
_symmetry_Int_Tables_number   1
_chemical_formula_structural   Ho10Er2Co4BiIr
_chemical_formula_sum   'Ho10 Er2 Co4 Bi1 Ir1'
_cell_volume   434.44759747
_cell_formula_units_Z   1
loop_
 _symmetry_equiv_pos_site_id
 _symmetry_equiv_pos_as_xyz
  1  'x, y, z'
loop_
 _atom_site_type_symbol
 _atom_site_label
 _atom_site_symmetry_multiplicity
 _atom_site_fract_x
 _atom_site_fract_y
 _atom_site_fract_z
 _atom_site_occupancy
  Ho  Ho0  1  0.285681  0.182433  0.468600  1
  Ho  Ho1  1  0.714319  0.817567  0.531400  1
  Ho  Ho2  1  0.286167  0.817567  0.103247  1
  Ho  Ho3  1  0.713833  0.182433  0.896753  1
  Ho  Ho4  1  0.620682  0.311601  0.308120  1
  Ho  Ho5  1  0.379318  0.688399  0.691880  1
  Ho  Ho6  1  0.003482  0.311601  0.690920  1
  Ho  Ho7  1  0.996518  0.688399  0.309080  1
  Ho  Ho8  1  0.211871  0.409110  0.197239  1
  Ho  Ho9  1  0.788129  0.590890  0.802761  1
  Er  Er10  1  0.211738  0.014280  0.802543  1
  Er  Er11  1  0.788262  0.985720  0.197457  1
  Co  Co12  1  0.999641  0.375411  0.375770  1
  Co  Co13  1  0.000359  0.624589  0.624230  1
  Co  Co14  1  0.388692  0.889263  0.500572  1
  Co  Co15  1  0.611308  0.110737  0.499428  1
  Bi  Bi16  1  0.500000  0.500000  0.000000  1
  Ir  Ir17  1  0.000000  0.000000  0.000000  1
