# generated using pymatgen
data_LaNdAl20(IrRu)2
_symmetry_space_group_name_H-M   'P 1'
_cell_length_a   6.88786704
_cell_length_b   6.89049613
_cell_length_c   9.21738900
_cell_angle_alpha   90.00000000
_cell_angle_beta   90.00000000
_cell_angle_gamma   97.08945902
_symmetry_Int_Tables_number   1
_chemical_formula_structural   LaNdAl20(IrRu)2
_chemical_formula_sum   'La1 Nd1 Al20 Ir2 Ru2'
_cell_volume   434.12028387
_cell_formula_units_Z   1
loop_
 _symmetry_equiv_pos_site_id
 _symmetry_equiv_pos_as_xyz
  1  'x, y, z'
loop_
 _atom_site_type_symbol
 _atom_site_label
 _atom_site_symmetry_multiplicity
 _atom_site_fract_x
 _atom_site_fract_y
 _atom_site_fract_z
 _atom_site_occupancy
  La  La0  1  0.126131  0.876890  0.250000  1
  Nd  Nd1  1  0.872364  0.124315  0.750000  1
  Al  Al2  1  0.620381  0.375881  0.551533  1
  Al  Al3  1  0.380285  0.623515  0.449271  1
  Al  Al4  1  0.380285  0.623515  0.050729  1
  Al  Al5  1  0.620381  0.375881  0.948467  1
  Al  Al6  1  0.225946  0.223193  0.500116  1
  Al  Al7  1  0.773713  0.777073  0.501988  1
  Al  Al8  1  0.773713  0.777073  0.998012  1
  Al  Al9  1  0.225946  0.223193  0.999884  1
  Al  Al10  1  0.838983  0.159425  0.102632  1
  Al  Al11  1  0.160067  0.841889  0.896276  1
  Al  Al12  1  0.160067  0.841889  0.603724  1
  Al  Al13  1  0.838983  0.159425  0.397368  1
  Al  Al14  1  0.856979  0.590024  0.750000  1
  Al  Al15  1  0.142939  0.407556  0.250000  1
  Al  Al16  1  0.411940  0.141167  0.750000  1
  Al  Al17  1  0.590143  0.858669  0.250000  1
  Al  Al18  1  0.224109  0.482031  0.750000  1
  Al  Al19  1  0.774861  0.517124  0.250000  1
  Al  Al20  1  0.517265  0.777906  0.750000  1
  Al  Al21  1  0.483453  0.222807  0.250000  1
  Ir  Ir22  1  0.000355  0.500014  0.500647  1
  Ir  Ir23  1  0.000355  0.500014  0.999353  1
  Ru  Ru24  1  0.500179  0.999765  0.999354  1
  Ru  Ru25  1  0.500179  0.999765  0.500646  1
