# generated using pymatgen
data_YHo4Pa(Al3Os)8
_symmetry_space_group_name_H-M   'P 1'
_cell_length_a   8.79741500
_cell_length_b   8.83694891
_cell_length_c   9.56180900
_cell_angle_alpha   90.00000000
_cell_angle_beta   90.00000000
_cell_angle_gamma   119.85211730
_symmetry_Int_Tables_number   1
_chemical_formula_structural   YHo4Pa(Al3Os)8
_chemical_formula_sum   'Y1 Ho4 Pa1 Al24 Os8'
_cell_volume   644.72329534
_cell_formula_units_Z   1
loop_
 _symmetry_equiv_pos_site_id
 _symmetry_equiv_pos_as_xyz
  1  'x, y, z'
loop_
 _atom_site_type_symbol
 _atom_site_label
 _atom_site_symmetry_multiplicity
 _atom_site_fract_x
 _atom_site_fract_y
 _atom_site_fract_z
 _atom_site_occupancy
  Y  Y0  1  0.808046  0.616092  0.750000  1
  Ho  Ho1  1  0.609956  0.802746  0.250000  1
  Ho  Ho2  1  0.388448  0.192076  0.750000  1
  Ho  Ho3  1  0.192790  0.802746  0.250000  1
  Ho  Ho4  1  0.803627  0.192076  0.750000  1
  Pa  Pa5  1  0.196936  0.393870  0.250000  1
  Al  Al6  1  0.336429  0.672859  0.019006  1
  Al  Al7  1  0.667677  0.335351  0.980250  1
  Al  Al8  1  0.667677  0.335351  0.519750  1
  Al  Al9  1  0.336429  0.672859  0.480994  1
  Al  Al10  1  0.163077  0.326155  0.577348  1
  Al  Al11  1  0.836619  0.673237  0.424636  1
  Al  Al12  1  0.672323  0.835408  0.574730  1
  Al  Al13  1  0.836619  0.673237  0.075364  1
  Al  Al14  1  0.326362  0.162177  0.423705  1
  Al  Al15  1  0.163077  0.326155  0.922652  1
  Al  Al16  1  0.163084  0.835408  0.574730  1
  Al  Al17  1  0.326362  0.162177  0.076295  1
  Al  Al18  1  0.835814  0.162177  0.423705  1
  Al  Al19  1  0.672323  0.835408  0.925270  1
  Al  Al20  1  0.835814  0.162177  0.076295  1
  Al  Al21  1  0.163084  0.835408  0.925270  1
  Al  Al22  1  0.559878  0.119756  0.250000  1
  Al  Al23  1  0.437790  0.875580  0.750000  1
  Al  Al24  1  0.872822  0.437434  0.250000  1
  Al  Al25  1  0.120507  0.559421  0.750000  1
  Al  Al26  1  0.564611  0.437434  0.250000  1
  Al  Al27  1  0.438915  0.559421  0.750000  1
  Al  Al28  1  0.001304  0.002608  0.250000  1
  Al  Al29  1  0.000923  0.001847  0.750000  1
  Os  Os30  1  0.501687  0.003373  0.997818  1
  Os  Os31  1  0.003360  0.499419  0.004856  1
  Os  Os32  1  0.501687  0.003373  0.502182  1
  Os  Os33  1  0.496059  0.499419  0.004856  1
  Os  Os34  1  0.003360  0.499419  0.495144  1
  Os  Os35  1  0.496059  0.499419  0.495144  1
  Os  Os36  1  0.999232  0.998465  0.999276  1
  Os  Os37  1  0.999232  0.998465  0.500724  1
