# generated using pymatgen
data_Ba2Cd3InPt2
_symmetry_space_group_name_H-M   'P 1'
_cell_length_a   6.15531126
_cell_length_b   6.15531085
_cell_length_c   8.48505849
_cell_angle_alpha   89.93768295
_cell_angle_beta   90.06231656
_cell_angle_gamma   137.33301133
_symmetry_Int_Tables_number   1
_chemical_formula_structural   Ba2Cd3InPt2
_chemical_formula_sum   'Ba2 Cd3 In1 Pt2'
_cell_volume   217.87890964
_cell_formula_units_Z   1
loop_
 _symmetry_equiv_pos_site_id
 _symmetry_equiv_pos_as_xyz
  1  'x, y, z'
loop_
 _atom_site_type_symbol
 _atom_site_label
 _atom_site_symmetry_multiplicity
 _atom_site_fract_x
 _atom_site_fract_y
 _atom_site_fract_z
 _atom_site_occupancy
  Ba  Ba0  1  0.442419  0.557581  0.748929  1
  Ba  Ba1  1  0.557785  0.442215  0.252356  1
  Cd  Cd2  1  0.158610  0.841390  0.942669  1
  Cd  Cd3  1  0.838069  0.161931  0.446995  1
  Cd  Cd4  1  0.161216  0.838784  0.555573  1
  In  In5  1  0.837926  0.162074  0.055862  1
  Pt  Pt6  1  0.723122  0.276878  0.753505  1
  Pt  Pt7  1  0.280854  0.719146  0.244111  1
