# generated using pymatgen
data_Y3Tm2Cr3(Ni4As3)4
_symmetry_space_group_name_H-M   'P 1'
_cell_length_a   12.57570900
_cell_length_b   12.57570885
_cell_length_c   3.86539800
_cell_angle_alpha   90.00000000
_cell_angle_beta   90.00000000
_cell_angle_gamma   120.00000303
_symmetry_Int_Tables_number   1
_chemical_formula_structural   Y3Tm2Cr3(Ni4As3)4
_chemical_formula_sum   'Y3 Tm2 Cr3 Ni16 As12'
_cell_volume   529.40713408
_cell_formula_units_Z   1
loop_
 _symmetry_equiv_pos_site_id
 _symmetry_equiv_pos_as_xyz
  1  'x, y, z'
loop_
 _atom_site_type_symbol
 _atom_site_label
 _atom_site_symmetry_multiplicity
 _atom_site_fract_x
 _atom_site_fract_y
 _atom_site_fract_z
 _atom_site_occupancy
  Y  Y0  1  0.186910  0.186910  0.500000  1
  Y  Y1  1  0.813090  0.000000  0.500000  1
  Y  Y2  1  0.000000  0.813090  0.500000  1
  Tm  Tm3  1  0.333333  0.666667  0.000000  1
  Tm  Tm4  1  0.666667  0.333333  0.000000  1
  Cr  Cr5  1  0.561247  0.561247  0.000000  1
  Cr  Cr6  1  0.438753  0.000000  0.000000  1
  Cr  Cr7  1  0.000000  0.438753  0.000000  1
  Ni  Ni8  1  0.716604  0.716604  0.500000  1
  Ni  Ni9  1  0.283396  0.000000  0.500000  1
  Ni  Ni10  1  0.000000  0.283396  0.500000  1
  Ni  Ni11  1  0.183778  0.380097  0.000000  1
  Ni  Ni12  1  0.619903  0.803682  0.000000  1
  Ni  Ni13  1  0.196318  0.816222  0.000000  1
  Ni  Ni14  1  0.803682  0.619903  0.000000  1
  Ni  Ni15  1  0.816222  0.196318  0.000000  1
  Ni  Ni16  1  0.380097  0.183778  0.000000  1
  Ni  Ni17  1  0.359714  0.483335  0.500000  1
  Ni  Ni18  1  0.516665  0.876380  0.500000  1
  Ni  Ni19  1  0.123620  0.640286  0.500000  1
  Ni  Ni20  1  0.876380  0.516665  0.500000  1
  Ni  Ni21  1  0.640286  0.123620  0.500000  1
  Ni  Ni22  1  0.483335  0.359714  0.500000  1
  Ni  Ni23  1  0.000000  0.000000  0.000000  1
  As  As24  1  0.820574  0.820574  0.000000  1
  As  As25  1  0.179426  0.000000  0.000000  1
  As  As26  1  0.000000  0.179426  0.000000  1
  As  As27  1  0.167632  0.481573  0.500000  1
  As  As28  1  0.518427  0.686059  0.500000  1
  As  As29  1  0.313941  0.832368  0.500000  1
  As  As30  1  0.686059  0.518427  0.500000  1
  As  As31  1  0.832368  0.313941  0.500000  1
  As  As32  1  0.481573  0.167632  0.500000  1
  As  As33  1  0.364491  0.364491  0.000000  1
  As  As34  1  0.635509  0.000000  0.000000  1
  As  As35  1  0.000000  0.635509  0.000000  1
