# generated using pymatgen
data_Sm3Y3NiI10
_symmetry_space_group_name_H-M   'P 1'
_cell_length_a   7.76027885
_cell_length_b   9.78668625
_cell_length_c   9.82574209
_cell_angle_alpha   107.29498000
_cell_angle_beta   96.65433481
_cell_angle_gamma   104.76018528
_symmetry_Int_Tables_number   1
_chemical_formula_structural   Sm3Y3NiI10
_chemical_formula_sum   'Sm3 Y3 Ni1 I10'
_cell_volume   673.98558978
_cell_formula_units_Z   1
loop_
 _symmetry_equiv_pos_site_id
 _symmetry_equiv_pos_as_xyz
  1  'x, y, z'
loop_
 _atom_site_type_symbol
 _atom_site_label
 _atom_site_symmetry_multiplicity
 _atom_site_fract_x
 _atom_site_fract_y
 _atom_site_fract_z
 _atom_site_occupancy
  Sm  Sm0  1  0.886218  0.959413  0.239016  1
  Sm  Sm1  1  0.114993  0.040719  0.761407  1
  Sm  Sm2  1  0.030208  0.716496  0.914596  1
  Y  Y3  1  0.969304  0.278832  0.084195  1
  Y  Y4  1  0.658965  0.880238  0.839563  1
  Y  Y5  1  0.340836  0.121797  0.160700  1
  Ni  Ni6  1  0.000106  0.999644  0.999903  1
  I  I7  1  0.642256  0.551711  0.727830  1
  I  I8  1  0.349157  0.448490  0.269870  1
  I  I9  1  0.736544  0.911659  0.540914  1
  I  I10  1  0.264865  0.089081  0.458893  1
  I  I11  1  0.083565  0.370904  0.822233  1
  I  I12  1  0.914695  0.624294  0.181485  1
  I  I13  1  0.454052  0.818397  0.091812  1
  I  I14  1  0.549911  0.184721  0.910850  1
  I  I15  1  0.231759  0.744152  0.654705  1
  I  I16  1  0.772567  0.259452  0.342029  1
