# generated using pymatgen
data_Nd4P7Ir8
_symmetry_space_group_name_H-M   'P 1'
_cell_length_a   3.99552600
_cell_length_b   12.85163071
_cell_length_c   13.26248171
_cell_angle_alpha   80.83955634
_cell_angle_beta   90.00000000
_cell_angle_gamma   90.00000000
_symmetry_Int_Tables_number   1
_chemical_formula_structural   Nd4P7Ir8
_chemical_formula_sum   'Nd8 P14 Ir16'
_cell_volume   672.33010728
_cell_formula_units_Z   2
loop_
 _symmetry_equiv_pos_site_id
 _symmetry_equiv_pos_as_xyz
  1  'x, y, z'
loop_
 _atom_site_type_symbol
 _atom_site_label
 _atom_site_symmetry_multiplicity
 _atom_site_fract_x
 _atom_site_fract_y
 _atom_site_fract_z
 _atom_site_occupancy
  Nd  Nd0  1  0.750000  0.790366  0.561460  1
  Nd  Nd1  1  0.250000  0.209634  0.438540  1
  Nd  Nd2  1  0.750000  0.481237  0.706404  1
  Nd  Nd3  1  0.250000  0.518763  0.293596  1
  Nd  Nd4  1  0.750000  0.719632  0.896954  1
  Nd  Nd5  1  0.250000  0.102898  0.789883  1
  Nd  Nd6  1  0.750000  0.897102  0.210117  1
  Nd  Nd7  1  0.250000  0.280368  0.103046  1
  P  P8  1  0.250000  0.908925  0.410013  1
  P  P9  1  0.750000  0.473445  0.127827  1
  P  P10  1  0.250000  0.526555  0.872173  1
  P  P11  1  0.750000  0.091075  0.589987  1
  P  P12  1  0.250000  0.741630  0.080883  1
  P  P13  1  0.750000  0.258370  0.919117  1
  P  P14  1  0.750000  0.155901  0.281615  1
  P  P15  1  0.250000  0.844099  0.718385  1
  P  P16  1  0.250000  0.052532  0.098624  1
  P  P17  1  0.750000  0.947468  0.901376  1
  P  P18  1  0.250000  0.312894  0.688734  1
  P  P19  1  0.750000  0.687106  0.311266  1
  P  P20  1  0.250000  0.607117  0.563035  1
  P  P21  1  0.750000  0.392883  0.436965  1
  Ir  Ir22  1  0.250000  0.989372  0.576707  1
  Ir  Ir23  1  0.750000  0.010628  0.423293  1
  Ir  Ir24  1  0.250000  0.662882  0.731126  1
  Ir  Ir25  1  0.750000  0.337118  0.268874  1
  Ir  Ir26  1  0.250000  0.552768  0.046427  1
  Ir  Ir27  1  0.750000  0.447232  0.953573  1
  Ir  Ir28  1  0.250000  0.061507  0.272001  1
  Ir  Ir29  1  0.750000  0.938493  0.727999  1
  Ir  Ir30  1  0.250000  0.422929  0.527106  1
  Ir  Ir31  1  0.750000  0.577071  0.472894  1
  Ir  Ir32  1  0.250000  0.915098  0.998161  1
  Ir  Ir33  1  0.750000  0.084902  0.001839  1
  Ir  Ir34  1  0.250000  0.729426  0.393862  1
  Ir  Ir35  1  0.750000  0.270574  0.606138  1
  Ir  Ir36  1  0.250000  0.341471  0.858978  1
  Ir  Ir37  1  0.750000  0.658529  0.141022  1
