# generated using pymatgen
data_Tb16MgTl2HgRu3Pt
_symmetry_space_group_name_H-M   'P 1'
_cell_length_a   9.67618780
_cell_length_b   9.68012459
_cell_length_c   9.68012600
_cell_angle_alpha   59.61047753
_cell_angle_beta   59.74342346
_cell_angle_gamma   59.74343445
_symmetry_Int_Tables_number   1
_chemical_formula_structural   Tb16MgTl2HgRu3Pt
_chemical_formula_sum   'Tb16 Mg1 Tl2 Hg1 Ru3 Pt1'
_cell_volume   636.75332596
_cell_formula_units_Z   1
loop_
 _symmetry_equiv_pos_site_id
 _symmetry_equiv_pos_as_xyz
  1  'x, y, z'
loop_
 _atom_site_type_symbol
 _atom_site_label
 _atom_site_symmetry_multiplicity
 _atom_site_fract_x
 _atom_site_fract_y
 _atom_site_fract_z
 _atom_site_occupancy
  Tb  Tb0  1  0.595581  0.597843  0.598022  1
  Tb  Tb1  1  0.603561  0.599913  0.204825  1
  Tb  Tb2  1  0.604371  0.204372  0.599376  1
  Tb  Tb3  1  0.194418  0.604387  0.603925  1
  Tb  Tb4  1  0.051651  0.442574  0.442485  1
  Tb  Tb5  1  0.434880  0.061124  0.061988  1
  Tb  Tb6  1  0.437780  0.056126  0.439089  1
  Tb  Tb7  1  0.057094  0.439385  0.058765  1
  Tb  Tb8  1  0.436397  0.438782  0.057118  1
  Tb  Tb9  1  0.056370  0.057663  0.439675  1
  Tb  Tb10  1  0.190534  0.811172  0.810446  1
  Tb  Tb11  1  0.811958  0.193321  0.185339  1
  Tb  Tb12  1  0.809990  0.194326  0.811060  1
  Tb  Tb13  1  0.191659  0.812514  0.186497  1
  Tb  Tb14  1  0.809892  0.811894  0.190589  1
  Tb  Tb15  1  0.189698  0.189032  0.812769  1
  Mg  Mg16  1  0.529545  0.819437  0.824059  1
  Tl  Tl17  1  0.833646  0.833964  0.835973  1
  Tl  Tl18  1  0.832233  0.834789  0.495300  1
  Hg  Hg19  1  0.831307  0.490956  0.838337  1
  Ru  Ru20  1  0.389441  0.392044  0.827920  1
  Ru  Ru21  1  0.389426  0.828956  0.391617  1
  Ru  Ru22  1  0.828835  0.392165  0.391597  1
  Pt  Pt23  1  0.389731  0.393258  0.393228  1
