# generated using pymatgen
data_YHoMn17
_symmetry_space_group_name_H-M   'P 1'
_cell_length_a   6.33013083
_cell_length_b   6.33013069
_cell_length_c   6.33012971
_cell_angle_alpha   86.24826104
_cell_angle_beta   86.24826207
_cell_angle_gamma   86.24825270
_symmetry_Int_Tables_number   1
_chemical_formula_structural   YHoMn17
_chemical_formula_sum   'Y1 Ho1 Mn17'
_cell_volume   252.08903158
_cell_formula_units_Z   1
loop_
 _symmetry_equiv_pos_site_id
 _symmetry_equiv_pos_as_xyz
  1  'x, y, z'
loop_
 _atom_site_type_symbol
 _atom_site_label
 _atom_site_symmetry_multiplicity
 _atom_site_fract_x
 _atom_site_fract_y
 _atom_site_fract_z
 _atom_site_occupancy
  Y  Y0  1  0.644495  0.644495  0.644495  1
  Ho  Ho1  1  0.354584  0.354584  0.354584  1
  Mn  Mn2  1  0.354012  0.354012  0.876955  1
  Mn  Mn3  1  0.876955  0.354012  0.354012  1
  Mn  Mn4  1  0.354012  0.876955  0.354012  1
  Mn  Mn5  1  0.645447  0.645447  0.123708  1
  Mn  Mn6  1  0.123708  0.645447  0.645447  1
  Mn  Mn7  1  0.645447  0.123708  0.645447  1
  Mn  Mn8  1  0.724562  0.275471  0.000239  1
  Mn  Mn9  1  0.000239  0.724562  0.275471  1
  Mn  Mn10  1  0.275471  0.000239  0.724562  1
  Mn  Mn11  1  0.000239  0.275471  0.724562  1
  Mn  Mn12  1  0.724562  0.000239  0.275471  1
  Mn  Mn13  1  0.275471  0.724562  0.000239  1
  Mn  Mn14  1  0.000314  0.000314  0.499842  1
  Mn  Mn15  1  0.499842  0.000314  0.000314  1
  Mn  Mn16  1  0.000314  0.499842  0.000314  1
  Mn  Mn17  1  0.901337  0.901337  0.901337  1
  Mn  Mn18  1  0.098989  0.098989  0.098989  1
