# generated using pymatgen
data_TmTh4(SiB4)2
_symmetry_space_group_name_H-M   'P 1'
_cell_length_a   7.41567300
_cell_length_b   7.41567300
_cell_length_c   8.33442400
_cell_angle_alpha   90.00000000
_cell_angle_beta   90.00000000
_cell_angle_gamma   90.00000000
_symmetry_Int_Tables_number   1
_chemical_formula_structural   TmTh4(SiB4)2
_chemical_formula_sum   'Tm2 Th8 Si4 B16'
_cell_volume   458.32836186
_cell_formula_units_Z   2
loop_
 _symmetry_equiv_pos_site_id
 _symmetry_equiv_pos_as_xyz
  1  'x, y, z'
loop_
 _atom_site_type_symbol
 _atom_site_label
 _atom_site_symmetry_multiplicity
 _atom_site_fract_x
 _atom_site_fract_y
 _atom_site_fract_z
 _atom_site_occupancy
  Tm  Tm0  1  0.000000  0.000000  0.500000  1
  Tm  Tm1  1  0.500000  0.500000  0.500000  1
  Th  Th2  1  0.681465  0.181465  0.229924  1
  Th  Th3  1  0.318535  0.818535  0.770076  1
  Th  Th4  1  0.318535  0.818535  0.229924  1
  Th  Th5  1  0.818535  0.681465  0.229924  1
  Th  Th6  1  0.818535  0.681465  0.770076  1
  Th  Th7  1  0.681465  0.181465  0.770076  1
  Th  Th8  1  0.181465  0.318535  0.770076  1
  Th  Th9  1  0.181465  0.318535  0.229924  1
  Si  Si10  1  0.118333  0.618333  0.500000  1
  Si  Si11  1  0.881667  0.381667  0.500000  1
  Si  Si12  1  0.381667  0.118333  0.500000  1
  Si  Si13  1  0.618333  0.881667  0.500000  1
  B  B14  1  0.170959  0.038640  0.000000  1
  B  B15  1  0.829041  0.961360  0.000000  1
  B  B16  1  0.961360  0.170959  0.000000  1
  B  B17  1  0.329041  0.538640  0.000000  1
  B  B18  1  0.038640  0.829041  0.000000  1
  B  B19  1  0.670959  0.461360  0.000000  1
  B  B20  1  0.538640  0.670959  0.000000  1
  B  B21  1  0.461360  0.329041  0.000000  1
  B  B22  1  0.093959  0.593959  0.000000  1
  B  B23  1  0.906041  0.406041  0.000000  1
  B  B24  1  0.406041  0.093959  0.000000  1
  B  B25  1  0.593959  0.906041  0.000000  1
  B  B26  1  0.000000  0.000000  0.161531  1
  B  B27  1  0.000000  0.000000  0.838469  1
  B  B28  1  0.500000  0.500000  0.838469  1
  B  B29  1  0.500000  0.500000  0.161531  1
