# generated using pymatgen
data_Er5SiBi2
_symmetry_space_group_name_H-M   'P 1'
_cell_length_a   11.99926700
_cell_length_b   9.09292100
_cell_length_c   7.97994200
_cell_angle_alpha   90.00000000
_cell_angle_beta   90.00000000
_cell_angle_gamma   90.00000000
_symmetry_Int_Tables_number   1
_chemical_formula_structural   Er5SiBi2
_chemical_formula_sum   'Er20 Si4 Bi8'
_cell_volume   870.67859909
_cell_formula_units_Z   4
loop_
 _symmetry_equiv_pos_site_id
 _symmetry_equiv_pos_as_xyz
  1  'x, y, z'
loop_
 _atom_site_type_symbol
 _atom_site_label
 _atom_site_symmetry_multiplicity
 _atom_site_fract_x
 _atom_site_fract_y
 _atom_site_fract_z
 _atom_site_occupancy
  Er  Er0  1  0.294073  0.250000  0.366868  1
  Er  Er1  1  0.205927  0.750000  0.866869  1
  Er  Er2  1  0.794072  0.250000  0.133132  1
  Er  Er3  1  0.705927  0.750000  0.633131  1
  Er  Er4  1  0.210409  0.250000  0.843167  1
  Er  Er5  1  0.289591  0.750000  0.343167  1
  Er  Er6  1  0.710409  0.250000  0.656833  1
  Er  Er7  1  0.789591  0.750000  0.156833  1
  Er  Er8  1  0.000513  0.250000  0.540046  1
  Er  Er9  1  0.499487  0.750000  0.040046  1
  Er  Er10  1  0.500512  0.250000  0.959954  1
  Er  Er11  1  0.999487  0.750000  0.459954  1
  Er  Er12  1  0.062907  0.051558  0.182173  1
  Er  Er13  1  0.437093  0.948442  0.682174  1
  Er  Er14  1  0.562907  0.448442  0.317827  1
  Er  Er15  1  0.937093  0.551558  0.817826  1
  Er  Er16  1  0.937093  0.948442  0.817826  1
  Er  Er17  1  0.562907  0.051558  0.317827  1
  Er  Er18  1  0.437093  0.551558  0.682174  1
  Er  Er19  1  0.062907  0.448442  0.182173  1
  Si  Si20  1  0.480233  0.250000  0.583044  1
  Si  Si21  1  0.019767  0.750000  0.083045  1
  Si  Si22  1  0.980233  0.250000  0.916956  1
  Si  Si23  1  0.519767  0.750000  0.416955  1
  Bi  Bi24  1  0.326372  0.009825  0.073160  1
  Bi  Bi25  1  0.173628  0.990174  0.573159  1
  Bi  Bi26  1  0.826373  0.490175  0.426840  1
  Bi  Bi27  1  0.673628  0.509826  0.926841  1
  Bi  Bi28  1  0.673628  0.990174  0.926841  1
  Bi  Bi29  1  0.826373  0.009825  0.426840  1
  Bi  Bi30  1  0.173628  0.509826  0.573159  1
  Bi  Bi31  1  0.326372  0.490175  0.073160  1
