# generated using pymatgen
data_HoLuTh(Co3P2)3
_symmetry_space_group_name_H-M   'P 1'
_cell_length_a   3.72675000
_cell_length_b   10.53888500
_cell_length_c   12.20740200
_cell_angle_alpha   90.00000000
_cell_angle_beta   90.00000000
_cell_angle_gamma   90.00000000
_symmetry_Int_Tables_number   1
_chemical_formula_structural   HoLuTh(Co3P2)3
_chemical_formula_sum   'Ho2 Lu2 Th2 Co18 P12'
_cell_volume   479.45535341
_cell_formula_units_Z   2
loop_
 _symmetry_equiv_pos_site_id
 _symmetry_equiv_pos_as_xyz
  1  'x, y, z'
loop_
 _atom_site_type_symbol
 _atom_site_label
 _atom_site_symmetry_multiplicity
 _atom_site_fract_x
 _atom_site_fract_y
 _atom_site_fract_z
 _atom_site_occupancy
  Ho  Ho0  1  0.500000  0.815867  0.203682  1
  Ho  Ho1  1  0.500000  0.184133  0.203682  1
  Lu  Lu2  1  0.000000  0.683440  0.796145  1
  Lu  Lu3  1  0.000000  0.316560  0.796145  1
  Th  Th4  1  0.000000  0.500000  0.525416  1
  Th  Th5  1  0.500000  0.000000  0.475330  1
  Co  Co6  1  0.500000  0.500000  0.155648  1
  Co  Co7  1  0.000000  0.000000  0.844206  1
  Co  Co8  1  0.500000  0.500000  0.704341  1
  Co  Co9  1  0.000000  0.000000  0.296503  1
  Co  Co10  1  0.000000  0.500000  0.984222  1
  Co  Co11  1  0.500000  0.000000  0.013085  1
  Co  Co12  1  0.500000  0.333982  0.993350  1
  Co  Co13  1  0.500000  0.666018  0.993350  1
  Co  Co14  1  0.000000  0.167188  0.004528  1
  Co  Co15  1  0.000000  0.832812  0.004528  1
  Co  Co16  1  0.500000  0.299153  0.430024  1
  Co  Co17  1  0.500000  0.700847  0.430024  1
  Co  Co18  1  0.000000  0.201267  0.571955  1
  Co  Co19  1  0.000000  0.798733  0.571955  1
  Co  Co20  1  0.500000  0.879148  0.714252  1
  Co  Co21  1  0.500000  0.120852  0.714252  1
  Co  Co22  1  0.000000  0.620047  0.286544  1
  Co  Co23  1  0.000000  0.379953  0.286544  1
  P  P24  1  0.500000  0.500000  0.880718  1
  P  P25  1  0.000000  0.000000  0.117139  1
  P  P26  1  0.500000  0.500000  0.338482  1
  P  P27  1  0.000000  0.000000  0.661880  1
  P  P28  1  0.500000  0.306412  0.620659  1
  P  P29  1  0.500000  0.693588  0.620659  1
  P  P30  1  0.000000  0.194398  0.381549  1
  P  P31  1  0.000000  0.805602  0.381549  1
  P  P32  1  0.500000  0.845178  0.894302  1
  P  P33  1  0.500000  0.154822  0.894302  1
  P  P34  1  0.000000  0.652745  0.104526  1
  P  P35  1  0.000000  0.347255  0.104526  1
