# generated using pymatgen
data_TbYbPa2Ge6Os7
_symmetry_space_group_name_H-M   'P 1'
_cell_length_a   7.26476922
_cell_length_b   7.25786584
_cell_length_c   7.21644572
_cell_angle_alpha   109.32530566
_cell_angle_beta   109.35168861
_cell_angle_gamma   109.58225867
_symmetry_Int_Tables_number   1
_chemical_formula_structural   TbYbPa2Ge6Os7
_chemical_formula_sum   'Tb1 Yb1 Pa2 Ge6 Os7'
_cell_volume   293.46416570
_cell_formula_units_Z   1
loop_
 _symmetry_equiv_pos_site_id
 _symmetry_equiv_pos_as_xyz
  1  'x, y, z'
loop_
 _atom_site_type_symbol
 _atom_site_label
 _atom_site_symmetry_multiplicity
 _atom_site_fract_x
 _atom_site_fract_y
 _atom_site_fract_z
 _atom_site_occupancy
  Tb  Tb0  1  0.000000  0.000000  0.500000  1
  Yb  Yb1  1  0.000000  0.500000  0.000000  1
  Pa  Pa2  1  0.500000  0.000000  0.000000  1
  Pa  Pa3  1  0.500000  0.500000  0.500000  1
  Ge  Ge4  1  0.695911  0.686967  0.004073  1
  Ge  Ge5  1  0.304089  0.991056  0.308162  1
  Ge  Ge6  1  0.000000  0.313175  0.308584  1
  Ge  Ge7  1  0.304089  0.313033  0.995927  1
  Ge  Ge8  1  0.695911  0.008944  0.691838  1
  Ge  Ge9  1  0.000000  0.686825  0.691416  1
  Os  Os10  1  0.742368  0.249269  0.493356  1
  Os  Os11  1  0.742368  0.493098  0.249012  1
  Os  Os12  1  0.500016  0.250008  0.750008  1
  Os  Os13  1  0.257632  0.506902  0.750988  1
  Os  Os14  1  0.257632  0.750731  0.506644  1
  Os  Os15  1  0.499984  0.749992  0.249992  1
  Os  Os16  1  0.000000  0.000000  0.000000  1
