# generated using pymatgen
data_Yb8Si3Ge
_symmetry_space_group_name_H-M   'P 1'
_cell_length_a   4.80131300
_cell_length_b   7.46947913
_cell_length_c   8.97894115
_cell_angle_alpha   90.02112326
_cell_angle_beta   90.00000000
_cell_angle_gamma   90.00000000
_symmetry_Int_Tables_number   1
_chemical_formula_structural   Yb8Si3Ge
_chemical_formula_sum   'Yb8 Si3 Ge1'
_cell_volume   322.01450332
_cell_formula_units_Z   1
loop_
 _symmetry_equiv_pos_site_id
 _symmetry_equiv_pos_as_xyz
  1  'x, y, z'
loop_
 _atom_site_type_symbol
 _atom_site_label
 _atom_site_symmetry_multiplicity
 _atom_site_fract_x
 _atom_site_fract_y
 _atom_site_fract_z
 _atom_site_occupancy
  Yb  Yb0  1  0.250000  0.655040  0.574874  1
  Yb  Yb1  1  0.750000  0.344988  0.425260  1
  Yb  Yb2  1  0.750000  0.844939  0.074672  1
  Yb  Yb3  1  0.250000  0.154948  0.925250  1
  Yb  Yb4  1  0.250000  0.520163  0.179927  1
  Yb  Yb5  1  0.750000  0.479795  0.820038  1
  Yb  Yb6  1  0.750000  0.979961  0.679837  1
  Yb  Yb7  1  0.250000  0.020143  0.320062  1
  Si  Si8  1  0.750000  0.248078  0.105427  1
  Si  Si9  1  0.750000  0.748081  0.394563  1
  Si  Si10  1  0.250000  0.251917  0.605449  1
  Ge  Ge11  1  0.250000  0.751948  0.894640  1
