# generated using pymatgen
data_HoTmUCo2
_symmetry_space_group_name_H-M   'P 1'
_cell_length_a   5.84319460
_cell_length_b   5.84319623
_cell_length_c   5.84319593
_cell_angle_alpha   144.62273723
_cell_angle_beta   118.61473694
_cell_angle_gamma   72.88591757
_symmetry_Int_Tables_number   1
_chemical_formula_structural   HoTmUCo2
_chemical_formula_sum   'Ho1 Tm1 U1 Co2'
_cell_volume   99.56311282
_cell_formula_units_Z   1
loop_
 _symmetry_equiv_pos_site_id
 _symmetry_equiv_pos_as_xyz
  1  'x, y, z'
loop_
 _atom_site_type_symbol
 _atom_site_label
 _atom_site_symmetry_multiplicity
 _atom_site_fract_x
 _atom_site_fract_y
 _atom_site_fract_z
 _atom_site_occupancy
  Ho  Ho0  1  0.303443  0.803443  0.500001  1
  Tm  Tm1  1  0.695511  0.195511  0.500000  1
  U  U2  1  0.999642  0.999642  0.000000  1
  Co  Co3  1  0.725850  0.500703  0.225147  1
  Co  Co4  1  0.275555  0.500704  0.774854  1
