# generated using pymatgen
data_Tm2ZrSc(Ga3Rh)6
_symmetry_space_group_name_H-M   'P 1'
_cell_length_a   7.52180617
_cell_length_b   7.51339439
_cell_length_c   9.42271700
_cell_angle_alpha   90.00000000
_cell_angle_beta   90.00000000
_cell_angle_gamma   119.86332302
_symmetry_Int_Tables_number   1
_chemical_formula_structural   Tm2ZrSc(Ga3Rh)6
_chemical_formula_sum   'Tm2 Zr1 Sc1 Ga18 Rh6'
_cell_volume   461.80814537
_cell_formula_units_Z   1
loop_
 _symmetry_equiv_pos_site_id
 _symmetry_equiv_pos_as_xyz
  1  'x, y, z'
loop_
 _atom_site_type_symbol
 _atom_site_label
 _atom_site_symmetry_multiplicity
 _atom_site_fract_x
 _atom_site_fract_y
 _atom_site_fract_z
 _atom_site_occupancy
  Tm  Tm0  1  0.004077  0.330359  0.750000  1
  Tm  Tm1  1  0.331177  0.003831  0.750000  1
  Zr  Zr2  1  0.996670  0.668426  0.250000  1
  Sc  Sc3  1  0.669960  0.998170  0.250000  1
  Ga  Ga4  1  0.121106  0.121168  0.250000  1
  Ga  Ga5  1  0.873240  0.873212  0.750000  1
  Ga  Ga6  1  0.996285  0.334237  0.084495  1
  Ga  Ga7  1  0.001029  0.665448  0.921927  1
  Ga  Ga8  1  0.001029  0.665448  0.578073  1
  Ga  Ga9  1  0.334305  0.997122  0.415370  1
  Ga  Ga10  1  0.996285  0.334237  0.415505  1
  Ga  Ga11  1  0.665734  0.000402  0.578148  1
  Ga  Ga12  1  0.665734  0.000402  0.921852  1
  Ga  Ga13  1  0.334305  0.997122  0.084630  1
  Ga  Ga14  1  0.332781  0.332553  0.565265  1
  Ga  Ga15  1  0.669665  0.670401  0.429050  1
  Ga  Ga16  1  0.669665  0.670401  0.070950  1
  Ga  Ga17  1  0.332781  0.332553  0.934735  1
  Ga  Ga18  1  0.338411  0.551852  0.250000  1
  Ga  Ga19  1  0.661693  0.452691  0.750000  1
  Ga  Ga20  1  0.552815  0.339498  0.250000  1
  Ga  Ga21  1  0.451432  0.660747  0.750000  1
  Rh  Rh22  1  0.672214  0.328890  0.001053  1
  Rh  Rh23  1  0.327382  0.671648  0.001729  1
  Rh  Rh24  1  0.327382  0.671648  0.498271  1
  Rh  Rh25  1  0.672214  0.328890  0.498947  1
  Rh  Rh26  1  0.000315  0.999321  0.001023  1
  Rh  Rh27  1  0.000315  0.999321  0.498977  1
