# generated using pymatgen
data_HfTi11Bi8
_symmetry_space_group_name_H-M   'P 1'
_cell_length_a   6.01601000
_cell_length_b   6.01281552
_cell_length_c   14.01146024
_cell_angle_alpha   90.16854040
_cell_angle_beta   90.00000000
_cell_angle_gamma   120.01757609
_symmetry_Int_Tables_number   1
_chemical_formula_structural   HfTi11Bi8
_chemical_formula_sum   'Hf1 Ti11 Bi8'
_cell_volume   438.85495798
_cell_formula_units_Z   1
loop_
 _symmetry_equiv_pos_site_id
 _symmetry_equiv_pos_as_xyz
  1  'x, y, z'
loop_
 _atom_site_type_symbol
 _atom_site_label
 _atom_site_symmetry_multiplicity
 _atom_site_fract_x
 _atom_site_fract_y
 _atom_site_fract_z
 _atom_site_occupancy
  Hf  Hf0  1  0.832817  0.665635  0.921394  1
  Ti  Ti1  1  0.169254  0.338507  0.077091  1
  Ti  Ti2  1  0.176668  0.831547  0.081360  1
  Ti  Ti3  1  0.654877  0.831547  0.081360  1
  Ti  Ti4  1  0.170449  0.340898  0.422284  1
  Ti  Ti5  1  0.170265  0.829449  0.422427  1
  Ti  Ti6  1  0.659183  0.829449  0.422427  1
  Ti  Ti7  1  0.340295  0.170378  0.576188  1
  Ti  Ti8  1  0.830084  0.170378  0.576188  1
  Ti  Ti9  1  0.829304  0.658609  0.577136  1
  Ti  Ti10  1  0.341594  0.168229  0.922400  1
  Ti  Ti11  1  0.826634  0.168229  0.922400  1
  Bi  Bi12  1  0.667092  0.334184  0.110419  1
  Bi  Bi13  1  0.000714  0.001429  0.250828  1
  Bi  Bi14  1  0.331706  0.663413  0.251281  1
  Bi  Bi15  1  0.666500  0.333000  0.393162  1
  Bi  Bi16  1  0.333310  0.666620  0.605578  1
  Bi  Bi17  1  0.004260  0.008519  0.746483  1
  Bi  Bi18  1  0.662334  0.324668  0.746854  1
  Bi  Bi19  1  0.332656  0.665312  0.892741  1
