# generated using pymatgen
data_Pr3Nd5(Y3Si4)4
_symmetry_space_group_name_H-M   'P 1'
_cell_length_a   7.79132403
_cell_length_b   7.78912774
_cell_length_c   14.45351956
_cell_angle_alpha   90.00058652
_cell_angle_beta   90.03172084
_cell_angle_gamma   89.87362188
_symmetry_Int_Tables_number   1
_chemical_formula_structural   Pr3Nd5(Y3Si4)4
_chemical_formula_sum   'Pr3 Nd5 Y12 Si16'
_cell_volume   877.14740760
_cell_formula_units_Z   1
loop_
 _symmetry_equiv_pos_site_id
 _symmetry_equiv_pos_as_xyz
  1  'x, y, z'
loop_
 _atom_site_type_symbol
 _atom_site_label
 _atom_site_symmetry_multiplicity
 _atom_site_fract_x
 _atom_site_fract_y
 _atom_site_fract_z
 _atom_site_occupancy
  Pr  Pr0  1  0.638626  0.990081  0.456742  1
  Pr  Pr1  1  0.361097  0.009666  0.957077  1
  Pr  Pr2  1  0.990401  0.638658  0.543465  1
  Nd  Nd3  1  0.492388  0.862342  0.205728  1
  Nd  Nd4  1  0.508023  0.137829  0.706671  1
  Nd  Nd5  1  0.862182  0.491930  0.793693  1
  Nd  Nd6  1  0.138335  0.508135  0.293371  1
  Nd  Nd7  1  0.009305  0.362621  0.043408  1
  Y  Y8  1  0.490033  0.363344  0.124570  1
  Y  Y9  1  0.989177  0.137560  0.625869  1
  Y  Y10  1  0.862829  0.010925  0.874569  1
  Y  Y11  1  0.137558  0.989251  0.374137  1
  Y  Y12  1  0.510003  0.636549  0.625428  1
  Y  Y13  1  0.363298  0.489150  0.875182  1
  Y  Y14  1  0.636223  0.509986  0.374954  1
  Y  Y15  1  0.010668  0.862746  0.125183  1
  Y  Y16  1  0.315723  0.315256  0.500097  1
  Y  Y17  1  0.183571  0.816458  0.750363  1
  Y  Y18  1  0.816578  0.183588  0.249923  1
  Y  Y19  1  0.684216  0.684791  0.999889  1
  Si  Si20  1  0.288569  0.933488  0.561546  1
  Si  Si21  1  0.712162  0.067155  0.061148  1
  Si  Si22  1  0.933457  0.288755  0.438798  1
  Si  Si23  1  0.433088  0.210826  0.310761  1
  Si  Si24  1  0.566000  0.789467  0.811330  1
  Si  Si25  1  0.210535  0.433670  0.689022  1
  Si  Si26  1  0.789528  0.566201  0.188520  1
  Si  Si27  1  0.065704  0.710252  0.938650  1
  Si  Si28  1  0.797401  0.843833  0.692052  1
  Si  Si29  1  0.202109  0.156293  0.190755  1
  Si  Si30  1  0.844262  0.797232  0.308014  1
  Si  Si31  1  0.343218  0.700837  0.441838  1
  Si  Si32  1  0.657974  0.299955  0.941563  1
  Si  Si33  1  0.700552  0.343387  0.558760  1
  Si  Si34  1  0.298616  0.655789  0.058558  1
  Si  Si35  1  0.156590  0.201992  0.808366  1
