# generated using pymatgen
data_PrY3V4(WO6)4
_symmetry_space_group_name_H-M   'P 1'
_cell_length_a   5.29318398
_cell_length_b   7.48180869
_cell_length_c   11.19988097
_cell_angle_alpha   89.85280789
_cell_angle_beta   90.21032655
_cell_angle_gamma   90.07216631
_symmetry_Int_Tables_number   1
_chemical_formula_structural   PrY3V4(WO6)4
_chemical_formula_sum   'Pr1 Y3 V4 W4 O24'
_cell_volume   443.53949448
_cell_formula_units_Z   1
loop_
 _symmetry_equiv_pos_site_id
 _symmetry_equiv_pos_as_xyz
  1  'x, y, z'
loop_
 _atom_site_type_symbol
 _atom_site_label
 _atom_site_symmetry_multiplicity
 _atom_site_fract_x
 _atom_site_fract_y
 _atom_site_fract_z
 _atom_site_occupancy
  Pr  Pr0  1  0.960024  0.753638  0.954982  1
  Y  Y1  1  0.048178  0.253275  0.046695  1
  Y  Y2  1  0.545500  0.753700  0.454415  1
  Y  Y3  1  0.454429  0.253254  0.544533  1
  V  V4  1  0.549679  0.504937  0.135601  1
  V  V5  1  0.051091  0.006484  0.365703  1
  V  V6  1  0.950551  0.504692  0.632917  1
  V  V7  1  0.450557  0.008257  0.865743  1
  W  W8  1  0.556193  0.001143  0.145718  1
  W  W9  1  0.056397  0.499603  0.356876  1
  W  W10  1  0.943492  0.999066  0.641198  1
  W  W11  1  0.446045  0.494394  0.855499  1
  O  O12  1  0.261634  0.534036  0.020551  1
  O  O13  1  0.268755  0.967330  0.030829  1
  O  O14  1  0.662914  0.756590  0.119729  1
  O  O15  1  0.435614  0.247127  0.147299  1
  O  O16  1  0.875520  0.070191  0.206603  1
  O  O17  1  0.891036  0.438266  0.214262  1
  O  O18  1  0.391328  0.939506  0.287856  1
  O  O19  1  0.370482  0.571498  0.293222  1
  O  O20  1  0.934629  0.746555  0.357452  1
  O  O21  1  0.174479  0.256275  0.384068  1
  O  O22  1  0.764971  0.459389  0.470594  1
  O  O23  1  0.756654  0.044263  0.479621  1
  O  O24  1  0.243711  0.544405  0.518744  1
  O  O25  1  0.235066  0.959039  0.527920  1
  O  O26  1  0.824883  0.755270  0.616133  1
  O  O27  1  0.065401  0.246143  0.639779  1
  O  O28  1  0.630725  0.070151  0.706588  1
  O  O29  1  0.612528  0.435733  0.714354  1
  O  O30  1  0.115830  0.940695  0.781958  1
  O  O31  1  0.130880  0.562952  0.789550  1
  O  O32  1  0.548642  0.745069  0.858105  1
  O  O33  1  0.320909  0.253603  0.882424  1
  O  O34  1  0.732720  0.454516  0.970842  1
  O  O35  1  0.738543  0.049357  0.981633  1
