# generated using pymatgen
data_TiMo(PRu)2
_symmetry_space_group_name_H-M   'P 1'
_cell_length_a   3.78894300
_cell_length_b   6.18913300
_cell_length_c   7.06995900
_cell_angle_alpha   90.00000000
_cell_angle_beta   90.00000000
_cell_angle_gamma   90.00000000
_symmetry_Int_Tables_number   1
_chemical_formula_structural   TiMo(PRu)2
_chemical_formula_sum   'Ti2 Mo2 P4 Ru4'
_cell_volume   165.79246268
_cell_formula_units_Z   2
loop_
 _symmetry_equiv_pos_site_id
 _symmetry_equiv_pos_as_xyz
  1  'x, y, z'
loop_
 _atom_site_type_symbol
 _atom_site_label
 _atom_site_symmetry_multiplicity
 _atom_site_fract_x
 _atom_site_fract_y
 _atom_site_fract_z
 _atom_site_occupancy
  Ti  Ti0  1  0.250000  0.023626  0.177259  1
  Ti  Ti1  1  0.250000  0.523626  0.322741  1
  Mo  Mo2  1  0.750000  0.975020  0.827156  1
  Mo  Mo3  1  0.750000  0.475020  0.672844  1
  P  P4  1  0.250000  0.765019  0.623762  1
  P  P5  1  0.250000  0.265019  0.876238  1
  P  P6  1  0.750000  0.238289  0.381654  1
  P  P7  1  0.750000  0.738289  0.118346  1
  Ru  Ru8  1  0.250000  0.144752  0.563970  1
  Ru  Ru9  1  0.250000  0.644752  0.936030  1
  Ru  Ru10  1  0.750000  0.853294  0.436642  1
  Ru  Ru11  1  0.750000  0.353294  0.063358  1
