# generated using pymatgen
data_SmTmZr2(NiAs)4
_symmetry_space_group_name_H-M   'P 1'
_cell_length_a   4.00616200
_cell_length_b   4.00616281
_cell_length_c   14.89082200
_cell_angle_alpha   90.00000000
_cell_angle_beta   90.00000000
_cell_angle_gamma   119.99999330
_symmetry_Int_Tables_number   1
_chemical_formula_structural   SmTmZr2(NiAs)4
_chemical_formula_sum   'Sm1 Tm1 Zr2 Ni4 As4'
_cell_volume   206.96954052
_cell_formula_units_Z   1
loop_
 _symmetry_equiv_pos_site_id
 _symmetry_equiv_pos_as_xyz
  1  'x, y, z'
loop_
 _atom_site_type_symbol
 _atom_site_label
 _atom_site_symmetry_multiplicity
 _atom_site_fract_x
 _atom_site_fract_y
 _atom_site_fract_z
 _atom_site_occupancy
  Sm  Sm0  1  0.000000  0.000000  0.000000  1
  Tm  Tm1  1  0.000000  0.000000  0.500000  1
  Zr  Zr2  1  0.000000  0.000000  0.253905  1
  Zr  Zr3  1  0.000000  0.000000  0.746095  1
  Ni  Ni4  1  0.333333  0.666667  0.161436  1
  Ni  Ni5  1  0.666667  0.333333  0.838564  1
  Ni  Ni6  1  0.666667  0.333333  0.648918  1
  Ni  Ni7  1  0.333333  0.666667  0.351082  1
  As  As8  1  0.333333  0.666667  0.617705  1
  As  As9  1  0.666667  0.333333  0.382295  1
  As  As10  1  0.666667  0.333333  0.126832  1
  As  As11  1  0.333333  0.666667  0.873168  1
