# generated using pymatgen
data_Sr4HfN4
_symmetry_space_group_name_H-M   'P 1'
_cell_length_a   6.47983171
_cell_length_b   6.48722890
_cell_length_c   9.77713303
_cell_angle_alpha   80.50831045
_cell_angle_beta   71.12509569
_cell_angle_gamma   67.95489779
_symmetry_Int_Tables_number   1
_chemical_formula_structural   Sr4HfN4
_chemical_formula_sum   'Sr8 Hf2 N8'
_cell_volume   360.01704220
_cell_formula_units_Z   2
loop_
 _symmetry_equiv_pos_site_id
 _symmetry_equiv_pos_as_xyz
  1  'x, y, z'
loop_
 _atom_site_type_symbol
 _atom_site_label
 _atom_site_symmetry_multiplicity
 _atom_site_fract_x
 _atom_site_fract_y
 _atom_site_fract_z
 _atom_site_occupancy
  Sr  Sr0  1  0.391337  0.257980  0.817719  1
  Sr  Sr1  1  0.608663  0.742020  0.182281  1
  Sr  Sr2  1  0.759085  0.247198  0.013421  1
  Sr  Sr3  1  0.240915  0.752802  0.986579  1
  Sr  Sr4  1  0.523750  0.265631  0.426274  1
  Sr  Sr5  1  0.476250  0.734369  0.573726  1
  Sr  Sr6  1  0.047076  0.762396  0.397005  1
  Sr  Sr7  1  0.952924  0.237604  0.602995  1
  Hf  Hf8  1  0.154623  0.282486  0.240332  1
  Hf  Hf9  1  0.845377  0.717514  0.759668  1
  N  N10  1  0.300319  0.026753  0.379252  1
  N  N11  1  0.699681  0.973247  0.620748  1
  N  N12  1  0.150845  0.145080  0.064096  1
  N  N13  1  0.849155  0.854920  0.935904  1
  N  N14  1  0.362314  0.481073  0.197503  1
  N  N15  1  0.637686  0.518927  0.802497  1
  N  N16  1  0.170956  0.521757  0.628695  1
  N  N17  1  0.829044  0.478243  0.371305  1
