# generated using pymatgen
data_La8YbLu11Si16
_symmetry_space_group_name_H-M   'P 1'
_cell_length_a   7.75912396
_cell_length_b   7.75912396
_cell_length_c   14.24817992
_cell_angle_alpha   89.97089483
_cell_angle_beta   90.02910517
_cell_angle_gamma   89.92393053
_symmetry_Int_Tables_number   1
_chemical_formula_structural   La8YbLu11Si16
_chemical_formula_sum   'La8 Yb1 Lu11 Si16'
_cell_volume   857.79651220
_cell_formula_units_Z   1
loop_
 _symmetry_equiv_pos_site_id
 _symmetry_equiv_pos_as_xyz
  1  'x, y, z'
loop_
 _atom_site_type_symbol
 _atom_site_label
 _atom_site_symmetry_multiplicity
 _atom_site_fract_x
 _atom_site_fract_y
 _atom_site_fract_z
 _atom_site_occupancy
  La  La0  1  0.991630  0.645741  0.039522  1
  La  La1  1  0.007071  0.354794  0.539686  1
  La  La2  1  0.645741  0.991630  0.960478  1
  La  La3  1  0.146951  0.507685  0.789539  1
  La  La4  1  0.854896  0.492758  0.289925  1
  La  La5  1  0.507685  0.146951  0.210461  1
  La  La6  1  0.492758  0.854896  0.710075  1
  La  La7  1  0.354794  0.007071  0.460314  1
  Yb  Yb8  1  0.680420  0.680420  0.500000  1
  Lu  Lu9  1  0.359799  0.494699  0.374835  1
  Lu  Lu10  1  0.859662  0.003846  0.375207  1
  Lu  Lu11  1  0.994480  0.142572  0.125525  1
  Lu  Lu12  1  0.003846  0.859662  0.624793  1
  Lu  Lu13  1  0.640882  0.505420  0.876604  1
  Lu  Lu14  1  0.494699  0.359799  0.625165  1
  Lu  Lu15  1  0.505420  0.640882  0.123396  1
  Lu  Lu16  1  0.142572  0.994480  0.874475  1
  Lu  Lu17  1  0.817698  0.180338  0.750993  1
  Lu  Lu18  1  0.180338  0.817698  0.249007  1
  Lu  Lu19  1  0.319163  0.319163  0.000000  1
  Si  Si20  1  0.071189  0.711623  0.435924  1
  Si  Si21  1  0.939038  0.288154  0.937256  1
  Si  Si22  1  0.711623  0.071189  0.564076  1
  Si  Si23  1  0.211131  0.438493  0.187162  1
  Si  Si24  1  0.790079  0.560361  0.691774  1
  Si  Si25  1  0.438493  0.211131  0.812838  1
  Si  Si26  1  0.560361  0.790079  0.308226  1
  Si  Si27  1  0.288154  0.939038  0.062744  1
  Si  Si28  1  0.851641  0.795037  0.810818  1
  Si  Si29  1  0.147367  0.204514  0.311333  1
  Si  Si30  1  0.795037  0.851641  0.189182  1
  Si  Si31  1  0.287420  0.645943  0.562868  1
  Si  Si32  1  0.705414  0.352090  0.061485  1
  Si  Si33  1  0.645943  0.287420  0.437132  1
  Si  Si34  1  0.352090  0.705414  0.938515  1
  Si  Si35  1  0.204514  0.147367  0.688667  1
