# generated using pymatgen
data_Y6Th4Tl8PdPt3
_symmetry_space_group_name_H-M   'P 1'
_cell_length_a   3.79742400
_cell_length_b   8.20519517
_cell_length_c   18.49196846
_cell_angle_alpha   90.06292346
_cell_angle_beta   90.00000000
_cell_angle_gamma   90.00000000
_symmetry_Int_Tables_number   1
_chemical_formula_structural   Y6Th4Tl8PdPt3
_chemical_formula_sum   'Y6 Th4 Tl8 Pd1 Pt3'
_cell_volume   576.18359447
_cell_formula_units_Z   1
loop_
 _symmetry_equiv_pos_site_id
 _symmetry_equiv_pos_as_xyz
  1  'x, y, z'
loop_
 _atom_site_type_symbol
 _atom_site_label
 _atom_site_symmetry_multiplicity
 _atom_site_fract_x
 _atom_site_fract_y
 _atom_site_fract_z
 _atom_site_occupancy
  Y  Y0  1  0.500000  0.113439  0.584811  1
  Y  Y1  1  0.500000  0.887700  0.414801  1
  Y  Y2  1  0.500000  0.387573  0.084999  1
  Y  Y3  1  0.500000  0.613159  0.916165  1
  Y  Y4  1  0.500000  0.000681  0.000054  1
  Y  Y5  1  0.500000  0.499893  0.500074  1
  Th  Th6  1  0.500000  0.233330  0.781197  1
  Th  Th7  1  0.500000  0.762150  0.218486  1
  Th  Th8  1  0.500000  0.261652  0.281450  1
  Th  Th9  1  0.500000  0.742169  0.717494  1
  Tl  Tl10  1  0.000000  0.084023  0.142963  1
  Tl  Tl11  1  0.000000  0.911857  0.856850  1
  Tl  Tl12  1  0.000000  0.417465  0.645115  1
  Tl  Tl13  1  0.000000  0.584603  0.357004  1
  Tl  Tl14  1  0.000000  0.206901  0.439068  1
  Tl  Tl15  1  0.000000  0.792629  0.560832  1
  Tl  Tl16  1  0.000000  0.294421  0.937348  1
  Tl  Tl17  1  0.000000  0.706781  0.060917  1
  Pd  Pd18  1  0.000000  0.525339  0.801936  1
  Pt  Pt19  1  0.000000  0.025504  0.698332  1
  Pt  Pt20  1  0.000000  0.974362  0.301561  1
  Pt  Pt21  1  0.000000  0.474370  0.198544  1
