# generated using pymatgen
data_Pr4Nd4Cd2OsPt
_symmetry_space_group_name_H-M   'P 1'
_cell_length_a   10.02620263
_cell_length_b   10.02620269
_cell_length_c   10.10017900
_cell_angle_alpha   59.75562295
_cell_angle_beta   59.75562275
_cell_angle_gamma   59.83528739
_symmetry_Int_Tables_number   1
_chemical_formula_structural   Pr4Nd4Cd2OsPt
_chemical_formula_sum   'Pr8 Nd8 Cd4 Os2 Pt2'
_cell_volume   714.38680173
_cell_formula_units_Z   2
loop_
 _symmetry_equiv_pos_site_id
 _symmetry_equiv_pos_as_xyz
  1  'x, y, z'
loop_
 _atom_site_type_symbol
 _atom_site_label
 _atom_site_symmetry_multiplicity
 _atom_site_fract_x
 _atom_site_fract_y
 _atom_site_fract_z
 _atom_site_occupancy
  Pr  Pr0  1  0.189110  0.189110  0.810890  1
  Pr  Pr1  1  0.806042  0.806042  0.193958  1
  Pr  Pr2  1  0.939525  0.556193  0.564135  1
  Pr  Pr3  1  0.556193  0.939525  0.940146  1
  Pr  Pr4  1  0.556193  0.939525  0.564135  1
  Pr  Pr5  1  0.939525  0.556193  0.940146  1
  Pr  Pr6  1  0.561867  0.561867  0.938133  1
  Pr  Pr7  1  0.940728  0.940728  0.559272  1
  Nd  Nd8  1  0.348038  0.348038  0.352677  1
  Nd  Nd9  1  0.348038  0.348038  0.951248  1
  Nd  Nd10  1  0.343579  0.957300  0.349561  1
  Nd  Nd11  1  0.957300  0.343579  0.349561  1
  Nd  Nd12  1  0.814356  0.189352  0.191660  1
  Nd  Nd13  1  0.189352  0.814356  0.804632  1
  Nd  Nd14  1  0.189352  0.814356  0.191660  1
  Nd  Nd15  1  0.814356  0.189352  0.804632  1
  Cd  Cd16  1  0.579243  0.579243  0.580477  1
  Cd  Cd17  1  0.579243  0.579243  0.261037  1
  Cd  Cd18  1  0.580349  0.259576  0.580037  1
  Cd  Cd19  1  0.259576  0.580349  0.580037  1
  Os  Os20  1  0.143529  0.143529  0.137958  1
  Os  Os21  1  0.143529  0.143529  0.574985  1
  Pt  Pt22  1  0.147007  0.573972  0.139510  1
  Pt  Pt23  1  0.573972  0.147007  0.139510  1
