# generated using pymatgen
data_YCo2(PRh)3
_symmetry_space_group_name_H-M   'P 1'
_cell_length_a   3.79942800
_cell_length_b   10.66925400
_cell_length_c   12.22872900
_cell_angle_alpha   90.00000000
_cell_angle_beta   90.00000000
_cell_angle_gamma   90.00000000
_symmetry_Int_Tables_number   1
_chemical_formula_structural   YCo2(PRh)3
_chemical_formula_sum   'Y4 Co8 P12 Rh12'
_cell_volume   495.71675038
_cell_formula_units_Z   4
loop_
 _symmetry_equiv_pos_site_id
 _symmetry_equiv_pos_as_xyz
  1  'x, y, z'
loop_
 _atom_site_type_symbol
 _atom_site_label
 _atom_site_symmetry_multiplicity
 _atom_site_fract_x
 _atom_site_fract_y
 _atom_site_fract_z
 _atom_site_occupancy
  Y  Y0  1  0.250000  0.916668  0.208718  1
  Y  Y1  1  0.750000  0.083332  0.791282  1
  Y  Y2  1  0.750000  0.416668  0.291282  1
  Y  Y3  1  0.250000  0.583332  0.708718  1
  Co  Co4  1  0.250000  0.615549  0.196874  1
  Co  Co5  1  0.750000  0.384451  0.803126  1
  Co  Co6  1  0.750000  0.115549  0.303126  1
  Co  Co7  1  0.250000  0.884451  0.696874  1
  Co  Co8  1  0.250000  0.036016  0.432770  1
  Co  Co9  1  0.750000  0.963984  0.567230  1
  Co  Co10  1  0.750000  0.536016  0.067230  1
  Co  Co11  1  0.250000  0.463984  0.932770  1
  P  P12  1  0.250000  0.069287  0.610637  1
  P  P13  1  0.750000  0.930713  0.389363  1
  P  P14  1  0.750000  0.569287  0.889363  1
  P  P15  1  0.250000  0.430713  0.110637  1
  P  P16  1  0.250000  0.225159  0.370987  1
  P  P17  1  0.750000  0.774841  0.629013  1
  P  P18  1  0.750000  0.725159  0.129013  1
  P  P19  1  0.250000  0.274841  0.870987  1
  P  P20  1  0.250000  0.899823  0.881559  1
  P  P21  1  0.750000  0.100177  0.118441  1
  P  P22  1  0.750000  0.399823  0.618441  1
  P  P23  1  0.250000  0.600177  0.381559  1
  Rh  Rh24  1  0.250000  0.784164  0.491282  1
  Rh  Rh25  1  0.750000  0.215836  0.508718  1
  Rh  Rh26  1  0.750000  0.284164  0.008718  1
  Rh  Rh27  1  0.250000  0.715836  0.991282  1
  Rh  Rh28  1  0.250000  0.091652  0.979864  1
  Rh  Rh29  1  0.750000  0.908348  0.020136  1
  Rh  Rh30  1  0.750000  0.591652  0.520136  1
  Rh  Rh31  1  0.250000  0.408348  0.479864  1
  Rh  Rh32  1  0.250000  0.274090  0.679994  1
  Rh  Rh33  1  0.750000  0.725910  0.320006  1
  Rh  Rh34  1  0.750000  0.774090  0.820006  1
  Rh  Rh35  1  0.250000  0.225910  0.179994  1
