# generated using pymatgen
data_Lu12Mn2In2Ru
_symmetry_space_group_name_H-M   'P 1'
_cell_length_a   8.21418400
_cell_length_b   8.21443401
_cell_length_c   8.21418435
_cell_angle_alpha   108.54931422
_cell_angle_beta   108.54535532
_cell_angle_gamma   111.33394701
_symmetry_Int_Tables_number   1
_chemical_formula_structural   Lu12Mn2In2Ru
_chemical_formula_sum   'Lu12 Mn2 In2 Ru1'
_cell_volume   426.32970329
_cell_formula_units_Z   1
loop_
 _symmetry_equiv_pos_site_id
 _symmetry_equiv_pos_as_xyz
  1  'x, y, z'
loop_
 _atom_site_type_symbol
 _atom_site_label
 _atom_site_symmetry_multiplicity
 _atom_site_fract_x
 _atom_site_fract_y
 _atom_site_fract_z
 _atom_site_occupancy
  Lu  Lu0  1  0.307839  0.307836  0.615671  1
  Lu  Lu1  1  0.692161  0.692164  0.384329  1
  Lu  Lu2  1  0.692165  0.307836  0.999997  1
  Lu  Lu3  1  0.307835  0.692164  0.000003  1
  Lu  Lu4  1  0.192796  0.430460  0.237664  1
  Lu  Lu5  1  0.807204  0.569540  0.762336  1
  Lu  Lu6  1  0.192795  0.955128  0.762334  1
  Lu  Lu7  1  0.955131  0.192798  0.762339  1
  Lu  Lu8  1  0.807205  0.044872  0.237666  1
  Lu  Lu9  1  0.044869  0.807202  0.237661  1
  Lu  Lu10  1  0.430460  0.192798  0.237666  1
  Lu  Lu11  1  0.569540  0.807202  0.762334  1
  Mn  Mn12  1  0.383332  0.383340  0.000008  1
  Mn  Mn13  1  0.616668  0.616660  0.999992  1
  In  In14  1  0.000000  0.500000  0.500000  1
  In  In15  1  0.500000  0.000000  0.500000  1
  Ru  Ru16  1  0.000000  0.000000  0.000000  1
