# generated using pymatgen
data_CaYb2Be2(PPd5)4
_symmetry_space_group_name_H-M   'P 1'
_cell_length_a   8.63103477
_cell_length_b   8.58176564
_cell_length_c   8.58176620
_cell_angle_alpha   60.38019895
_cell_angle_beta   59.80990628
_cell_angle_gamma   59.80990412
_symmetry_Int_Tables_number   1
_chemical_formula_structural   CaYb2Be2(PPd5)4
_chemical_formula_sum   'Ca1 Yb2 Be2 P4 Pd20'
_cell_volume   449.44073483
_cell_formula_units_Z   1
loop_
 _symmetry_equiv_pos_site_id
 _symmetry_equiv_pos_as_xyz
  1  'x, y, z'
loop_
 _atom_site_type_symbol
 _atom_site_label
 _atom_site_symmetry_multiplicity
 _atom_site_fract_x
 _atom_site_fract_y
 _atom_site_fract_z
 _atom_site_occupancy
  Ca  Ca0  1  0.250000  0.250000  0.250000  1
  Yb  Yb1  1  0.750000  0.750000  0.750000  1
  Yb  Yb2  1  0.000000  0.000000  0.000000  1
  Be  Be3  1  0.728957  0.271043  0.271043  1
  Be  Be4  1  0.271043  0.728957  0.728957  1
  P  P5  1  0.266747  0.733253  0.266747  1
  P  P6  1  0.733253  0.266747  0.733253  1
  P  P7  1  0.266747  0.266747  0.733253  1
  P  P8  1  0.733253  0.733253  0.266747  1
  Pd  Pd9  1  0.387883  0.384639  0.384639  1
  Pd  Pd10  1  0.614197  0.617252  0.617252  1
  Pd  Pd11  1  0.384639  0.387883  0.842838  1
  Pd  Pd12  1  0.384639  0.842838  0.387883  1
  Pd  Pd13  1  0.617252  0.614197  0.151297  1
  Pd  Pd14  1  0.617252  0.151297  0.614197  1
  Pd  Pd15  1  0.842838  0.384639  0.384639  1
  Pd  Pd16  1  0.151297  0.617252  0.617252  1
  Pd  Pd17  1  0.343687  0.999118  0.999118  1
  Pd  Pd18  1  0.658078  0.999118  0.999118  1
  Pd  Pd19  1  0.999118  0.343687  0.658078  1
  Pd  Pd20  1  0.999118  0.658078  0.343687  1
  Pd  Pd21  1  0.996054  0.342765  0.002889  1
  Pd  Pd22  1  0.658292  0.002889  0.342765  1
  Pd  Pd23  1  0.002889  0.658292  0.996054  1
  Pd  Pd24  1  0.342765  0.996054  0.658292  1
  Pd  Pd25  1  0.996054  0.002889  0.342765  1
  Pd  Pd26  1  0.002889  0.996054  0.658292  1
  Pd  Pd27  1  0.658292  0.342765  0.002889  1
  Pd  Pd28  1  0.342765  0.658292  0.996054  1
