# generated using pymatgen
data_Cs2Li4Nd4Te9
_symmetry_space_group_name_H-M   'P 1'
_cell_length_a   8.47051612
_cell_length_b   8.47051734
_cell_length_c   18.46895900
_cell_angle_alpha   71.43231544
_cell_angle_beta   71.43231267
_cell_angle_gamma   32.02550676
_symmetry_Int_Tables_number   1
_chemical_formula_structural   Cs2Li4Nd4Te9
_chemical_formula_sum   'Cs2 Li4 Nd4 Te9'
_cell_volume   663.03786899
_cell_formula_units_Z   1
loop_
 _symmetry_equiv_pos_site_id
 _symmetry_equiv_pos_as_xyz
  1  'x, y, z'
loop_
 _atom_site_type_symbol
 _atom_site_label
 _atom_site_symmetry_multiplicity
 _atom_site_fract_x
 _atom_site_fract_y
 _atom_site_fract_z
 _atom_site_occupancy
  Cs  Cs0  1  0.033218  0.033218  0.727616  1
  Cs  Cs1  1  0.966782  0.966782  0.272384  1
  Li  Li2  1  0.431625  0.431625  0.959907  1
  Li  Li3  1  0.754554  0.754554  0.731548  1
  Li  Li4  1  0.245446  0.245446  0.268452  1
  Li  Li5  1  0.568375  0.568375  0.040093  1
  Nd  Nd6  1  0.233920  0.233920  0.895057  1
  Nd  Nd7  1  0.349332  0.349332  0.549816  1
  Nd  Nd8  1  0.650668  0.650668  0.450184  1
  Nd  Nd9  1  0.766080  0.766080  0.104943  1
  Te  Te10  1  0.857417  0.857417  0.923552  1
  Te  Te11  1  0.610897  0.610897  0.876130  1
  Te  Te12  1  0.347433  0.347433  0.720194  1
  Te  Te13  1  0.709529  0.709529  0.598961  1
  Te  Te14  1  0.000000  0.000000  0.500000  1
  Te  Te15  1  0.290471  0.290471  0.401039  1
  Te  Te16  1  0.652567  0.652567  0.279806  1
  Te  Te17  1  0.389103  0.389103  0.123870  1
  Te  Te18  1  0.142583  0.142583  0.076448  1
