# generated using pymatgen
data_Nd8Sc12Si15Hg
_symmetry_space_group_name_H-M   'P 1'
_cell_length_a   7.27870193
_cell_length_b   7.53018367
_cell_length_c   14.33426504
_cell_angle_alpha   89.95693582
_cell_angle_beta   89.63786592
_cell_angle_gamma   90.19687772
_symmetry_Int_Tables_number   1
_chemical_formula_structural   Nd8Sc12Si15Hg
_chemical_formula_sum   'Nd8 Sc12 Si15 Hg1'
_cell_volume   785.63996202
_cell_formula_units_Z   1
loop_
 _symmetry_equiv_pos_site_id
 _symmetry_equiv_pos_as_xyz
  1  'x, y, z'
loop_
 _atom_site_type_symbol
 _atom_site_label
 _atom_site_symmetry_multiplicity
 _atom_site_fract_x
 _atom_site_fract_y
 _atom_site_fract_z
 _atom_site_occupancy
  Nd  Nd0  1  0.008310  0.169071  0.397769  1
  Nd  Nd1  1  0.513029  0.325850  0.398051  1
  Nd  Nd2  1  0.487464  0.673034  0.902853  1
  Nd  Nd3  1  0.495473  0.678701  0.600965  1
  Nd  Nd4  1  0.987951  0.833974  0.598458  1
  Nd  Nd5  1  0.986830  0.827664  0.903285  1
  Nd  Nd6  1  0.512295  0.327043  0.097518  1
  Nd  Nd7  1  0.012797  0.172973  0.098150  1
  Sc  Sc8  1  0.340991  0.168882  0.628912  1
  Sc  Sc9  1  0.665927  0.824298  0.373094  1
  Sc  Sc10  1  0.663289  0.000753  0.751995  1
  Sc  Sc11  1  0.168154  0.677962  0.371142  1
  Sc  Sc12  1  0.829423  0.323138  0.876481  1
  Sc  Sc13  1  0.822734  0.324296  0.626123  1
  Sc  Sc14  1  0.838947  0.502103  0.249735  1
  Sc  Sc15  1  0.339626  0.996936  0.248441  1
  Sc  Sc16  1  0.328233  0.174533  0.876201  1
  Sc  Sc17  1  0.169614  0.676275  0.124671  1
  Sc  Sc18  1  0.670996  0.823887  0.124089  1
  Sc  Sc19  1  0.161272  0.498179  0.754836  1
  Si  Si20  1  0.285867  0.880807  0.751524  1
  Si  Si21  1  0.465045  0.624775  0.248185  1
  Si  Si22  1  0.035394  0.127626  0.751327  1
  Si  Si23  1  0.534848  0.377293  0.751965  1
  Si  Si24  1  0.964217  0.875607  0.248357  1
  Si  Si25  1  0.710836  0.118207  0.247905  1
  Si  Si26  1  0.848749  0.536539  0.039654  1
  Si  Si27  1  0.348274  0.962944  0.040032  1
  Si  Si28  1  0.151098  0.462928  0.961415  1
  Si  Si29  1  0.652608  0.039402  0.537489  1
  Si  Si30  1  0.345908  0.960770  0.459930  1
  Si  Si31  1  0.837938  0.542181  0.457829  1
  Si  Si32  1  0.790434  0.618290  0.751980  1
  Si  Si33  1  0.211573  0.381334  0.248753  1
  Si  Si34  1  0.650920  0.036731  0.960354  1
  Hg  Hg35  1  0.162936  0.455010  0.540534  1
