# generated using pymatgen
data_Ho2Be2AlFe14C3
_symmetry_space_group_name_H-M   'P 1'
_cell_length_a   6.40971599
_cell_length_b   6.39385740
_cell_length_c   6.39385696
_cell_angle_alpha   83.87892749
_cell_angle_beta   83.33372009
_cell_angle_gamma   83.33373880
_symmetry_Int_Tables_number   1
_chemical_formula_structural   Ho2Be2AlFe14C3
_chemical_formula_sum   'Ho2 Be2 Al1 Fe14 C3'
_cell_volume   257.35195919
_cell_formula_units_Z   1
loop_
 _symmetry_equiv_pos_site_id
 _symmetry_equiv_pos_as_xyz
  1  'x, y, z'
loop_
 _atom_site_type_symbol
 _atom_site_label
 _atom_site_symmetry_multiplicity
 _atom_site_fract_x
 _atom_site_fract_y
 _atom_site_fract_z
 _atom_site_occupancy
  Ho  Ho0  1  0.655350  0.655044  0.655044  1
  Ho  Ho1  1  0.344650  0.344956  0.344956  1
  Be  Be2  1  0.000000  0.000000  0.500000  1
  Be  Be3  1  0.000000  0.500000  0.000000  1
  Al  Al4  1  0.500000  0.000000  0.000000  1
  Fe  Fe5  1  0.724025  0.288333  0.000193  1
  Fe  Fe6  1  0.000000  0.716996  0.283004  1
  Fe  Fe7  1  0.275975  0.999807  0.711667  1
  Fe  Fe8  1  0.000000  0.283004  0.716996  1
  Fe  Fe9  1  0.724025  0.000193  0.288333  1
  Fe  Fe10  1  0.275975  0.711667  0.999807  1
  Fe  Fe11  1  0.333825  0.856461  0.347328  1
  Fe  Fe12  1  0.333825  0.347328  0.856461  1
  Fe  Fe13  1  0.862343  0.338919  0.338919  1
  Fe  Fe14  1  0.666175  0.143539  0.652672  1
  Fe  Fe15  1  0.666175  0.652672  0.143539  1
  Fe  Fe16  1  0.137657  0.661081  0.661081  1
  Fe  Fe17  1  0.908694  0.900723  0.900723  1
  Fe  Fe18  1  0.091306  0.099277  0.099277  1
  C  C19  1  0.500000  0.500000  0.000000  1
  C  C20  1  0.000000  0.500000  0.500000  1
  C  C21  1  0.500000  0.000000  0.500000  1
