# generated using pymatgen
data_Fe2PbI8
_symmetry_space_group_name_H-M   'P 1'
_cell_length_a   11.71103233
_cell_length_b   11.71103144
_cell_length_c   14.50488716
_cell_angle_alpha   53.69324947
_cell_angle_beta   53.69325395
_cell_angle_gamma   49.21984485
_symmetry_Int_Tables_number   1
_chemical_formula_structural   Fe2PbI8
_chemical_formula_sum   'Fe4 Pb2 I16'
_cell_volume   1143.09656027
_cell_formula_units_Z   2
loop_
 _symmetry_equiv_pos_site_id
 _symmetry_equiv_pos_as_xyz
  1  'x, y, z'
loop_
 _atom_site_type_symbol
 _atom_site_label
 _atom_site_symmetry_multiplicity
 _atom_site_fract_x
 _atom_site_fract_y
 _atom_site_fract_z
 _atom_site_occupancy
  Fe  Fe0  1  0.665687  0.161733  0.033385  1
  Fe  Fe1  1  0.334313  0.838267  0.966615  1
  Fe  Fe2  1  0.838267  0.334313  0.466615  1
  Fe  Fe3  1  0.161733  0.665687  0.533385  1
  Pb  Pb4  1  0.991500  0.008500  0.750000  1
  Pb  Pb5  1  0.008500  0.991500  0.250000  1
  I  I6  1  0.873995  0.804200  0.537702  1
  I  I7  1  0.126005  0.195800  0.462298  1
  I  I8  1  0.694679  0.621844  0.445516  1
  I  I9  1  0.621844  0.694679  0.945516  1
  I  I10  1  0.804200  0.873995  0.037702  1
  I  I11  1  0.844265  0.329501  0.288236  1
  I  I12  1  0.177003  0.693996  0.172862  1
  I  I13  1  0.306004  0.822997  0.327138  1
  I  I14  1  0.155735  0.670499  0.711764  1
  I  I15  1  0.305321  0.378156  0.554484  1
  I  I16  1  0.670499  0.155735  0.211764  1
  I  I17  1  0.195800  0.126005  0.962298  1
  I  I18  1  0.378156  0.305321  0.054484  1
  I  I19  1  0.329501  0.844265  0.788236  1
  I  I20  1  0.693996  0.177003  0.672862  1
  I  I21  1  0.822997  0.306004  0.827138  1
