# generated using pymatgen
data_Ti3V7Ge6C
_symmetry_space_group_name_H-M   'P 1'
_cell_length_a   7.38207100
_cell_length_b   7.38207073
_cell_length_c   4.99353600
_cell_angle_alpha   90.00000000
_cell_angle_beta   90.00000000
_cell_angle_gamma   119.99999671
_symmetry_Int_Tables_number   1
_chemical_formula_structural   Ti3V7Ge6C
_chemical_formula_sum   'Ti3 V7 Ge6 C1'
_cell_volume   235.66508884
_cell_formula_units_Z   1
loop_
 _symmetry_equiv_pos_site_id
 _symmetry_equiv_pos_as_xyz
  1  'x, y, z'
loop_
 _atom_site_type_symbol
 _atom_site_label
 _atom_site_symmetry_multiplicity
 _atom_site_fract_x
 _atom_site_fract_y
 _atom_site_fract_z
 _atom_site_occupancy
  Ti  Ti0  1  0.000000  0.765961  0.255430  1
  Ti  Ti1  1  0.234039  0.234039  0.255430  1
  Ti  Ti2  1  0.765961  0.000000  0.255430  1
  V  V3  1  0.000000  0.232798  0.743247  1
  V  V4  1  0.767202  0.767202  0.743247  1
  V  V5  1  0.232798  0.000000  0.743247  1
  V  V6  1  0.333333  0.666667  0.999711  1
  V  V7  1  0.666667  0.333333  0.999711  1
  V  V8  1  0.666667  0.333333  0.498958  1
  V  V9  1  0.333333  0.666667  0.498958  1
  Ge  Ge10  1  0.000000  0.401235  0.243616  1
  Ge  Ge11  1  0.598765  0.598765  0.243616  1
  Ge  Ge12  1  0.401235  0.000000  0.243616  1
  Ge  Ge13  1  0.000000  0.600539  0.755207  1
  Ge  Ge14  1  0.399461  0.399461  0.755207  1
  Ge  Ge15  1  0.600539  0.000000  0.755207  1
  C  C16  1  0.000000  0.000000  0.510165  1
