# generated using pymatgen
data_Dy7YCd3SnAu8
_symmetry_space_group_name_H-M   'P 1'
_cell_length_a   8.01337793
_cell_length_b   8.01172494
_cell_length_c   7.38286601
_cell_angle_alpha   90.00624459
_cell_angle_beta   90.00286355
_cell_angle_gamma   90.07958066
_symmetry_Int_Tables_number   1
_chemical_formula_structural   Dy7YCd3SnAu8
_chemical_formula_sum   'Dy7 Y1 Cd3 Sn1 Au8'
_cell_volume   473.98677181
_cell_formula_units_Z   1
loop_
 _symmetry_equiv_pos_site_id
 _symmetry_equiv_pos_as_xyz
  1  'x, y, z'
loop_
 _atom_site_type_symbol
 _atom_site_label
 _atom_site_symmetry_multiplicity
 _atom_site_fract_x
 _atom_site_fract_y
 _atom_site_fract_z
 _atom_site_occupancy
  Dy  Dy0  1  0.155722  0.832397  0.499965  1
  Dy  Dy1  1  0.332437  0.344448  0.000044  1
  Dy  Dy2  1  0.667497  0.655629  0.000084  1
  Dy  Dy3  1  0.685521  0.674041  0.500082  1
  Dy  Dy4  1  0.314581  0.325855  0.500060  1
  Dy  Dy5  1  0.174090  0.814553  0.999908  1
  Dy  Dy6  1  0.825884  0.185500  0.999935  1
  Y  Y7  1  0.844315  0.167698  0.499940  1
  Cd  Cd8  1  0.499990  0.000009  0.250016  1
  Cd  Cd9  1  0.000028  0.500053  0.749998  1
  Cd  Cd10  1  0.499982  0.999987  0.749992  1
  Sn  Sn11  1  0.999976  0.499991  0.249980  1
  Au  Au12  1  0.621089  0.365186  0.268563  1
  Au  Au13  1  0.378603  0.635058  0.268873  1
  Au  Au14  1  0.132742  0.125051  0.768214  1
  Au  Au15  1  0.867555  0.874602  0.768226  1
  Au  Au16  1  0.374818  0.632554  0.732052  1
  Au  Au17  1  0.624859  0.367733  0.732292  1
  Au  Au18  1  0.865073  0.878366  0.230858  1
  Au  Au19  1  0.135238  0.121290  0.230919  1
