# generated using pymatgen
data_Ca2ScPtO6
_symmetry_space_group_name_H-M   'P 1'
_cell_length_a   5.67710300
_cell_length_b   5.50911015
_cell_length_c   9.62443741
_cell_angle_alpha   54.86660372
_cell_angle_beta   90.00000000
_cell_angle_gamma   90.00000000
_symmetry_Int_Tables_number   1
_chemical_formula_structural   Ca2ScPtO6
_chemical_formula_sum   'Ca4 Sc2 Pt2 O12'
_cell_volume   246.17182618
_cell_formula_units_Z   2
loop_
 _symmetry_equiv_pos_site_id
 _symmetry_equiv_pos_as_xyz
  1  'x, y, z'
loop_
 _atom_site_type_symbol
 _atom_site_label
 _atom_site_symmetry_multiplicity
 _atom_site_fract_x
 _atom_site_fract_y
 _atom_site_fract_z
 _atom_site_occupancy
  Ca  Ca0  1  0.445880  0.235356  0.750724  1
  Ca  Ca1  1  0.554120  0.764644  0.249276  1
  Ca  Ca2  1  0.945880  0.764644  0.749276  1
  Ca  Ca3  1  0.054120  0.235356  0.250724  1
  Sc  Sc4  1  0.000000  0.000000  0.000000  1
  Sc  Sc5  1  0.500000  0.000000  0.500000  1
  Pt  Pt6  1  0.000000  0.500000  0.500000  1
  Pt  Pt7  1  0.500000  0.500000  0.000000  1
  O  O8  1  0.033459  0.354696  0.744155  1
  O  O9  1  0.966541  0.645304  0.255845  1
  O  O10  1  0.533459  0.645304  0.755845  1
  O  O11  1  0.466541  0.354696  0.244155  1
  O  O12  1  0.698418  0.844945  0.949024  1
  O  O13  1  0.301582  0.155055  0.050976  1
  O  O14  1  0.198418  0.155055  0.550976  1
  O  O15  1  0.801582  0.844945  0.449024  1
  O  O16  1  0.209032  0.746697  0.946638  1
  O  O17  1  0.790968  0.253303  0.053362  1
  O  O18  1  0.709032  0.253303  0.553362  1
  O  O19  1  0.290968  0.746697  0.446638  1
