# generated using pymatgen
data_TmLu4Bi2Sb
_symmetry_space_group_name_H-M   'P 1'
_cell_length_a   8.06125400
_cell_length_b   9.32983500
_cell_length_c   11.75429800
_cell_angle_alpha   90.00000000
_cell_angle_beta   90.00000000
_cell_angle_gamma   90.00000000
_symmetry_Int_Tables_number   1
_chemical_formula_structural   TmLu4Bi2Sb
_chemical_formula_sum   'Tm4 Lu16 Bi8 Sb4'
_cell_volume   884.04274744
_cell_formula_units_Z   4
loop_
 _symmetry_equiv_pos_site_id
 _symmetry_equiv_pos_as_xyz
  1  'x, y, z'
loop_
 _atom_site_type_symbol
 _atom_site_label
 _atom_site_symmetry_multiplicity
 _atom_site_fract_x
 _atom_site_fract_y
 _atom_site_fract_z
 _atom_site_occupancy
  Tm  Tm0  1  0.185998  0.250000  0.782497  1
  Tm  Tm1  1  0.814002  0.750000  0.217503  1
  Tm  Tm2  1  0.314002  0.750000  0.282497  1
  Tm  Tm3  1  0.685998  0.250000  0.717503  1
  Lu  Lu4  1  0.027917  0.250000  0.511152  1
  Lu  Lu5  1  0.972083  0.750000  0.488848  1
  Lu  Lu6  1  0.472083  0.750000  0.011152  1
  Lu  Lu7  1  0.527917  0.250000  0.988848  1
  Lu  Lu8  1  0.355558  0.250000  0.284472  1
  Lu  Lu9  1  0.644442  0.750000  0.715528  1
  Lu  Lu10  1  0.144442  0.750000  0.784472  1
  Lu  Lu11  1  0.855558  0.250000  0.215528  1
  Lu  Lu12  1  0.190872  0.065469  0.059412  1
  Lu  Lu13  1  0.809128  0.934531  0.940588  1
  Lu  Lu14  1  0.309128  0.934531  0.559412  1
  Lu  Lu15  1  0.809128  0.565469  0.940588  1
  Lu  Lu16  1  0.690872  0.065469  0.440588  1
  Lu  Lu17  1  0.190872  0.434531  0.059412  1
  Lu  Lu18  1  0.690872  0.434531  0.440588  1
  Lu  Lu19  1  0.309128  0.565469  0.559412  1
  Bi  Bi20  1  0.066920  0.004013  0.325797  1
  Bi  Bi21  1  0.933080  0.995987  0.674203  1
  Bi  Bi22  1  0.433080  0.995987  0.825797  1
  Bi  Bi23  1  0.933080  0.504013  0.674203  1
  Bi  Bi24  1  0.566920  0.004013  0.174203  1
  Bi  Bi25  1  0.066920  0.495987  0.325797  1
  Bi  Bi26  1  0.566920  0.495987  0.174203  1
  Bi  Bi27  1  0.433080  0.504013  0.825797  1
  Sb  Sb28  1  0.406389  0.250000  0.541403  1
  Sb  Sb29  1  0.593611  0.750000  0.458597  1
  Sb  Sb30  1  0.093611  0.750000  0.041403  1
  Sb  Sb31  1  0.906389  0.250000  0.958597  1
