# generated using pymatgen
data_Ca3Yb4Pr13Sn16
_symmetry_space_group_name_H-M   'P 1'
_cell_length_a   8.07954074
_cell_length_b   8.55595150
_cell_length_c   16.17145233
_cell_angle_alpha   90.01785664
_cell_angle_beta   89.96449840
_cell_angle_gamma   90.00052309
_symmetry_Int_Tables_number   1
_chemical_formula_structural   Ca3Yb4Pr13Sn16
_chemical_formula_sum   'Ca3 Yb4 Pr13 Sn16'
_cell_volume   1117.90245362
_cell_formula_units_Z   1
loop_
 _symmetry_equiv_pos_site_id
 _symmetry_equiv_pos_as_xyz
  1  'x, y, z'
loop_
 _atom_site_type_symbol
 _atom_site_label
 _atom_site_symmetry_multiplicity
 _atom_site_fract_x
 _atom_site_fract_y
 _atom_site_fract_z
 _atom_site_occupancy
  Ca  Ca0  1  0.662055  0.002299  0.749871  1
  Ca  Ca1  1  0.836674  0.502427  0.251606  1
  Ca  Ca2  1  0.337641  0.994743  0.250937  1
  Yb  Yb3  1  0.330327  0.829154  0.876810  1
  Yb  Yb4  1  0.832337  0.670764  0.622777  1
  Yb  Yb5  1  0.669382  0.169487  0.377282  1
  Yb  Yb6  1  0.163008  0.498942  0.749907  1
  Pr  Pr7  1  0.166136  0.325846  0.123430  1
  Pr  Pr8  1  0.666507  0.172261  0.124332  1
  Pr  Pr9  1  0.165971  0.326804  0.375894  1
  Pr  Pr10  1  0.335313  0.827066  0.624787  1
  Pr  Pr11  1  0.835197  0.674623  0.874577  1
  Pr  Pr12  1  0.490528  0.315814  0.904344  1
  Pr  Pr13  1  0.991159  0.187432  0.596465  1
  Pr  Pr14  1  0.510508  0.685125  0.404516  1
  Pr  Pr15  1  0.008408  0.814589  0.095504  1
  Pr  Pr16  1  0.508849  0.683434  0.095758  1
  Pr  Pr17  1  0.005740  0.816031  0.405009  1
  Pr  Pr18  1  0.493330  0.315862  0.594998  1
  Pr  Pr19  1  0.990159  0.185660  0.902782  1
  Sn  Sn20  1  0.327734  0.033319  0.038500  1
  Sn  Sn21  1  0.827454  0.465514  0.461182  1
  Sn  Sn22  1  0.673955  0.965662  0.539665  1
  Sn  Sn23  1  0.173785  0.535786  0.960807  1
  Sn  Sn24  1  0.671200  0.962998  0.961715  1
  Sn  Sn25  1  0.173298  0.537752  0.537981  1
  Sn  Sn26  1  0.328731  0.036291  0.462116  1
  Sn  Sn27  1  0.825515  0.463358  0.036787  1
  Sn  Sn28  1  0.532917  0.604073  0.750093  1
  Sn  Sn29  1  0.032731  0.898401  0.749573  1
  Sn  Sn30  1  0.468507  0.397264  0.249810  1
  Sn  Sn31  1  0.967603  0.103219  0.250838  1
  Sn  Sn32  1  0.288731  0.141907  0.749609  1
  Sn  Sn33  1  0.788323  0.359806  0.750477  1
  Sn  Sn34  1  0.710157  0.857408  0.249325  1
  Sn  Sn35  1  0.210131  0.638879  0.249937  1
