# generated using pymatgen
data_La2HoSn6Ru
_symmetry_space_group_name_H-M   'P 1'
_cell_length_a   8.63268837
_cell_length_b   8.63268773
_cell_length_c   13.58037900
_cell_angle_alpha   90.00000000
_cell_angle_beta   90.00000000
_cell_angle_gamma   148.19331814
_symmetry_Int_Tables_number   1
_chemical_formula_structural   La2HoSn6Ru
_chemical_formula_sum   'La4 Ho2 Sn12 Ru2'
_cell_volume   533.40839475
_cell_formula_units_Z   2
loop_
 _symmetry_equiv_pos_site_id
 _symmetry_equiv_pos_as_xyz
  1  'x, y, z'
loop_
 _atom_site_type_symbol
 _atom_site_label
 _atom_site_symmetry_multiplicity
 _atom_site_fract_x
 _atom_site_fract_y
 _atom_site_fract_z
 _atom_site_occupancy
  La  La0  1  0.401415  0.598585  0.404806  1
  La  La1  1  0.598585  0.401415  0.595194  1
  La  La2  1  0.401415  0.598585  0.095194  1
  La  La3  1  0.598585  0.401415  0.904806  1
  Ho  Ho4  1  0.604631  0.395369  0.250000  1
  Ho  Ho5  1  0.395369  0.604631  0.750000  1
  Sn  Sn6  1  0.924028  0.075972  0.919362  1
  Sn  Sn7  1  0.075972  0.924028  0.080638  1
  Sn  Sn8  1  0.924028  0.075972  0.580638  1
  Sn  Sn9  1  0.075972  0.924028  0.419362  1
  Sn  Sn10  1  0.961729  0.038271  0.250000  1
  Sn  Sn11  1  0.038271  0.961729  0.750000  1
  Sn  Sn12  1  0.744982  0.255019  0.432315  1
  Sn  Sn13  1  0.255019  0.744981  0.567685  1
  Sn  Sn14  1  0.744982  0.255019  0.067685  1
  Sn  Sn15  1  0.255019  0.744981  0.932315  1
  Sn  Sn16  1  0.230584  0.769416  0.250000  1
  Sn  Sn17  1  0.769416  0.230584  0.750000  1
  Ru  Ru18  1  0.799905  0.200095  0.250000  1
  Ru  Ru19  1  0.200095  0.799905  0.750000  1
