# generated using pymatgen
data_NdEr5(Ir8Rh)2
_symmetry_space_group_name_H-M   'P 1'
_cell_length_a   5.30998400
_cell_length_b   5.30993158
_cell_length_c   17.43715500
_cell_angle_alpha   90.00000000
_cell_angle_beta   90.00000000
_cell_angle_gamma   120.00004616
_symmetry_Int_Tables_number   1
_chemical_formula_structural   NdEr5(Ir8Rh)2
_chemical_formula_sum   'Nd1 Er5 Ir16 Rh2'
_cell_volume   425.78287994
_cell_formula_units_Z   1
loop_
 _symmetry_equiv_pos_site_id
 _symmetry_equiv_pos_as_xyz
  1  'x, y, z'
loop_
 _atom_site_type_symbol
 _atom_site_label
 _atom_site_symmetry_multiplicity
 _atom_site_fract_x
 _atom_site_fract_y
 _atom_site_fract_z
 _atom_site_occupancy
  Nd  Nd0  1  0.666668  0.333336  0.250000  1
  Er  Er1  1  0.333326  0.666657  0.541299  1
  Er  Er2  1  0.666670  0.333333  0.040167  1
  Er  Er3  1  0.666670  0.333333  0.459833  1
  Er  Er4  1  0.333326  0.666657  0.958701  1
  Er  Er5  1  0.333338  0.666666  0.750000  1
  Ir  Ir6  1  0.167767  0.335546  0.124864  1
  Ir  Ir7  1  0.832206  0.664433  0.625860  1
  Ir  Ir8  1  0.664460  0.832232  0.124869  1
  Ir  Ir9  1  0.167781  0.832234  0.124866  1
  Ir  Ir10  1  0.832232  0.167799  0.625856  1
  Ir  Ir11  1  0.335560  0.167768  0.625863  1
  Ir  Ir12  1  0.832206  0.664433  0.874140  1
  Ir  Ir13  1  0.832232  0.167799  0.874144  1
  Ir  Ir14  1  0.335560  0.167768  0.874137  1
  Ir  Ir15  1  0.664460  0.832232  0.375131  1
  Ir  Ir16  1  0.167781  0.832234  0.375134  1
  Ir  Ir17  1  0.167767  0.335546  0.375136  1
  Ir  Ir18  1  0.999995  0.000002  0.250000  1
  Ir  Ir19  1  0.999993  0.000006  0.750000  1
  Ir  Ir20  1  0.999988  0.999988  0.999525  1
  Ir  Ir21  1  0.999988  0.999988  0.500475  1
  Rh  Rh22  1  0.333335  0.666656  0.250000  1
  Rh  Rh23  1  0.666689  0.333354  0.750000  1
