# generated using pymatgen
data_Dy4Al19Rh5
_symmetry_space_group_name_H-M   'P 1'
_cell_length_a   7.59113512
_cell_length_b   7.59112636
_cell_length_c   9.48271700
_cell_angle_alpha   89.84132385
_cell_angle_beta   89.84129384
_cell_angle_gamma   119.13667752
_symmetry_Int_Tables_number   1
_chemical_formula_structural   Dy4Al19Rh5
_chemical_formula_sum   'Dy4 Al19 Rh5'
_cell_volume   477.29031125
_cell_formula_units_Z   1
loop_
 _symmetry_equiv_pos_site_id
 _symmetry_equiv_pos_as_xyz
  1  'x, y, z'
loop_
 _atom_site_type_symbol
 _atom_site_label
 _atom_site_symmetry_multiplicity
 _atom_site_fract_x
 _atom_site_fract_y
 _atom_site_fract_z
 _atom_site_occupancy
  Dy  Dy0  1  0.995313  0.681125  0.247468  1
  Dy  Dy1  1  0.004687  0.318875  0.752532  1
  Dy  Dy2  1  0.681126  0.995312  0.247468  1
  Dy  Dy3  1  0.318874  0.004688  0.752532  1
  Al  Al4  1  0.140609  0.140609  0.260925  1
  Al  Al5  1  0.859391  0.859391  0.739075  1
  Al  Al6  1  0.004355  0.349895  0.081761  1
  Al  Al7  1  0.995645  0.650105  0.918239  1
  Al  Al8  1  0.001217  0.662879  0.570784  1
  Al  Al9  1  0.337122  0.998783  0.429216  1
  Al  Al10  1  0.998783  0.337121  0.429216  1
  Al  Al11  1  0.662878  0.001217  0.570784  1
  Al  Al12  1  0.650105  0.995646  0.918238  1
  Al  Al13  1  0.349895  0.004354  0.081762  1
  Al  Al14  1  0.332216  0.332216  0.548306  1
  Al  Al15  1  0.667784  0.667784  0.451694  1
  Al  Al16  1  0.653732  0.653732  0.060688  1
  Al  Al17  1  0.346268  0.346268  0.939312  1
  Al  Al18  1  0.339089  0.554739  0.252766  1
  Al  Al19  1  0.660911  0.445261  0.747234  1
  Al  Al20  1  0.554739  0.339088  0.252767  1
  Al  Al21  1  0.445261  0.660912  0.747233  1
  Al  Al22  1  0.000000  0.000000  0.000000  1
  Rh  Rh23  1  0.672479  0.327521  0.000000  1
  Rh  Rh24  1  0.327521  0.672479  0.000000  1
  Rh  Rh25  1  0.328516  0.671485  0.500000  1
  Rh  Rh26  1  0.671484  0.328515  0.500000  1
  Rh  Rh27  1  0.000000  0.000000  0.500000  1
