# generated using pymatgen
data_Lu5AlCo5
_symmetry_space_group_name_H-M   'P 1'
_cell_length_a   5.33635198
_cell_length_b   5.33635225
_cell_length_c   20.25377700
_cell_angle_alpha   90.00000000
_cell_angle_beta   90.00000000
_cell_angle_gamma   136.65315969
_symmetry_Int_Tables_number   1
_chemical_formula_structural   Lu5AlCo5
_chemical_formula_sum   'Lu10 Al2 Co10'
_cell_volume   395.89547554
_cell_formula_units_Z   2
loop_
 _symmetry_equiv_pos_site_id
 _symmetry_equiv_pos_as_xyz
  1  'x, y, z'
loop_
 _atom_site_type_symbol
 _atom_site_label
 _atom_site_symmetry_multiplicity
 _atom_site_fract_x
 _atom_site_fract_y
 _atom_site_fract_z
 _atom_site_occupancy
  Lu  Lu0  1  0.291370  0.708630  0.250000  1
  Lu  Lu1  1  0.292722  0.707278  0.066542  1
  Lu  Lu2  1  0.996093  0.003907  0.841853  1
  Lu  Lu3  1  0.708630  0.291370  0.750000  1
  Lu  Lu4  1  0.707278  0.292722  0.566542  1
  Lu  Lu5  1  0.003907  0.996093  0.341853  1
  Lu  Lu6  1  0.996093  0.003907  0.658147  1
  Lu  Lu7  1  0.707278  0.292722  0.933458  1
  Lu  Lu8  1  0.003907  0.996093  0.158147  1
  Lu  Lu9  1  0.292722  0.707278  0.433458  1
  Al  Al10  1  0.000000  0.000000  0.500000  1
  Al  Al11  1  0.000000  0.000000  0.000000  1
  Co  Co12  1  0.290893  0.709107  0.654922  1
  Co  Co13  1  0.583561  0.416439  0.441488  1
  Co  Co14  1  0.414141  0.585859  0.750000  1
  Co  Co15  1  0.416439  0.583561  0.941488  1
  Co  Co16  1  0.585859  0.414141  0.250000  1
  Co  Co17  1  0.416439  0.583561  0.558512  1
  Co  Co18  1  0.709107  0.290893  0.345078  1
  Co  Co19  1  0.709107  0.290893  0.154922  1
  Co  Co20  1  0.583561  0.416439  0.058512  1
  Co  Co21  1  0.290893  0.709107  0.845078  1
