# generated using pymatgen
data_CaYRh2O7
_symmetry_space_group_name_H-M   'P 1'
_cell_length_a   7.25132057
_cell_length_b   7.25131992
_cell_length_c   7.25132116
_cell_angle_alpha   120.26254147
_cell_angle_beta   119.80242248
_cell_angle_gamma   89.94420982
_symmetry_Int_Tables_number   1
_chemical_formula_structural   CaYRh2O7
_chemical_formula_sum   'Ca2 Y2 Rh4 O14'
_cell_volume   269.47225510
_cell_formula_units_Z   2
loop_
 _symmetry_equiv_pos_site_id
 _symmetry_equiv_pos_as_xyz
  1  'x, y, z'
loop_
 _atom_site_type_symbol
 _atom_site_label
 _atom_site_symmetry_multiplicity
 _atom_site_fract_x
 _atom_site_fract_y
 _atom_site_fract_z
 _atom_site_occupancy
  Ca  Ca0  1  0.500000  0.500000  0.500000  1
  Ca  Ca1  1  0.500000  0.000000  0.000000  1
  Y  Y2  1  0.500000  0.500000  0.000000  1
  Y  Y3  1  0.000000  0.500000  0.500000  1
  Rh  Rh4  1  0.000000  0.000000  0.500000  1
  Rh  Rh5  1  0.000000  0.500000  0.000000  1
  Rh  Rh6  1  0.000000  0.000000  0.000000  1
  Rh  Rh7  1  0.500000  0.000000  0.500000  1
  O  O8  1  0.369265  0.619265  0.750000  1
  O  O9  1  0.630735  0.380735  0.250000  1
  O  O10  1  0.324869  0.074869  0.250000  1
  O  O11  1  0.917020  0.667020  0.250000  1
  O  O12  1  0.329177  0.669272  0.244959  1
  O  O13  1  0.924313  0.084218  0.255041  1
  O  O14  1  0.329177  0.084218  0.659906  1
  O  O15  1  0.924313  0.669272  0.840094  1
  O  O16  1  0.675131  0.925131  0.750000  1
  O  O17  1  0.082980  0.332980  0.750000  1
  O  O18  1  0.670823  0.330728  0.755041  1
  O  O19  1  0.075687  0.915782  0.744959  1
  O  O20  1  0.670823  0.915782  0.340094  1
  O  O21  1  0.075687  0.330728  0.159906  1
