# generated using pymatgen
data_DyEr3(Pd2Pb)2
_symmetry_space_group_name_H-M   'P 1'
_cell_length_a   7.87006772
_cell_length_b   7.87006772
_cell_length_c   3.63500600
_cell_angle_alpha   90.00000000
_cell_angle_beta   90.00000000
_cell_angle_gamma   89.80226928
_symmetry_Int_Tables_number   1
_chemical_formula_structural   DyEr3(Pd2Pb)2
_chemical_formula_sum   'Dy1 Er3 Pd4 Pb2'
_cell_volume   225.14353682
_cell_formula_units_Z   1
loop_
 _symmetry_equiv_pos_site_id
 _symmetry_equiv_pos_as_xyz
  1  'x, y, z'
loop_
 _atom_site_type_symbol
 _atom_site_label
 _atom_site_symmetry_multiplicity
 _atom_site_fract_x
 _atom_site_fract_y
 _atom_site_fract_z
 _atom_site_occupancy
  Dy  Dy0  1  0.328687  0.828687  0.500000  1
  Er  Er1  1  0.671222  0.171222  0.500000  1
  Er  Er2  1  0.170620  0.329181  0.500000  1
  Er  Er3  1  0.829181  0.670620  0.500000  1
  Pd  Pd4  1  0.374931  0.126812  0.000000  1
  Pd  Pd5  1  0.124442  0.624442  0.000000  1
  Pd  Pd6  1  0.626812  0.874931  0.000000  1
  Pd  Pd7  1  0.874070  0.374070  0.000000  1
  Pb  Pb8  1  0.999430  0.000605  0.000000  1
  Pb  Pb9  1  0.500605  0.499430  0.000000  1
