# generated using pymatgen
data_Ce2Dy(InRh)3
_symmetry_space_group_name_H-M   'P 1'
_cell_length_a   7.56328600
_cell_length_b   7.71066002
_cell_length_c   3.90555000
_cell_angle_alpha   90.00000000
_cell_angle_beta   90.00000000
_cell_angle_gamma   119.36973495
_symmetry_Int_Tables_number   1
_chemical_formula_structural   Ce2Dy(InRh)3
_chemical_formula_sum   'Ce2 Dy1 In3 Rh3'
_cell_volume   198.48980953
_cell_formula_units_Z   1
loop_
 _symmetry_equiv_pos_site_id
 _symmetry_equiv_pos_as_xyz
  1  'x, y, z'
loop_
 _atom_site_type_symbol
 _atom_site_label
 _atom_site_symmetry_multiplicity
 _atom_site_fract_x
 _atom_site_fract_y
 _atom_site_fract_z
 _atom_site_occupancy
  Ce  Ce0  1  0.999331  0.412665  0.500000  1
  Ce  Ce1  1  0.586666  0.587335  0.500000  1
  Dy  Dy2  1  0.407394  0.000000  0.500000  1
  In  In3  1  0.737259  0.000000  0.000000  1
  In  In4  1  0.007926  0.753202  0.000000  1
  In  In5  1  0.254725  0.246798  0.000000  1
  Rh  Rh6  1  0.331013  0.649356  0.000000  1
  Rh  Rh7  1  0.681658  0.350644  0.000000  1
  Rh  Rh8  1  0.994029  0.000000  0.500000  1
