# generated using pymatgen
data_TbDy3LuInAu4
_symmetry_space_group_name_H-M   'P 1'
_cell_length_a   8.08176014
_cell_length_b   8.08260914
_cell_length_c   3.75717300
_cell_angle_alpha   90.00000000
_cell_angle_beta   90.00000000
_cell_angle_gamma   89.97863332
_symmetry_Int_Tables_number   1
_chemical_formula_structural   TbDy3LuInAu4
_chemical_formula_sum   'Tb1 Dy3 Lu1 In1 Au4'
_cell_volume   245.42494198
_cell_formula_units_Z   1
loop_
 _symmetry_equiv_pos_site_id
 _symmetry_equiv_pos_as_xyz
  1  'x, y, z'
loop_
 _atom_site_type_symbol
 _atom_site_label
 _atom_site_symmetry_multiplicity
 _atom_site_fract_x
 _atom_site_fract_y
 _atom_site_fract_z
 _atom_site_occupancy
  Tb  Tb0  1  0.316771  0.855291  0.500000  1
  Dy  Dy1  1  0.855279  0.683092  0.500000  1
  Dy  Dy2  1  0.683270  0.144710  0.500000  1
  Dy  Dy3  1  0.144556  0.316960  0.500000  1
  Lu  Lu4  1  0.500046  0.499896  0.000000  1
  In  In5  1  0.999808  0.000087  0.000000  1
  Au  Au6  1  0.147047  0.617813  0.000000  1
  Au  Au7  1  0.618650  0.852728  0.000000  1
  Au  Au8  1  0.381873  0.147662  0.000000  1
  Au  Au9  1  0.852699  0.381761  0.000000  1
