# generated using pymatgen
data_Ho16In4Ni2IrRu
_symmetry_space_group_name_H-M   'P 1'
_cell_length_a   9.57332097
_cell_length_b   9.55535943
_cell_length_c   9.57377409
_cell_angle_alpha   60.17263084
_cell_angle_beta   60.00156478
_cell_angle_gamma   59.93780367
_symmetry_Int_Tables_number   1
_chemical_formula_structural   Ho16In4Ni2IrRu
_chemical_formula_sum   'Ho16 In4 Ni2 Ir1 Ru1'
_cell_volume   619.78531848
_cell_formula_units_Z   1
loop_
 _symmetry_equiv_pos_site_id
 _symmetry_equiv_pos_as_xyz
  1  'x, y, z'
loop_
 _atom_site_type_symbol
 _atom_site_label
 _atom_site_symmetry_multiplicity
 _atom_site_fract_x
 _atom_site_fract_y
 _atom_site_fract_z
 _atom_site_occupancy
  Ho  Ho0  1  0.442882  0.435817  0.060413  1
  Ho  Ho1  1  0.651390  0.651007  0.046215  1
  Ho  Ho2  1  0.190708  0.809017  0.188979  1
  Ho  Ho3  1  0.060888  0.435817  0.060413  1
  Ho  Ho4  1  0.189602  0.810206  0.810591  1
  Ho  Ho5  1  0.059919  0.439242  0.440921  1
  Ho  Ho6  1  0.809678  0.192244  0.188401  1
  Ho  Ho7  1  0.651105  0.650984  0.653180  1
  Ho  Ho8  1  0.811494  0.190573  0.809487  1
  Ho  Ho9  1  0.188446  0.190573  0.809487  1
  Ho  Ho10  1  0.044732  0.650984  0.653180  1
  Ho  Ho11  1  0.437449  0.062449  0.062653  1
  Ho  Ho12  1  0.061441  0.060741  0.436145  1
  Ho  Ho13  1  0.649963  0.047512  0.652564  1
  Ho  Ho14  1  0.811296  0.809017  0.188979  1
  Ho  Ho15  1  0.441673  0.060741  0.436145  1
  In  In16  1  0.417737  0.417350  0.417039  1
  In  In17  1  0.417515  0.417268  0.747705  1
  In  In18  1  0.417668  0.747307  0.417360  1
  In  In19  1  0.747874  0.417350  0.417039  1
  Ni  Ni20  1  0.424606  0.859577  0.858907  1
  Ni  Ni21  1  0.856909  0.859577  0.858907  1
  Ir  Ir22  1  0.857261  0.859928  0.425551  1
  Ru  Ru23  1  0.857769  0.424720  0.859742  1
