# generated using pymatgen
data_Tb8In4Pt3Au5
_symmetry_space_group_name_H-M   'P 1'
_cell_length_a   7.99483624
_cell_length_b   7.99483650
_cell_length_c   7.34590655
_cell_angle_alpha   90.05168272
_cell_angle_beta   90.05168408
_cell_angle_gamma   90.63322084
_symmetry_Int_Tables_number   1
_chemical_formula_structural   Tb8In4Pt3Au5
_chemical_formula_sum   'Tb8 In4 Pt3 Au5'
_cell_volume   469.50224944
_cell_formula_units_Z   1
loop_
 _symmetry_equiv_pos_site_id
 _symmetry_equiv_pos_as_xyz
  1  'x, y, z'
loop_
 _atom_site_type_symbol
 _atom_site_label
 _atom_site_symmetry_multiplicity
 _atom_site_fract_x
 _atom_site_fract_y
 _atom_site_fract_z
 _atom_site_occupancy
  Tb  Tb0  1  0.167874  0.167874  0.005003  1
  Tb  Tb1  1  0.825021  0.825021  0.999371  1
  Tb  Tb2  1  0.663621  0.345450  0.496245  1
  Tb  Tb3  1  0.345450  0.663621  0.496245  1
  Tb  Tb4  1  0.674929  0.334136  0.002965  1
  Tb  Tb5  1  0.334136  0.674929  0.002965  1
  Tb  Tb6  1  0.813444  0.813444  0.500359  1
  Tb  Tb7  1  0.181878  0.181878  0.496061  1
  In  In8  1  0.499740  0.005286  0.249619  1
  In  In9  1  0.500779  0.997314  0.748848  1
  In  In10  1  0.005286  0.499740  0.249619  1
  In  In11  1  0.997314  0.500779  0.748848  1
  Pt  Pt12  1  0.370567  0.370567  0.239110  1
  Pt  Pt13  1  0.626294  0.626294  0.760403  1
  Pt  Pt14  1  0.627780  0.627780  0.238938  1
  Au  Au15  1  0.870964  0.128148  0.736721  1
  Au  Au16  1  0.869915  0.125852  0.263833  1
  Au  Au17  1  0.371009  0.371009  0.764292  1
  Au  Au18  1  0.125852  0.869915  0.263833  1
  Au  Au19  1  0.128148  0.870964  0.736721  1
