# generated using pymatgen
data_Y6Ti7Al9Ir8
_symmetry_space_group_name_H-M   'P 1'
_cell_length_a   9.07128297
_cell_length_b   9.07128357
_cell_length_c   9.07128400
_cell_angle_alpha   60.09172023
_cell_angle_beta   60.09171803
_cell_angle_gamma   60.09172715
_symmetry_Int_Tables_number   1
_chemical_formula_structural   Y6Ti7Al9Ir8
_chemical_formula_sum   'Y6 Ti7 Al9 Ir8'
_cell_volume   528.92355268
_cell_formula_units_Z   1
loop_
 _symmetry_equiv_pos_site_id
 _symmetry_equiv_pos_as_xyz
  1  'x, y, z'
loop_
 _atom_site_type_symbol
 _atom_site_label
 _atom_site_symmetry_multiplicity
 _atom_site_fract_x
 _atom_site_fract_y
 _atom_site_fract_z
 _atom_site_occupancy
  Y  Y0  1  0.212379  0.212379  0.788837  1
  Y  Y1  1  0.788837  0.212379  0.212379  1
  Y  Y2  1  0.212379  0.788837  0.212379  1
  Y  Y3  1  0.792455  0.792455  0.199285  1
  Y  Y4  1  0.199285  0.792455  0.792455  1
  Y  Y5  1  0.792455  0.199285  0.792455  1
  Ti  Ti6  1  0.379115  0.379115  0.379115  1
  Ti  Ti7  1  0.380928  0.862478  0.380928  1
  Ti  Ti8  1  0.862478  0.380928  0.380928  1
  Ti  Ti9  1  0.380928  0.380928  0.862478  1
  Ti  Ti10  1  0.831758  0.504903  0.831758  1
  Ti  Ti11  1  0.504903  0.831758  0.831758  1
  Ti  Ti12  1  0.831758  0.831758  0.504903  1
  Al  Al13  1  0.171284  0.171284  0.171284  1
  Al  Al14  1  0.170886  0.489053  0.170886  1
  Al  Al15  1  0.489053  0.170886  0.170886  1
  Al  Al16  1  0.170886  0.170886  0.489053  1
  Al  Al17  1  0.618629  0.618629  0.618629  1
  Al  Al18  1  0.617900  0.144623  0.617900  1
  Al  Al19  1  0.144623  0.617900  0.617900  1
  Al  Al20  1  0.617900  0.617900  0.144623  1
  Al  Al21  1  0.824520  0.824520  0.824520  1
  Ir  Ir22  1  0.000499  0.000499  0.496738  1
  Ir  Ir23  1  0.496738  0.000499  0.000499  1
  Ir  Ir24  1  0.000499  0.496738  0.000499  1
  Ir  Ir25  1  0.502608  0.502608  0.998147  1
  Ir  Ir26  1  0.998147  0.502608  0.502608  1
  Ir  Ir27  1  0.502608  0.998147  0.502608  1
  Ir  Ir28  1  0.500547  0.500547  0.500547  1
  Ir  Ir29  1  0.003012  0.003012  0.003012  1
