# generated using pymatgen
data_Hf8TcNi2Rh
_symmetry_space_group_name_H-M   'P 1'
_cell_length_a   8.61573387
_cell_length_b   8.61573377
_cell_length_c   8.59299400
_cell_angle_alpha   60.08727770
_cell_angle_beta   60.08727807
_cell_angle_gamma   60.15679735
_symmetry_Int_Tables_number   1
_chemical_formula_structural   Hf8TcNi2Rh
_chemical_formula_sum   'Hf16 Tc2 Ni4 Rh2'
_cell_volume   452.16722084
_cell_formula_units_Z   2
loop_
 _symmetry_equiv_pos_site_id
 _symmetry_equiv_pos_as_xyz
  1  'x, y, z'
loop_
 _atom_site_type_symbol
 _atom_site_label
 _atom_site_symmetry_multiplicity
 _atom_site_fract_x
 _atom_site_fract_y
 _atom_site_fract_z
 _atom_site_occupancy
  Hf  Hf0  1  0.677704  0.108107  0.107093  1
  Hf  Hf1  1  0.108107  0.677704  0.107093  1
  Hf  Hf2  1  0.104284  0.104284  0.687280  1
  Hf  Hf3  1  0.104284  0.104284  0.104150  1
  Hf  Hf4  1  0.315789  0.315789  0.684211  1
  Hf  Hf5  1  0.686377  0.686377  0.313623  1
  Hf  Hf6  1  0.315919  0.689926  0.314943  1
  Hf  Hf7  1  0.689926  0.315919  0.679212  1
  Hf  Hf8  1  0.689926  0.315919  0.314943  1
  Hf  Hf9  1  0.315919  0.689926  0.679212  1
  Hf  Hf10  1  0.951961  0.951961  0.548039  1
  Hf  Hf11  1  0.551650  0.551650  0.948350  1
  Hf  Hf12  1  0.946278  0.551986  0.949669  1
  Hf  Hf13  1  0.551986  0.946278  0.552067  1
  Hf  Hf14  1  0.551986  0.946278  0.949669  1
  Hf  Hf15  1  0.946278  0.551986  0.552067  1
  Tc  Tc16  1  0.996520  0.332761  0.335358  1
  Tc  Tc17  1  0.332761  0.996520  0.335358  1
  Ni  Ni18  1  0.322166  0.889054  0.894389  1
  Ni  Ni19  1  0.889054  0.322166  0.894389  1
  Ni  Ni20  1  0.892054  0.892054  0.318957  1
  Ni  Ni21  1  0.892054  0.892054  0.896936  1
  Rh  Rh22  1  0.333506  0.333506  0.994927  1
  Rh  Rh23  1  0.333506  0.333506  0.338059  1
