# generated using pymatgen
data_Ca3Tb3Si24Os5Ru3
_symmetry_space_group_name_H-M   'P 1'
_cell_length_a   10.16982630
_cell_length_b   10.16973769
_cell_length_c   8.17296778
_cell_angle_alpha   89.92475475
_cell_angle_beta   90.04568569
_cell_angle_gamma   132.61168566
_symmetry_Int_Tables_number   1
_chemical_formula_structural   Ca3Tb3Si24Os5Ru3
_chemical_formula_sum   'Ca3 Tb3 Si24 Os5 Ru3'
_cell_volume   622.09445138
_cell_formula_units_Z   1
loop_
 _symmetry_equiv_pos_site_id
 _symmetry_equiv_pos_as_xyz
  1  'x, y, z'
loop_
 _atom_site_type_symbol
 _atom_site_label
 _atom_site_symmetry_multiplicity
 _atom_site_fract_x
 _atom_site_fract_y
 _atom_site_fract_z
 _atom_site_occupancy
  Ca  Ca0  1  0.499867  0.499796  0.500072  1
  Ca  Ca1  1  0.000005  0.000073  0.999458  1
  Ca  Ca2  1  0.500526  0.000578  0.750054  1
  Tb  Tb3  1  0.000536  0.500952  0.249993  1
  Tb  Tb4  1  0.500177  0.999734  0.250071  1
  Tb  Tb5  1  0.000187  0.500262  0.750010  1
  Si  Si6  1  0.795556  0.202504  0.501095  1
  Si  Si7  1  0.297925  0.705483  0.998320  1
  Si  Si8  1  0.205363  0.797946  0.501793  1
  Si  Si9  1  0.702473  0.295389  0.999024  1
  Si  Si10  1  0.333403  0.334750  0.832348  1
  Si  Si11  1  0.665630  0.668277  0.167396  1
  Si  Si12  1  0.167519  0.164753  0.330793  1
  Si  Si13  1  0.832961  0.831570  0.667065  1
  Si  Si14  1  0.122102  0.889615  0.731041  1
  Si  Si15  1  0.109289  0.878081  0.270565  1
  Si  Si16  1  0.608123  0.376725  0.229419  1
  Si  Si17  1  0.624200  0.391798  0.769487  1
  Si  Si18  1  0.877630  0.108915  0.270516  1
  Si  Si19  1  0.891129  0.123548  0.731040  1
  Si  Si20  1  0.390001  0.622528  0.769543  1
  Si  Si21  1  0.377131  0.608436  0.229328  1
  Si  Si22  1  0.346985  0.114211  0.505777  1
  Si  Si23  1  0.886197  0.654433  0.493923  1
  Si  Si24  1  0.385749  0.152983  0.007868  1
  Si  Si25  1  0.845194  0.613778  0.992148  1
  Si  Si26  1  0.652905  0.885157  0.493267  1
  Si  Si27  1  0.113944  0.345760  0.507826  1
  Si  Si28  1  0.614009  0.846409  0.994192  1
  Si  Si29  1  0.154566  0.386835  0.007187  1
  Os  Os30  1  0.672757  0.329962  0.498095  1
  Os  Os31  1  0.168999  0.827098  0.001943  1
  Os  Os32  1  0.326994  0.668963  0.497934  1
  Os  Os33  1  0.830003  0.172703  0.001871  1
  Os  Os34  1  0.126454  0.126353  0.625446  1
  Ru  Ru35  1  0.873240  0.873848  0.374745  1
  Ru  Ru36  1  0.374259  0.373706  0.124663  1
  Ru  Ru37  1  0.626017  0.626093  0.874683  1
