# generated using pymatgen
data_Na3Cr(PO4)2
_symmetry_space_group_name_H-M   'P 1'
_cell_length_a   5.24325342
_cell_length_b   5.24325405
_cell_length_c   14.01858968
_cell_angle_alpha   88.70609373
_cell_angle_beta   88.70609411
_cell_angle_gamma   57.86694188
_symmetry_Int_Tables_number   1
_chemical_formula_structural   Na3Cr(PO4)2
_chemical_formula_sum   'Na6 Cr2 P4 O16'
_cell_volume   326.24968433
_cell_formula_units_Z   2
loop_
 _symmetry_equiv_pos_site_id
 _symmetry_equiv_pos_as_xyz
  1  'x, y, z'
loop_
 _atom_site_type_symbol
 _atom_site_label
 _atom_site_symmetry_multiplicity
 _atom_site_fract_x
 _atom_site_fract_y
 _atom_site_fract_z
 _atom_site_occupancy
  Na  Na0  1  0.949828  0.050172  0.250000  1
  Na  Na1  1  0.050172  0.949828  0.750000  1
  Na  Na2  1  0.287181  0.374783  0.133520  1
  Na  Na3  1  0.625217  0.712819  0.366480  1
  Na  Na4  1  0.374783  0.287181  0.633520  1
  Na  Na5  1  0.712819  0.625217  0.866480  1
  Cr  Cr6  1  0.000000  0.000000  0.500000  1
  Cr  Cr7  1  0.000000  0.000000  0.000000  1
  P  P8  1  0.647824  0.688971  0.111586  1
  P  P9  1  0.688971  0.647824  0.611586  1
  P  P10  1  0.311029  0.352176  0.388414  1
  P  P11  1  0.352176  0.311029  0.888414  1
  O  O12  1  0.272850  0.068493  0.914800  1
  O  O13  1  0.931507  0.727150  0.585200  1
  O  O14  1  0.727150  0.931507  0.085200  1
  O  O15  1  0.068493  0.272850  0.414800  1
  O  O16  1  0.706855  0.143683  0.886383  1
  O  O17  1  0.856317  0.293145  0.613617  1
  O  O18  1  0.293145  0.856317  0.113617  1
  O  O19  1  0.143683  0.706855  0.386383  1
  O  O20  1  0.217767  0.561553  0.964401  1
  O  O21  1  0.438447  0.782233  0.535599  1
  O  O22  1  0.782233  0.438447  0.035599  1
  O  O23  1  0.561553  0.217767  0.464401  1
  O  O24  1  0.445972  0.225033  0.290353  1
  O  O25  1  0.774967  0.554028  0.209647  1
  O  O26  1  0.554028  0.774967  0.709647  1
  O  O27  1  0.225033  0.445972  0.790353  1
