# generated using pymatgen
data_LiYbH6Ir
_symmetry_space_group_name_H-M   'P 1'
_cell_length_a   6.98680700
_cell_length_b   6.98680700
_cell_length_c   6.98680700
_cell_angle_alpha   90.00000000
_cell_angle_beta   90.00000000
_cell_angle_gamma   90.00000000
_symmetry_Int_Tables_number   1
_chemical_formula_structural   LiYbH6Ir
_chemical_formula_sum   'Li4 Yb4 H24 Ir4'
_cell_volume   341.06428186
_cell_formula_units_Z   4
loop_
 _symmetry_equiv_pos_site_id
 _symmetry_equiv_pos_as_xyz
  1  'x, y, z'
loop_
 _atom_site_type_symbol
 _atom_site_label
 _atom_site_symmetry_multiplicity
 _atom_site_fract_x
 _atom_site_fract_y
 _atom_site_fract_z
 _atom_site_occupancy
  Li  Li0  1  0.000000  0.000000  0.500000  1
  Li  Li1  1  0.000000  0.500000  0.000000  1
  Li  Li2  1  0.500000  0.000000  0.000000  1
  Li  Li3  1  0.000000  0.000000  0.000000  1
  Yb  Yb4  1  0.500000  0.500000  0.500000  1
  Yb  Yb5  1  0.000000  0.500000  0.500000  1
  Yb  Yb6  1  0.500000  0.000000  0.500000  1
  Yb  Yb7  1  0.500000  0.500000  0.000000  1
  H  H8  1  0.753271  0.753271  0.493317  1
  H  H9  1  0.246729  0.246729  0.493317  1
  H  H10  1  0.012289  0.752998  0.752998  1
  H  H11  1  0.247002  0.987711  0.752998  1
  H  H12  1  0.752998  0.012289  0.752998  1
  H  H13  1  0.987711  0.247002  0.752998  1
  H  H14  1  0.753271  0.493317  0.753271  1
  H  H15  1  0.493317  0.753271  0.753271  1
  H  H16  1  0.506683  0.246729  0.753271  1
  H  H17  1  0.246729  0.506683  0.753271  1
  H  H18  1  0.247002  0.752998  0.987711  1
  H  H19  1  0.752998  0.247002  0.987711  1
  H  H20  1  0.752998  0.752998  0.012289  1
  H  H21  1  0.247002  0.247002  0.012289  1
  H  H22  1  0.246729  0.493317  0.246729  1
  H  H23  1  0.506683  0.753271  0.246729  1
  H  H24  1  0.493317  0.246729  0.246729  1
  H  H25  1  0.753271  0.506683  0.246729  1
  H  H26  1  0.987711  0.752998  0.247002  1
  H  H27  1  0.752998  0.987711  0.247002  1
  H  H28  1  0.247002  0.012289  0.247002  1
  H  H29  1  0.012289  0.247002  0.247002  1
  H  H30  1  0.246729  0.753271  0.506683  1
  H  H31  1  0.753271  0.246729  0.506683  1
  Ir  Ir32  1  0.250780  0.749220  0.749220  1
  Ir  Ir33  1  0.749220  0.250780  0.749220  1
  Ir  Ir34  1  0.749220  0.749220  0.250780  1
  Ir  Ir35  1  0.250780  0.250780  0.250780  1
