# generated using pymatgen
data_Y6Tm6Th4MgCd3Ir4
_symmetry_space_group_name_H-M   'P 1'
_cell_length_a   9.70770822
_cell_length_b   9.70770771
_cell_length_c   9.70770800
_cell_angle_alpha   59.99999900
_cell_angle_beta   60.00000077
_cell_angle_gamma   59.99999874
_symmetry_Int_Tables_number   1
_chemical_formula_structural   Y6Tm6Th4MgCd3Ir4
_chemical_formula_sum   'Y6 Tm6 Th4 Mg1 Cd3 Ir4'
_cell_volume   646.89695675
_cell_formula_units_Z   1
loop_
 _symmetry_equiv_pos_site_id
 _symmetry_equiv_pos_as_xyz
  1  'x, y, z'
loop_
 _atom_site_type_symbol
 _atom_site_label
 _atom_site_symmetry_multiplicity
 _atom_site_fract_x
 _atom_site_fract_y
 _atom_site_fract_z
 _atom_site_occupancy
  Y  Y0  1  0.937381  0.563865  0.563865  1
  Y  Y1  1  0.563435  0.936628  0.936628  1
  Y  Y2  1  0.563865  0.937381  0.563865  1
  Y  Y3  1  0.936628  0.563435  0.936628  1
  Y  Y4  1  0.563865  0.563865  0.937381  1
  Y  Y5  1  0.936628  0.936628  0.563435  1
  Tm  Tm6  1  0.813761  0.186415  0.186415  1
  Tm  Tm7  1  0.186398  0.814282  0.814282  1
  Tm  Tm8  1  0.186415  0.813761  0.186415  1
  Tm  Tm9  1  0.814282  0.186398  0.814282  1
  Tm  Tm10  1  0.186415  0.186415  0.813761  1
  Tm  Tm11  1  0.814282  0.814282  0.186398  1
  Th  Th12  1  0.350427  0.350427  0.350427  1
  Th  Th13  1  0.349786  0.349786  0.950305  1
  Th  Th14  1  0.349786  0.950305  0.349786  1
  Th  Th15  1  0.950305  0.349786  0.349786  1
  Mg  Mg16  1  0.578045  0.578045  0.578045  1
  Cd  Cd17  1  0.582944  0.582944  0.251917  1
  Cd  Cd18  1  0.582944  0.251917  0.582944  1
  Cd  Cd19  1  0.251917  0.582944  0.582944  1
  Ir  Ir20  1  0.142889  0.142889  0.142889  1
  Ir  Ir21  1  0.142678  0.142678  0.572247  1
  Ir  Ir22  1  0.142678  0.572247  0.142678  1
  Ir  Ir23  1  0.572247  0.142678  0.142678  1
