# generated using pymatgen
data_TbAl2(Fe3Tc2)2
_symmetry_space_group_name_H-M   'P 1'
_cell_length_a   4.78267932
_cell_length_b   6.58350038
_cell_length_c   6.58349890
_cell_angle_alpha   81.59131858
_cell_angle_beta   68.70115948
_cell_angle_gamma   68.70115934
_symmetry_Int_Tables_number   1
_chemical_formula_structural   TbAl2(Fe3Tc2)2
_chemical_formula_sum   'Tb1 Al2 Fe6 Tc4'
_cell_volume   179.91893188
_cell_formula_units_Z   1
loop_
 _symmetry_equiv_pos_site_id
 _symmetry_equiv_pos_as_xyz
  1  'x, y, z'
loop_
 _atom_site_type_symbol
 _atom_site_label
 _atom_site_symmetry_multiplicity
 _atom_site_fract_x
 _atom_site_fract_y
 _atom_site_fract_z
 _atom_site_occupancy
  Tb  Tb0  1  0.000000  0.000000  0.000000  1
  Al  Al1  1  0.500000  0.788342  0.211658  1
  Al  Al2  1  0.500000  0.211658  0.788342  1
  Fe  Fe3  1  0.000000  0.000000  0.500000  1
  Fe  Fe4  1  0.500000  0.000000  0.500000  1
  Fe  Fe5  1  0.500000  0.500000  0.000000  1
  Fe  Fe6  1  0.000000  0.500000  0.000000  1
  Fe  Fe7  1  0.726732  0.773268  0.773268  1
  Fe  Fe8  1  0.273268  0.226732  0.226732  1
  Tc  Tc9  1  0.000000  0.358993  0.641007  1
  Tc  Tc10  1  0.000000  0.641007  0.358993  1
  Tc  Tc11  1  0.639400  0.360600  0.360600  1
  Tc  Tc12  1  0.360600  0.639400  0.639400  1
