# generated using pymatgen
data_AgPCl6
_symmetry_space_group_name_H-M   'P 1'
_cell_length_a   9.84749900
_cell_length_b   9.84749900
_cell_length_c   5.69404100
_cell_angle_alpha   90.00000000
_cell_angle_beta   90.00000000
_cell_angle_gamma   90.00000000
_symmetry_Int_Tables_number   1
_chemical_formula_structural   AgPCl6
_chemical_formula_sum   'Ag2 P2 Cl12'
_cell_volume   552.16958485
_cell_formula_units_Z   2
loop_
 _symmetry_equiv_pos_site_id
 _symmetry_equiv_pos_as_xyz
  1  'x, y, z'
loop_
 _atom_site_type_symbol
 _atom_site_label
 _atom_site_symmetry_multiplicity
 _atom_site_fract_x
 _atom_site_fract_y
 _atom_site_fract_z
 _atom_site_occupancy
  Ag  Ag0  1  0.000000  0.500000  0.115314  1
  Ag  Ag1  1  0.500000  0.000000  0.884686  1
  P  P2  1  0.000000  0.000000  0.500000  1
  P  P3  1  0.500000  0.500000  0.500000  1
  Cl  Cl4  1  0.331663  0.831663  0.885548  1
  Cl  Cl5  1  0.075933  0.142093  0.707012  1
  Cl  Cl6  1  0.168337  0.331663  0.114452  1
  Cl  Cl7  1  0.668337  0.168337  0.885548  1
  Cl  Cl8  1  0.357907  0.424067  0.707012  1
  Cl  Cl9  1  0.831663  0.668337  0.114452  1
  Cl  Cl10  1  0.575933  0.357907  0.292988  1
  Cl  Cl11  1  0.142093  0.924067  0.292988  1
  Cl  Cl12  1  0.424067  0.642093  0.292988  1
  Cl  Cl13  1  0.642093  0.575933  0.707012  1
  Cl  Cl14  1  0.857907  0.075933  0.292988  1
  Cl  Cl15  1  0.924067  0.857907  0.707012  1
