# generated using pymatgen
data_Hf4AlV4P3
_symmetry_space_group_name_H-M   'P 1'
_cell_length_a   3.46252100
_cell_length_b   6.73216575
_cell_length_c   8.02671556
_cell_angle_alpha   89.45933916
_cell_angle_beta   90.00000000
_cell_angle_gamma   90.00000000
_symmetry_Int_Tables_number   1
_chemical_formula_structural   Hf4AlV4P3
_chemical_formula_sum   'Hf4 Al1 V4 P3'
_cell_volume   187.09653882
_cell_formula_units_Z   1
loop_
 _symmetry_equiv_pos_site_id
 _symmetry_equiv_pos_as_xyz
  1  'x, y, z'
loop_
 _atom_site_type_symbol
 _atom_site_label
 _atom_site_symmetry_multiplicity
 _atom_site_fract_x
 _atom_site_fract_y
 _atom_site_fract_z
 _atom_site_occupancy
  Hf  Hf0  1  0.250000  0.040230  0.829022  1
  Hf  Hf1  1  0.250000  0.539867  0.672568  1
  Hf  Hf2  1  0.750000  0.965611  0.158709  1
  Hf  Hf3  1  0.750000  0.444402  0.331111  1
  Al  Al4  1  0.250000  0.758505  0.363785  1
  V  V5  1  0.250000  0.133684  0.444794  1
  V  V6  1  0.250000  0.623767  0.051501  1
  V  V7  1  0.750000  0.881944  0.568983  1
  V  V8  1  0.750000  0.368462  0.939953  1
  P  P9  1  0.250000  0.261984  0.136776  1
  P  P10  1  0.750000  0.243958  0.639467  1
  P  P11  1  0.750000  0.737585  0.863333  1
