# generated using pymatgen
data_Er4GeAs5Rh7
_symmetry_space_group_name_H-M   'P 1'
_cell_length_a   7.26166401
_cell_length_b   7.26159092
_cell_length_c   7.26159034
_cell_angle_alpha   109.40170881
_cell_angle_beta   109.50745914
_cell_angle_gamma   109.50746126
_symmetry_Int_Tables_number   1
_chemical_formula_structural   Er4GeAs5Rh7
_chemical_formula_sum   'Er4 Ge1 As5 Rh7'
_cell_volume   294.75522258
_cell_formula_units_Z   1
loop_
 _symmetry_equiv_pos_site_id
 _symmetry_equiv_pos_as_xyz
  1  'x, y, z'
loop_
 _atom_site_type_symbol
 _atom_site_label
 _atom_site_symmetry_multiplicity
 _atom_site_fract_x
 _atom_site_fract_y
 _atom_site_fract_z
 _atom_site_occupancy
  Er  Er0  1  0.000048  0.000690  0.499506  1
  Er  Er1  1  0.000048  0.499506  0.000690  1
  Er  Er2  1  0.501373  0.000788  0.000788  1
  Er  Er3  1  0.498891  0.499502  0.499502  1
  Ge  Ge4  1  0.999887  0.681125  0.681125  1
  As  As5  1  0.681720  0.680402  0.998339  1
  As  As6  1  0.318293  0.998763  0.316893  1
  As  As7  1  0.000004  0.323497  0.323497  1
  As  As8  1  0.318293  0.316893  0.998763  1
  As  As9  1  0.681720  0.998339  0.680402  1
  Rh  Rh10  1  0.749091  0.250465  0.501483  1
  Rh  Rh11  1  0.749091  0.501483  0.250465  1
  Rh  Rh12  1  0.500134  0.249160  0.749399  1
  Rh  Rh13  1  0.250752  0.501680  0.752340  1
  Rh  Rh14  1  0.250752  0.752340  0.501680  1
  Rh  Rh15  1  0.500134  0.749399  0.249160  1
  Rh  Rh16  1  0.999767  0.995968  0.995968  1
