# generated using pymatgen
data_TbTl(PS3)2
_symmetry_space_group_name_H-M   'P 1'
_cell_length_a   7.40033000
_cell_length_b   6.55622343
_cell_length_c   10.21225700
_cell_angle_alpha   86.82661041
_cell_angle_beta   90.00000000
_cell_angle_gamma   90.00000000
_symmetry_Int_Tables_number   1
_chemical_formula_structural   TbTl(PS3)2
_chemical_formula_sum   'Tb2 Tl2 P4 S12'
_cell_volume   494.72072189
_cell_formula_units_Z   2
loop_
 _symmetry_equiv_pos_site_id
 _symmetry_equiv_pos_as_xyz
  1  'x, y, z'
loop_
 _atom_site_type_symbol
 _atom_site_label
 _atom_site_symmetry_multiplicity
 _atom_site_fract_x
 _atom_site_fract_y
 _atom_site_fract_z
 _atom_site_occupancy
  Tb  Tb0  1  0.201097  0.215774  0.997933  1
  Tb  Tb1  1  0.701097  0.784226  0.002067  1
  Tl  Tl2  1  0.474144  0.693205  0.501130  1
  Tl  Tl3  1  0.974144  0.306795  0.498870  1
  P  P4  1  0.686930  0.329681  0.833688  1
  P  P5  1  0.962442  0.799630  0.284774  1
  P  P6  1  0.186930  0.670319  0.166312  1
  P  P7  1  0.462442  0.200370  0.715226  1
  S  S8  1  0.773641  0.600184  0.754366  1
  S  S9  1  0.548013  0.168542  0.533005  1
  S  S10  1  0.758891  0.599015  0.262724  1
  S  S11  1  0.567578  0.372369  0.012813  1
  S  S12  1  0.396656  0.946668  0.835388  1
  S  S13  1  0.258891  0.400985  0.737276  1
  S  S14  1  0.067578  0.627631  0.987187  1
  S  S15  1  0.896656  0.053332  0.164612  1
  S  S16  1  0.048013  0.831458  0.466995  1
  S  S17  1  0.379499  0.898524  0.158866  1
  S  S18  1  0.879499  0.101476  0.841134  1
  S  S19  1  0.273641  0.399816  0.245634  1
