# generated using pymatgen
data_Pr3Th5Pt8
_symmetry_space_group_name_H-M   'P 1'
_cell_length_a   4.47194000
_cell_length_b   5.96611822
_cell_length_c   14.94099148
_cell_angle_alpha   89.57063782
_cell_angle_beta   90.00000000
_cell_angle_gamma   90.00000000
_symmetry_Int_Tables_number   1
_chemical_formula_structural   Pr3Th5Pt8
_chemical_formula_sum   'Pr3 Th5 Pt8'
_cell_volume   398.61629298
_cell_formula_units_Z   1
loop_
 _symmetry_equiv_pos_site_id
 _symmetry_equiv_pos_as_xyz
  1  'x, y, z'
loop_
 _atom_site_type_symbol
 _atom_site_label
 _atom_site_symmetry_multiplicity
 _atom_site_fract_x
 _atom_site_fract_y
 _atom_site_fract_z
 _atom_site_occupancy
  Pr  Pr0  1  0.250000  0.543193  0.284598  1
  Pr  Pr1  1  0.750000  0.458972  0.716012  1
  Pr  Pr2  1  0.250000  0.958991  0.783769  1
  Th  Th3  1  0.250000  0.757542  0.535263  1
  Th  Th4  1  0.250000  0.739071  0.034787  1
  Th  Th5  1  0.750000  0.253455  0.964945  1
  Th  Th6  1  0.750000  0.038620  0.216496  1
  Th  Th7  1  0.750000  0.247858  0.464602  1
  Pt  Pt8  1  0.250000  0.062224  0.351181  1
  Pt  Pt9  1  0.750000  0.556925  0.145550  1
  Pt  Pt10  1  0.750000  0.734450  0.403729  1
  Pt  Pt11  1  0.250000  0.441130  0.858479  1
  Pt  Pt12  1  0.750000  0.941450  0.641704  1
  Pt  Pt13  1  0.750000  0.775927  0.905792  1
  Pt  Pt14  1  0.250000  0.213843  0.099777  1
  Pt  Pt15  1  0.250000  0.276347  0.593313  1
