# generated using pymatgen
data_CsPr2Nd(SbAu)4
_symmetry_space_group_name_H-M   'P 1'
_cell_length_a   4.71242900
_cell_length_b   4.71242905
_cell_length_c   18.27135300
_cell_angle_alpha   90.00000000
_cell_angle_beta   90.00000000
_cell_angle_gamma   120.00000665
_symmetry_Int_Tables_number   1
_chemical_formula_structural   CsPr2Nd(SbAu)4
_chemical_formula_sum   'Cs1 Pr2 Nd1 Sb4 Au4'
_cell_volume   351.39126024
_cell_formula_units_Z   1
loop_
 _symmetry_equiv_pos_site_id
 _symmetry_equiv_pos_as_xyz
  1  'x, y, z'
loop_
 _atom_site_type_symbol
 _atom_site_label
 _atom_site_symmetry_multiplicity
 _atom_site_fract_x
 _atom_site_fract_y
 _atom_site_fract_z
 _atom_site_occupancy
  Cs  Cs0  1  0.000000  0.000000  0.250000  1
  Pr  Pr1  1  0.000000  0.000000  0.520460  1
  Pr  Pr2  1  0.000000  0.000000  0.979540  1
  Nd  Nd3  1  0.000000  0.000000  0.750000  1
  Sb  Sb4  1  0.333333  0.666667  0.404833  1
  Sb  Sb5  1  0.666667  0.333333  0.622971  1
  Sb  Sb6  1  0.666667  0.333333  0.877029  1
  Sb  Sb7  1  0.333333  0.666667  0.095167  1
  Au  Au8  1  0.666667  0.333333  0.429917  1
  Au  Au9  1  0.333333  0.666667  0.668297  1
  Au  Au10  1  0.333333  0.666667  0.831703  1
  Au  Au11  1  0.666667  0.333333  0.070083  1
