# generated using pymatgen
data_TbNb2Fe9
_symmetry_space_group_name_H-M   'P 1'
_cell_length_a   8.33792364
_cell_length_b   8.33792367
_cell_length_c   8.33792399
_cell_angle_alpha   34.33229508
_cell_angle_beta   34.33229169
_cell_angle_gamma   34.33229558
_symmetry_Int_Tables_number   1
_chemical_formula_structural   TbNb2Fe9
_chemical_formula_sum   'Tb1 Nb2 Fe9'
_cell_volume   164.44521680
_cell_formula_units_Z   1
loop_
 _symmetry_equiv_pos_site_id
 _symmetry_equiv_pos_as_xyz
  1  'x, y, z'
loop_
 _atom_site_type_symbol
 _atom_site_label
 _atom_site_symmetry_multiplicity
 _atom_site_fract_x
 _atom_site_fract_y
 _atom_site_fract_z
 _atom_site_occupancy
  Tb  Tb0  1  0.000000  0.000000  0.000000  1
  Nb  Nb1  1  0.143701  0.143701  0.143701  1
  Nb  Nb2  1  0.856299  0.856299  0.856299  1
  Fe  Fe3  1  0.500000  0.500000  0.500000  1
  Fe  Fe4  1  0.333318  0.333318  0.333318  1
  Fe  Fe5  1  0.666682  0.666682  0.666682  1
  Fe  Fe6  1  0.082942  0.587851  0.587851  1
  Fe  Fe7  1  0.587851  0.587851  0.082942  1
  Fe  Fe8  1  0.587851  0.082942  0.587851  1
  Fe  Fe9  1  0.412149  0.917058  0.412149  1
  Fe  Fe10  1  0.917058  0.412149  0.412149  1
  Fe  Fe11  1  0.412149  0.412149  0.917058  1
