# generated using pymatgen
data_CeErPa(SnIr)3
_symmetry_space_group_name_H-M   'P 1'
_cell_length_a   7.45580460
_cell_length_b   7.44525157
_cell_length_c   4.02966300
_cell_angle_alpha   90.00000000
_cell_angle_beta   90.00000000
_cell_angle_gamma   119.09424109
_symmetry_Int_Tables_number   1
_chemical_formula_structural   CeErPa(SnIr)3
_chemical_formula_sum   'Ce1 Er1 Pa1 Sn3 Ir3'
_cell_volume   195.46326561
_cell_formula_units_Z   1
loop_
 _symmetry_equiv_pos_site_id
 _symmetry_equiv_pos_as_xyz
  1  'x, y, z'
loop_
 _atom_site_type_symbol
 _atom_site_label
 _atom_site_symmetry_multiplicity
 _atom_site_fract_x
 _atom_site_fract_y
 _atom_site_fract_z
 _atom_site_occupancy
  Ce  Ce0  1  0.000615  0.588901  0.000000  1
  Er  Er1  1  0.593121  0.000618  0.000000  1
  Pa  Pa2  1  0.414189  0.413938  0.000000  1
  Sn  Sn3  1  0.987924  0.252322  0.500000  1
  Sn  Sn4  1  0.753478  0.757365  0.500000  1
  Sn  Sn5  1  0.257513  0.991455  0.500000  1
  Ir  Ir6  1  0.013425  0.014369  0.000000  1
  Ir  Ir7  1  0.646693  0.337639  0.500000  1
  Ir  Ir8  1  0.333042  0.643394  0.500000  1
