# generated using pymatgen
data_Sr2(FeN)3
_symmetry_space_group_name_H-M   'P 1'
_cell_length_a   6.51333734
_cell_length_b   6.51333695
_cell_length_c   6.33963547
_cell_angle_alpha   87.77280051
_cell_angle_beta   87.77279364
_cell_angle_gamma   118.71778002
_symmetry_Int_Tables_number   1
_chemical_formula_structural   Sr2(FeN)3
_chemical_formula_sum   'Sr4 Fe6 N6'
_cell_volume   235.18158890
_cell_formula_units_Z   2
loop_
 _symmetry_equiv_pos_site_id
 _symmetry_equiv_pos_as_xyz
  1  'x, y, z'
loop_
 _atom_site_type_symbol
 _atom_site_label
 _atom_site_symmetry_multiplicity
 _atom_site_fract_x
 _atom_site_fract_y
 _atom_site_fract_z
 _atom_site_occupancy
  Sr  Sr0  1  0.829294  0.675712  0.895703  1
  Sr  Sr1  1  0.324288  0.170706  0.604297  1
  Sr  Sr2  1  0.170706  0.324288  0.104297  1
  Sr  Sr3  1  0.675712  0.829294  0.395703  1
  Fe  Fe4  1  0.805711  0.194289  0.750000  1
  Fe  Fe5  1  0.194289  0.805711  0.250000  1
  Fe  Fe6  1  0.556943  0.154890  0.111813  1
  Fe  Fe7  1  0.443057  0.845110  0.888187  1
  Fe  Fe8  1  0.845110  0.443057  0.388187  1
  Fe  Fe9  1  0.154890  0.556943  0.611813  1
  N  N10  1  0.404587  0.595413  0.750000  1
  N  N11  1  0.595413  0.404587  0.250000  1
  N  N12  1  0.020283  0.735881  0.502968  1
  N  N13  1  0.735881  0.020283  0.002968  1
  N  N14  1  0.979717  0.264119  0.497032  1
  N  N15  1  0.264119  0.979717  0.997032  1
