# generated using pymatgen
data_Ho3Tm13In4OsRh3
_symmetry_space_group_name_H-M   'P 1'
_cell_length_a   9.55530832
_cell_length_b   9.54259597
_cell_length_c   9.57701678
_cell_angle_alpha   59.99222274
_cell_angle_beta   60.00229620
_cell_angle_gamma   59.88066642
_symmetry_Int_Tables_number   1
_chemical_formula_structural   Ho3Tm13In4OsRh3
_chemical_formula_sum   'Ho3 Tm13 In4 Os1 Rh3'
_cell_volume   616.90078234
_cell_formula_units_Z   1
loop_
 _symmetry_equiv_pos_site_id
 _symmetry_equiv_pos_as_xyz
  1  'x, y, z'
loop_
 _atom_site_type_symbol
 _atom_site_label
 _atom_site_symmetry_multiplicity
 _atom_site_fract_x
 _atom_site_fract_y
 _atom_site_fract_z
 _atom_site_occupancy
  Ho  Ho0  1  0.057331  0.057193  0.438680  1
  Ho  Ho1  1  0.444834  0.059906  0.435857  1
  Ho  Ho2  1  0.062611  0.438797  0.060596  1
  Tm  Tm3  1  0.047306  0.649162  0.650041  1
  Tm  Tm4  1  0.439251  0.438209  0.060699  1
  Tm  Tm5  1  0.649324  0.047053  0.650342  1
  Tm  Tm6  1  0.189407  0.809679  0.192675  1
  Tm  Tm7  1  0.190864  0.190880  0.809946  1
  Tm  Tm8  1  0.808840  0.809410  0.193478  1
  Tm  Tm9  1  0.439626  0.061125  0.059278  1
  Tm  Tm10  1  0.809691  0.189647  0.192777  1
  Tm  Tm11  1  0.058012  0.446569  0.437636  1
  Tm  Tm12  1  0.808990  0.192292  0.809550  1
  Tm  Tm13  1  0.192310  0.809155  0.809108  1
  Tm  Tm14  1  0.649641  0.649903  0.048346  1
  Tm  Tm15  1  0.651939  0.651778  0.650894  1
  In  In16  1  0.416093  0.418323  0.416249  1
  In  In17  1  0.749774  0.417227  0.415722  1
  In  In18  1  0.417927  0.748621  0.415407  1
  In  In19  1  0.418203  0.417171  0.747663  1
  Os  Os20  1  0.858199  0.857110  0.425554  1
  Rh  Rh21  1  0.858902  0.859210  0.860446  1
  Rh  Rh22  1  0.422994  0.858167  0.860162  1
  Rh  Rh23  1  0.857933  0.423416  0.858900  1
