# generated using pymatgen
data_Rb4ScAgTe4
_symmetry_space_group_name_H-M   'P 1'
_cell_length_a   9.32338259
_cell_length_b   9.32338192
_cell_length_c   9.32338200
_cell_angle_alpha   134.98256372
_cell_angle_beta   129.09385650
_cell_angle_gamma   70.27632512
_symmetry_Int_Tables_number   1
_chemical_formula_structural   Rb4ScAgTe4
_chemical_formula_sum   'Rb4 Sc1 Ag1 Te4'
_cell_volume   436.16092591
_cell_formula_units_Z   1
loop_
 _symmetry_equiv_pos_site_id
 _symmetry_equiv_pos_as_xyz
  1  'x, y, z'
loop_
 _atom_site_type_symbol
 _atom_site_label
 _atom_site_symmetry_multiplicity
 _atom_site_fract_x
 _atom_site_fract_y
 _atom_site_fract_z
 _atom_site_occupancy
  Rb  Rb0  1  0.469518  0.134043  0.315609  1
  Rb  Rb1  1  0.818434  0.653908  0.184391  1
  Rb  Rb2  1  0.530482  0.846092  0.664525  1
  Rb  Rb3  1  0.181566  0.365957  0.835475  1
  Sc  Sc4  1  0.000000  0.250000  0.250000  1
  Ag  Ag5  1  0.000000  0.750000  0.750000  1
  Te  Te6  1  0.089747  0.906763  0.207037  1
  Te  Te7  1  0.910253  0.117289  0.817014  1
  Te  Te8  1  0.300276  0.593237  0.682986  1
  Te  Te9  1  0.699724  0.382711  0.292963  1
