# generated using pymatgen
data_ReTc2Se4Cl
_symmetry_space_group_name_H-M   'P 1'
_cell_length_a   11.96807700
_cell_length_b   6.68436834
_cell_length_c   11.38960800
_cell_angle_alpha   67.15558408
_cell_angle_beta   90.00000000
_cell_angle_gamma   90.00000000
_symmetry_Int_Tables_number   1
_chemical_formula_structural   ReTc2Se4Cl
_chemical_formula_sum   'Re4 Tc8 Se16 Cl4'
_cell_volume   839.68869379
_cell_formula_units_Z   4
loop_
 _symmetry_equiv_pos_site_id
 _symmetry_equiv_pos_as_xyz
  1  'x, y, z'
loop_
 _atom_site_type_symbol
 _atom_site_label
 _atom_site_symmetry_multiplicity
 _atom_site_fract_x
 _atom_site_fract_y
 _atom_site_fract_z
 _atom_site_occupancy
  Re  Re0  1  0.575471  0.025254  0.351394  1
  Re  Re1  1  0.924529  0.025254  0.851394  1
  Re  Re2  1  0.424529  0.974746  0.648606  1
  Re  Re3  1  0.075471  0.974746  0.148606  1
  Tc  Tc4  1  0.361949  0.975683  0.427119  1
  Tc  Tc5  1  0.138051  0.975683  0.927119  1
  Tc  Tc6  1  0.638051  0.024317  0.572881  1
  Tc  Tc7  1  0.861949  0.024317  0.072881  1
  Tc  Tc8  1  0.516590  0.699831  0.561517  1
  Tc  Tc9  1  0.983410  0.699831  0.061517  1
  Tc  Tc10  1  0.483410  0.300169  0.438483  1
  Tc  Tc11  1  0.016590  0.300169  0.938483  1
  Se  Se12  1  0.452852  0.726501  0.334717  1
  Se  Se13  1  0.047148  0.726501  0.834717  1
  Se  Se14  1  0.547148  0.273499  0.665283  1
  Se  Se15  1  0.952852  0.273499  0.165283  1
  Se  Se16  1  0.315541  0.664909  0.633714  1
  Se  Se17  1  0.184459  0.664909  0.133714  1
  Se  Se18  1  0.684459  0.335091  0.366286  1
  Se  Se19  1  0.815541  0.335091  0.866286  1
  Se  Se20  1  0.424840  0.288602  0.228347  1
  Se  Se21  1  0.075160  0.288602  0.728347  1
  Se  Se22  1  0.575160  0.711398  0.771653  1
  Se  Se23  1  0.924840  0.711398  0.271653  1
  Se  Se24  1  0.717064  0.757567  0.488812  1
  Se  Se25  1  0.782936  0.757567  0.988812  1
  Se  Se26  1  0.282936  0.242433  0.511188  1
  Se  Se27  1  0.217064  0.242433  0.011188  1
  Cl  Cl28  1  0.165942  0.929500  0.353927  1
  Cl  Cl29  1  0.334058  0.929500  0.853927  1
  Cl  Cl30  1  0.834058  0.070500  0.646073  1
  Cl  Cl31  1  0.665942  0.070500  0.146073  1
