# generated using pymatgen
data_Ce2As2RuRhO2
_symmetry_space_group_name_H-M   'P 1'
_cell_length_a   4.07198000
_cell_length_b   4.07198000
_cell_length_c   8.30030800
_cell_angle_alpha   90.00000000
_cell_angle_beta   90.00000000
_cell_angle_gamma   90.00000000
_symmetry_Int_Tables_number   1
_chemical_formula_structural   Ce2As2RuRhO2
_chemical_formula_sum   'Ce2 As2 Ru1 Rh1 O2'
_cell_volume   137.62758225
_cell_formula_units_Z   1
loop_
 _symmetry_equiv_pos_site_id
 _symmetry_equiv_pos_as_xyz
  1  'x, y, z'
loop_
 _atom_site_type_symbol
 _atom_site_label
 _atom_site_symmetry_multiplicity
 _atom_site_fract_x
 _atom_site_fract_y
 _atom_site_fract_z
 _atom_site_occupancy
  Ce  Ce0  1  0.499999  0.000000  0.143638  1
  Ce  Ce1  1  0.000000  0.499999  0.856362  1
  As  As2  1  0.000000  0.499999  0.336335  1
  As  As3  1  0.499999  0.000000  0.663665  1
  Ru  Ru4  1  0.000000  0.000000  0.500000  1
  Rh  Rh5  1  0.499999  0.499999  0.500000  1
  O  O6  1  0.000000  0.000000  0.000000  1
  O  O7  1  0.499999  0.499999  0.000000  1
