# generated using pymatgen
data_Tb4PtI6
_symmetry_space_group_name_H-M   'P 1'
_cell_length_a   4.19779800
_cell_length_b   14.17401000
_cell_length_c   14.96232300
_cell_angle_alpha   90.00000000
_cell_angle_beta   90.00000000
_cell_angle_gamma   90.00000000
_symmetry_Int_Tables_number   1
_chemical_formula_structural   Tb4PtI6
_chemical_formula_sum   'Tb8 Pt2 I12'
_cell_volume   890.25269486
_cell_formula_units_Z   2
loop_
 _symmetry_equiv_pos_site_id
 _symmetry_equiv_pos_as_xyz
  1  'x, y, z'
loop_
 _atom_site_type_symbol
 _atom_site_label
 _atom_site_symmetry_multiplicity
 _atom_site_fract_x
 _atom_site_fract_y
 _atom_site_fract_z
 _atom_site_occupancy
  Tb  Tb0  1  0.500000  0.117319  0.344691  1
  Tb  Tb1  1  0.500000  0.882681  0.655309  1
  Tb  Tb2  1  0.500000  0.617319  0.155309  1
  Tb  Tb3  1  0.500000  0.382681  0.844691  1
  Tb  Tb4  1  0.000000  0.105139  0.571658  1
  Tb  Tb5  1  0.000000  0.894861  0.428342  1
  Tb  Tb6  1  0.000000  0.605139  0.928342  1
  Tb  Tb7  1  0.000000  0.394861  0.071658  1
  Pt  Pt8  1  0.500000  0.000000  0.500000  1
  Pt  Pt9  1  0.500000  0.500000  0.000000  1
  I  I10  1  0.500000  0.248015  0.165503  1
  I  I11  1  0.500000  0.751985  0.834497  1
  I  I12  1  0.500000  0.748015  0.334497  1
  I  I13  1  0.500000  0.251985  0.665503  1
  I  I14  1  0.000000  0.262189  0.415791  1
  I  I15  1  0.000000  0.737811  0.584209  1
  I  I16  1  0.000000  0.762189  0.084209  1
  I  I17  1  0.000000  0.237811  0.915791  1
  I  I18  1  0.000000  0.000582  0.237071  1
  I  I19  1  0.000000  0.999418  0.762929  1
  I  I20  1  0.000000  0.500582  0.262929  1
  I  I21  1  0.000000  0.499418  0.737071  1
