# generated using pymatgen
data_Ca5YSi24(IrRu)4
_symmetry_space_group_name_H-M   'P 1'
_cell_length_a   10.14408216
_cell_length_b   10.14408209
_cell_length_c   8.18292613
_cell_angle_alpha   90.00973509
_cell_angle_beta   90.00973958
_cell_angle_gamma   132.43993014
_symmetry_Int_Tables_number   1
_chemical_formula_structural   Ca5YSi24(IrRu)4
_chemical_formula_sum   'Ca5 Y1 Si24 Ir4 Ru4'
_cell_volume   621.41506281
_cell_formula_units_Z   1
loop_
 _symmetry_equiv_pos_site_id
 _symmetry_equiv_pos_as_xyz
  1  'x, y, z'
loop_
 _atom_site_type_symbol
 _atom_site_label
 _atom_site_symmetry_multiplicity
 _atom_site_fract_x
 _atom_site_fract_y
 _atom_site_fract_z
 _atom_site_occupancy
  Ca  Ca0  1  0.000000  0.000000  0.000000  1
  Ca  Ca1  1  0.002124  0.502171  0.249634  1
  Ca  Ca2  1  0.497829  0.997876  0.750366  1
  Ca  Ca3  1  0.997876  0.497829  0.750366  1
  Ca  Ca4  1  0.502171  0.002124  0.249634  1
  Y  Y5  1  0.500000  0.500000  0.500000  1
  Si  Si6  1  0.294943  0.705057  0.000000  1
  Si  Si7  1  0.794869  0.205131  0.500000  1
  Si  Si8  1  0.705057  0.294943  0.000000  1
  Si  Si9  1  0.205131  0.794869  0.500000  1
  Si  Si10  1  0.833270  0.833270  0.332580  1
  Si  Si11  1  0.166730  0.166730  0.667420  1
  Si  Si12  1  0.667555  0.667555  0.833513  1
  Si  Si13  1  0.332445  0.332445  0.166487  1
  Si  Si14  1  0.619391  0.387088  0.224739  1
  Si  Si15  1  0.612912  0.380609  0.775261  1
  Si  Si16  1  0.112792  0.880502  0.726012  1
  Si  Si17  1  0.119498  0.887208  0.273988  1
  Si  Si18  1  0.380609  0.612912  0.775261  1
  Si  Si19  1  0.387088  0.619391  0.224739  1
  Si  Si20  1  0.887208  0.119498  0.273988  1
  Si  Si21  1  0.880502  0.112792  0.726012  1
  Si  Si22  1  0.841654  0.610393  0.002833  1
  Si  Si23  1  0.389607  0.158346  0.997167  1
  Si  Si24  1  0.890919  0.659395  0.502080  1
  Si  Si25  1  0.340605  0.109081  0.497920  1
  Si  Si26  1  0.158346  0.389607  0.997167  1
  Si  Si27  1  0.610393  0.841654  0.002833  1
  Si  Si28  1  0.109081  0.340605  0.497920  1
  Si  Si29  1  0.659395  0.890919  0.502080  1
  Ir  Ir30  1  0.168105  0.831895  0.000000  1
  Ir  Ir31  1  0.667423  0.332577  0.500000  1
  Ir  Ir32  1  0.831895  0.168105  0.000000  1
  Ir  Ir33  1  0.332577  0.667423  0.500000  1
  Ru  Ru34  1  0.625995  0.625995  0.127367  1
  Ru  Ru35  1  0.374005  0.374005  0.872633  1
  Ru  Ru36  1  0.873026  0.873026  0.626454  1
  Ru  Ru37  1  0.126974  0.126974  0.373546  1
