# generated using pymatgen
data_SnBr37
_symmetry_space_group_name_H-M   'P 1'
_cell_length_a   14.20848141
_cell_length_b   15.29732181
_cell_length_c   14.42416200
_cell_angle_alpha   103.00376457
_cell_angle_beta   48.80056783
_cell_angle_gamma   81.50743146
_symmetry_Int_Tables_number   1
_chemical_formula_structural   SnBr37
_chemical_formula_sum   'Sn1 Br37'
_cell_volume   2102.91272627
_cell_formula_units_Z   1
loop_
 _symmetry_equiv_pos_site_id
 _symmetry_equiv_pos_as_xyz
  1  'x, y, z'
loop_
 _atom_site_type_symbol
 _atom_site_label
 _atom_site_symmetry_multiplicity
 _atom_site_fract_x
 _atom_site_fract_y
 _atom_site_fract_z
 _atom_site_occupancy
  Sn  Sn0  1  0.500000  0.000000  0.000000  1
  Br  Br1  1  0.795521  0.301760  0.134147  1
  Br  Br2  1  0.204479  0.698240  0.865853  1
  Br  Br3  1  0.749037  0.083208  0.362439  1
  Br  Br4  1  0.250963  0.916792  0.637561  1
  Br  Br5  1  0.110283  0.349623  0.170940  1
  Br  Br6  1  0.889717  0.650377  0.829060  1
  Br  Br7  1  0.868568  0.537764  0.248091  1
  Br  Br8  1  0.131432  0.462236  0.751909  1
  Br  Br9  1  0.688292  0.275287  0.521350  1
  Br  Br10  1  0.311708  0.724713  0.478650  1
  Br  Br11  1  0.038760  0.146463  0.493027  1
  Br  Br12  1  0.961240  0.853537  0.506973  1
  Br  Br13  1  0.984844  0.007442  0.281493  1
  Br  Br14  1  0.015156  0.992558  0.718507  1
  Br  Br15  1  0.948186  0.340073  0.608025  1
  Br  Br16  1  0.051814  0.659927  0.391975  1
  Br  Br17  1  0.584659  0.428575  0.234063  1
  Br  Br18  1  0.415341  0.571425  0.765937  1
  Br  Br19  1  0.168367  0.476976  0.277824  1
  Br  Br20  1  0.831633  0.523024  0.722176  1
  Br  Br21  1  0.000000  0.500000  0.000000  1
  Br  Br22  1  0.562146  0.959318  0.144296  1
  Br  Br23  1  0.437854  0.040682  0.855704  1
  Br  Br24  1  0.300962  0.057643  0.318711  1
  Br  Br25  1  0.699038  0.942357  0.681289  1
  Br  Br26  1  0.536549  0.130737  0.412276  1
  Br  Br27  1  0.463451  0.869263  0.587724  1
  Br  Br28  1  0.088513  0.215609  0.068166  1
  Br  Br29  1  0.911487  0.784391  0.931834  1
  Br  Br30  1  0.662740  0.695539  0.402956  1
  Br  Br31  1  0.337260  0.304461  0.597044  1
  Br  Br32  1  0.901221  0.147819  0.923761  1
  Br  Br33  1  0.098779  0.852181  0.076239  1
  Br  Br34  1  0.520741  0.169740  0.041913  1
  Br  Br35  1  0.479259  0.830260  0.958087  1
  Br  Br36  1  0.647633  0.432168  0.650895  1
  Br  Br37  1  0.352367  0.567832  0.349105  1
