# generated using pymatgen
data_Rb3Na2SnBi3
_symmetry_space_group_name_H-M   'P 1'
_cell_length_a   14.70459338
_cell_length_b   14.70459266
_cell_length_c   14.70459371
_cell_angle_alpha   150.84762692
_cell_angle_beta   106.01306925
_cell_angle_gamma   81.42036488
_symmetry_Int_Tables_number   1
_chemical_formula_structural   Rb3Na2SnBi3
_chemical_formula_sum   'Rb12 Na8 Sn4 Bi12'
_cell_volume   1459.89827882
_cell_formula_units_Z   4
loop_
 _symmetry_equiv_pos_site_id
 _symmetry_equiv_pos_as_xyz
  1  'x, y, z'
loop_
 _atom_site_type_symbol
 _atom_site_label
 _atom_site_symmetry_multiplicity
 _atom_site_fract_x
 _atom_site_fract_y
 _atom_site_fract_z
 _atom_site_occupancy
  Rb  Rb0  1  0.587259  0.946067  0.202445  1
  Rb  Rb1  1  0.076718  0.750000  0.826718  1
  Rb  Rb2  1  0.912741  0.115186  0.358807  1
  Rb  Rb3  1  0.412741  0.053933  0.797555  1
  Rb  Rb4  1  0.756378  0.615186  0.702445  1
  Rb  Rb5  1  0.243622  0.384814  0.297555  1
  Rb  Rb6  1  0.087259  0.884814  0.641193  1
  Rb  Rb7  1  0.423282  0.250000  0.673282  1
  Rb  Rb8  1  0.743622  0.446067  0.858807  1
  Rb  Rb9  1  0.256378  0.553933  0.141193  1
  Rb  Rb10  1  0.923282  0.250000  0.173282  1
  Rb  Rb11  1  0.576718  0.750000  0.326718  1
  Na  Na12  1  0.002679  0.252679  0.750000  1
  Na  Na13  1  0.661976  0.911976  0.750000  1
  Na  Na14  1  0.997321  0.747321  0.250000  1
  Na  Na15  1  0.497321  0.247321  0.250000  1
  Na  Na16  1  0.502679  0.752679  0.750000  1
  Na  Na17  1  0.161976  0.411976  0.750000  1
  Na  Na18  1  0.338024  0.088024  0.250000  1
  Na  Na19  1  0.838024  0.588024  0.250000  1
  Sn  Sn20  1  0.667613  0.417613  0.250000  1
  Sn  Sn21  1  0.167613  0.917613  0.250000  1
  Sn  Sn22  1  0.832387  0.082387  0.750000  1
  Sn  Sn23  1  0.332387  0.582387  0.750000  1
  Bi  Bi24  1  0.347565  0.750000  0.097565  1
  Bi  Bi25  1  0.482808  0.551386  0.353712  1
  Bi  Bi26  1  0.982808  0.629097  0.931423  1
  Bi  Bi27  1  0.517192  0.448614  0.646288  1
  Bi  Bi28  1  0.302326  0.870903  0.853712  1
  Bi  Bi29  1  0.697674  0.129097  0.146288  1
  Bi  Bi30  1  0.017192  0.370903  0.068577  1
  Bi  Bi31  1  0.652435  0.250000  0.902435  1
  Bi  Bi32  1  0.802326  0.948614  0.431423  1
  Bi  Bi33  1  0.152435  0.250000  0.402435  1
  Bi  Bi34  1  0.197674  0.051386  0.568577  1
  Bi  Bi35  1  0.847565  0.750000  0.597565  1
