# generated using pymatgen
data_NaScP7Ru11Pt
_symmetry_space_group_name_H-M   'P 1'
_cell_length_a   9.28879817
_cell_length_b   9.45428518
_cell_length_c   3.93435900
_cell_angle_alpha   90.00000000
_cell_angle_beta   90.00000000
_cell_angle_gamma   119.12030613
_symmetry_Int_Tables_number   1
_chemical_formula_structural   NaScP7Ru11Pt
_chemical_formula_sum   'Na1 Sc1 P7 Ru11 Pt1'
_cell_volume   301.83857339
_cell_formula_units_Z   1
loop_
 _symmetry_equiv_pos_site_id
 _symmetry_equiv_pos_as_xyz
  1  'x, y, z'
loop_
 _atom_site_type_symbol
 _atom_site_label
 _atom_site_symmetry_multiplicity
 _atom_site_fract_x
 _atom_site_fract_y
 _atom_site_fract_z
 _atom_site_occupancy
  Na  Na0  1  0.329719  0.660180  0.000000  1
  Sc  Sc1  1  0.670019  0.335763  0.500000  1
  P  P2  1  0.599091  0.707967  0.500000  1
  P  P3  1  0.997246  0.000394  0.000000  1
  P  P4  1  0.268470  0.873317  0.500000  1
  P  P5  1  0.117530  0.396902  0.500000  1
  P  P6  1  0.888151  0.577124  0.000000  1
  P  P7  1  0.433090  0.314752  0.000000  1
  P  P8  1  0.701381  0.127650  0.000000  1
  Ru  Ru9  1  0.397271  0.434553  0.500000  1
  Ru  Ru10  1  0.910057  0.125193  0.500000  1
  Ru  Ru11  1  0.208832  0.083585  0.500000  1
  Ru  Ru12  1  0.879893  0.801886  0.500000  1
  Ru  Ru13  1  0.723213  0.893590  0.000000  1
  Ru  Ru14  1  0.112582  0.840117  0.000000  1
  Ru  Ru15  1  0.162561  0.267807  0.000000  1
  Ru  Ru16  1  0.433870  0.074902  0.000000  1
  Ru  Ru17  1  0.936726  0.362027  0.000000  1
  Ru  Ru18  1  0.646269  0.579876  0.000000  1
  Ru  Ru19  1  0.040584  0.602450  0.500000  1
  Pt  Pt20  1  0.543447  0.939964  0.500000  1
