# generated using pymatgen
data_VZnNi20B6W
_symmetry_space_group_name_H-M   'P 1'
_cell_length_a   7.41309201
_cell_length_b   7.41309250
_cell_length_c   7.41309200
_cell_angle_alpha   60.00000223
_cell_angle_beta   60.00000003
_cell_angle_gamma   60.00000479
_symmetry_Int_Tables_number   1
_chemical_formula_structural   VZnNi20B6W
_chemical_formula_sum   'V1 Zn1 Ni20 B6 W1'
_cell_volume   288.06017803
_cell_formula_units_Z   1
loop_
 _symmetry_equiv_pos_site_id
 _symmetry_equiv_pos_as_xyz
  1  'x, y, z'
loop_
 _atom_site_type_symbol
 _atom_site_label
 _atom_site_symmetry_multiplicity
 _atom_site_fract_x
 _atom_site_fract_y
 _atom_site_fract_z
 _atom_site_occupancy
  V  V0  1  0.000000  0.000000  0.000000  1
  Zn  Zn1  1  0.250000  0.250000  0.250000  1
  Ni  Ni2  1  0.617038  0.617038  0.148887  1
  Ni  Ni3  1  0.617038  0.148887  0.617038  1
  Ni  Ni4  1  0.148887  0.617038  0.617038  1
  Ni  Ni5  1  0.617038  0.617038  0.617038  1
  Ni  Ni6  1  0.383336  0.383336  0.849993  1
  Ni  Ni7  1  0.383336  0.849993  0.383336  1
  Ni  Ni8  1  0.849993  0.383336  0.383336  1
  Ni  Ni9  1  0.383336  0.383336  0.383336  1
  Ni  Ni10  1  0.997893  0.997893  0.341247  1
  Ni  Ni11  1  0.662968  0.997893  0.341247  1
  Ni  Ni12  1  0.997893  0.662968  0.341247  1
  Ni  Ni13  1  0.662968  0.341247  0.997893  1
  Ni  Ni14  1  0.997893  0.341247  0.997893  1
  Ni  Ni15  1  0.997893  0.341247  0.662968  1
  Ni  Ni16  1  0.341247  0.662968  0.997893  1
  Ni  Ni17  1  0.341247  0.997893  0.662968  1
  Ni  Ni18  1  0.341247  0.997893  0.997893  1
  Ni  Ni19  1  0.997893  0.997893  0.662968  1
  Ni  Ni20  1  0.997893  0.662968  0.997893  1
  Ni  Ni21  1  0.662968  0.997893  0.997893  1
  B  B22  1  0.729442  0.729442  0.270558  1
  B  B23  1  0.270558  0.729442  0.270558  1
  B  B24  1  0.729442  0.270558  0.270558  1
  B  B25  1  0.270558  0.270558  0.729442  1
  B  B26  1  0.729442  0.270558  0.729442  1
  B  B27  1  0.270558  0.729442  0.729442  1
  W  W28  1  0.750000  0.750000  0.750000  1
