# generated using pymatgen
data_PuCu3F8
_symmetry_space_group_name_H-M   'P 1'
_cell_length_a   5.82504162
_cell_length_b   6.17451004
_cell_length_c   8.90399203
_cell_angle_alpha   104.89369882
_cell_angle_beta   98.81106011
_cell_angle_gamma   112.44016149
_symmetry_Int_Tables_number   1
_chemical_formula_structural   PuCu3F8
_chemical_formula_sum   'Pu1 Cu3 F8'
_cell_volume   274.50094756
_cell_formula_units_Z   1
loop_
 _symmetry_equiv_pos_site_id
 _symmetry_equiv_pos_as_xyz
  1  'x, y, z'
loop_
 _atom_site_type_symbol
 _atom_site_label
 _atom_site_symmetry_multiplicity
 _atom_site_fract_x
 _atom_site_fract_y
 _atom_site_fract_z
 _atom_site_occupancy
  Pu  Pu0  1  0.483092  0.578161  0.769584  1
  Cu  Cu1  1  0.017328  0.018944  0.726735  1
  Cu  Cu2  1  0.729187  0.230209  0.969526  1
  Cu  Cu3  1  0.391401  0.856493  0.513102  1
  F  F4  1  0.704064  0.828011  0.469085  1
  F  F5  1  0.972334  0.721140  0.717152  1
  F  F6  1  0.702488  0.462610  0.918424  1
  F  F7  1  0.146035  0.592176  0.263491  1
  F  F8  1  0.152567  0.173811  0.027280  1
  F  F9  1  0.587044  0.900988  0.973893  1
  F  F10  1  0.158261  0.375035  0.789044  1
  F  F11  1  0.159423  0.357125  0.473729  1
