# generated using pymatgen
data_Hf16MnCo5Pt2
_symmetry_space_group_name_H-M   'P 1'
_cell_length_a   8.58186064
_cell_length_b   8.54097072
_cell_length_c   8.54099981
_cell_angle_alpha   60.12724459
_cell_angle_beta   60.16016189
_cell_angle_gamma   60.16010327
_symmetry_Int_Tables_number   1
_chemical_formula_structural   Hf16MnCo5Pt2
_chemical_formula_sum   'Hf16 Mn1 Co5 Pt2'
_cell_volume   444.16799042
_cell_formula_units_Z   1
loop_
 _symmetry_equiv_pos_site_id
 _symmetry_equiv_pos_as_xyz
  1  'x, y, z'
loop_
 _atom_site_type_symbol
 _atom_site_label
 _atom_site_symmetry_multiplicity
 _atom_site_fract_x
 _atom_site_fract_y
 _atom_site_fract_z
 _atom_site_occupancy
  Hf  Hf0  1  0.078165  0.639693  0.639690  1
  Hf  Hf1  1  0.644431  0.068988  0.642052  1
  Hf  Hf2  1  0.644435  0.642056  0.068979  1
  Hf  Hf3  1  0.644825  0.643912  0.643913  1
  Hf  Hf4  1  0.806904  0.802455  0.195355  1
  Hf  Hf5  1  0.193543  0.194373  0.805142  1
  Hf  Hf6  1  0.806902  0.195350  0.802461  1
  Hf  Hf7  1  0.193540  0.805143  0.194374  1
  Hf  Hf8  1  0.193396  0.805968  0.805969  1
  Hf  Hf9  1  0.803475  0.197756  0.197759  1
  Hf  Hf10  1  0.434884  0.437206  0.072189  1
  Hf  Hf11  1  0.051487  0.074942  0.437119  1
  Hf  Hf12  1  0.434885  0.072184  0.437208  1
  Hf  Hf13  1  0.051489  0.437116  0.074942  1
  Hf  Hf14  1  0.055170  0.437690  0.437694  1
  Hf  Hf15  1  0.435847  0.063725  0.063729  1
  Mn  Mn16  1  0.753677  0.414409  0.414400  1
  Co  Co17  1  0.421217  0.409753  0.409747  1
  Co  Co18  1  0.428338  0.857385  0.857383  1
  Co  Co19  1  0.859971  0.431802  0.854054  1
  Co  Co20  1  0.859967  0.854056  0.431806  1
  Co  Co21  1  0.859589  0.853874  0.853869  1
  Pt  Pt22  1  0.421932  0.748647  0.411515  1
  Pt  Pt23  1  0.421930  0.411518  0.748650  1
