# generated using pymatgen
data_Hf8Zr2FeCoAs6
_symmetry_space_group_name_H-M   'P 1'
_cell_length_a   3.70519600
_cell_length_b   10.48509585
_cell_length_c   17.42407810
_cell_angle_alpha   90.22927363
_cell_angle_beta   90.00000000
_cell_angle_gamma   90.00000000
_symmetry_Int_Tables_number   1
_chemical_formula_structural   Hf8Zr2FeCoAs6
_chemical_formula_sum   'Hf16 Zr4 Fe2 Co2 As12'
_cell_volume   676.90843127
_cell_formula_units_Z   2
loop_
 _symmetry_equiv_pos_site_id
 _symmetry_equiv_pos_as_xyz
  1  'x, y, z'
loop_
 _atom_site_type_symbol
 _atom_site_label
 _atom_site_symmetry_multiplicity
 _atom_site_fract_x
 _atom_site_fract_y
 _atom_site_fract_z
 _atom_site_occupancy
  Hf  Hf0  1  0.250000  0.876853  0.477061  1
  Hf  Hf1  1  0.750000  0.123147  0.522939  1
  Hf  Hf2  1  0.750000  0.379190  0.022481  1
  Hf  Hf3  1  0.250000  0.620810  0.977519  1
  Hf  Hf4  1  0.250000  0.944010  0.076760  1
  Hf  Hf5  1  0.750000  0.055990  0.923240  1
  Hf  Hf6  1  0.750000  0.447447  0.423388  1
  Hf  Hf7  1  0.250000  0.552553  0.576612  1
  Hf  Hf8  1  0.250000  0.242419  0.167011  1
  Hf  Hf9  1  0.750000  0.757581  0.832989  1
  Hf  Hf10  1  0.750000  0.741000  0.333477  1
  Hf  Hf11  1  0.250000  0.259000  0.666523  1
  Hf  Hf12  1  0.250000  0.518155  0.276245  1
  Hf  Hf13  1  0.750000  0.481845  0.723755  1
  Hf  Hf14  1  0.750000  0.016772  0.223789  1
  Hf  Hf15  1  0.250000  0.983228  0.776211  1
  Zr  Zr16  1  0.250000  0.182220  0.367760  1
  Zr  Zr17  1  0.750000  0.817780  0.632240  1
  Zr  Zr18  1  0.750000  0.684728  0.131870  1
  Zr  Zr19  1  0.250000  0.315272  0.868130  1
  Fe  Fe20  1  0.250000  0.628607  0.406555  1
  Fe  Fe21  1  0.750000  0.371393  0.593445  1
  Co  Co22  1  0.750000  0.131055  0.092604  1
  Co  Co23  1  0.250000  0.868945  0.907396  1
  As  As24  1  0.250000  0.490513  0.118127  1
  As  As25  1  0.750000  0.509487  0.881873  1
  As  As26  1  0.750000  0.990944  0.381928  1
  As  As27  1  0.250000  0.009056  0.618072  1
  As  As28  1  0.250000  0.817079  0.219096  1
  As  As29  1  0.750000  0.182921  0.780904  1
  As  As30  1  0.750000  0.315585  0.280863  1
  As  As31  1  0.250000  0.684415  0.719137  1
  As  As32  1  0.250000  0.188150  0.007982  1
  As  As33  1  0.750000  0.811850  0.992018  1
  As  As34  1  0.750000  0.689141  0.493334  1
  As  As35  1  0.250000  0.310859  0.506666  1
