# generated using pymatgen
data_Li4Dy(ThSn2)2
_symmetry_space_group_name_H-M   'P 1'
_cell_length_a   8.70030047
_cell_length_b   8.70030189
_cell_length_c   8.70030115
_cell_angle_alpha   148.55295783
_cell_angle_beta   131.76393044
_cell_angle_gamma   58.72234731
_symmetry_Int_Tables_number   1
_chemical_formula_structural   Li4Dy(ThSn2)2
_chemical_formula_sum   'Li4 Dy1 Th2 Sn4'
_cell_volume   254.23353301
_cell_formula_units_Z   1
loop_
 _symmetry_equiv_pos_site_id
 _symmetry_equiv_pos_as_xyz
  1  'x, y, z'
loop_
 _atom_site_type_symbol
 _atom_site_label
 _atom_site_symmetry_multiplicity
 _atom_site_fract_x
 _atom_site_fract_y
 _atom_site_fract_z
 _atom_site_occupancy
  Li  Li0  1  0.013402  0.327725  0.685678  1
  Li  Li1  1  0.986598  0.672275  0.314322  1
  Li  Li2  1  0.642048  0.327725  0.314322  1
  Li  Li3  1  0.357952  0.672275  0.685678  1
  Dy  Dy4  1  0.000000  0.000000  0.000000  1
  Th  Th5  1  0.374374  0.874374  0.500000  1
  Th  Th6  1  0.625626  0.125626  0.500000  1
  Sn  Sn7  1  0.214240  0.214240  0.000000  1
  Sn  Sn8  1  0.708108  0.500000  0.208108  1
  Sn  Sn9  1  0.291892  0.500000  0.791892  1
  Sn  Sn10  1  0.785760  0.785760  0.000000  1
