# generated using pymatgen
data_Hf9MnCuRe3
_symmetry_space_group_name_H-M   'P 1'
_cell_length_a   8.45986900
_cell_length_b   8.56600253
_cell_length_c   8.56600101
_cell_angle_alpha   119.99516791
_cell_angle_beta   90.00000000
_cell_angle_gamma   90.00000000
_symmetry_Int_Tables_number   1
_chemical_formula_structural   Hf9MnCuRe3
_chemical_formula_sum   'Hf18 Mn2 Cu2 Re6'
_cell_volume   537.61544056
_cell_formula_units_Z   2
loop_
 _symmetry_equiv_pos_site_id
 _symmetry_equiv_pos_as_xyz
  1  'x, y, z'
loop_
 _atom_site_type_symbol
 _atom_site_label
 _atom_site_symmetry_multiplicity
 _atom_site_fract_x
 _atom_site_fract_y
 _atom_site_fract_z
 _atom_site_occupancy
  Hf  Hf0  1  0.553255  0.806255  0.612514  1
  Hf  Hf1  1  0.553244  0.806260  0.193740  1
  Hf  Hf2  1  0.553255  0.387486  0.193745  1
  Hf  Hf3  1  0.446745  0.193745  0.387486  1
  Hf  Hf4  1  0.446756  0.193740  0.806260  1
  Hf  Hf5  1  0.446745  0.612514  0.806255  1
  Hf  Hf6  1  0.053255  0.193745  0.387486  1
  Hf  Hf7  1  0.053244  0.193740  0.806260  1
  Hf  Hf8  1  0.053255  0.612514  0.806255  1
  Hf  Hf9  1  0.946745  0.806255  0.612514  1
  Hf  Hf10  1  0.946756  0.806260  0.193740  1
  Hf  Hf11  1  0.946745  0.387486  0.193745  1
  Hf  Hf12  1  0.750000  0.458380  0.916752  1
  Hf  Hf13  1  0.750000  0.458369  0.541631  1
  Hf  Hf14  1  0.750000  0.083248  0.541620  1
  Hf  Hf15  1  0.250000  0.541620  0.083248  1
  Hf  Hf16  1  0.250000  0.541631  0.458369  1
  Hf  Hf17  1  0.250000  0.916752  0.458380  1
  Mn  Mn18  1  0.500000  0.000000  0.000000  1
  Mn  Mn19  1  0.000000  0.000000  0.000000  1
  Cu  Cu20  1  0.750000  0.666675  0.333325  1
  Cu  Cu21  1  0.250000  0.333325  0.666675  1
  Re  Re22  1  0.750000  0.108070  0.216138  1
  Re  Re23  1  0.750000  0.108067  0.891933  1
  Re  Re24  1  0.750000  0.783862  0.891930  1
  Re  Re25  1  0.250000  0.891930  0.783862  1
  Re  Re26  1  0.250000  0.891933  0.108067  1
  Re  Re27  1  0.250000  0.216138  0.108070  1
