# generated using pymatgen
data_Dy9Mg(Ni2Sb)2
_symmetry_space_group_name_H-M   'P 1'
_cell_length_a   8.69326950
_cell_length_b   8.69326977
_cell_length_c   8.69326960
_cell_angle_alpha   128.56205593
_cell_angle_beta   128.56205782
_cell_angle_gamma   75.71626922
_symmetry_Int_Tables_number   1
_chemical_formula_structural   Dy9Mg(Ni2Sb)2
_chemical_formula_sum   'Dy9 Mg1 Ni4 Sb2'
_cell_volume   390.72735469
_cell_formula_units_Z   1
loop_
 _symmetry_equiv_pos_site_id
 _symmetry_equiv_pos_as_xyz
  1  'x, y, z'
loop_
 _atom_site_type_symbol
 _atom_site_label
 _atom_site_symmetry_multiplicity
 _atom_site_fract_x
 _atom_site_fract_y
 _atom_site_fract_z
 _atom_site_occupancy
  Dy  Dy0  1  0.500000  0.500000  0.000000  1
  Dy  Dy1  1  0.802616  0.286293  0.824699  1
  Dy  Dy2  1  0.197384  0.713707  0.175301  1
  Dy  Dy3  1  0.461594  0.977917  0.175301  1
  Dy  Dy4  1  0.286293  0.461594  0.483677  1
  Dy  Dy5  1  0.022083  0.197384  0.483677  1
  Dy  Dy6  1  0.538406  0.022083  0.824699  1
  Dy  Dy7  1  0.713707  0.538406  0.516323  1
  Dy  Dy8  1  0.977917  0.802616  0.516323  1
  Mg  Mg9  1  0.000000  0.000000  0.000000  1
  Ni  Ni10  1  0.130061  0.623693  0.753756  1
  Ni  Ni11  1  0.869939  0.376307  0.246244  1
  Ni  Ni12  1  0.623693  0.869939  0.493632  1
  Ni  Ni13  1  0.376307  0.130061  0.506368  1
  Sb  Sb14  1  0.258719  0.258719  0.000000  1
  Sb  Sb15  1  0.741281  0.741281  0.000000  1
