# generated using pymatgen
data_La16Pr4Ir11Ru
_symmetry_space_group_name_H-M   'P 1'
_cell_length_a   11.45509000
_cell_length_b   11.45509000
_cell_length_c   6.62348600
_cell_angle_alpha   90.00000000
_cell_angle_beta   90.00000000
_cell_angle_gamma   90.00000000
_symmetry_Int_Tables_number   1
_chemical_formula_structural   La16Pr4Ir11Ru
_chemical_formula_sum   'La16 Pr4 Ir11 Ru1'
_cell_volume   869.12778507
_cell_formula_units_Z   1
loop_
 _symmetry_equiv_pos_site_id
 _symmetry_equiv_pos_as_xyz
  1  'x, y, z'
loop_
 _atom_site_type_symbol
 _atom_site_label
 _atom_site_symmetry_multiplicity
 _atom_site_fract_x
 _atom_site_fract_y
 _atom_site_fract_z
 _atom_site_occupancy
  La  La0  1  0.291798  0.090420  0.386754  1
  La  La1  1  0.292197  0.909512  0.890442  1
  La  La2  1  0.707803  0.090488  0.890442  1
  La  La3  1  0.708202  0.909580  0.386754  1
  La  La4  1  0.590488  0.792197  0.890442  1
  La  La5  1  0.590420  0.208202  0.386754  1
  La  La6  1  0.409580  0.791798  0.386754  1
  La  La7  1  0.409512  0.207803  0.890442  1
  La  La8  1  0.209381  0.407899  0.613843  1
  La  La9  1  0.209294  0.591319  0.113160  1
  La  La10  1  0.790706  0.408681  0.113160  1
  La  La11  1  0.790619  0.592101  0.613843  1
  La  La12  1  0.908681  0.709294  0.113160  1
  La  La13  1  0.907899  0.290619  0.613843  1
  La  La14  1  0.092101  0.709381  0.613843  1
  La  La15  1  0.091319  0.290706  0.113160  1
  Pr  Pr16  1  0.000000  0.000000  0.498114  1
  Pr  Pr17  1  0.000000  0.000000  0.997861  1
  Pr  Pr18  1  0.500000  0.500000  0.997861  1
  Pr  Pr19  1  0.500000  0.500000  0.498114  1
  Ir  Ir20  1  0.845998  0.155528  0.249525  1
  Ir  Ir21  1  0.845895  0.844896  0.749255  1
  Ir  Ir22  1  0.154105  0.155104  0.749255  1
  Ir  Ir23  1  0.154002  0.844472  0.249525  1
  Ir  Ir24  1  0.655104  0.345895  0.749255  1
  Ir  Ir25  1  0.655528  0.654002  0.249525  1
  Ir  Ir26  1  0.344472  0.345998  0.249525  1
  Ir  Ir27  1  0.344896  0.654105  0.749255  1
  Ir  Ir28  1  0.500000  0.000000  0.617504  1
  Ir  Ir29  1  0.000000  0.500000  0.882430  1
  Ir  Ir30  1  0.000000  0.500000  0.382896  1
  Ru  Ru31  1  0.500000  0.000000  0.113303  1
