# generated using pymatgen
data_TbHo15(HfIr3)4
_symmetry_space_group_name_H-M   'P 1'
_cell_length_a   10.81039703
_cell_length_b   10.80581900
_cell_length_c   6.23983702
_cell_angle_alpha   90.00036916
_cell_angle_beta   90.00830563
_cell_angle_gamma   90.00181299
_symmetry_Int_Tables_number   1
_chemical_formula_structural   TbHo15(HfIr3)4
_chemical_formula_sum   'Tb1 Ho15 Hf4 Ir12'
_cell_volume   728.90776130
_cell_formula_units_Z   1
loop_
 _symmetry_equiv_pos_site_id
 _symmetry_equiv_pos_as_xyz
  1  'x, y, z'
loop_
 _atom_site_type_symbol
 _atom_site_label
 _atom_site_symmetry_multiplicity
 _atom_site_fract_x
 _atom_site_fract_y
 _atom_site_fract_z
 _atom_site_occupancy
  Tb  Tb0  1  0.289004  0.086278  0.374351  1
  Ho  Ho1  1  0.289400  0.913830  0.874797  1
  Ho  Ho2  1  0.710610  0.085987  0.874897  1
  Ho  Ho3  1  0.710658  0.914005  0.374843  1
  Ho  Ho4  1  0.585995  0.789355  0.874864  1
  Ho  Ho5  1  0.586252  0.210696  0.374840  1
  Ho  Ho6  1  0.414151  0.789161  0.374885  1
  Ho  Ho7  1  0.414223  0.210741  0.874845  1
  Ho  Ho8  1  0.210605  0.414122  0.625266  1
  Ho  Ho9  1  0.210644  0.585955  0.125117  1
  Ho  Ho10  1  0.789378  0.414058  0.125119  1
  Ho  Ho11  1  0.789383  0.585957  0.625102  1
  Ho  Ho12  1  0.914042  0.710611  0.125149  1
  Ho  Ho13  1  0.914005  0.289405  0.625113  1
  Ho  Ho14  1  0.085939  0.710609  0.625192  1
  Ho  Ho15  1  0.085731  0.289533  0.124946  1
  Hf  Hf16  1  0.999631  0.999830  0.500227  1
  Hf  Hf17  1  0.999929  0.999953  0.000028  1
  Hf  Hf18  1  0.500053  0.500018  0.000016  1
  Hf  Hf19  1  0.500023  0.500012  0.500088  1
  Ir  Ir20  1  0.856563  0.143486  0.250015  1
  Ir  Ir21  1  0.856500  0.856538  0.749963  1
  Ir  Ir22  1  0.143110  0.143635  0.750753  1
  Ir  Ir23  1  0.143180  0.856125  0.249759  1
  Ir  Ir24  1  0.643483  0.356569  0.749989  1
  Ir  Ir25  1  0.643466  0.643471  0.250011  1
  Ir  Ir26  1  0.356637  0.356948  0.249813  1
  Ir  Ir27  1  0.356543  0.643467  0.749984  1
  Ir  Ir28  1  0.500421  0.999819  0.121950  1
  Ir  Ir29  1  0.500439  0.999802  0.622745  1
  Ir  Ir30  1  0.000004  0.499991  0.877671  1
  Ir  Ir31  1  0.999997  0.500035  0.377662  1
