# generated using pymatgen
data_Li3Pr3(RuO6)2
_symmetry_space_group_name_H-M   'P 1'
_cell_length_a   10.87160537
_cell_length_b   10.87160543
_cell_length_c   10.87160600
_cell_angle_alpha   109.47122355
_cell_angle_beta   109.47121808
_cell_angle_gamma   109.47121593
_symmetry_Int_Tables_number   1
_chemical_formula_structural   Li3Pr3(RuO6)2
_chemical_formula_sum   'Li12 Pr12 Ru8 O48'
_cell_volume   989.14326575
_cell_formula_units_Z   4
loop_
 _symmetry_equiv_pos_site_id
 _symmetry_equiv_pos_as_xyz
  1  'x, y, z'
loop_
 _atom_site_type_symbol
 _atom_site_label
 _atom_site_symmetry_multiplicity
 _atom_site_fract_x
 _atom_site_fract_y
 _atom_site_fract_z
 _atom_site_occupancy
  Li  Li0  1  0.250000  0.874999  0.124999  1
  Li  Li1  1  0.375001  0.249999  0.125000  1
  Li  Li2  1  0.625001  0.875001  0.250000  1
  Li  Li3  1  0.125000  0.375000  0.250000  1
  Li  Li4  1  0.749999  0.625000  0.374999  1
  Li  Li5  1  0.125000  0.749999  0.375000  1
  Li  Li6  1  0.250001  0.375000  0.625000  1
  Li  Li7  1  0.875000  0.249999  0.625000  1
  Li  Li8  1  0.874999  0.625000  0.750000  1
  Li  Li9  1  0.375001  0.125001  0.750001  1
  Li  Li10  1  0.750000  0.125000  0.875000  1
  Li  Li11  1  0.625000  0.749999  0.875000  1
  Pr  Pr12  1  0.750000  0.375000  0.124999  1
  Pr  Pr13  1  0.875001  0.750000  0.125000  1
  Pr  Pr14  1  0.875000  0.125000  0.250000  1
  Pr  Pr15  1  0.375001  0.625001  0.250000  1
  Pr  Pr16  1  0.624999  0.250000  0.374999  1
  Pr  Pr17  1  0.250001  0.125001  0.375000  1
  Pr  Pr18  1  0.750001  0.875000  0.625000  1
  Pr  Pr19  1  0.375001  0.750000  0.625001  1
  Pr  Pr20  1  0.125000  0.875001  0.750001  1
  Pr  Pr21  1  0.625001  0.375000  0.750001  1
  Pr  Pr22  1  0.125000  0.250000  0.875000  1
  Pr  Pr23  1  0.250000  0.625000  0.875000  1
  Ru  Ru24  1  0.000000  0.000000  0.000000  1
  Ru  Ru25  1  0.500000  0.000000  0.000000  1
  Ru  Ru26  1  0.500000  0.500001  0.000000  1
  Ru  Ru27  1  0.000000  0.500001  0.000000  1
  Ru  Ru28  1  0.499999  0.500000  0.499999  1
  Ru  Ru29  1  0.000000  0.500000  0.499999  1
  Ru  Ru30  1  0.500001  0.000000  0.500001  1
  Ru  Ru31  1  0.000000  0.000000  0.500001  1
  O  O32  1  0.695902  0.113569  0.022816  1
  O  O33  1  0.826914  0.909247  0.022816  1
  O  O34  1  0.386431  0.409247  0.082333  1
  O  O35  1  0.195903  0.673086  0.082334  1
  O  O36  1  0.113569  0.417666  0.090752  1
  O  O37  1  0.477185  0.673086  0.090754  1
  O  O38  1  0.522817  0.195902  0.113568  1
  O  O39  1  0.090753  0.917667  0.113569  1
  O  O40  1  0.695902  0.582333  0.173086  1
  O  O41  1  0.977184  0.590753  0.173087  1
  O  O42  1  0.613568  0.022816  0.195902  1
  O  O43  1  0.082334  0.173086  0.195902  1
  O  O44  1  0.826915  0.917666  0.304098  1
  O  O45  1  0.977184  0.386432  0.304099  1
  O  O46  1  0.417666  0.304097  0.326914  1
  O  O47  1  0.409247  0.022817  0.326914  1
  O  O48  1  0.804097  0.477184  0.386431  1
  O  O49  1  0.082334  0.909248  0.386431  1
  O  O50  1  0.582333  0.886432  0.409246  1
  O  O51  1  0.326914  0.522816  0.409248  1
  O  O52  1  0.590752  0.613568  0.417666  1
  O  O53  1  0.326913  0.804098  0.417667  1
  O  O54  1  0.886431  0.304098  0.477184  1
  O  O55  1  0.090752  0.173086  0.477184  1
  O  O56  1  0.113568  0.695901  0.522815  1
  O  O57  1  0.909248  0.826915  0.522818  1
  O  O58  1  0.673085  0.195901  0.582332  1
  O  O59  1  0.409247  0.386432  0.582333  1
  O  O60  1  0.673087  0.477186  0.590754  1
  O  O61  1  0.417667  0.113569  0.590754  1
  O  O62  1  0.195901  0.522816  0.613568  1
  O  O63  1  0.917666  0.090753  0.613568  1
  O  O64  1  0.590753  0.977184  0.673085  1
  O  O65  1  0.582335  0.695903  0.673086  1
  O  O66  1  0.173087  0.082335  0.695902  1
  O  O67  1  0.022815  0.613569  0.695902  1
  O  O68  1  0.386432  0.977184  0.804097  1
  O  O69  1  0.917667  0.826914  0.804098  1
  O  O70  1  0.304098  0.417667  0.826913  1
  O  O71  1  0.022815  0.409247  0.826914  1
  O  O72  1  0.477184  0.804098  0.886431  1
  O  O73  1  0.909248  0.082334  0.886432  1
  O  O74  1  0.886431  0.582333  0.909247  1
  O  O75  1  0.522816  0.326915  0.909247  1
  O  O76  1  0.804097  0.326913  0.917666  1
  O  O77  1  0.613569  0.590753  0.917666  1
  O  O78  1  0.173086  0.090753  0.977184  1
  O  O79  1  0.304097  0.886432  0.977184  1
