# generated using pymatgen
data_Gd5Y(CBr5)2
_symmetry_space_group_name_H-M   'P 1'
_cell_length_a   7.34281713
_cell_length_b   9.02584815
_cell_length_c   9.10434900
_cell_angle_alpha   107.09024828
_cell_angle_beta   96.44910044
_cell_angle_gamma   104.39076230
_symmetry_Int_Tables_number   1
_chemical_formula_structural   Gd5Y(CBr5)2
_chemical_formula_sum   'Gd5 Y1 C2 Br10'
_cell_volume   547.34136870
_cell_formula_units_Z   1
loop_
 _symmetry_equiv_pos_site_id
 _symmetry_equiv_pos_as_xyz
  1  'x, y, z'
loop_
 _atom_site_type_symbol
 _atom_site_label
 _atom_site_symmetry_multiplicity
 _atom_site_fract_x
 _atom_site_fract_y
 _atom_site_fract_z
 _atom_site_occupancy
  Gd  Gd0  1  0.110599  0.043715  0.769640  1
  Gd  Gd1  1  0.388538  0.142544  0.192751  1
  Gd  Gd2  1  0.888116  0.955630  0.230568  1
  Gd  Gd3  1  0.029931  0.725630  0.919237  1
  Gd  Gd4  1  0.969351  0.274558  0.079682  1
  Y  Y5  1  0.613963  0.858899  0.810912  1
  C  C6  1  0.905288  0.968098  0.956339  1
  C  C7  1  0.094674  0.032123  0.045214  1
  Br  Br8  1  0.195953  0.738232  0.648360  1
  Br  Br9  1  0.086033  0.370081  0.821630  1
  Br  Br10  1  0.458292  0.814120  0.087599  1
  Br  Br11  1  0.249581  0.082439  0.460843  1
  Br  Br12  1  0.541864  0.182463  0.908695  1
  Br  Br13  1  0.811865  0.262848  0.353351  1
  Br  Br14  1  0.342599  0.454170  0.270615  1
  Br  Br15  1  0.911803  0.629774  0.176536  1
  Br  Br16  1  0.655666  0.548805  0.726200  1
  Br  Br17  1  0.745887  0.915873  0.541828  1
