# generated using pymatgen
data_SrInFe2(PO4)3
_symmetry_space_group_name_H-M   'P 1'
_cell_length_a   9.41121957
_cell_length_b   9.41122014
_cell_length_c   9.41122042
_cell_angle_alpha   138.77149184
_cell_angle_beta   108.88769572
_cell_angle_gamma   85.65273317
_symmetry_Int_Tables_number   1
_chemical_formula_structural   SrInFe2(PO4)3
_chemical_formula_sum   'Sr2 In2 Fe4 P6 O24'
_cell_volume   500.64919950
_cell_formula_units_Z   2
loop_
 _symmetry_equiv_pos_site_id
 _symmetry_equiv_pos_as_xyz
  1  'x, y, z'
loop_
 _atom_site_type_symbol
 _atom_site_label
 _atom_site_symmetry_multiplicity
 _atom_site_fract_x
 _atom_site_fract_y
 _atom_site_fract_z
 _atom_site_occupancy
  Sr  Sr0  1  0.750000  0.148913  0.398913  1
  Sr  Sr1  1  0.250000  0.851087  0.601087  1
  In  In2  1  0.000000  0.000000  0.000000  1
  In  In3  1  0.500000  0.500000  0.000000  1
  Fe  Fe4  1  0.616999  0.616999  0.500000  1
  Fe  Fe5  1  0.383001  0.383001  0.500000  1
  Fe  Fe6  1  0.116999  0.616999  0.000000  1
  Fe  Fe7  1  0.883001  0.383001  0.000000  1
  P  P8  1  0.323790  0.823790  0.000000  1
  P  P9  1  0.750000  0.652592  0.902592  1
  P  P10  1  0.176210  0.176210  0.500000  1
  P  P11  1  0.676210  0.176210  0.000000  1
  P  P12  1  0.250000  0.347408  0.097408  1
  P  P13  1  0.823790  0.823790  0.500000  1
  O  O14  1  0.578187  0.930225  0.780933  1
  O  O15  1  0.078187  0.297254  0.647962  1
  O  O16  1  0.839251  0.882762  0.043511  1
  O  O17  1  0.350709  0.702746  0.780933  1
  O  O18  1  0.143883  0.214370  0.356313  1
  O  O19  1  0.339251  0.295741  0.956489  1
  O  O20  1  0.641943  0.712430  0.356313  1
  O  O21  1  0.856117  0.785630  0.643687  1
  O  O22  1  0.363443  0.491332  0.354776  1
  O  O23  1  0.149291  0.930225  0.352038  1
  O  O24  1  0.643883  0.287570  0.929513  1
  O  O25  1  0.636557  0.508668  0.645224  1
  O  O26  1  0.858057  0.214370  0.070487  1
  O  O27  1  0.850709  0.069775  0.647962  1
  O  O28  1  0.356117  0.712430  0.070487  1
  O  O29  1  0.358057  0.287570  0.643687  1
  O  O30  1  0.660749  0.704259  0.043511  1
  O  O31  1  0.921813  0.702746  0.352038  1
  O  O32  1  0.160749  0.117237  0.956489  1
  O  O33  1  0.863443  0.508668  0.872111  1
  O  O34  1  0.136557  0.491332  0.127889  1
  O  O35  1  0.141943  0.785630  0.929513  1
  O  O36  1  0.649291  0.297254  0.219067  1
  O  O37  1  0.421813  0.069775  0.219067  1
