# generated using pymatgen
data_LiDy2ZnPt2
_symmetry_space_group_name_H-M   'P 1'
_cell_length_a   4.05508400
_cell_length_b   7.01094500
_cell_length_c   8.36075500
_cell_angle_alpha   90.00000000
_cell_angle_beta   90.00000000
_cell_angle_gamma   90.00000000
_symmetry_Int_Tables_number   1
_chemical_formula_structural   LiDy2ZnPt2
_chemical_formula_sum   'Li2 Dy4 Zn2 Pt4'
_cell_volume   237.69602131
_cell_formula_units_Z   2
loop_
 _symmetry_equiv_pos_site_id
 _symmetry_equiv_pos_as_xyz
  1  'x, y, z'
loop_
 _atom_site_type_symbol
 _atom_site_label
 _atom_site_symmetry_multiplicity
 _atom_site_fract_x
 _atom_site_fract_y
 _atom_site_fract_z
 _atom_site_occupancy
  Li  Li0  1  0.250000  0.629235  0.559227  1
  Li  Li1  1  0.250000  0.129235  0.940773  1
  Dy  Dy2  1  0.250000  0.045709  0.318299  1
  Dy  Dy3  1  0.250000  0.545709  0.181701  1
  Dy  Dy4  1  0.750000  0.955240  0.685253  1
  Dy  Dy5  1  0.750000  0.455240  0.814747  1
  Zn  Zn6  1  0.750000  0.370626  0.437687  1
  Zn  Zn7  1  0.750000  0.870626  0.062313  1
  Pt  Pt8  1  0.250000  0.247359  0.621174  1
  Pt  Pt9  1  0.250000  0.747359  0.878826  1
  Pt  Pt10  1  0.750000  0.751832  0.377944  1
  Pt  Pt11  1  0.750000  0.251832  0.122056  1
