# generated using pymatgen
data_YHo2ErGa7Ag5
_symmetry_space_group_name_H-M   'P 1'
_cell_length_a   4.35119100
_cell_length_b   7.00999024
_cell_length_c   10.31834902
_cell_angle_alpha   89.98812764
_cell_angle_beta   90.00000000
_cell_angle_gamma   90.00000000
_symmetry_Int_Tables_number   1
_chemical_formula_structural   YHo2ErGa7Ag5
_chemical_formula_sum   'Y1 Ho2 Er1 Ga7 Ag5'
_cell_volume   314.72827769
_cell_formula_units_Z   1
loop_
 _symmetry_equiv_pos_site_id
 _symmetry_equiv_pos_as_xyz
  1  'x, y, z'
loop_
 _atom_site_type_symbol
 _atom_site_label
 _atom_site_symmetry_multiplicity
 _atom_site_fract_x
 _atom_site_fract_y
 _atom_site_fract_z
 _atom_site_occupancy
  Y  Y0  1  0.000000  0.216296  0.828939  1
  Ho  Ho1  1  0.500000  0.780897  0.173056  1
  Ho  Ho2  1  0.500000  0.277249  0.327861  1
  Er  Er3  1  0.000000  0.723141  0.670554  1
  Ga  Ga4  1  0.500000  0.923408  0.846202  1
  Ga  Ga5  1  0.500000  0.426888  0.655132  1
  Ga  Ga6  1  0.000000  0.077424  0.153570  1
  Ga  Ga7  1  0.000000  0.574241  0.344290  1
  Ga  Ga8  1  0.500000  0.202338  0.036003  1
  Ga  Ga9  1  0.000000  0.300015  0.535462  1
  Ga  Ga10  1  0.000000  0.796463  0.964310  1
  Ag  Ag11  1  0.500000  0.541542  0.903664  1
  Ag  Ag12  1  0.500000  0.046272  0.600589  1
  Ag  Ag13  1  0.000000  0.457346  0.096804  1
  Ag  Ag14  1  0.000000  0.960375  0.401209  1
  Ag  Ag15  1  0.500000  0.696106  0.462355  1
