# generated using pymatgen
data_Yb9Pr2TmRu4
_symmetry_space_group_name_H-M   'P 1'
_cell_length_a   6.31684725
_cell_length_b   7.55764826
_cell_length_c   9.27530171
_cell_angle_alpha   90.03708608
_cell_angle_beta   90.77963356
_cell_angle_gamma   89.47873371
_symmetry_Int_Tables_number   1
_chemical_formula_structural   Yb9Pr2TmRu4
_chemical_formula_sum   'Yb9 Pr2 Tm1 Ru4'
_cell_volume   442.74825232
_cell_formula_units_Z   1
loop_
 _symmetry_equiv_pos_site_id
 _symmetry_equiv_pos_as_xyz
  1  'x, y, z'
loop_
 _atom_site_type_symbol
 _atom_site_label
 _atom_site_symmetry_multiplicity
 _atom_site_fract_x
 _atom_site_fract_y
 _atom_site_fract_z
 _atom_site_occupancy
  Yb  Yb0  1  0.634735  0.038464  0.249586  1
  Yb  Yb1  1  0.367738  0.961415  0.750962  1
  Yb  Yb2  1  0.129228  0.459335  0.746884  1
  Yb  Yb3  1  0.865861  0.542438  0.251147  1
  Yb  Yb4  1  0.163022  0.171173  0.064467  1
  Yb  Yb5  1  0.844160  0.833945  0.931932  1
  Yb  Yb6  1  0.663133  0.331337  0.930672  1
  Yb  Yb7  1  0.833340  0.828673  0.567790  1
  Yb  Yb8  1  0.344415  0.665211  0.065431  1
  Pr  Pr9  1  0.151571  0.165527  0.434080  1
  Pr  Pr10  1  0.338239  0.669848  0.435881  1
  Tm  Tm11  1  0.658329  0.332858  0.569318  1
  Ru  Ru12  1  0.467655  0.380248  0.271111  1
  Ru  Ru13  1  0.543996  0.612650  0.743000  1
  Ru  Ru14  1  0.945852  0.125002  0.741619  1
  Ru  Ru15  1  0.048726  0.881879  0.246120  1
