# generated using pymatgen
data_SmPa(PdPt2)2
_symmetry_space_group_name_H-M   'P 1'
_cell_length_a   5.82243000
_cell_length_b   5.85226922
_cell_length_c   4.90659700
_cell_angle_alpha   90.00000000
_cell_angle_beta   90.00000000
_cell_angle_gamma   119.83146647
_symmetry_Int_Tables_number   1
_chemical_formula_structural   SmPa(PdPt2)2
_chemical_formula_sum   'Sm1 Pa1 Pd2 Pt4'
_cell_volume   145.03560607
_cell_formula_units_Z   1
loop_
 _symmetry_equiv_pos_site_id
 _symmetry_equiv_pos_as_xyz
  1  'x, y, z'
loop_
 _atom_site_type_symbol
 _atom_site_label
 _atom_site_symmetry_multiplicity
 _atom_site_fract_x
 _atom_site_fract_y
 _atom_site_fract_z
 _atom_site_occupancy
  Sm  Sm0  1  0.666320  0.332640  0.250000  1
  Pa  Pa1  1  0.334071  0.668143  0.750000  1
  Pd  Pd2  1  0.839804  0.679606  0.750000  1
  Pd  Pd3  1  0.163451  0.326901  0.250000  1
  Pt  Pt4  1  0.840623  0.161600  0.750000  1
  Pt  Pt5  1  0.320978  0.161600  0.750000  1
  Pt  Pt6  1  0.164007  0.834754  0.250000  1
  Pt  Pt7  1  0.670747  0.834754  0.250000  1
