# generated using pymatgen
data_Pr2B2Pt3Rh4Au
_symmetry_space_group_name_H-M   'P 1'
_cell_length_a   5.50742221
_cell_length_b   5.54291904
_cell_length_c   7.56540700
_cell_angle_alpha   90.00000000
_cell_angle_beta   90.00000000
_cell_angle_gamma   120.21342993
_symmetry_Int_Tables_number   1
_chemical_formula_structural   Pr2B2Pt3Rh4Au
_chemical_formula_sum   'Pr2 B2 Pt3 Rh4 Au1'
_cell_volume   199.57759831
_cell_formula_units_Z   1
loop_
 _symmetry_equiv_pos_site_id
 _symmetry_equiv_pos_as_xyz
  1  'x, y, z'
loop_
 _atom_site_type_symbol
 _atom_site_label
 _atom_site_symmetry_multiplicity
 _atom_site_fract_x
 _atom_site_fract_y
 _atom_site_fract_z
 _atom_site_occupancy
  Pr  Pr0  1  0.000265  0.000132  0.500000  1
  Pr  Pr1  1  0.998625  0.999312  0.000000  1
  B  B2  1  0.658074  0.329037  0.500000  1
  B  B3  1  0.341839  0.670920  0.500000  1
  Pt  Pt4  1  0.002034  0.501017  0.698900  1
  Pt  Pt5  1  0.343809  0.671905  0.000000  1
  Pt  Pt6  1  0.002034  0.501017  0.301100  1
  Rh  Rh7  1  0.499272  0.501816  0.307366  1
  Rh  Rh8  1  0.499272  0.997455  0.307366  1
  Rh  Rh9  1  0.499272  0.997455  0.692634  1
  Rh  Rh10  1  0.499272  0.501816  0.692634  1
  Au  Au11  1  0.656235  0.328117  0.000000  1
