# generated using pymatgen
data_LaPr3(ReC2)2
_symmetry_space_group_name_H-M   'P 1'
_cell_length_a   5.43498700
_cell_length_b   6.76313500
_cell_length_c   10.31012200
_cell_angle_alpha   90.00000000
_cell_angle_beta   90.00000000
_cell_angle_gamma   90.00000000
_symmetry_Int_Tables_number   1
_chemical_formula_structural   LaPr3(ReC2)2
_chemical_formula_sum   'La2 Pr6 Re4 C8'
_cell_volume   378.97483321
_cell_formula_units_Z   2
loop_
 _symmetry_equiv_pos_site_id
 _symmetry_equiv_pos_as_xyz
  1  'x, y, z'
loop_
 _atom_site_type_symbol
 _atom_site_label
 _atom_site_symmetry_multiplicity
 _atom_site_fract_x
 _atom_site_fract_y
 _atom_site_fract_z
 _atom_site_occupancy
  La  La0  1  0.750000  0.524588  0.786611  1
  La  La1  1  0.250000  0.975412  0.286611  1
  Pr  Pr2  1  0.750000  0.688666  0.449636  1
  Pr  Pr3  1  0.250000  0.811334  0.949636  1
  Pr  Pr4  1  0.750000  0.189723  0.050200  1
  Pr  Pr5  1  0.250000  0.310277  0.550200  1
  Pr  Pr6  1  0.250000  0.474236  0.213692  1
  Pr  Pr7  1  0.750000  0.025764  0.713692  1
  Re  Re8  1  0.250000  0.268783  0.855932  1
  Re  Re9  1  0.250000  0.768303  0.643912  1
  Re  Re10  1  0.750000  0.231217  0.355932  1
  Re  Re11  1  0.750000  0.731697  0.143912  1
  C  C12  1  0.250000  0.687461  0.465450  1
  C  C13  1  0.250000  0.531453  0.757523  1
  C  C14  1  0.750000  0.468161  0.241983  1
  C  C15  1  0.750000  0.812539  0.965450  1
  C  C16  1  0.250000  0.031839  0.741983  1
  C  C17  1  0.250000  0.189212  0.035060  1
  C  C18  1  0.750000  0.310788  0.535060  1
  C  C19  1  0.750000  0.968547  0.257523  1
