# generated using pymatgen
data_Pr2Nd6Pd24Pb
_symmetry_space_group_name_H-M   'P 1'
_cell_length_a   8.57258832
_cell_length_b   8.57258832
_cell_length_c   8.57258832
_cell_angle_alpha   90.02228097
_cell_angle_beta   90.02228097
_cell_angle_gamma   90.02228097
_symmetry_Int_Tables_number   1
_chemical_formula_structural   Pr2Nd6Pd24Pb
_chemical_formula_sum   'Pr2 Nd6 Pd24 Pb1'
_cell_volume   629.99311994
_cell_formula_units_Z   1
loop_
 _symmetry_equiv_pos_site_id
 _symmetry_equiv_pos_as_xyz
  1  'x, y, z'
loop_
 _atom_site_type_symbol
 _atom_site_label
 _atom_site_symmetry_multiplicity
 _atom_site_fract_x
 _atom_site_fract_y
 _atom_site_fract_z
 _atom_site_occupancy
  Pr  Pr0  1  0.251786  0.251786  0.251786  1
  Pr  Pr1  1  0.748214  0.748214  0.748214  1
  Nd  Nd2  1  0.748107  0.748107  0.251911  1
  Nd  Nd3  1  0.748107  0.251911  0.748107  1
  Nd  Nd4  1  0.251893  0.251893  0.748089  1
  Nd  Nd5  1  0.251893  0.748089  0.251893  1
  Nd  Nd6  1  0.251911  0.748107  0.748107  1
  Nd  Nd7  1  0.748089  0.251893  0.251893  1
  Pd  Pd8  1  0.268748  0.500277  0.999561  1
  Pd  Pd9  1  0.731252  0.499723  0.000439  1
  Pd  Pd10  1  0.999561  0.268748  0.500277  1
  Pd  Pd11  1  0.500277  0.268748  0.999561  1
  Pd  Pd12  1  0.000439  0.731252  0.499723  1
  Pd  Pd13  1  0.499723  0.731252  0.000439  1
  Pd  Pd14  1  0.500277  0.999561  0.268748  1
  Pd  Pd15  1  0.268748  0.999561  0.500277  1
  Pd  Pd16  1  0.499723  0.000439  0.731252  1
  Pd  Pd17  1  0.731252  0.000439  0.499723  1
  Pd  Pd18  1  0.999561  0.500277  0.268748  1
  Pd  Pd19  1  0.000439  0.499723  0.731252  1
  Pd  Pd20  1  0.255616  0.500402  0.500402  1
  Pd  Pd21  1  0.744384  0.499598  0.499598  1
  Pd  Pd22  1  0.500402  0.255616  0.500402  1
  Pd  Pd23  1  0.499598  0.744384  0.499598  1
  Pd  Pd24  1  0.500402  0.500402  0.255616  1
  Pd  Pd25  1  0.499598  0.499598  0.744384  1
  Pd  Pd26  1  0.320264  0.999684  0.999684  1
  Pd  Pd27  1  0.679736  0.000316  0.000316  1
  Pd  Pd28  1  0.999684  0.320264  0.999684  1
  Pd  Pd29  1  0.000316  0.679736  0.000316  1
  Pd  Pd30  1  0.999684  0.999684  0.320264  1
  Pd  Pd31  1  0.000316  0.000316  0.679736  1
  Pb  Pb32  1  0.000000  0.000000  0.000000  1
