# generated using pymatgen
data_La4Dy12Cd4Ir3Pt
_symmetry_space_group_name_H-M   'P 1'
_cell_length_a   9.76064783
_cell_length_b   9.77259136
_cell_length_c   9.77259000
_cell_angle_alpha   60.09468515
_cell_angle_beta   60.11099616
_cell_angle_gamma   60.11099693
_symmetry_Int_Tables_number   1
_chemical_formula_structural   La4Dy12Cd4Ir3Pt
_chemical_formula_sum   'La4 Dy12 Cd4 Ir3 Pt1'
_cell_volume   660.72463702
_cell_formula_units_Z   1
loop_
 _symmetry_equiv_pos_site_id
 _symmetry_equiv_pos_as_xyz
  1  'x, y, z'
loop_
 _atom_site_type_symbol
 _atom_site_label
 _atom_site_symmetry_multiplicity
 _atom_site_fract_x
 _atom_site_fract_y
 _atom_site_fract_z
 _atom_site_occupancy
  La  La0  1  0.812174  0.189359  0.811286  1
  La  La1  1  0.190252  0.811504  0.187863  1
  La  La2  1  0.812174  0.811286  0.189359  1
  La  La3  1  0.190252  0.187863  0.811504  1
  Dy  Dy4  1  0.596345  0.597133  0.597133  1
  Dy  Dy5  1  0.600698  0.601447  0.203858  1
  Dy  Dy6  1  0.600698  0.203858  0.601447  1
  Dy  Dy7  1  0.201135  0.601091  0.601091  1
  Dy  Dy8  1  0.058449  0.437091  0.437091  1
  Dy  Dy9  1  0.435084  0.063793  0.063793  1
  Dy  Dy10  1  0.439228  0.057588  0.438950  1
  Dy  Dy11  1  0.061852  0.435239  0.061521  1
  Dy  Dy12  1  0.439228  0.438950  0.057588  1
  Dy  Dy13  1  0.061852  0.061521  0.435239  1
  Dy  Dy14  1  0.196468  0.804089  0.804089  1
  Dy  Dy15  1  0.804551  0.196542  0.196542  1
  Cd  Cd16  1  0.833446  0.827361  0.827361  1
  Cd  Cd17  1  0.827454  0.833736  0.511035  1
  Cd  Cd18  1  0.827454  0.511035  0.833736  1
  Cd  Cd19  1  0.512368  0.827450  0.827450  1
  Ir  Ir20  1  0.389250  0.395207  0.825320  1
  Ir  Ir21  1  0.389250  0.825320  0.395207  1
  Ir  Ir22  1  0.824811  0.390696  0.390696  1
  Pt  Pt23  1  0.395525  0.390840  0.390840  1
