# generated using pymatgen
data_Ce2Y3SiSn3
_symmetry_space_group_name_H-M   'P 1'
_cell_length_a   9.42862100
_cell_length_b   9.42862185
_cell_length_c   6.25593200
_cell_angle_alpha   90.00000000
_cell_angle_beta   90.00000000
_cell_angle_gamma   120.00000053
_symmetry_Int_Tables_number   1
_chemical_formula_structural   Ce2Y3SiSn3
_chemical_formula_sum   'Ce4 Y6 Si2 Sn6'
_cell_volume   481.63611612
_cell_formula_units_Z   2
loop_
 _symmetry_equiv_pos_site_id
 _symmetry_equiv_pos_as_xyz
  1  'x, y, z'
loop_
 _atom_site_type_symbol
 _atom_site_label
 _atom_site_symmetry_multiplicity
 _atom_site_fract_x
 _atom_site_fract_y
 _atom_site_fract_z
 _atom_site_occupancy
  Ce  Ce0  1  0.666667  0.333333  0.000000  1
  Ce  Ce1  1  0.333333  0.666667  0.000000  1
  Ce  Ce2  1  0.333333  0.666667  0.500000  1
  Ce  Ce3  1  0.666667  0.333333  0.500000  1
  Y  Y4  1  0.747342  0.747342  0.750000  1
  Y  Y5  1  0.252658  0.000000  0.750000  1
  Y  Y6  1  0.000000  0.252658  0.750000  1
  Y  Y7  1  0.252658  0.252658  0.250000  1
  Y  Y8  1  0.747342  0.000000  0.250000  1
  Y  Y9  1  0.000000  0.747342  0.250000  1
  Si  Si10  1  0.000000  0.000000  0.000000  1
  Si  Si11  1  0.000000  0.000000  0.500000  1
  Sn  Sn12  1  0.386597  0.386597  0.750000  1
  Sn  Sn13  1  0.613403  0.000000  0.750000  1
  Sn  Sn14  1  0.000000  0.613403  0.750000  1
  Sn  Sn15  1  0.613403  0.613403  0.250000  1
  Sn  Sn16  1  0.386597  0.000000  0.250000  1
  Sn  Sn17  1  0.000000  0.386597  0.250000  1
