# generated using pymatgen
data_Hf4Mn3FeAs4
_symmetry_space_group_name_H-M   'P 1'
_cell_length_a   3.76462700
_cell_length_b   6.52989647
_cell_length_c   7.60697665
_cell_angle_alpha   90.48095989
_cell_angle_beta   90.00000000
_cell_angle_gamma   90.00000000
_symmetry_Int_Tables_number   1
_chemical_formula_structural   Hf4Mn3FeAs4
_chemical_formula_sum   'Hf4 Mn3 Fe1 As4'
_cell_volume   186.99286255
_cell_formula_units_Z   1
loop_
 _symmetry_equiv_pos_site_id
 _symmetry_equiv_pos_as_xyz
  1  'x, y, z'
loop_
 _atom_site_type_symbol
 _atom_site_label
 _atom_site_symmetry_multiplicity
 _atom_site_fract_x
 _atom_site_fract_y
 _atom_site_fract_z
 _atom_site_occupancy
  Hf  Hf0  1  0.250000  0.463665  0.179147  1
  Hf  Hf1  1  0.750000  0.532166  0.820567  1
  Hf  Hf2  1  0.750000  0.032537  0.676188  1
  Hf  Hf3  1  0.250000  0.968231  0.323812  1
  Mn  Mn4  1  0.250000  0.867460  0.940233  1
  Mn  Mn5  1  0.750000  0.136966  0.059647  1
  Mn  Mn6  1  0.750000  0.636196  0.440763  1
  Fe  Fe7  1  0.250000  0.363583  0.556822  1
  As  As8  1  0.250000  0.734856  0.629684  1
  As  As9  1  0.750000  0.264375  0.378137  1
  As  As10  1  0.750000  0.760206  0.128809  1
  As  As11  1  0.250000  0.239761  0.866191  1
