# generated using pymatgen
data_Tb2Pr2Al18(PdRh)3
_symmetry_space_group_name_H-M   'P 1'
_cell_length_a   7.66755307
_cell_length_b   7.65739295
_cell_length_c   9.53863416
_cell_angle_alpha   89.97778663
_cell_angle_beta   90.00741999
_cell_angle_gamma   119.60264068
_symmetry_Int_Tables_number   1
_chemical_formula_structural   Tb2Pr2Al18(PdRh)3
_chemical_formula_sum   'Tb2 Pr2 Al18 Pd3 Rh3'
_cell_volume   486.94461274
_cell_formula_units_Z   1
loop_
 _symmetry_equiv_pos_site_id
 _symmetry_equiv_pos_as_xyz
  1  'x, y, z'
loop_
 _atom_site_type_symbol
 _atom_site_label
 _atom_site_symmetry_multiplicity
 _atom_site_fract_x
 _atom_site_fract_y
 _atom_site_fract_z
 _atom_site_occupancy
  Tb  Tb0  1  0.995823  0.669432  0.250097  1
  Tb  Tb1  1  0.006164  0.331951  0.750168  1
  Pr  Pr2  1  0.667621  0.994144  0.249633  1
  Pr  Pr3  1  0.331043  0.003684  0.750191  1
  Al  Al4  1  0.126838  0.126987  0.250733  1
  Al  Al5  1  0.872306  0.873838  0.749228  1
  Al  Al6  1  0.002355  0.332522  0.074313  1
  Al  Al7  1  0.996612  0.667232  0.925268  1
  Al  Al8  1  0.994641  0.663356  0.572805  1
  Al  Al9  1  0.332708  0.004114  0.425009  1
  Al  Al10  1  0.997545  0.332313  0.427388  1
  Al  Al11  1  0.672129  0.004459  0.574914  1
  Al  Al12  1  0.671772  0.999312  0.923314  1
  Al  Al13  1  0.328176  0.001380  0.077051  1
  Al  Al14  1  0.332396  0.330796  0.548973  1
  Al  Al15  1  0.671011  0.666181  0.450853  1
  Al  Al16  1  0.669573  0.667565  0.052755  1
  Al  Al17  1  0.330360  0.332029  0.947324  1
  Al  Al18  1  0.337262  0.542633  0.250693  1
  Al  Al19  1  0.661754  0.454355  0.746346  1
  Al  Al20  1  0.548715  0.344180  0.253620  1
  Al  Al21  1  0.454373  0.656684  0.749340  1
  Pd  Pd22  1  0.671928  0.328513  0.000103  1
  Pd  Pd23  1  0.327457  0.671619  0.999867  1
  Pd  Pd24  1  0.327446  0.671527  0.500066  1
  Rh  Rh25  1  0.672078  0.329433  0.499971  1
  Rh  Rh26  1  0.999783  0.999982  0.000025  1
  Rh  Rh27  1  0.000134  0.999782  0.499952  1
