# generated using pymatgen
data_Yb2DyTh5TlPt8Pb3
_symmetry_space_group_name_H-M   'P 1'
_cell_length_a   8.08755900
_cell_length_b   8.09446467
_cell_length_c   7.36135700
_cell_angle_alpha   90.00000000
_cell_angle_beta   90.00000000
_cell_angle_gamma   90.24937247
_symmetry_Int_Tables_number   1
_chemical_formula_structural   Yb2DyTh5TlPt8Pb3
_chemical_formula_sum   'Yb2 Dy1 Th5 Tl1 Pt8 Pb3'
_cell_volume   481.90270065
_cell_formula_units_Z   1
loop_
 _symmetry_equiv_pos_site_id
 _symmetry_equiv_pos_as_xyz
  1  'x, y, z'
loop_
 _atom_site_type_symbol
 _atom_site_label
 _atom_site_symmetry_multiplicity
 _atom_site_fract_x
 _atom_site_fract_y
 _atom_site_fract_z
 _atom_site_occupancy
  Yb  Yb0  1  0.662751  0.665089  0.500422  1
  Yb  Yb1  1  0.161938  0.838868  0.999745  1
  Dy  Dy2  1  0.839211  0.157368  0.000201  1
  Th  Th3  1  0.674401  0.677965  0.999552  1
  Th  Th4  1  0.341855  0.339735  0.499873  1
  Th  Th5  1  0.823358  0.172660  0.500434  1
  Th  Th6  1  0.325867  0.324656  0.999105  1
  Th  Th7  1  0.174843  0.826122  0.500935  1
  Tl  Tl8  1  0.499286  0.993761  0.752254  1
  Pt  Pt9  1  0.872553  0.876250  0.737522  1
  Pt  Pt10  1  0.131225  0.131671  0.736501  1
  Pt  Pt11  1  0.629487  0.366737  0.767361  1
  Pt  Pt12  1  0.629491  0.368190  0.231955  1
  Pt  Pt13  1  0.370034  0.624451  0.235792  1
  Pt  Pt14  1  0.130021  0.131912  0.263652  1
  Pt  Pt15  1  0.873225  0.875718  0.263038  1
  Pt  Pt16  1  0.370932  0.625413  0.763892  1
  Pb  Pb17  1  0.500157  0.994016  0.248073  1
  Pb  Pb18  1  0.994262  0.504391  0.750930  1
  Pb  Pb19  1  0.995106  0.505027  0.248762  1
