# generated using pymatgen
data_HoEr2Co2Sn3Pd
_symmetry_space_group_name_H-M   'P 1'
_cell_length_a   7.48391167
_cell_length_b   7.48452119
_cell_length_c   3.76195600
_cell_angle_alpha   90.00000000
_cell_angle_beta   90.00000000
_cell_angle_gamma   120.04562772
_symmetry_Int_Tables_number   1
_chemical_formula_structural   HoEr2Co2Sn3Pd
_chemical_formula_sum   'Ho1 Er2 Co2 Sn3 Pd1'
_cell_volume   182.40517575
_cell_formula_units_Z   1
loop_
 _symmetry_equiv_pos_site_id
 _symmetry_equiv_pos_as_xyz
  1  'x, y, z'
loop_
 _atom_site_type_symbol
 _atom_site_label
 _atom_site_symmetry_multiplicity
 _atom_site_fract_x
 _atom_site_fract_y
 _atom_site_fract_z
 _atom_site_occupancy
  Ho  Ho0  1  0.413726  0.398114  0.500000  1
  Er  Er1  1  0.602280  0.015816  0.500000  1
  Er  Er2  1  0.984309  0.586404  0.500000  1
  Co  Co3  1  0.667155  0.333063  0.000000  1
  Co  Co4  1  0.999711  0.999718  0.500000  1
  Sn  Sn5  1  0.745883  0.742578  0.000000  1
  Sn  Sn6  1  0.257329  0.002107  0.000000  1
  Sn  Sn7  1  0.996657  0.254318  0.000000  1
  Pd  Pd8  1  0.332949  0.667884  0.000000  1
