# generated using pymatgen
data_NdHo4In4PtAu
_symmetry_space_group_name_H-M   'P 1'
_cell_length_a   3.66128600
_cell_length_b   8.19558131
_cell_length_c   18.45061979
_cell_angle_alpha   90.17023526
_cell_angle_beta   90.00000000
_cell_angle_gamma   90.00000000
_symmetry_Int_Tables_number   1
_chemical_formula_structural   NdHo4In4PtAu
_chemical_formula_sum   'Nd2 Ho8 In8 Pt2 Au2'
_cell_volume   553.63362720
_cell_formula_units_Z   2
loop_
 _symmetry_equiv_pos_site_id
 _symmetry_equiv_pos_as_xyz
  1  'x, y, z'
loop_
 _atom_site_type_symbol
 _atom_site_label
 _atom_site_symmetry_multiplicity
 _atom_site_fract_x
 _atom_site_fract_y
 _atom_site_fract_z
 _atom_site_occupancy
  Nd  Nd0  1  0.000000  0.000000  0.000000  1
  Nd  Nd1  1  0.000000  0.500000  0.500000  1
  Ho  Ho2  1  0.000000  0.122385  0.418425  1
  Ho  Ho3  1  0.000000  0.877615  0.581575  1
  Ho  Ho4  1  0.000000  0.381546  0.915633  1
  Ho  Ho5  1  0.000000  0.618454  0.084367  1
  Ho  Ho6  1  0.000000  0.253018  0.215784  1
  Ho  Ho7  1  0.000000  0.746982  0.784216  1
  Ho  Ho8  1  0.000000  0.270041  0.720672  1
  Ho  Ho9  1  0.000000  0.729959  0.279328  1
  In  In10  1  0.500000  0.420438  0.348947  1
  In  In11  1  0.500000  0.579562  0.651053  1
  In  In12  1  0.500000  0.079111  0.849626  1
  In  In13  1  0.500000  0.920889  0.150374  1
  In  In14  1  0.500000  0.298603  0.066786  1
  In  In15  1  0.500000  0.701397  0.933214  1
  In  In16  1  0.500000  0.203236  0.568259  1
  In  In17  1  0.500000  0.796764  0.431741  1
  Pt  Pt18  1  0.500000  0.471976  0.804446  1
  Pt  Pt19  1  0.500000  0.528024  0.195554  1
  Au  Au20  1  0.500000  0.029316  0.302279  1
  Au  Au21  1  0.500000  0.970684  0.697721  1
