# generated using pymatgen
data_DyHo3Co18(P6Ru)2
_symmetry_space_group_name_H-M   'P 1'
_cell_length_a   3.67215300
_cell_length_b   10.30874528
_cell_length_c   11.74721745
_cell_angle_alpha   89.94287985
_cell_angle_beta   90.00000000
_cell_angle_gamma   90.00000000
_symmetry_Int_Tables_number   1
_chemical_formula_structural   DyHo3Co18(P6Ru)2
_chemical_formula_sum   'Dy1 Ho3 Co18 P12 Ru2'
_cell_volume   444.69410156
_cell_formula_units_Z   1
loop_
 _symmetry_equiv_pos_site_id
 _symmetry_equiv_pos_as_xyz
  1  'x, y, z'
loop_
 _atom_site_type_symbol
 _atom_site_label
 _atom_site_symmetry_multiplicity
 _atom_site_fract_x
 _atom_site_fract_y
 _atom_site_fract_z
 _atom_site_occupancy
  Dy  Dy0  1  0.250000  0.917658  0.202133  1
  Ho  Ho1  1  0.250000  0.582275  0.702072  1
  Ho  Ho2  1  0.750000  0.414078  0.295626  1
  Ho  Ho3  1  0.750000  0.086017  0.795678  1
  Co  Co4  1  0.750000  0.283740  0.008682  1
  Co  Co5  1  0.750000  0.216386  0.508797  1
  Co  Co6  1  0.250000  0.406305  0.487635  1
  Co  Co7  1  0.250000  0.093923  0.987550  1
  Co  Co8  1  0.750000  0.590834  0.510538  1
  Co  Co9  1  0.750000  0.909190  0.010063  1
  Co  Co10  1  0.250000  0.220795  0.176705  1
  Co  Co11  1  0.250000  0.279383  0.676795  1
  Co  Co12  1  0.750000  0.778265  0.822859  1
  Co  Co13  1  0.750000  0.721401  0.323001  1
  Co  Co14  1  0.250000  0.886604  0.701833  1
  Co  Co15  1  0.250000  0.613203  0.201807  1
  Co  Co16  1  0.750000  0.116796  0.300931  1
  Co  Co17  1  0.750000  0.383516  0.800794  1
  Co  Co18  1  0.250000  0.464558  0.932365  1
  Co  Co19  1  0.250000  0.035517  0.432632  1
  Co  Co20  1  0.750000  0.532542  0.068933  1
  Co  Co21  1  0.750000  0.967187  0.569199  1
  P  P22  1  0.250000  0.417098  0.112163  1
  P  P23  1  0.250000  0.082911  0.612356  1
  P  P24  1  0.750000  0.578587  0.886734  1
  P  P25  1  0.750000  0.921411  0.387088  1
  P  P26  1  0.250000  0.270051  0.869141  1
  P  P27  1  0.250000  0.229989  0.369147  1
  P  P28  1  0.750000  0.728669  0.132651  1
  P  P29  1  0.750000  0.770840  0.632794  1
  P  P30  1  0.250000  0.594673  0.390325  1
  P  P31  1  0.250000  0.905334  0.890295  1
  P  P32  1  0.750000  0.397382  0.608754  1
  P  P33  1  0.750000  0.103045  0.108560  1
  Ru  Ru34  1  0.250000  0.715329  0.991642  1
  Ru  Ru35  1  0.250000  0.784508  0.491719  1
