# generated using pymatgen
data_K3PrO12
_symmetry_space_group_name_H-M   'P 1'
_cell_length_a   7.28235695
_cell_length_b   7.28235666
_cell_length_c   7.28235700
_cell_angle_alpha   104.53834065
_cell_angle_beta   104.53834007
_cell_angle_gamma   119.86408978
_symmetry_Int_Tables_number   1
_chemical_formula_structural   K3PrO12
_chemical_formula_sum   'K3 Pr1 O12'
_cell_volume   289.84947290
_cell_formula_units_Z   1
loop_
 _symmetry_equiv_pos_site_id
 _symmetry_equiv_pos_as_xyz
  1  'x, y, z'
loop_
 _atom_site_type_symbol
 _atom_site_label
 _atom_site_symmetry_multiplicity
 _atom_site_fract_x
 _atom_site_fract_y
 _atom_site_fract_z
 _atom_site_occupancy
  K  K0  1  0.250000  0.750000  0.500000  1
  K  K1  1  0.250000  0.250000  0.000000  1
  K  K2  1  0.750000  0.750000  0.000000  1
  Pr  Pr3  1  0.750000  0.250000  0.500000  1
  O  O4  1  0.735806  0.499618  0.316883  1
  O  O5  1  0.500382  0.817265  0.236188  1
  O  O6  1  0.581077  0.264194  0.763812  1
  O  O7  1  0.182735  0.418923  0.683117  1
  O  O8  1  0.210168  0.339557  0.500000  1
  O  O9  1  0.289832  0.789832  0.129388  1
  O  O10  1  0.660443  0.160443  0.870612  1
  O  O11  1  0.839557  0.710168  0.500000  1
  O  O12  1  0.999618  0.235806  0.316883  1
  O  O13  1  0.317265  0.000382  0.236188  1
  O  O14  1  0.764194  0.081077  0.763812  1
  O  O15  1  0.918923  0.682735  0.683117  1
