# generated using pymatgen
data_LiDy3In3Ag2
_symmetry_space_group_name_H-M   'P 1'
_cell_length_a   7.91396500
_cell_length_b   7.91396461
_cell_length_c   3.85293600
_cell_angle_alpha   90.00000000
_cell_angle_beta   90.00000000
_cell_angle_gamma   120.00000579
_symmetry_Int_Tables_number   1
_chemical_formula_structural   LiDy3In3Ag2
_chemical_formula_sum   'Li1 Dy3 In3 Ag2'
_cell_volume   208.98284191
_cell_formula_units_Z   1
loop_
 _symmetry_equiv_pos_site_id
 _symmetry_equiv_pos_as_xyz
  1  'x, y, z'
loop_
 _atom_site_type_symbol
 _atom_site_label
 _atom_site_symmetry_multiplicity
 _atom_site_fract_x
 _atom_site_fract_y
 _atom_site_fract_z
 _atom_site_occupancy
  Li  Li0  1  0.000000  0.000000  0.500000  1
  Dy  Dy1  1  0.406847  0.000000  0.500000  1
  Dy  Dy2  1  0.000000  0.406847  0.500000  1
  Dy  Dy3  1  0.593153  0.593153  0.500000  1
  In  In4  1  0.747201  0.000000  0.000000  1
  In  In5  1  0.000000  0.747201  0.000000  1
  In  In6  1  0.252799  0.252799  0.000000  1
  Ag  Ag7  1  0.333333  0.666667  0.000000  1
  Ag  Ag8  1  0.666667  0.333333  0.000000  1
