# generated using pymatgen
data_Y4Ga18PdRu5
_symmetry_space_group_name_H-M   'P 1'
_cell_length_a   7.53888443
_cell_length_b   7.53888434
_cell_length_c   9.70662888
_cell_angle_alpha   90.08162233
_cell_angle_beta   90.08162110
_cell_angle_gamma   119.61537346
_symmetry_Int_Tables_number   1
_chemical_formula_structural   Y4Ga18PdRu5
_chemical_formula_sum   'Y4 Ga18 Pd1 Ru5'
_cell_volume   479.60277160
_cell_formula_units_Z   1
loop_
 _symmetry_equiv_pos_site_id
 _symmetry_equiv_pos_as_xyz
  1  'x, y, z'
loop_
 _atom_site_type_symbol
 _atom_site_label
 _atom_site_symmetry_multiplicity
 _atom_site_fract_x
 _atom_site_fract_y
 _atom_site_fract_z
 _atom_site_occupancy
  Y  Y0  1  0.997823  0.671033  0.251345  1
  Y  Y1  1  0.002177  0.328967  0.748655  1
  Y  Y2  1  0.671033  0.997823  0.251345  1
  Y  Y3  1  0.328967  0.002177  0.748655  1
  Ga  Ga4  1  0.131956  0.131956  0.253341  1
  Ga  Ga5  1  0.868044  0.868044  0.746659  1
  Ga  Ga6  1  0.004950  0.339961  0.078845  1
  Ga  Ga7  1  0.995050  0.660039  0.921155  1
  Ga  Ga8  1  0.995883  0.664472  0.575124  1
  Ga  Ga9  1  0.335528  0.004117  0.424876  1
  Ga  Ga10  1  0.004117  0.335528  0.424876  1
  Ga  Ga11  1  0.664472  0.995883  0.575124  1
  Ga  Ga12  1  0.660039  0.995050  0.921155  1
  Ga  Ga13  1  0.339961  0.004950  0.078845  1
  Ga  Ga14  1  0.336646  0.336646  0.558743  1
  Ga  Ga15  1  0.663354  0.663354  0.441257  1
  Ga  Ga16  1  0.657345  0.657345  0.063319  1
  Ga  Ga17  1  0.342655  0.342655  0.936681  1
  Ga  Ga18  1  0.336972  0.550182  0.250229  1
  Ga  Ga19  1  0.663028  0.449818  0.749771  1
  Ga  Ga20  1  0.550182  0.336972  0.250229  1
  Ga  Ga21  1  0.449818  0.663028  0.749771  1
  Pd  Pd22  1  0.000000  0.000000  0.000000  1
  Ru  Ru23  1  0.674538  0.325462  0.000000  1
  Ru  Ru24  1  0.325462  0.674538  0.000000  1
  Ru  Ru25  1  0.326334  0.673666  0.500000  1
  Ru  Ru26  1  0.673666  0.326334  0.500000  1
  Ru  Ru27  1  0.000000  0.000000  0.500000  1
