# generated using pymatgen
data_Ho6Er10Cd4Os3Pd
_symmetry_space_group_name_H-M   'P 1'
_cell_length_a   9.49636209
_cell_length_b   9.68618909
_cell_length_c   9.68619000
_cell_angle_alpha   59.99999690
_cell_angle_beta   59.33651863
_cell_angle_gamma   59.33652461
_symmetry_Int_Tables_number   1
_chemical_formula_structural   Ho6Er10Cd4Os3Pd
_chemical_formula_sum   'Ho6 Er10 Cd4 Os3 Pd1'
_cell_volume   623.61892610
_cell_formula_units_Z   1
loop_
 _symmetry_equiv_pos_site_id
 _symmetry_equiv_pos_as_xyz
  1  'x, y, z'
loop_
 _atom_site_type_symbol
 _atom_site_label
 _atom_site_symmetry_multiplicity
 _atom_site_fract_x
 _atom_site_fract_y
 _atom_site_fract_z
 _atom_site_occupancy
  Ho  Ho0  1  0.933279  0.563579  0.563579  1
  Ho  Ho1  1  0.552016  0.940771  0.940771  1
  Ho  Ho2  1  0.552016  0.940771  0.566442  1
  Ho  Ho3  1  0.933279  0.563579  0.939562  1
  Ho  Ho4  1  0.552016  0.566442  0.940771  1
  Ho  Ho5  1  0.933279  0.939562  0.563579  1
  Er  Er6  1  0.346622  0.352527  0.352527  1
  Er  Er7  1  0.346622  0.352527  0.948324  1
  Er  Er8  1  0.346622  0.948324  0.352527  1
  Er  Er9  1  0.973309  0.342231  0.342231  1
  Er  Er10  1  0.816490  0.189365  0.189365  1
  Er  Er11  1  0.183551  0.811470  0.811470  1
  Er  Er12  1  0.183551  0.811470  0.193509  1
  Er  Er13  1  0.816490  0.189365  0.804780  1
  Er  Er14  1  0.183551  0.193509  0.811470  1
  Er  Er15  1  0.816490  0.804780  0.189365  1
  Cd  Cd16  1  0.581120  0.578822  0.578822  1
  Cd  Cd17  1  0.581120  0.578822  0.261235  1
  Cd  Cd18  1  0.581120  0.261235  0.578822  1
  Cd  Cd19  1  0.254580  0.581807  0.581807  1
  Os  Os20  1  0.153110  0.135446  0.135446  1
  Os  Os21  1  0.153110  0.135446  0.575998  1
  Os  Os22  1  0.153110  0.575998  0.135446  1
  Pd  Pd23  1  0.573544  0.142152  0.142152  1
