# generated using pymatgen
data_SrEr6PtI12
_symmetry_space_group_name_H-M   'P 1'
_cell_length_a   9.77173736
_cell_length_b   9.77173919
_cell_length_c   9.77173741
_cell_angle_alpha   106.36399716
_cell_angle_beta   106.36400037
_cell_angle_gamma   106.36400363
_symmetry_Int_Tables_number   1
_chemical_formula_structural   SrEr6PtI12
_chemical_formula_sum   'Sr1 Er6 Pt1 I12'
_cell_volume   790.16599425
_cell_formula_units_Z   1
loop_
 _symmetry_equiv_pos_site_id
 _symmetry_equiv_pos_as_xyz
  1  'x, y, z'
loop_
 _atom_site_type_symbol
 _atom_site_label
 _atom_site_symmetry_multiplicity
 _atom_site_fract_x
 _atom_site_fract_y
 _atom_site_fract_z
 _atom_site_occupancy
  Sr  Sr0  1  0.000000  0.000000  0.000000  1
  Er  Er1  1  0.405435  0.477536  0.203518  1
  Er  Er2  1  0.203518  0.405435  0.477536  1
  Er  Er3  1  0.477536  0.203518  0.405435  1
  Er  Er4  1  0.594565  0.522464  0.796482  1
  Er  Er5  1  0.796482  0.594565  0.522464  1
  Er  Er6  1  0.522464  0.796482  0.594565  1
  Pt  Pt7  1  0.500000  0.500000  0.500000  1
  I  I8  1  0.049734  0.364580  0.129288  1
  I  I9  1  0.129288  0.049734  0.364580  1
  I  I10  1  0.364580  0.129288  0.049734  1
  I  I11  1  0.950266  0.635420  0.870712  1
  I  I12  1  0.870712  0.950266  0.635420  1
  I  I13  1  0.635420  0.870712  0.950266  1
  I  I14  1  0.721672  0.573767  0.175247  1
  I  I15  1  0.175247  0.721672  0.573767  1
  I  I16  1  0.573767  0.175247  0.721672  1
  I  I17  1  0.278328  0.426233  0.824753  1
  I  I18  1  0.824753  0.278328  0.426233  1
  I  I19  1  0.426233  0.824753  0.278328  1
