# generated using pymatgen
data_Ce2Y2Se3N2
_symmetry_space_group_name_H-M   'P 1'
_cell_length_a   6.92763468
_cell_length_b   6.92763506
_cell_length_c   10.88653032
_cell_angle_alpha   47.97434349
_cell_angle_beta   47.97434146
_cell_angle_gamma   33.44353525
_symmetry_Int_Tables_number   1
_chemical_formula_structural   Ce2Y2Se3N2
_chemical_formula_sum   'Ce2 Y2 Se3 N2'
_cell_volume   205.90556653
_cell_formula_units_Z   1
loop_
 _symmetry_equiv_pos_site_id
 _symmetry_equiv_pos_as_xyz
  1  'x, y, z'
loop_
 _atom_site_type_symbol
 _atom_site_label
 _atom_site_symmetry_multiplicity
 _atom_site_fract_x
 _atom_site_fract_y
 _atom_site_fract_z
 _atom_site_occupancy
  Ce  Ce0  1  0.270143  0.270143  0.619113  1
  Ce  Ce1  1  0.729856  0.729857  0.380887  1
  Y  Y2  1  0.564805  0.564805  0.126601  1
  Y  Y3  1  0.435195  0.435195  0.873399  1
  Se  Se4  1  0.000000  0.000000  0.000000  1
  Se  Se5  1  0.860925  0.860925  0.757154  1
  Se  Se6  1  0.139075  0.139075  0.242846  1
  N  N7  1  0.335924  0.335924  0.362454  1
  N  N8  1  0.664076  0.664076  0.637546  1
