# generated using pymatgen
data_Sr20As13Au3
_symmetry_space_group_name_H-M   'P 1'
_cell_length_a   8.16750978
_cell_length_b   8.45436820
_cell_length_c   15.93359900
_cell_angle_alpha   90.00000000
_cell_angle_beta   90.00000000
_cell_angle_gamma   88.43859106
_symmetry_Int_Tables_number   1
_chemical_formula_structural   Sr20As13Au3
_chemical_formula_sum   'Sr20 As13 Au3'
_cell_volume   1099.82457311
_cell_formula_units_Z   1
loop_
 _symmetry_equiv_pos_site_id
 _symmetry_equiv_pos_as_xyz
  1  'x, y, z'
loop_
 _atom_site_type_symbol
 _atom_site_label
 _atom_site_symmetry_multiplicity
 _atom_site_fract_x
 _atom_site_fract_y
 _atom_site_fract_z
 _atom_site_occupancy
  Sr  Sr0  1  0.027326  0.192304  0.405915  1
  Sr  Sr1  1  0.868922  0.639288  0.385574  1
  Sr  Sr2  1  0.533254  0.314224  0.098931  1
  Sr  Sr3  1  0.131667  0.353910  0.612000  1
  Sr  Sr4  1  0.372208  0.860480  0.388223  1
  Sr  Sr5  1  0.131667  0.353910  0.888000  1
  Sr  Sr6  1  0.372208  0.860480  0.111777  1
  Sr  Sr7  1  0.209009  0.494633  0.250000  1
  Sr  Sr8  1  0.533254  0.314224  0.401069  1
  Sr  Sr9  1  0.785102  0.505805  0.750000  1
  Sr  Sr10  1  0.973463  0.805527  0.912865  1
  Sr  Sr11  1  0.973463  0.805527  0.587135  1
  Sr  Sr12  1  0.472029  0.675985  0.597769  1
  Sr  Sr13  1  0.623183  0.144783  0.609156  1
  Sr  Sr14  1  0.287940  0.999469  0.750000  1
  Sr  Sr15  1  0.623183  0.144783  0.890844  1
  Sr  Sr16  1  0.708668  0.007406  0.250000  1
  Sr  Sr17  1  0.868922  0.639288  0.114426  1
  Sr  Sr18  1  0.472029  0.675985  0.902231  1
  Sr  Sr19  1  0.027326  0.192304  0.094085  1
  As  As20  1  0.827822  0.362243  0.250000  1
  As  As21  1  0.407630  0.406773  0.750000  1
  As  As22  1  0.680682  0.870309  0.750000  1
  As  As23  1  0.778361  0.457749  0.547792  1
  As  As24  1  0.731022  0.964880  0.053428  1
  As  As25  1  0.778361  0.457749  0.952208  1
  As  As26  1  0.231230  0.540313  0.448083  1
  As  As27  1  0.231230  0.540313  0.051917  1
  As  As28  1  0.179967  0.626902  0.750000  1
  As  As29  1  0.327911  0.138060  0.250000  1
  As  As30  1  0.267506  0.029515  0.946085  1
  As  As31  1  0.731022  0.964880  0.446572  1
  As  As32  1  0.267506  0.029515  0.553915  1
  Au  Au33  1  0.572790  0.626437  0.250000  1
  Au  Au34  1  0.075179  0.873516  0.250000  1
  Au  Au35  1  0.916953  0.130533  0.750000  1
