# generated using pymatgen
data_Ta2Hg3Sb2PbO14
_symmetry_space_group_name_H-M   'P 1'
_cell_length_a   7.56293693
_cell_length_b   7.56293705
_cell_length_c   7.52408626
_cell_angle_alpha   59.40943044
_cell_angle_beta   59.40943342
_cell_angle_gamma   59.56868448
_symmetry_Int_Tables_number   1
_chemical_formula_structural   Ta2Hg3Sb2PbO14
_chemical_formula_sum   'Ta2 Hg3 Sb2 Pb1 O14'
_cell_volume   300.59017553
_cell_formula_units_Z   1
loop_
 _symmetry_equiv_pos_site_id
 _symmetry_equiv_pos_as_xyz
  1  'x, y, z'
loop_
 _atom_site_type_symbol
 _atom_site_label
 _atom_site_symmetry_multiplicity
 _atom_site_fract_x
 _atom_site_fract_y
 _atom_site_fract_z
 _atom_site_occupancy
  Ta  Ta0  1  0.125000  0.625000  0.125000  1
  Ta  Ta1  1  0.625000  0.125000  0.125000  1
  Hg  Hg2  1  0.125000  0.625000  0.625000  1
  Hg  Hg3  1  0.625000  0.125000  0.625000  1
  Hg  Hg4  1  0.625000  0.625000  0.125000  1
  Sb  Sb5  1  0.125000  0.125000  0.625000  1
  Sb  Sb6  1  0.125000  0.125000  0.125000  1
  Pb  Pb7  1  0.625000  0.625000  0.625000  1
  O  O8  1  0.759391  0.759391  0.765297  1
  O  O9  1  0.194295  0.809992  0.808563  1
  O  O10  1  0.187393  0.811324  0.187832  1
  O  O11  1  0.809992  0.194295  0.808563  1
  O  O12  1  0.195863  0.195863  0.802606  1
  O  O13  1  0.812620  0.812620  0.192600  1
  O  O14  1  0.438676  0.062607  0.062168  1
  O  O15  1  0.811324  0.187393  0.187832  1
  O  O16  1  0.062607  0.438676  0.062168  1
  O  O17  1  0.054137  0.054137  0.447394  1
  O  O18  1  0.437380  0.437380  0.057400  1
  O  O19  1  0.440008  0.055705  0.441437  1
  O  O20  1  0.055705  0.440008  0.441437  1
  O  O21  1  0.490609  0.490609  0.484703  1
