# generated using pymatgen
data_ErWF7
_symmetry_space_group_name_H-M   'P 1'
_cell_length_a   5.69454800
_cell_length_b   6.02622083
_cell_length_c   8.26879183
_cell_angle_alpha   102.55206309
_cell_angle_beta   89.99956394
_cell_angle_gamma   89.99997930
_symmetry_Int_Tables_number   1
_chemical_formula_structural   ErWF7
_chemical_formula_sum   'Er2 W2 F14'
_cell_volume   276.97476109
_cell_formula_units_Z   2
loop_
 _symmetry_equiv_pos_site_id
 _symmetry_equiv_pos_as_xyz
  1  'x, y, z'
loop_
 _atom_site_type_symbol
 _atom_site_label
 _atom_site_symmetry_multiplicity
 _atom_site_fract_x
 _atom_site_fract_y
 _atom_site_fract_z
 _atom_site_occupancy
  Er  Er0  1  0.700224  0.654265  0.685825  1
  Er  Er1  1  0.200240  0.345729  0.314171  1
  W  W2  1  0.707576  0.812467  0.224784  1
  W  W3  1  0.207563  0.187530  0.775212  1
  F  F4  1  0.907202  0.467080  0.481804  1
  F  F5  1  0.407200  0.532918  0.518199  1
  F  F6  1  0.432861  0.919188  0.766220  1
  F  F7  1  0.932859  0.080823  0.233777  1
  F  F8  1  0.942575  0.963563  0.758104  1
  F  F9  1  0.442588  0.036436  0.241898  1
  F  F10  1  0.982303  0.459816  0.791499  1
  F  F11  1  0.482318  0.540186  0.208507  1
  F  F12  1  0.700214  0.762203  0.979224  1
  F  F13  1  0.200213  0.237803  0.020776  1
  F  F14  1  0.713284  0.867591  0.471850  1
  F  F15  1  0.213283  0.132410  0.528148  1
  F  F16  1  0.490103  0.389122  0.787006  1
  F  F17  1  0.990115  0.610871  0.212999  1
