# generated using pymatgen
data_LiTh4MgSi4
_symmetry_space_group_name_H-M   'P 1'
_cell_length_a   7.32561900
_cell_length_b   7.32561900
_cell_length_c   4.35520900
_cell_angle_alpha   90.00000000
_cell_angle_beta   90.00000000
_cell_angle_gamma   90.00000000
_symmetry_Int_Tables_number   1
_chemical_formula_structural   LiTh4MgSi4
_chemical_formula_sum   'Li1 Th4 Mg1 Si4'
_cell_volume   233.72095713
_cell_formula_units_Z   1
loop_
 _symmetry_equiv_pos_site_id
 _symmetry_equiv_pos_as_xyz
  1  'x, y, z'
loop_
 _atom_site_type_symbol
 _atom_site_label
 _atom_site_symmetry_multiplicity
 _atom_site_fract_x
 _atom_site_fract_y
 _atom_site_fract_z
 _atom_site_occupancy
  Li  Li0  1  0.000000  0.000000  0.000000  1
  Th  Th1  1  0.682434  0.178589  0.500000  1
  Th  Th2  1  0.317566  0.821411  0.500000  1
  Th  Th3  1  0.178589  0.317566  0.500000  1
  Th  Th4  1  0.821411  0.682434  0.500000  1
  Mg  Mg5  1  0.500000  0.500000  0.000000  1
  Si  Si6  1  0.115866  0.617899  0.000000  1
  Si  Si7  1  0.884134  0.382101  0.000000  1
  Si  Si8  1  0.617899  0.884134  0.000000  1
  Si  Si9  1  0.382101  0.115866  0.000000  1
