# generated using pymatgen
data_LaTb2ThTe6
_symmetry_space_group_name_H-M   'P 1'
_cell_length_a   4.41021400
_cell_length_b   11.84249600
_cell_length_c   12.18502600
_cell_angle_alpha   90.00000000
_cell_angle_beta   90.00000000
_cell_angle_gamma   90.00000000
_symmetry_Int_Tables_number   1
_chemical_formula_structural   LaTb2ThTe6
_chemical_formula_sum   'La2 Tb4 Th2 Te12'
_cell_volume   636.39882698
_cell_formula_units_Z   2
loop_
 _symmetry_equiv_pos_site_id
 _symmetry_equiv_pos_as_xyz
  1  'x, y, z'
loop_
 _atom_site_type_symbol
 _atom_site_label
 _atom_site_symmetry_multiplicity
 _atom_site_fract_x
 _atom_site_fract_y
 _atom_site_fract_z
 _atom_site_occupancy
  La  La0  1  0.250000  0.498448  0.301560  1
  La  La1  1  0.250000  0.001552  0.801560  1
  Tb  Tb2  1  0.250000  0.188025  0.484498  1
  Tb  Tb3  1  0.250000  0.311975  0.984498  1
  Tb  Tb4  1  0.750000  0.810399  0.516016  1
  Tb  Tb5  1  0.750000  0.689601  0.016016  1
  Th  Th6  1  0.750000  0.506813  0.697004  1
  Th  Th7  1  0.750000  0.993187  0.197004  1
  Te  Te8  1  0.250000  0.627451  0.544803  1
  Te  Te9  1  0.250000  0.872549  0.044803  1
  Te  Te10  1  0.750000  0.372273  0.460458  1
  Te  Te11  1  0.750000  0.127727  0.960458  1
  Te  Te12  1  0.250000  0.302043  0.725502  1
  Te  Te13  1  0.250000  0.197957  0.225502  1
  Te  Te14  1  0.750000  0.708255  0.272178  1
  Te  Te15  1  0.750000  0.791745  0.772178  1
  Te  Te16  1  0.750000  0.054547  0.612861  1
  Te  Te17  1  0.750000  0.445453  0.112861  1
  Te  Te18  1  0.250000  0.945818  0.385120  1
  Te  Te19  1  0.250000  0.554182  0.885120  1
