# generated using pymatgen
data_Hf4Cu3Si4Au
_symmetry_space_group_name_H-M   'P 1'
_cell_length_a   3.91467300
_cell_length_b   6.51597323
_cell_length_c   7.43323490
_cell_angle_alpha   89.05603319
_cell_angle_beta   90.00000000
_cell_angle_gamma   90.00000000
_symmetry_Int_Tables_number   1
_chemical_formula_structural   Hf4Cu3Si4Au
_chemical_formula_sum   'Hf4 Cu3 Si4 Au1'
_cell_volume   189.58051330
_cell_formula_units_Z   1
loop_
 _symmetry_equiv_pos_site_id
 _symmetry_equiv_pos_as_xyz
  1  'x, y, z'
loop_
 _atom_site_type_symbol
 _atom_site_label
 _atom_site_symmetry_multiplicity
 _atom_site_fract_x
 _atom_site_fract_y
 _atom_site_fract_z
 _atom_site_occupancy
  Hf  Hf0  1  0.250000  0.509527  0.690842  1
  Hf  Hf1  1  0.750000  0.480910  0.308198  1
  Hf  Hf2  1  0.250000  0.018548  0.821033  1
  Hf  Hf3  1  0.750000  0.989649  0.186133  1
  Cu  Cu4  1  0.250000  0.167960  0.425398  1
  Cu  Cu5  1  0.750000  0.334071  0.923862  1
  Cu  Cu6  1  0.250000  0.664546  0.073110  1
  Si  Si7  1  0.250000  0.280090  0.104164  1
  Si  Si8  1  0.750000  0.718479  0.906817  1
  Si  Si9  1  0.250000  0.769442  0.376300  1
  Si  Si10  1  0.750000  0.230563  0.608029  1
  Au  Au11  1  0.750000  0.836215  0.576115  1
