# generated using pymatgen
data_AcDyCuNi7B2
_symmetry_space_group_name_H-M   'P 1'
_cell_length_a   5.09455200
_cell_length_b   5.08815562
_cell_length_c   7.01500300
_cell_angle_alpha   90.00000000
_cell_angle_beta   90.00000000
_cell_angle_gamma   120.04159365
_symmetry_Int_Tables_number   1
_chemical_formula_structural   AcDyCuNi7B2
_chemical_formula_sum   'Ac1 Dy1 Cu1 Ni7 B2'
_cell_volume   157.41376317
_cell_formula_units_Z   1
loop_
 _symmetry_equiv_pos_site_id
 _symmetry_equiv_pos_as_xyz
  1  'x, y, z'
loop_
 _atom_site_type_symbol
 _atom_site_label
 _atom_site_symmetry_multiplicity
 _atom_site_fract_x
 _atom_site_fract_y
 _atom_site_fract_z
 _atom_site_occupancy
  Ac  Ac0  1  0.499982  0.999963  0.000000  1
  Dy  Dy1  1  0.500006  0.000013  0.500000  1
  Cu  Cu2  1  0.833438  0.666877  0.000000  1
  Ni  Ni3  1  0.166614  0.333227  0.000000  1
  Ni  Ni4  1  0.000603  0.001206  0.700273  1
  Ni  Ni5  1  0.498756  0.499387  0.700056  1
  Ni  Ni6  1  0.000631  0.499387  0.700056  1
  Ni  Ni7  1  0.000603  0.001206  0.299727  1
  Ni  Ni8  1  0.498756  0.499387  0.299944  1
  Ni  Ni9  1  0.000631  0.499387  0.299944  1
  B  B10  1  0.833307  0.666612  0.500000  1
  B  B11  1  0.166673  0.333347  0.500000  1
