# generated using pymatgen
data_Tb2NdPa(InPd2)2
_symmetry_space_group_name_H-M   'P 1'
_cell_length_a   7.85521400
_cell_length_b   7.85521368
_cell_length_c   3.72130000
_cell_angle_alpha   90.00000000
_cell_angle_beta   90.00000000
_cell_angle_gamma   91.13048749
_symmetry_Int_Tables_number   1
_chemical_formula_structural   Tb2NdPa(InPd2)2
_chemical_formula_sum   'Tb2 Nd1 Pa1 In2 Pd4'
_cell_volume   229.57583136
_cell_formula_units_Z   1
loop_
 _symmetry_equiv_pos_site_id
 _symmetry_equiv_pos_as_xyz
  1  'x, y, z'
loop_
 _atom_site_type_symbol
 _atom_site_label
 _atom_site_symmetry_multiplicity
 _atom_site_fract_x
 _atom_site_fract_y
 _atom_site_fract_z
 _atom_site_occupancy
  Tb  Tb0  1  0.824572  0.671975  0.500000  1
  Tb  Tb1  1  0.171975  0.324572  0.500000  1
  Nd  Nd2  1  0.677720  0.177720  0.500000  1
  Pa  Pa3  1  0.329073  0.829073  0.500000  1
  In  In4  1  0.997887  0.997029  0.000000  1
  In  In5  1  0.497029  0.497887  0.000000  1
  Pd  Pd6  1  0.362575  0.113587  0.000000  1
  Pd  Pd7  1  0.884640  0.384640  0.000000  1
  Pd  Pd8  1  0.140941  0.640941  0.000000  1
  Pd  Pd9  1  0.613587  0.862575  0.000000  1
