# generated using pymatgen
data_ErTa2(Nb2Sn3)2
_symmetry_space_group_name_H-M   'P 1'
_cell_length_a   5.80392900
_cell_length_b   5.80154932
_cell_length_c   9.59146500
_cell_angle_alpha   90.00000000
_cell_angle_beta   90.00000000
_cell_angle_gamma   119.98644104
_symmetry_Int_Tables_number   1
_chemical_formula_structural   ErTa2(Nb2Sn3)2
_chemical_formula_sum   'Er1 Ta2 Nb4 Sn6'
_cell_volume   279.73124552
_cell_formula_units_Z   1
loop_
 _symmetry_equiv_pos_site_id
 _symmetry_equiv_pos_as_xyz
  1  'x, y, z'
loop_
 _atom_site_type_symbol
 _atom_site_label
 _atom_site_symmetry_multiplicity
 _atom_site_fract_x
 _atom_site_fract_y
 _atom_site_fract_z
 _atom_site_occupancy
  Er  Er0  1  0.000000  0.000000  0.999497  1
  Ta  Ta1  1  0.500000  0.500000  0.751465  1
  Ta  Ta2  1  0.500000  0.000000  0.751465  1
  Nb  Nb3  1  0.000000  0.500000  0.750857  1
  Nb  Nb4  1  0.000000  0.500000  0.249416  1
  Nb  Nb5  1  0.500000  0.500000  0.249485  1
  Nb  Nb6  1  0.500000  0.000000  0.249485  1
  Sn  Sn7  1  0.666247  0.333123  0.500068  1
  Sn  Sn8  1  0.333753  0.666877  0.500068  1
  Sn  Sn9  1  0.666611  0.333305  0.000280  1
  Sn  Sn10  1  0.333389  0.666695  0.000280  1
  Sn  Sn11  1  0.000000  0.000000  0.669075  1
  Sn  Sn12  1  0.000000  0.000000  0.328557  1
