# generated using pymatgen
data_Dy3Lu3CoTe2
_symmetry_space_group_name_H-M   'P 1'
_cell_length_a   8.24295300
_cell_length_b   8.24295264
_cell_length_c   3.91259300
_cell_angle_alpha   90.00000000
_cell_angle_beta   90.00000000
_cell_angle_gamma   120.00000544
_symmetry_Int_Tables_number   1
_chemical_formula_structural   Dy3Lu3CoTe2
_chemical_formula_sum   'Dy3 Lu3 Co1 Te2'
_cell_volume   230.22946794
_cell_formula_units_Z   1
loop_
 _symmetry_equiv_pos_site_id
 _symmetry_equiv_pos_as_xyz
  1  'x, y, z'
loop_
 _atom_site_type_symbol
 _atom_site_label
 _atom_site_symmetry_multiplicity
 _atom_site_fract_x
 _atom_site_fract_y
 _atom_site_fract_z
 _atom_site_occupancy
  Dy  Dy0  1  0.000000  0.397447  0.500000  1
  Dy  Dy1  1  0.602553  0.602553  0.500000  1
  Dy  Dy2  1  0.397447  0.000000  0.500000  1
  Lu  Lu3  1  0.000000  0.768510  0.000000  1
  Lu  Lu4  1  0.231490  0.231490  0.000000  1
  Lu  Lu5  1  0.768510  0.000000  0.000000  1
  Co  Co6  1  0.000000  0.000000  0.500000  1
  Te  Te7  1  0.333333  0.666667  0.000000  1
  Te  Te8  1  0.666667  0.333333  0.000000  1
