# generated using pymatgen
data_NaSr3(AgO3)2
_symmetry_space_group_name_H-M   'P 1'
_cell_length_a   7.05786829
_cell_length_b   7.05786834
_cell_length_c   7.05410124
_cell_angle_alpha   75.56929162
_cell_angle_beta   75.56928940
_cell_angle_gamma   34.02878890
_symmetry_Int_Tables_number   1
_chemical_formula_structural   NaSr3(AgO3)2
_chemical_formula_sum   'Na1 Sr3 Ag2 O6'
_cell_volume   189.84547010
_cell_formula_units_Z   1
loop_
 _symmetry_equiv_pos_site_id
 _symmetry_equiv_pos_as_xyz
  1  'x, y, z'
loop_
 _atom_site_type_symbol
 _atom_site_label
 _atom_site_symmetry_multiplicity
 _atom_site_fract_x
 _atom_site_fract_y
 _atom_site_fract_z
 _atom_site_occupancy
  Na  Na0  1  0.150230  0.150230  0.175405  1
  Sr  Sr1  1  0.149364  0.149364  0.674104  1
  Sr  Sr2  1  0.847060  0.847060  0.831029  1
  Sr  Sr3  1  0.846763  0.846763  0.322262  1
  Ag  Ag4  1  0.504483  0.504483  0.005821  1
  Ag  Ag5  1  0.502677  0.502677  0.490520  1
  O  O6  1  0.340693  0.340693  0.576004  1
  O  O7  1  0.343481  0.343481  0.082128  1
  O  O8  1  0.660835  0.660835  0.433467  1
  O  O9  1  0.662583  0.662583  0.904399  1
  O  O10  1  0.994990  0.994990  0.508412  1
  O  O11  1  0.996841  0.996841  0.996446  1
