# generated using pymatgen
data_Ce3CuSi4Ir3
_symmetry_space_group_name_H-M   'P 1'
_cell_length_a   4.07151276
_cell_length_b   4.14602393
_cell_length_c   12.58977209
_cell_angle_alpha   80.52262222
_cell_angle_beta   80.69445184
_cell_angle_gamma   90.00000334
_symmetry_Int_Tables_number   1
_chemical_formula_structural   Ce3CuSi4Ir3
_chemical_formula_sum   'Ce3 Cu1 Si4 Ir3'
_cell_volume   206.78596757
_cell_formula_units_Z   1
loop_
 _symmetry_equiv_pos_site_id
 _symmetry_equiv_pos_as_xyz
  1  'x, y, z'
loop_
 _atom_site_type_symbol
 _atom_site_label
 _atom_site_symmetry_multiplicity
 _atom_site_fract_x
 _atom_site_fract_y
 _atom_site_fract_z
 _atom_site_occupancy
  Ce  Ce0  1  0.997778  0.997778  0.004443  1
  Ce  Ce1  1  0.855544  0.355544  0.288913  1
  Ce  Ce2  1  0.147226  0.647226  0.705546  1
  Cu  Cu3  1  0.597101  0.097101  0.805797  1
  Si  Si4  1  0.695753  0.195753  0.608495  1
  Si  Si5  1  0.303121  0.803121  0.393757  1
  Si  Si6  1  0.453152  0.453152  0.093696  1
  Si  Si7  1  0.550969  0.550969  0.898063  1
  Ir  Ir8  1  0.402338  0.902338  0.195325  1
  Ir  Ir9  1  0.248207  0.248207  0.503586  1
  Ir  Ir10  1  0.748810  0.748810  0.502380  1
