# generated using pymatgen
data_Ba4SrLa(Sn4Bi)2
_symmetry_space_group_name_H-M   'P 1'
_cell_length_a   9.23450644
_cell_length_b   9.23450586
_cell_length_c   9.25586106
_cell_angle_alpha   119.92371303
_cell_angle_beta   119.92370819
_cell_angle_gamma   90.00000034
_symmetry_Int_Tables_number   1
_chemical_formula_structural   Ba4SrLa(Sn4Bi)2
_chemical_formula_sum   'Ba4 Sr1 La1 Sn8 Bi2'
_cell_volume   559.40673185
_cell_formula_units_Z   1
loop_
 _symmetry_equiv_pos_site_id
 _symmetry_equiv_pos_as_xyz
  1  'x, y, z'
loop_
 _atom_site_type_symbol
 _atom_site_label
 _atom_site_symmetry_multiplicity
 _atom_site_fract_x
 _atom_site_fract_y
 _atom_site_fract_z
 _atom_site_occupancy
  Ba  Ba0  1  0.661354  0.161354  0.000000  1
  Ba  Ba1  1  0.338646  0.838646  0.000000  1
  Ba  Ba2  1  0.838646  0.661354  0.000000  1
  Ba  Ba3  1  0.161354  0.338646  0.000000  1
  Sr  Sr4  1  0.750000  0.750000  0.500000  1
  La  La5  1  0.250000  0.250000  0.500000  1
  Sn  Sn6  1  0.335241  0.838605  0.385971  1
  Sn  Sn7  1  0.661395  0.164759  0.614029  1
  Sn  Sn8  1  0.050731  0.547367  0.385971  1
  Sn  Sn9  1  0.547367  0.335241  0.385971  1
  Sn  Sn10  1  0.164759  0.952633  0.614029  1
  Sn  Sn11  1  0.952633  0.449269  0.614029  1
  Sn  Sn12  1  0.449269  0.661395  0.614029  1
  Sn  Sn13  1  0.838605  0.050731  0.385971  1
  Bi  Bi14  1  0.005826  0.005826  0.011650  1
  Bi  Bi15  1  0.494174  0.494174  0.988350  1
