# generated using pymatgen
data_Yb2DyY17Ir12
_symmetry_space_group_name_H-M   'P 1'
_cell_length_a   10.92987000
_cell_length_b   10.92987000
_cell_length_c   6.37085600
_cell_angle_alpha   90.00000000
_cell_angle_beta   90.00000000
_cell_angle_gamma   90.00000000
_symmetry_Int_Tables_number   1
_chemical_formula_structural   Yb2DyY17Ir12
_chemical_formula_sum   'Yb2 Dy1 Y17 Ir12'
_cell_volume   761.07557036
_cell_formula_units_Z   1
loop_
 _symmetry_equiv_pos_site_id
 _symmetry_equiv_pos_as_xyz
  1  'x, y, z'
loop_
 _atom_site_type_symbol
 _atom_site_label
 _atom_site_symmetry_multiplicity
 _atom_site_fract_x
 _atom_site_fract_y
 _atom_site_fract_z
 _atom_site_occupancy
  Yb  Yb0  1  0.000000  0.000000  0.500000  1
  Yb  Yb1  1  0.000000  0.000000  0.000000  1
  Dy  Dy2  1  0.500000  0.500000  0.500000  1
  Y  Y3  1  0.290208  0.087792  0.381341  1
  Y  Y4  1  0.290196  0.912103  0.881330  1
  Y  Y5  1  0.709804  0.087897  0.881330  1
  Y  Y6  1  0.709792  0.912208  0.381341  1
  Y  Y7  1  0.589232  0.791302  0.879876  1
  Y  Y8  1  0.589132  0.208760  0.379845  1
  Y  Y9  1  0.410868  0.791240  0.379845  1
  Y  Y10  1  0.410768  0.208698  0.879876  1
  Y  Y11  1  0.208760  0.410868  0.620155  1
  Y  Y12  1  0.208698  0.589232  0.120124  1
  Y  Y13  1  0.791302  0.410768  0.120124  1
  Y  Y14  1  0.791240  0.589132  0.620155  1
  Y  Y15  1  0.912103  0.709804  0.118670  1
  Y  Y16  1  0.912208  0.290208  0.618659  1
  Y  Y17  1  0.087792  0.709792  0.618659  1
  Y  Y18  1  0.087897  0.290196  0.118670  1
  Y  Y19  1  0.500000  0.500000  0.000000  1
  Ir  Ir20  1  0.842479  0.157512  0.250062  1
  Ir  Ir21  1  0.842488  0.842479  0.749938  1
  Ir  Ir22  1  0.157512  0.157521  0.749938  1
  Ir  Ir23  1  0.157521  0.842488  0.250062  1
  Ir  Ir24  1  0.653103  0.346937  0.749395  1
  Ir  Ir25  1  0.653063  0.653103  0.250605  1
  Ir  Ir26  1  0.346937  0.346897  0.250605  1
  Ir  Ir27  1  0.346897  0.653063  0.749395  1
  Ir  Ir28  1  0.500000  0.000000  0.123311  1
  Ir  Ir29  1  0.500000  0.000000  0.623379  1
  Ir  Ir30  1  0.000000  0.500000  0.876689  1
  Ir  Ir31  1  0.000000  0.500000  0.376621  1
