# generated using pymatgen
data_Zr3ZnGa3NiOs
_symmetry_space_group_name_H-M   'P 1'
_cell_length_a   7.14819600
_cell_length_b   7.14819708
_cell_length_c   3.46046100
_cell_angle_alpha   90.00000000
_cell_angle_beta   90.00000000
_cell_angle_gamma   120.00000425
_symmetry_Int_Tables_number   1
_chemical_formula_structural   Zr3ZnGa3NiOs
_chemical_formula_sum   'Zr3 Zn1 Ga3 Ni1 Os1'
_cell_volume   153.12903378
_cell_formula_units_Z   1
loop_
 _symmetry_equiv_pos_site_id
 _symmetry_equiv_pos_as_xyz
  1  'x, y, z'
loop_
 _atom_site_type_symbol
 _atom_site_label
 _atom_site_symmetry_multiplicity
 _atom_site_fract_x
 _atom_site_fract_y
 _atom_site_fract_z
 _atom_site_occupancy
  Zr  Zr0  1  0.383664  0.987331  0.500000  1
  Zr  Zr1  1  0.012669  0.396333  0.500000  1
  Zr  Zr2  1  0.603667  0.616336  0.500000  1
  Zn  Zn3  1  0.666667  0.333333  0.000000  1
  Ga  Ga4  1  0.746672  0.005763  0.000000  1
  Ga  Ga5  1  0.994237  0.740909  0.000000  1
  Ga  Ga6  1  0.259091  0.253328  0.000000  1
  Ni  Ni7  1  0.000000  0.000000  0.500000  1
  Os  Os8  1  0.333333  0.666667  0.000000  1
