# generated using pymatgen
data_Er3Tm(Pd2O7)2
_symmetry_space_group_name_H-M   'P 1'
_cell_length_a   7.20363169
_cell_length_b   7.20526994
_cell_length_c   7.20527000
_cell_angle_alpha   59.99999975
_cell_angle_beta   59.99247646
_cell_angle_gamma   59.99246959
_symmetry_Int_Tables_number   1
_chemical_formula_structural   Er3Tm(Pd2O7)2
_chemical_formula_sum   'Er3 Tm1 Pd4 O14'
_cell_volume   264.41591911
_cell_formula_units_Z   1
loop_
 _symmetry_equiv_pos_site_id
 _symmetry_equiv_pos_as_xyz
  1  'x, y, z'
loop_
 _atom_site_type_symbol
 _atom_site_label
 _atom_site_symmetry_multiplicity
 _atom_site_fract_x
 _atom_site_fract_y
 _atom_site_fract_z
 _atom_site_occupancy
  Er  Er0  1  0.625000  0.625000  0.125000  1
  Er  Er1  1  0.625000  0.625000  0.625000  1
  Er  Er2  1  0.625000  0.125000  0.625000  1
  Tm  Tm3  1  0.125000  0.625000  0.625000  1
  Pd  Pd4  1  0.125000  0.125000  0.125000  1
  Pd  Pd5  1  0.625000  0.125000  0.125000  1
  Pd  Pd6  1  0.125000  0.625000  0.125000  1
  Pd  Pd7  1  0.125000  0.125000  0.625000  1
  O  O8  1  0.033485  0.467004  0.467004  1
  O  O9  1  0.783202  0.783220  0.216789  1
  O  O10  1  0.783202  0.216789  0.216789  1
  O  O11  1  0.466798  0.033211  0.466780  1
  O  O12  1  0.033485  0.032508  0.467004  1
  O  O13  1  0.033485  0.467004  0.032508  1
  O  O14  1  0.751483  0.749506  0.749506  1
  O  O15  1  0.498517  0.500494  0.500494  1
  O  O16  1  0.783202  0.216789  0.783220  1
  O  O17  1  0.216515  0.782996  0.217492  1
  O  O18  1  0.216515  0.217492  0.782996  1
  O  O19  1  0.466798  0.033211  0.033211  1
  O  O20  1  0.466798  0.466780  0.033211  1
  O  O21  1  0.216515  0.782996  0.782996  1
