# generated using pymatgen
data_ErIn4Ni(BIr2)4
_symmetry_space_group_name_H-M   'P 1'
_cell_length_a   5.57205569
_cell_length_b   5.62291914
_cell_length_c   10.43718540
_cell_angle_alpha   90.09616410
_cell_angle_beta   89.95147879
_cell_angle_gamma   120.30241590
_symmetry_Int_Tables_number   1
_chemical_formula_structural   ErIn4Ni(BIr2)4
_chemical_formula_sum   'Er1 In4 Ni1 B4 Ir8'
_cell_volume   282.33139750
_cell_formula_units_Z   1
loop_
 _symmetry_equiv_pos_site_id
 _symmetry_equiv_pos_as_xyz
  1  'x, y, z'
loop_
 _atom_site_type_symbol
 _atom_site_label
 _atom_site_symmetry_multiplicity
 _atom_site_fract_x
 _atom_site_fract_y
 _atom_site_fract_z
 _atom_site_occupancy
  Er  Er0  1  0.000000  0.001637  0.912278  1
  In  In1  1  0.666514  0.333496  0.505668  1
  In  In2  1  0.000000  0.001393  0.622835  1
  In  In3  1  0.000000  0.999407  0.327886  1
  In  In4  1  0.333486  0.666983  0.505668  1
  Ni  Ni5  1  0.000000  0.502301  0.278535  1
  B  B6  1  0.672810  0.336841  0.155884  1
  B  B7  1  0.334155  0.665590  0.863736  1
  B  B8  1  0.665845  0.331435  0.863736  1
  B  B9  1  0.327190  0.664031  0.155884  1
  Ir  Ir10  1  0.468214  0.997973  0.734056  1
  Ir  Ir11  1  0.503280  0.000842  0.282507  1
  Ir  Ir12  1  0.000000  0.498262  0.014320  1
  Ir  Ir13  1  0.531786  0.529759  0.734056  1
  Ir  Ir14  1  0.000000  0.466922  0.733216  1
  Ir  Ir15  1  0.504372  0.504968  0.013614  1
  Ir  Ir16  1  0.495628  0.000597  0.013614  1
  Ir  Ir17  1  0.496720  0.497561  0.282507  1
