# generated using pymatgen
data_Tm2Fe7Si4Os
_symmetry_space_group_name_H-M   'P 1'
_cell_length_a   6.80850876
_cell_length_b   7.30717504
_cell_length_c   3.83571700
_cell_angle_alpha   90.00000000
_cell_angle_beta   90.00000000
_cell_angle_gamma   89.78919895
_symmetry_Int_Tables_number   1
_chemical_formula_structural   Tm2Fe7Si4Os
_chemical_formula_sum   'Tm2 Fe7 Si4 Os1'
_cell_volume   190.82933176
_cell_formula_units_Z   1
loop_
 _symmetry_equiv_pos_site_id
 _symmetry_equiv_pos_as_xyz
  1  'x, y, z'
loop_
 _atom_site_type_symbol
 _atom_site_label
 _atom_site_symmetry_multiplicity
 _atom_site_fract_x
 _atom_site_fract_y
 _atom_site_fract_z
 _atom_site_occupancy
  Tm  Tm0  1  0.497774  0.498422  0.500000  1
  Tm  Tm1  1  0.999658  0.999685  0.000000  1
  Fe  Fe2  1  0.343679  0.101243  0.500000  1
  Fe  Fe3  1  0.146253  0.601078  0.000000  1
  Fe  Fe4  1  0.853598  0.396987  0.000000  1
  Fe  Fe5  1  0.929754  0.650162  0.500000  1
  Fe  Fe6  1  0.078882  0.347927  0.500000  1
  Fe  Fe7  1  0.575329  0.155317  0.000000  1
  Fe  Fe8  1  0.419104  0.845045  0.000000  1
  Si  Si9  1  0.772428  0.210545  0.500000  1
  Si  Si10  1  0.233464  0.796757  0.500000  1
  Si  Si11  1  0.265987  0.295757  0.000000  1
  Si  Si12  1  0.735303  0.697436  0.000000  1
  Os  Os13  1  0.648788  0.903639  0.500000  1
