# generated using pymatgen
data_Hf6Nb(Fe3Co8)2
_symmetry_space_group_name_H-M   'P 1'
_cell_length_a   8.16226352
_cell_length_b   8.16226278
_cell_length_c   8.16226400
_cell_angle_alpha   60.00000316
_cell_angle_beta   60.00000616
_cell_angle_gamma   60.00000579
_symmetry_Int_Tables_number   1
_chemical_formula_structural   Hf6Nb(Fe3Co8)2
_chemical_formula_sum   'Hf6 Nb1 Fe6 Co16'
_cell_volume   384.51817621
_cell_formula_units_Z   1
loop_
 _symmetry_equiv_pos_site_id
 _symmetry_equiv_pos_as_xyz
  1  'x, y, z'
loop_
 _atom_site_type_symbol
 _atom_site_label
 _atom_site_symmetry_multiplicity
 _atom_site_fract_x
 _atom_site_fract_y
 _atom_site_fract_z
 _atom_site_occupancy
  Hf  Hf0  1  0.209571  0.790429  0.790429  1
  Hf  Hf1  1  0.790429  0.790429  0.209571  1
  Hf  Hf2  1  0.790429  0.209571  0.209571  1
  Hf  Hf3  1  0.209571  0.209571  0.790429  1
  Hf  Hf4  1  0.790429  0.209571  0.790429  1
  Hf  Hf5  1  0.209571  0.790429  0.209571  1
  Nb  Nb6  1  0.500000  0.500000  0.500000  1
  Fe  Fe7  1  0.500000  0.000000  0.500000  1
  Fe  Fe8  1  0.500000  0.500000  0.000000  1
  Fe  Fe9  1  0.000000  0.000000  0.500000  1
  Fe  Fe10  1  0.000000  0.500000  0.000000  1
  Fe  Fe11  1  0.000000  0.500000  0.500000  1
  Fe  Fe12  1  0.500000  0.000000  0.000000  1
  Co  Co13  1  0.623445  0.623445  0.129666  1
  Co  Co14  1  0.173550  0.479349  0.173550  1
  Co  Co15  1  0.870334  0.376555  0.376555  1
  Co  Co16  1  0.520651  0.826450  0.826450  1
  Co  Co17  1  0.479349  0.173550  0.173550  1
  Co  Co18  1  0.826450  0.826450  0.520651  1
  Co  Co19  1  0.173550  0.173550  0.479349  1
  Co  Co20  1  0.129666  0.623445  0.623445  1
  Co  Co21  1  0.173550  0.173550  0.173550  1
  Co  Co22  1  0.376555  0.376555  0.870334  1
  Co  Co23  1  0.623445  0.623445  0.623445  1
  Co  Co24  1  0.376555  0.870334  0.376555  1
  Co  Co25  1  0.376555  0.376555  0.376555  1
  Co  Co26  1  0.826450  0.826450  0.826450  1
  Co  Co27  1  0.623445  0.129666  0.623445  1
  Co  Co28  1  0.826450  0.520651  0.826450  1
