# generated using pymatgen
data_Tb6Zn14Ru9
_symmetry_space_group_name_H-M   'P 1'
_cell_length_a   8.99552500
_cell_length_b   8.91451657
_cell_length_c   8.88215105
_cell_angle_alpha   119.59317673
_cell_angle_beta   90.00000000
_cell_angle_gamma   120.30106556
_symmetry_Int_Tables_number   1
_chemical_formula_structural   Tb6Zn14Ru9
_chemical_formula_sum   'Tb6 Zn14 Ru9'
_cell_volume   504.43318477
_cell_formula_units_Z   1
loop_
 _symmetry_equiv_pos_site_id
 _symmetry_equiv_pos_as_xyz
  1  'x, y, z'
loop_
 _atom_site_type_symbol
 _atom_site_label
 _atom_site_symmetry_multiplicity
 _atom_site_fract_x
 _atom_site_fract_y
 _atom_site_fract_z
 _atom_site_occupancy
  Tb  Tb0  1  0.215674  0.005813  0.212929  1
  Tb  Tb1  1  0.213151  0.426302  0.217642  1
  Tb  Tb2  1  0.790138  0.005813  0.212929  1
  Tb  Tb3  1  0.212798  0.001686  0.792634  1
  Tb  Tb4  1  0.786808  0.573619  0.782749  1
  Tb  Tb5  1  0.788886  0.001686  0.792635  1
  Zn  Zn6  1  0.829237  0.658474  0.168738  1
  Zn  Zn7  1  0.620248  0.240497  0.381186  1
  Zn  Zn8  1  0.136446  0.762839  0.383551  1
  Zn  Zn9  1  0.626393  0.762839  0.383551  1
  Zn  Zn10  1  0.828213  0.656424  0.481340  1
  Zn  Zn11  1  0.493716  0.987434  0.486491  1
  Zn  Zn12  1  0.171860  0.343720  0.513687  1
  Zn  Zn13  1  0.377133  0.248594  0.626848  1
  Zn  Zn14  1  0.376429  0.752858  0.627959  1
  Zn  Zn15  1  0.871461  0.248594  0.626849  1
  Zn  Zn16  1  0.168769  0.337538  0.826749  1
  Zn  Zn17  1  0.166900  0.658252  0.827900  1
  Zn  Zn18  1  0.491350  0.658252  0.827900  1
  Zn  Zn19  1  0.618603  0.237206  0.854684  1
  Ru  Ru20  1  0.501783  0.003569  0.008852  1
  Ru  Ru21  1  0.006791  0.496657  0.011666  1
  Ru  Ru22  1  0.489866  0.496657  0.011666  1
  Ru  Ru23  1  0.372131  0.744260  0.114233  1
  Ru  Ru24  1  0.529929  0.353017  0.171854  1
  Ru  Ru25  1  0.823088  0.353017  0.171854  1
  Ru  Ru26  1  0.000977  0.001954  0.499270  1
  Ru  Ru27  1  0.994522  0.491211  0.490822  1
  Ru  Ru28  1  0.496687  0.491211  0.490822  1
