# generated using pymatgen
data_NdLu3(ZnGa)4
_symmetry_space_group_name_H-M   'P 1'
_cell_length_a   4.41327300
_cell_length_b   7.59391200
_cell_length_c   7.10625800
_cell_angle_alpha   90.00052060
_cell_angle_beta   90.00000000
_cell_angle_gamma   90.00000000
_symmetry_Int_Tables_number   1
_chemical_formula_structural   NdLu3(ZnGa)4
_chemical_formula_sum   'Nd1 Lu3 Zn4 Ga4'
_cell_volume   238.15917889
_cell_formula_units_Z   1
loop_
 _symmetry_equiv_pos_site_id
 _symmetry_equiv_pos_as_xyz
  1  'x, y, z'
loop_
 _atom_site_type_symbol
 _atom_site_label
 _atom_site_symmetry_multiplicity
 _atom_site_fract_x
 _atom_site_fract_y
 _atom_site_fract_z
 _atom_site_occupancy
  Nd  Nd0  1  0.750000  0.758311  0.000983  1
  Lu  Lu1  1  0.250000  0.255825  0.501557  1
  Lu  Lu2  1  0.250000  0.243198  0.001307  1
  Lu  Lu3  1  0.750000  0.742840  0.501482  1
  Zn  Zn4  1  0.250000  0.920228  0.241277  1
  Zn  Zn5  1  0.250000  0.581251  0.713069  1
  Zn  Zn6  1  0.750000  0.084792  0.700234  1
  Zn  Zn7  1  0.750000  0.413462  0.210261  1
  Ga  Ga8  1  0.250000  0.920687  0.765043  1
  Ga  Ga9  1  0.250000  0.580713  0.285173  1
  Ga  Ga10  1  0.750000  0.086356  0.293270  1
  Ga  Ga11  1  0.750000  0.412337  0.786344  1
