# generated using pymatgen
data_Bi4Os2O11
_symmetry_space_group_name_H-M   'P 1'
_cell_length_a   6.62555091
_cell_length_b   7.59318145
_cell_length_c   9.93868093
_cell_angle_alpha   101.16868973
_cell_angle_beta   92.00638425
_cell_angle_gamma   90.00496133
_symmetry_Int_Tables_number   1
_chemical_formula_structural   Bi4Os2O11
_chemical_formula_sum   'Bi8 Os4 O22'
_cell_volume   490.22291870
_cell_formula_units_Z   2
loop_
 _symmetry_equiv_pos_site_id
 _symmetry_equiv_pos_as_xyz
  1  'x, y, z'
loop_
 _atom_site_type_symbol
 _atom_site_label
 _atom_site_symmetry_multiplicity
 _atom_site_fract_x
 _atom_site_fract_y
 _atom_site_fract_z
 _atom_site_occupancy
  Bi  Bi0  1  0.751850  0.369598  0.477623  1
  Bi  Bi1  1  0.248150  0.630402  0.522377  1
  Bi  Bi2  1  0.751878  0.873346  0.478336  1
  Bi  Bi3  1  0.248122  0.126654  0.521664  1
  Bi  Bi4  1  0.479631  0.955660  0.822046  1
  Bi  Bi5  1  0.520369  0.044340  0.177954  1
  Bi  Bi6  1  0.405488  0.456768  0.828633  1
  Bi  Bi7  1  0.594512  0.543232  0.171367  1
  Os  Os8  1  0.936451  0.703724  0.812121  1
  Os  Os9  1  0.063549  0.296276  0.187879  1
  Os  Os10  1  0.935271  0.205294  0.814069  1
  Os  Os11  1  0.064729  0.794706  0.185931  1
  O  O12  1  0.231264  0.724220  0.767772  1
  O  O13  1  0.768736  0.275780  0.232228  1
  O  O14  1  0.640175  0.676803  0.828948  1
  O  O15  1  0.359825  0.323197  0.171052  1
  O  O16  1  0.641042  0.242253  0.841433  1
  O  O17  1  0.358958  0.757747  0.158567  1
  O  O18  1  0.893283  0.170115  0.612926  1
  O  O19  1  0.106717  0.829885  0.387074  1
  O  O20  1  0.229522  0.160620  0.766062  1
  O  O21  1  0.770478  0.839380  0.233938  1
  O  O22  1  0.907536  0.638957  0.608223  1
  O  O23  1  0.092464  0.361043  0.391777  1
  O  O24  1  0.001841  0.544246  0.180697  1
  O  O25  1  0.998159  0.455754  0.819303  1
  O  O26  1  0.996681  0.768441  0.999984  1
  O  O27  1  0.003319  0.231559  0.000016  1
  O  O28  1  0.577846  0.605812  0.392993  1
  O  O29  1  0.422154  0.394188  0.607007  1
  O  O30  1  0.147025  0.050298  0.205703  1
  O  O31  1  0.852975  0.949702  0.794297  1
  O  O32  1  0.543020  0.094406  0.398837  1
  O  O33  1  0.456980  0.905594  0.601163  1
