# generated using pymatgen
data_Dy4Tm6Sn7Au
_symmetry_space_group_name_H-M   'P 1'
_cell_length_a   7.78451600
_cell_length_b   8.24860800
_cell_length_c   15.26568400
_cell_angle_alpha   90.00000000
_cell_angle_beta   90.00000000
_cell_angle_gamma   90.00000000
_symmetry_Int_Tables_number   1
_chemical_formula_structural   Dy4Tm6Sn7Au
_chemical_formula_sum   'Dy8 Tm12 Sn14 Au2'
_cell_volume   980.23126147
_cell_formula_units_Z   2
loop_
 _symmetry_equiv_pos_site_id
 _symmetry_equiv_pos_as_xyz
  1  'x, y, z'
loop_
 _atom_site_type_symbol
 _atom_site_label
 _atom_site_symmetry_multiplicity
 _atom_site_fract_x
 _atom_site_fract_y
 _atom_site_fract_z
 _atom_site_occupancy
  Dy  Dy0  1  0.511269  0.311161  0.905988  1
  Dy  Dy1  1  0.011269  0.188839  0.594012  1
  Dy  Dy2  1  0.487311  0.680891  0.405337  1
  Dy  Dy3  1  0.987311  0.819109  0.094663  1
  Dy  Dy4  1  0.487311  0.680891  0.094663  1
  Dy  Dy5  1  0.987311  0.819109  0.405337  1
  Dy  Dy6  1  0.511269  0.311161  0.594012  1
  Dy  Dy7  1  0.011269  0.188839  0.905988  1
  Tm  Tm8  1  0.349021  0.831459  0.869096  1
  Tm  Tm9  1  0.849021  0.668541  0.630904  1
  Tm  Tm10  1  0.648174  0.165573  0.375418  1
  Tm  Tm11  1  0.148174  0.334427  0.124582  1
  Tm  Tm12  1  0.648174  0.165573  0.124582  1
  Tm  Tm13  1  0.148174  0.334427  0.375418  1
  Tm  Tm14  1  0.349021  0.831459  0.630904  1
  Tm  Tm15  1  0.849021  0.668541  0.869096  1
  Tm  Tm16  1  0.198666  0.499247  0.750000  1
  Tm  Tm17  1  0.698666  0.000753  0.750000  1
  Tm  Tm18  1  0.814627  0.501316  0.250000  1
  Tm  Tm19  1  0.314627  0.998684  0.250000  1
  Sn  Sn20  1  0.307591  0.037499  0.038039  1
  Sn  Sn21  1  0.807591  0.462501  0.461961  1
  Sn  Sn22  1  0.696905  0.963233  0.542331  1
  Sn  Sn23  1  0.196905  0.536767  0.957669  1
  Sn  Sn24  1  0.696905  0.963233  0.957669  1
  Sn  Sn25  1  0.196905  0.536767  0.542331  1
  Sn  Sn26  1  0.307591  0.037499  0.461961  1
  Sn  Sn27  1  0.807591  0.462501  0.038039  1
  Sn  Sn28  1  0.450647  0.381311  0.250000  1
  Sn  Sn29  1  0.950647  0.118689  0.250000  1
  Sn  Sn30  1  0.306870  0.138738  0.750000  1
  Sn  Sn31  1  0.806870  0.361262  0.750000  1
  Sn  Sn32  1  0.678000  0.849855  0.250000  1
  Sn  Sn33  1  0.178000  0.650145  0.250000  1
  Au  Au34  1  0.550646  0.622699  0.750000  1
  Au  Au35  1  0.050646  0.877301  0.750000  1
