# generated using pymatgen
data_Hf3Ti2Ir2Pd
_symmetry_space_group_name_H-M   'P 1'
_cell_length_a   8.03484100
_cell_length_b   7.95119836
_cell_length_c   5.19485500
_cell_angle_alpha   90.00000000
_cell_angle_beta   90.00000000
_cell_angle_gamma   120.34860086
_symmetry_Int_Tables_number   1
_chemical_formula_structural   Hf3Ti2Ir2Pd
_chemical_formula_sum   'Hf6 Ti4 Ir4 Pd2'
_cell_volume   286.40304634
_cell_formula_units_Z   2
loop_
 _symmetry_equiv_pos_site_id
 _symmetry_equiv_pos_as_xyz
  1  'x, y, z'
loop_
 _atom_site_type_symbol
 _atom_site_label
 _atom_site_symmetry_multiplicity
 _atom_site_fract_x
 _atom_site_fract_y
 _atom_site_fract_z
 _atom_site_occupancy
  Hf  Hf0  1  0.241578  0.000000  0.250000  1
  Hf  Hf1  1  0.758422  0.000000  0.750000  1
  Hf  Hf2  1  0.005119  0.250390  0.250000  1
  Hf  Hf3  1  0.994881  0.749610  0.750000  1
  Hf  Hf4  1  0.754729  0.749610  0.250000  1
  Hf  Hf5  1  0.245271  0.250390  0.750000  1
  Ti  Ti6  1  0.328791  0.657582  0.000000  1
  Ti  Ti7  1  0.671209  0.342418  0.000000  1
  Ti  Ti8  1  0.671209  0.342418  0.500000  1
  Ti  Ti9  1  0.328791  0.657582  0.500000  1
  Ir  Ir10  1  0.005836  0.601315  0.250000  1
  Ir  Ir11  1  0.994164  0.398685  0.750000  1
  Ir  Ir12  1  0.404521  0.398685  0.250000  1
  Ir  Ir13  1  0.595479  0.601315  0.750000  1
  Pd  Pd14  1  0.595266  0.000000  0.250000  1
  Pd  Pd15  1  0.404734  0.000000  0.750000  1
