# generated using pymatgen
data_Rb6MoP4
_symmetry_space_group_name_H-M   'P 1'
_cell_length_a   10.46280400
_cell_length_b   10.46280395
_cell_length_c   8.37663200
_cell_angle_alpha   90.00000000
_cell_angle_beta   90.00000000
_cell_angle_gamma   120.00000016
_symmetry_Int_Tables_number   1
_chemical_formula_structural   Rb6MoP4
_chemical_formula_sum   'Rb12 Mo2 P8'
_cell_volume   794.13848848
_cell_formula_units_Z   2
loop_
 _symmetry_equiv_pos_site_id
 _symmetry_equiv_pos_as_xyz
  1  'x, y, z'
loop_
 _atom_site_type_symbol
 _atom_site_label
 _atom_site_symmetry_multiplicity
 _atom_site_fract_x
 _atom_site_fract_y
 _atom_site_fract_z
 _atom_site_occupancy
  Rb  Rb0  1  0.145899  0.291801  0.287996  1
  Rb  Rb1  1  0.854101  0.145899  0.787996  1
  Rb  Rb2  1  0.533152  0.466848  0.104115  1
  Rb  Rb3  1  0.066303  0.533152  0.604115  1
  Rb  Rb4  1  0.466848  0.933697  0.604115  1
  Rb  Rb5  1  0.533152  0.066303  0.104115  1
  Rb  Rb6  1  0.933697  0.466848  0.104115  1
  Rb  Rb7  1  0.466848  0.533152  0.604115  1
  Rb  Rb8  1  0.145899  0.854101  0.287996  1
  Rb  Rb9  1  0.708199  0.854101  0.287996  1
  Rb  Rb10  1  0.854101  0.708199  0.787996  1
  Rb  Rb11  1  0.291801  0.145899  0.787996  1
  Mo  Mo12  1  0.666667  0.333333  0.497035  1
  Mo  Mo13  1  0.333333  0.666667  0.997035  1
  P  P14  1  0.789561  0.579122  0.409106  1
  P  P15  1  0.420878  0.210439  0.409106  1
  P  P16  1  0.333333  0.666667  0.274209  1
  P  P17  1  0.666667  0.333333  0.774209  1
  P  P18  1  0.789561  0.210439  0.409106  1
  P  P19  1  0.210439  0.789561  0.909106  1
  P  P20  1  0.210439  0.420878  0.909106  1
  P  P21  1  0.579122  0.789561  0.909106  1
