# generated using pymatgen
data_K8Ba4HfZrBi8
_symmetry_space_group_name_H-M   'P 1'
_cell_length_a   11.37485031
_cell_length_b   11.37485056
_cell_length_c   8.73130741
_cell_angle_alpha   89.11219552
_cell_angle_beta   89.11219529
_cell_angle_gamma   60.27905887
_symmetry_Int_Tables_number   1
_chemical_formula_structural   K8Ba4HfZrBi8
_chemical_formula_sum   'K8 Ba4 Hf1 Zr1 Bi8'
_cell_volume   980.94793217
_cell_formula_units_Z   1
loop_
 _symmetry_equiv_pos_site_id
 _symmetry_equiv_pos_as_xyz
  1  'x, y, z'
loop_
 _atom_site_type_symbol
 _atom_site_label
 _atom_site_symmetry_multiplicity
 _atom_site_fract_x
 _atom_site_fract_y
 _atom_site_fract_z
 _atom_site_occupancy
  K  K0  1  0.940144  0.530747  0.370939  1
  K  K1  1  0.530747  0.940144  0.370939  1
  K  K2  1  0.720619  0.133958  0.196204  1
  K  K3  1  0.133958  0.720619  0.196204  1
  K  K4  1  0.141853  0.141853  0.212111  1
  K  K5  1  0.277920  0.863510  0.692965  1
  K  K6  1  0.863510  0.277920  0.692965  1
  K  K7  1  0.856157  0.856157  0.667420  1
  Ba  Ba8  1  0.530601  0.530601  0.372531  1
  Ba  Ba9  1  0.049627  0.477534  0.874828  1
  Ba  Ba10  1  0.477534  0.049627  0.874828  1
  Ba  Ba11  1  0.476723  0.476723  0.869686  1
  Hf  Hf12  1  0.666159  0.666159  0.986233  1
  Zr  Zr13  1  0.333276  0.333276  0.479716  1
  Bi  Bi14  1  0.386667  0.804112  0.090295  1
  Bi  Bi15  1  0.804112  0.386667  0.090295  1
  Bi  Bi16  1  0.807125  0.807125  0.069050  1
  Bi  Bi17  1  0.608593  0.201757  0.593623  1
  Bi  Bi18  1  0.201757  0.608593  0.593623  1
  Bi  Bi19  1  0.197669  0.197669  0.607670  1
  Bi  Bi20  1  0.336119  0.336119  0.143437  1
  Bi  Bi21  1  0.659743  0.659743  0.657260  1
