# generated using pymatgen
data_TbHo7Re2(RuC4)2
_symmetry_space_group_name_H-M   'P 1'
_cell_length_a   5.08914200
_cell_length_b   6.52245545
_cell_length_c   9.79430471
_cell_angle_alpha   90.09959888
_cell_angle_beta   90.00000000
_cell_angle_gamma   90.00000000
_symmetry_Int_Tables_number   1
_chemical_formula_structural   TbHo7Re2(RuC4)2
_chemical_formula_sum   'Tb1 Ho7 Re2 Ru2 C8'
_cell_volume   325.10874071
_cell_formula_units_Z   1
loop_
 _symmetry_equiv_pos_site_id
 _symmetry_equiv_pos_as_xyz
  1  'x, y, z'
loop_
 _atom_site_type_symbol
 _atom_site_label
 _atom_site_symmetry_multiplicity
 _atom_site_fract_x
 _atom_site_fract_y
 _atom_site_fract_z
 _atom_site_occupancy
  Tb  Tb0  1  0.250000  0.467005  0.785155  1
  Ho  Ho1  1  0.750000  0.032909  0.284262  1
  Ho  Ho2  1  0.250000  0.969439  0.715267  1
  Ho  Ho3  1  0.750000  0.530792  0.215235  1
  Ho  Ho4  1  0.250000  0.825030  0.055241  1
  Ho  Ho5  1  0.750000  0.675024  0.554845  1
  Ho  Ho6  1  0.250000  0.320497  0.442451  1
  Ho  Ho7  1  0.750000  0.179536  0.942745  1
  Re  Re8  1  0.250000  0.779876  0.365650  1
  Re  Re9  1  0.750000  0.721277  0.865781  1
  Ru  Ru10  1  0.250000  0.278488  0.133782  1
  Ru  Ru11  1  0.750000  0.220717  0.633298  1
  C  C12  1  0.250000  0.172863  0.948932  1
  C  C13  1  0.750000  0.823633  0.052318  1
  C  C14  1  0.250000  0.677539  0.551689  1
  C  C15  1  0.750000  0.324752  0.448093  1
  C  C16  1  0.250000  0.044642  0.260485  1
  C  C17  1  0.750000  0.455641  0.760109  1
  C  C18  1  0.250000  0.546283  0.242322  1
  C  C19  1  0.750000  0.954060  0.742340  1
