# generated using pymatgen
data_RuSO5
_symmetry_space_group_name_H-M   'P 1'
_cell_length_a   5.24856203
_cell_length_b   5.24856225
_cell_length_c   7.46567272
_cell_angle_alpha   109.27536955
_cell_angle_beta   109.27536618
_cell_angle_gamma   98.85759348
_symmetry_Int_Tables_number   1
_chemical_formula_structural   RuSO5
_chemical_formula_sum   'Ru2 S2 O10'
_cell_volume   175.08753315
_cell_formula_units_Z   2
loop_
 _symmetry_equiv_pos_site_id
 _symmetry_equiv_pos_as_xyz
  1  'x, y, z'
loop_
 _atom_site_type_symbol
 _atom_site_label
 _atom_site_symmetry_multiplicity
 _atom_site_fract_x
 _atom_site_fract_y
 _atom_site_fract_z
 _atom_site_occupancy
  Ru  Ru0  1  0.000000  0.500000  0.500000  1
  Ru  Ru1  1  0.500000  0.000000  0.000000  1
  S  S2  1  0.088249  0.911751  0.250000  1
  S  S3  1  0.911751  0.088249  0.750000  1
  O  O4  1  0.689633  0.310367  0.250000  1
  O  O5  1  0.310367  0.689633  0.750000  1
  O  O6  1  0.772505  0.803584  0.139545  1
  O  O7  1  0.196416  0.227495  0.360455  1
  O  O8  1  0.227495  0.196416  0.860455  1
  O  O9  1  0.803584  0.772505  0.639545  1
  O  O10  1  0.177800  0.779638  0.399430  1
  O  O11  1  0.220362  0.822200  0.100570  1
  O  O12  1  0.822200  0.220362  0.600570  1
  O  O13  1  0.779638  0.177800  0.899430  1
