# generated using pymatgen
data_Lu4Al19Os5
_symmetry_space_group_name_H-M   'P 1'
_cell_length_a   7.55336106
_cell_length_b   7.55336021
_cell_length_c   9.48115817
_cell_angle_alpha   89.87384068
_cell_angle_beta   89.87383783
_cell_angle_gamma   118.96302594
_symmetry_Int_Tables_number   1
_chemical_formula_structural   Lu4Al19Os5
_chemical_formula_sum   'Lu4 Al19 Os5'
_cell_volume   473.27355814
_cell_formula_units_Z   1
loop_
 _symmetry_equiv_pos_site_id
 _symmetry_equiv_pos_as_xyz
  1  'x, y, z'
loop_
 _atom_site_type_symbol
 _atom_site_label
 _atom_site_symmetry_multiplicity
 _atom_site_fract_x
 _atom_site_fract_y
 _atom_site_fract_z
 _atom_site_occupancy
  Lu  Lu0  1  0.998161  0.681783  0.249161  1
  Lu  Lu1  1  0.001839  0.318217  0.750839  1
  Lu  Lu2  1  0.681783  0.998161  0.249161  1
  Lu  Lu3  1  0.318217  0.001839  0.750839  1
  Al  Al4  1  0.141646  0.141646  0.241071  1
  Al  Al5  1  0.858354  0.858354  0.758929  1
  Al  Al6  1  0.001535  0.339129  0.071352  1
  Al  Al7  1  0.998465  0.660871  0.928648  1
  Al  Al8  1  0.995375  0.649160  0.580566  1
  Al  Al9  1  0.350840  0.004625  0.419434  1
  Al  Al10  1  0.004625  0.350840  0.419434  1
  Al  Al11  1  0.649160  0.995375  0.580566  1
  Al  Al12  1  0.660871  0.998465  0.928648  1
  Al  Al13  1  0.339129  0.001535  0.071352  1
  Al  Al14  1  0.345607  0.345607  0.553368  1
  Al  Al15  1  0.654393  0.654393  0.446632  1
  Al  Al16  1  0.666557  0.666557  0.043527  1
  Al  Al17  1  0.333443  0.333443  0.956473  1
  Al  Al18  1  0.339508  0.556459  0.249098  1
  Al  Al19  1  0.660492  0.443541  0.750902  1
  Al  Al20  1  0.556459  0.339508  0.249098  1
  Al  Al21  1  0.443541  0.660492  0.750902  1
  Al  Al22  1  0.000000  0.000000  0.500000  1
  Os  Os23  1  0.672423  0.327577  0.000000  1
  Os  Os24  1  0.327577  0.672423  0.000000  1
  Os  Os25  1  0.326996  0.673004  0.500000  1
  Os  Os26  1  0.673004  0.326996  0.500000  1
  Os  Os27  1  0.000000  0.000000  0.000000  1
