# generated using pymatgen
data_PrTh2Al2GaIr3
_symmetry_space_group_name_H-M   'P 1'
_cell_length_a   7.21399500
_cell_length_b   7.27090264
_cell_length_c   4.13490300
_cell_angle_alpha   90.00000000
_cell_angle_beta   90.00000000
_cell_angle_gamma   119.74142419
_symmetry_Int_Tables_number   1
_chemical_formula_structural   PrTh2Al2GaIr3
_chemical_formula_sum   'Pr1 Th2 Al2 Ga1 Ir3'
_cell_volume   188.31539544
_cell_formula_units_Z   1
loop_
 _symmetry_equiv_pos_site_id
 _symmetry_equiv_pos_as_xyz
  1  'x, y, z'
loop_
 _atom_site_type_symbol
 _atom_site_label
 _atom_site_symmetry_multiplicity
 _atom_site_fract_x
 _atom_site_fract_y
 _atom_site_fract_z
 _atom_site_occupancy
  Pr  Pr0  1  0.419644  0.000000  0.500000  1
  Th  Th1  1  0.999689  0.415533  0.500000  1
  Th  Th2  1  0.584156  0.584467  0.500000  1
  Al  Al3  1  0.004351  0.775779  0.000000  1
  Al  Al4  1  0.228572  0.224221  0.000000  1
  Ga  Ga5  1  0.758465  0.000000  0.000000  1
  Ir  Ir6  1  0.322773  0.636296  0.000000  1
  Ir  Ir7  1  0.686478  0.363704  0.000000  1
  Ir  Ir8  1  0.995873  0.000000  0.500000  1
