# generated using pymatgen
data_Tb5PrMgCo17P12
_symmetry_space_group_name_H-M   'P 1'
_cell_length_a   3.73742500
_cell_length_b   10.62085400
_cell_length_c   12.29701800
_cell_angle_alpha   90.00000000
_cell_angle_beta   90.00000000
_cell_angle_gamma   90.00000000
_symmetry_Int_Tables_number   1
_chemical_formula_structural   Tb5PrMgCo17P12
_chemical_formula_sum   'Tb5 Pr1 Mg1 Co17 P12'
_cell_volume   488.12576728
_cell_formula_units_Z   1
loop_
 _symmetry_equiv_pos_site_id
 _symmetry_equiv_pos_as_xyz
  1  'x, y, z'
loop_
 _atom_site_type_symbol
 _atom_site_label
 _atom_site_symmetry_multiplicity
 _atom_site_fract_x
 _atom_site_fract_y
 _atom_site_fract_z
 _atom_site_occupancy
  Tb  Tb0  1  0.000000  0.500000  0.524903  1
  Tb  Tb1  1  0.500000  0.820841  0.206390  1
  Tb  Tb2  1  0.500000  0.179159  0.206390  1
  Tb  Tb3  1  0.000000  0.682531  0.794810  1
  Tb  Tb4  1  0.000000  0.317469  0.794810  1
  Pr  Pr5  1  0.500000  0.000000  0.477605  1
  Mg  Mg6  1  0.500000  0.500000  0.152978  1
  Co  Co7  1  0.000000  0.000000  0.841129  1
  Co  Co8  1  0.500000  0.500000  0.704885  1
  Co  Co9  1  0.000000  0.000000  0.292977  1
  Co  Co10  1  0.000000  0.500000  0.985887  1
  Co  Co11  1  0.500000  0.000000  0.011536  1
  Co  Co12  1  0.500000  0.329471  0.993137  1
  Co  Co13  1  0.500000  0.670529  0.993137  1
  Co  Co14  1  0.000000  0.163390  0.001632  1
  Co  Co15  1  0.000000  0.836610  0.001632  1
  Co  Co16  1  0.500000  0.298073  0.432359  1
  Co  Co17  1  0.500000  0.701927  0.432359  1
  Co  Co18  1  0.000000  0.205349  0.571353  1
  Co  Co19  1  0.000000  0.794651  0.571353  1
  Co  Co20  1  0.500000  0.879932  0.710605  1
  Co  Co21  1  0.500000  0.120068  0.710605  1
  Co  Co22  1  0.000000  0.621531  0.292437  1
  Co  Co23  1  0.000000  0.378469  0.292437  1
  P  P24  1  0.500000  0.500000  0.883768  1
  P  P25  1  0.000000  0.000000  0.114757  1
  P  P26  1  0.500000  0.500000  0.353165  1
  P  P27  1  0.000000  0.000000  0.660030  1
  P  P28  1  0.500000  0.309389  0.617143  1
  P  P29  1  0.500000  0.690611  0.617143  1
  P  P30  1  0.000000  0.193958  0.384841  1
  P  P31  1  0.000000  0.806042  0.384841  1
  P  P32  1  0.500000  0.849115  0.891218  1
  P  P33  1  0.500000  0.150885  0.891218  1
  P  P34  1  0.000000  0.662285  0.102266  1
  P  P35  1  0.000000  0.337715  0.102266  1
