# generated using pymatgen
data_Ho8Sc11Si16Ru
_symmetry_space_group_name_H-M   'P 1'
_cell_length_a   7.00279169
_cell_length_b   7.36180178
_cell_length_c   13.89850100
_cell_angle_alpha   90.00000000
_cell_angle_beta   90.00000000
_cell_angle_gamma   90.10000747
_symmetry_Int_Tables_number   1
_chemical_formula_structural   Ho8Sc11Si16Ru
_chemical_formula_sum   'Ho8 Sc11 Si16 Ru1'
_cell_volume   716.51061444
_cell_formula_units_Z   1
loop_
 _symmetry_equiv_pos_site_id
 _symmetry_equiv_pos_as_xyz
  1  'x, y, z'
loop_
 _atom_site_type_symbol
 _atom_site_label
 _atom_site_symmetry_multiplicity
 _atom_site_fract_x
 _atom_site_fract_y
 _atom_site_fract_z
 _atom_site_occupancy
  Ho  Ho0  1  0.011940  0.178239  0.093474  1
  Ho  Ho1  1  0.992618  0.818002  0.901120  1
  Ho  Ho2  1  0.488693  0.673177  0.902361  1
  Ho  Ho3  1  0.992618  0.818002  0.598880  1
  Ho  Ho4  1  0.511102  0.323397  0.094850  1
  Ho  Ho5  1  0.011940  0.178239  0.406526  1
  Ho  Ho6  1  0.511102  0.323397  0.405150  1
  Ho  Ho7  1  0.488693  0.673177  0.597639  1
  Sc  Sc8  1  0.841058  0.495886  0.250000  1
  Sc  Sc9  1  0.341681  0.003586  0.250000  1
  Sc  Sc10  1  0.657566  0.995935  0.750000  1
  Sc  Sc11  1  0.326083  0.176979  0.627108  1
  Sc  Sc12  1  0.672008  0.824712  0.374402  1
  Sc  Sc13  1  0.172671  0.674064  0.376605  1
  Sc  Sc14  1  0.672008  0.824712  0.125598  1
  Sc  Sc15  1  0.826231  0.330875  0.628237  1
  Sc  Sc16  1  0.326083  0.176979  0.872892  1
  Sc  Sc17  1  0.826231  0.330875  0.871763  1
  Sc  Sc18  1  0.172671  0.674064  0.123395  1
  Si  Si19  1  0.029021  0.116496  0.750000  1
  Si  Si20  1  0.973171  0.885821  0.250000  1
  Si  Si21  1  0.469163  0.615322  0.250000  1
  Si  Si22  1  0.515904  0.395346  0.750000  1
  Si  Si23  1  0.284808  0.863263  0.750000  1
  Si  Si24  1  0.716446  0.129801  0.250000  1
  Si  Si25  1  0.214725  0.370657  0.250000  1
  Si  Si26  1  0.794649  0.629574  0.750000  1
  Si  Si27  1  0.157159  0.465438  0.546948  1
  Si  Si28  1  0.843049  0.535805  0.463309  1
  Si  Si29  1  0.344922  0.964786  0.463129  1
  Si  Si30  1  0.843049  0.535805  0.036691  1
  Si  Si31  1  0.658966  0.034478  0.539785  1
  Si  Si32  1  0.157159  0.465438  0.953052  1
  Si  Si33  1  0.658966  0.034478  0.960215  1
  Si  Si34  1  0.344922  0.964786  0.036871  1
  Ru  Ru35  1  0.150925  0.498411  0.750000  1
