# generated using pymatgen
data_Th4Ga18RuRh5
_symmetry_space_group_name_H-M   'P 1'
_cell_length_a   7.70138245
_cell_length_b   7.70138104
_cell_length_c   9.56282989
_cell_angle_alpha   90.06340687
_cell_angle_beta   90.06340153
_cell_angle_gamma   119.53815539
_symmetry_Int_Tables_number   1
_chemical_formula_structural   Th4Ga18RuRh5
_chemical_formula_sum   'Th4 Ga18 Ru1 Rh5'
_cell_volume   493.46426017
_cell_formula_units_Z   1
loop_
 _symmetry_equiv_pos_site_id
 _symmetry_equiv_pos_as_xyz
  1  'x, y, z'
loop_
 _atom_site_type_symbol
 _atom_site_label
 _atom_site_symmetry_multiplicity
 _atom_site_fract_x
 _atom_site_fract_y
 _atom_site_fract_z
 _atom_site_occupancy
  Th  Th0  1  0.998205  0.672577  0.249990  1
  Th  Th1  1  0.001795  0.327423  0.750010  1
  Th  Th2  1  0.672577  0.998205  0.249990  1
  Th  Th3  1  0.327423  0.001795  0.750010  1
  Ga  Ga4  1  0.133800  0.133800  0.251035  1
  Ga  Ga5  1  0.866200  0.866200  0.748965  1
  Ga  Ga6  1  0.005442  0.336051  0.078622  1
  Ga  Ga7  1  0.994558  0.663949  0.921378  1
  Ga  Ga8  1  0.994412  0.664639  0.577839  1
  Ga  Ga9  1  0.335361  0.005588  0.422161  1
  Ga  Ga10  1  0.005588  0.335361  0.422161  1
  Ga  Ga11  1  0.664639  0.994412  0.577839  1
  Ga  Ga12  1  0.663949  0.994558  0.921377  1
  Ga  Ga13  1  0.336051  0.005442  0.078623  1
  Ga  Ga14  1  0.334821  0.334821  0.558492  1
  Ga  Ga15  1  0.665179  0.665179  0.441508  1
  Ga  Ga16  1  0.662661  0.662661  0.060041  1
  Ga  Ga17  1  0.337339  0.337339  0.939959  1
  Ga  Ga18  1  0.341274  0.545939  0.250218  1
  Ga  Ga19  1  0.658726  0.454061  0.749782  1
  Ga  Ga20  1  0.545939  0.341274  0.250218  1
  Ga  Ga21  1  0.454061  0.658726  0.749782  1
  Ru  Ru22  1  0.000000  0.000000  0.500000  1
  Rh  Rh23  1  0.672671  0.327329  0.000000  1
  Rh  Rh24  1  0.327329  0.672671  0.000000  1
  Rh  Rh25  1  0.327345  0.672655  0.500000  1
  Rh  Rh26  1  0.672655  0.327345  0.500000  1
  Rh  Rh27  1  0.000000  0.000000  0.000000  1
