# generated using pymatgen
data_Eu5Si2HIr
_symmetry_space_group_name_H-M   'P 1'
_cell_length_a   9.25787165
_cell_length_b   9.25796025
_cell_length_c   9.25770276
_cell_angle_alpha   131.06761215
_cell_angle_beta   131.06349506
_cell_angle_gamma   71.71329198
_symmetry_Int_Tables_number   1
_chemical_formula_structural   Eu5Si2HIr
_chemical_formula_sum   'Eu10 Si4 H2 Ir2'
_cell_volume   441.26297741
_cell_formula_units_Z   2
loop_
 _symmetry_equiv_pos_site_id
 _symmetry_equiv_pos_as_xyz
  1  'x, y, z'
loop_
 _atom_site_type_symbol
 _atom_site_label
 _atom_site_symmetry_multiplicity
 _atom_site_fract_x
 _atom_site_fract_y
 _atom_site_fract_z
 _atom_site_occupancy
  Eu  Eu0  1  0.499998  0.499998  0.999995  1
  Eu  Eu1  1  0.000002  0.000001  0.000002  1
  Eu  Eu2  1  0.522348  0.022391  0.847741  1
  Eu  Eu3  1  0.174633  0.674594  0.152264  1
  Eu  Eu4  1  0.022375  0.174640  0.500034  1
  Eu  Eu5  1  0.674600  0.522368  0.499946  1
  Eu  Eu6  1  0.477680  0.977619  0.152315  1
  Eu  Eu7  1  0.825331  0.325392  0.847707  1
  Eu  Eu8  1  0.977593  0.825351  0.499955  1
  Eu  Eu9  1  0.325431  0.477637  0.500047  1
  Si  Si10  1  0.889366  0.389349  0.278712  1
  Si  Si11  1  0.110634  0.610649  0.721288  1
  Si  Si12  1  0.389405  0.110591  0.499998  1
  Si  Si13  1  0.610594  0.889407  0.499998  1
  H  H14  1  0.250001  0.750000  0.500002  1
  H  H15  1  0.750007  0.250005  0.499998  1
  Ir  Ir16  1  0.250007  0.250014  0.000017  1
  Ir  Ir17  1  0.749997  0.749995  0.999980  1
