# generated using pymatgen
data_DyTm15MgIn3Rh4
_symmetry_space_group_name_H-M   'P 1'
_cell_length_a   9.54716333
_cell_length_b   9.54716415
_cell_length_c   9.54251024
_cell_angle_alpha   60.05194475
_cell_angle_beta   60.05194322
_cell_angle_gamma   60.03183809
_symmetry_Int_Tables_number   1
_chemical_formula_structural   DyTm15MgIn3Rh4
_chemical_formula_sum   'Dy1 Tm15 Mg1 In3 Rh4'
_cell_volume   615.66074797
_cell_formula_units_Z   1
loop_
 _symmetry_equiv_pos_site_id
 _symmetry_equiv_pos_as_xyz
  1  'x, y, z'
loop_
 _atom_site_type_symbol
 _atom_site_label
 _atom_site_symmetry_multiplicity
 _atom_site_fract_x
 _atom_site_fract_y
 _atom_site_fract_z
 _atom_site_occupancy
  Dy  Dy0  1  0.061657  0.061657  0.437902  1
  Tm  Tm1  1  0.436533  0.064266  0.435697  1
  Tm  Tm2  1  0.061531  0.438829  0.060548  1
  Tm  Tm3  1  0.047593  0.649446  0.650225  1
  Tm  Tm4  1  0.435687  0.435687  0.064236  1
  Tm  Tm5  1  0.649446  0.047593  0.650225  1
  Tm  Tm6  1  0.187336  0.812328  0.186930  1
  Tm  Tm7  1  0.187286  0.187286  0.812529  1
  Tm  Tm8  1  0.809997  0.809997  0.190655  1
  Tm  Tm9  1  0.438829  0.061531  0.060548  1
  Tm  Tm10  1  0.812328  0.187336  0.186930  1
  Tm  Tm11  1  0.064266  0.436533  0.435697  1
  Tm  Tm12  1  0.809553  0.190722  0.810590  1
  Tm  Tm13  1  0.190722  0.809553  0.810590  1
  Tm  Tm14  1  0.649732  0.649732  0.047414  1
  Tm  Tm15  1  0.651832  0.651832  0.652094  1
  Mg  Mg16  1  0.422485  0.422485  0.422620  1
  In  In17  1  0.747790  0.418330  0.417466  1
  In  In18  1  0.418330  0.747790  0.417466  1
  In  In19  1  0.417494  0.417494  0.748712  1
  Rh  Rh20  1  0.858093  0.858093  0.426368  1
  Rh  Rh21  1  0.856694  0.856694  0.857675  1
  Rh  Rh22  1  0.426406  0.858380  0.858442  1
  Rh  Rh23  1  0.858380  0.426406  0.858442  1
