# generated using pymatgen
data_MnGaMo6(PtN)2
_symmetry_space_group_name_H-M   'P 1'
_cell_length_a   6.81763463
_cell_length_b   6.85002765
_cell_length_c   6.84673100
_cell_angle_alpha   90.00000000
_cell_angle_beta   90.00000000
_cell_angle_gamma   89.25961703
_symmetry_Int_Tables_number   1
_chemical_formula_structural   MnGaMo6(PtN)2
_chemical_formula_sum   'Mn2 Ga2 Mo12 Pt4 N4'
_cell_volume   319.72239097
_cell_formula_units_Z   2
loop_
 _symmetry_equiv_pos_site_id
 _symmetry_equiv_pos_as_xyz
  1  'x, y, z'
loop_
 _atom_site_type_symbol
 _atom_site_label
 _atom_site_symmetry_multiplicity
 _atom_site_fract_x
 _atom_site_fract_y
 _atom_site_fract_z
 _atom_site_occupancy
  Mn  Mn0  1  0.182733  0.812726  0.317506  1
  Mn  Mn1  1  0.317267  0.187274  0.817506  1
  Ga  Ga2  1  0.816469  0.320924  0.184701  1
  Ga  Ga3  1  0.683531  0.679076  0.684701  1
  Mo  Mo4  1  0.808079  0.957576  0.368679  1
  Mo  Mo5  1  0.691921  0.042424  0.868679  1
  Mo  Mo6  1  0.203124  0.464469  0.125814  1
  Mo  Mo7  1  0.296876  0.535531  0.625814  1
  Mo  Mo8  1  0.976692  0.368216  0.798036  1
  Mo  Mo9  1  0.047756  0.875884  0.695526  1
  Mo  Mo10  1  0.452244  0.124116  0.195526  1
  Mo  Mo11  1  0.523308  0.631784  0.298036  1
  Mo  Mo12  1  0.367234  0.810294  0.965581  1
  Mo  Mo13  1  0.882635  0.710436  0.048082  1
  Mo  Mo14  1  0.132766  0.189706  0.465581  1
  Mo  Mo15  1  0.617365  0.289564  0.548082  1
  Pt  Pt16  1  0.568244  0.435360  0.934786  1
  Pt  Pt17  1  0.436629  0.934426  0.562697  1
  Pt  Pt18  1  0.931756  0.564640  0.434786  1
  Pt  Pt19  1  0.063371  0.065574  0.062697  1
  N  N20  1  0.875200  0.123892  0.624990  1
  N  N21  1  0.624800  0.876108  0.124990  1
  N  N22  1  0.127688  0.628644  0.873602  1
  N  N23  1  0.372312  0.371356  0.373602  1
