# generated using pymatgen
data_Y13Lu3MgHg3Rh4
_symmetry_space_group_name_H-M   'P 1'
_cell_length_a   9.62516741
_cell_length_b   9.61163704
_cell_length_c   9.61163700
_cell_angle_alpha   60.00000356
_cell_angle_beta   60.04649381
_cell_angle_gamma   60.04649032
_symmetry_Int_Tables_number   1
_chemical_formula_structural   Y13Lu3MgHg3Rh4
_chemical_formula_sum   'Y13 Lu3 Mg1 Hg3 Rh4'
_cell_volume   629.20600969
_cell_formula_units_Z   1
loop_
 _symmetry_equiv_pos_site_id
 _symmetry_equiv_pos_as_xyz
  1  'x, y, z'
loop_
 _atom_site_type_symbol
 _atom_site_label
 _atom_site_symmetry_multiplicity
 _atom_site_fract_x
 _atom_site_fract_y
 _atom_site_fract_z
 _atom_site_occupancy
  Y  Y0  1  0.190632  0.603123  0.603123  1
  Y  Y1  1  0.058890  0.440470  0.440470  1
  Y  Y2  1  0.437400  0.061971  0.061971  1
  Y  Y3  1  0.437400  0.061971  0.438657  1
  Y  Y4  1  0.058890  0.440470  0.060171  1
  Y  Y5  1  0.437400  0.438657  0.061971  1
  Y  Y6  1  0.058890  0.060171  0.440470  1
  Y  Y7  1  0.185506  0.813671  0.813671  1
  Y  Y8  1  0.811646  0.187419  0.187419  1
  Y  Y9  1  0.811646  0.187419  0.813515  1
  Y  Y10  1  0.185506  0.813671  0.187152  1
  Y  Y11  1  0.811646  0.813515  0.187419  1
  Y  Y12  1  0.185506  0.187152  0.813671  1
  Lu  Lu13  1  0.599588  0.597091  0.597091  1
  Lu  Lu14  1  0.599588  0.597091  0.206232  1
  Lu  Lu15  1  0.599588  0.206232  0.597091  1
  Mg  Mg16  1  0.535195  0.821601  0.821601  1
  Hg  Hg17  1  0.831237  0.836257  0.836257  1
  Hg  Hg18  1  0.831237  0.836257  0.496247  1
  Hg  Hg19  1  0.831237  0.496247  0.836257  1
  Rh  Rh20  1  0.394849  0.394053  0.394053  1
  Rh  Rh21  1  0.394849  0.394053  0.817046  1
  Rh  Rh22  1  0.394849  0.817046  0.394053  1
  Rh  Rh23  1  0.816829  0.394391  0.394391  1
