# generated using pymatgen
data_YbHoEr(BPt2)3
_symmetry_space_group_name_H-M   'P 1'
_cell_length_a   5.38107202
_cell_length_b   5.40573570
_cell_length_c   7.77975000
_cell_angle_alpha   90.00000000
_cell_angle_beta   90.00000000
_cell_angle_gamma   120.08720837
_symmetry_Int_Tables_number   1
_chemical_formula_structural   YbHoEr(BPt2)3
_chemical_formula_sum   'Yb1 Ho1 Er1 B3 Pt6'
_cell_volume   195.81121822
_cell_formula_units_Z   1
loop_
 _symmetry_equiv_pos_site_id
 _symmetry_equiv_pos_as_xyz
  1  'x, y, z'
loop_
 _atom_site_type_symbol
 _atom_site_label
 _atom_site_symmetry_multiplicity
 _atom_site_fract_x
 _atom_site_fract_y
 _atom_site_fract_z
 _atom_site_occupancy
  Yb  Yb0  1  0.000000  0.500000  0.166972  1
  Ho  Ho1  1  0.500000  0.500000  0.836461  1
  Er  Er2  1  0.500000  0.000000  0.496779  1
  B  B3  1  0.500000  0.500000  0.331414  1
  B  B4  1  0.500000  0.000000  0.002064  1
  B  B5  1  0.000000  0.500000  0.666274  1
  Pt  Pt6  1  0.154352  0.852889  0.831520  1
  Pt  Pt7  1  0.153046  0.300233  0.501045  1
  Pt  Pt8  1  0.703139  0.852528  0.167455  1
  Pt  Pt9  1  0.845648  0.147111  0.831520  1
  Pt  Pt10  1  0.846954  0.699767  0.501045  1
  Pt  Pt11  1  0.296861  0.147472  0.167455  1
