# generated using pymatgen
data_Ac3In2PbAu3
_symmetry_space_group_name_H-M   'P 1'
_cell_length_a   8.12814000
_cell_length_b   8.22202551
_cell_length_c   4.34737800
_cell_angle_alpha   90.00000000
_cell_angle_beta   90.00000000
_cell_angle_gamma   120.38282864
_symmetry_Int_Tables_number   1
_chemical_formula_structural   Ac3In2PbAu3
_chemical_formula_sum   'Ac3 In2 Pb1 Au3'
_cell_volume   250.63384774
_cell_formula_units_Z   1
loop_
 _symmetry_equiv_pos_site_id
 _symmetry_equiv_pos_as_xyz
  1  'x, y, z'
loop_
 _atom_site_type_symbol
 _atom_site_label
 _atom_site_symmetry_multiplicity
 _atom_site_fract_x
 _atom_site_fract_y
 _atom_site_fract_z
 _atom_site_occupancy
  Ac  Ac0  1  0.592930  0.002610  0.500000  1
  Ac  Ac1  1  0.407070  0.409681  0.500000  1
  Ac  Ac2  1  0.000000  0.592510  0.500000  1
  In  In3  1  0.756033  0.753218  0.000000  1
  In  In4  1  0.243967  0.997186  0.000000  1
  Pb  Pb5  1  0.000000  0.245865  0.000000  1
  Au  Au6  1  0.656005  0.335429  0.000000  1
  Au  Au7  1  0.343995  0.679425  0.000000  1
  Au  Au8  1  0.000000  0.984075  0.500000  1
