# generated using pymatgen
data_YMnFe(CoP)3
_symmetry_space_group_name_H-M   'P 1'
_cell_length_a   3.65036200
_cell_length_b   10.37854800
_cell_length_c   11.84899800
_cell_angle_alpha   90.00000000
_cell_angle_beta   90.00000000
_cell_angle_gamma   90.00000000
_symmetry_Int_Tables_number   1
_chemical_formula_structural   YMnFe(CoP)3
_chemical_formula_sum   'Y4 Mn4 Fe4 Co12 P12'
_cell_volume   448.90470700
_cell_formula_units_Z   4
loop_
 _symmetry_equiv_pos_site_id
 _symmetry_equiv_pos_as_xyz
  1  'x, y, z'
loop_
 _atom_site_type_symbol
 _atom_site_label
 _atom_site_symmetry_multiplicity
 _atom_site_fract_x
 _atom_site_fract_y
 _atom_site_fract_z
 _atom_site_occupancy
  Y  Y0  1  0.250000  0.917169  0.205066  1
  Y  Y1  1  0.750000  0.082831  0.794934  1
  Y  Y2  1  0.750000  0.417169  0.294934  1
  Y  Y3  1  0.250000  0.582831  0.705066  1
  Mn  Mn4  1  0.250000  0.791683  0.489211  1
  Mn  Mn5  1  0.750000  0.208317  0.510789  1
  Mn  Mn6  1  0.750000  0.291683  0.010789  1
  Mn  Mn7  1  0.250000  0.708317  0.989211  1
  Fe  Fe8  1  0.250000  0.096012  0.989674  1
  Fe  Fe9  1  0.750000  0.903988  0.010326  1
  Fe  Fe10  1  0.750000  0.596012  0.510326  1
  Fe  Fe11  1  0.250000  0.403988  0.489674  1
  Co  Co12  1  0.250000  0.277927  0.675678  1
  Co  Co13  1  0.750000  0.722073  0.324322  1
  Co  Co14  1  0.750000  0.777927  0.824322  1
  Co  Co15  1  0.250000  0.222073  0.175678  1
  Co  Co16  1  0.250000  0.617231  0.199048  1
  Co  Co17  1  0.750000  0.382769  0.800952  1
  Co  Co18  1  0.750000  0.117231  0.300952  1
  Co  Co19  1  0.250000  0.882769  0.699048  1
  Co  Co20  1  0.250000  0.034847  0.432749  1
  Co  Co21  1  0.750000  0.965153  0.567251  1
  Co  Co22  1  0.750000  0.534847  0.067251  1
  Co  Co23  1  0.250000  0.465153  0.932749  1
  P  P24  1  0.250000  0.079701  0.613040  1
  P  P25  1  0.750000  0.920299  0.386960  1
  P  P26  1  0.750000  0.579701  0.886960  1
  P  P27  1  0.250000  0.420299  0.113040  1
  P  P28  1  0.250000  0.230812  0.367348  1
  P  P29  1  0.750000  0.769188  0.632652  1
  P  P30  1  0.750000  0.730812  0.132652  1
  P  P31  1  0.250000  0.269188  0.867348  1
  P  P32  1  0.250000  0.904239  0.892366  1
  P  P33  1  0.750000  0.095761  0.107634  1
  P  P34  1  0.750000  0.404239  0.607634  1
  P  P35  1  0.250000  0.595761  0.392366  1
