# generated using pymatgen
data_Sc6InTcTe
_symmetry_space_group_name_H-M   'P 1'
_cell_length_a   7.78893700
_cell_length_b   7.78893662
_cell_length_c   3.90192300
_cell_angle_alpha   90.00000000
_cell_angle_beta   90.00000000
_cell_angle_gamma   120.00001438
_symmetry_Int_Tables_number   1
_chemical_formula_structural   Sc6InTcTe
_chemical_formula_sum   'Sc6 In1 Tc1 Te1'
_cell_volume   205.00555271
_cell_formula_units_Z   1
loop_
 _symmetry_equiv_pos_site_id
 _symmetry_equiv_pos_as_xyz
  1  'x, y, z'
loop_
 _atom_site_type_symbol
 _atom_site_label
 _atom_site_symmetry_multiplicity
 _atom_site_fract_x
 _atom_site_fract_y
 _atom_site_fract_z
 _atom_site_occupancy
  Sc  Sc0  1  0.236566  0.997529  0.000000  1
  Sc  Sc1  1  0.760964  0.763434  0.000000  1
  Sc  Sc2  1  0.002471  0.239036  0.000000  1
  Sc  Sc3  1  0.613422  0.000755  0.500000  1
  Sc  Sc4  1  0.387333  0.386578  0.500000  1
  Sc  Sc5  1  0.999245  0.612667  0.500000  1
  In  In6  1  0.333333  0.666667  0.000000  1
  Tc  Tc7  1  0.000000  0.000000  0.500000  1
  Te  Te8  1  0.666667  0.333333  0.000000  1
