# generated using pymatgen
data_CaSm2(FeH6)2
_symmetry_space_group_name_H-M   'P 1'
_cell_length_a   4.80339200
_cell_length_b   4.80339244
_cell_length_c   8.17130300
_cell_angle_alpha   90.00000000
_cell_angle_beta   90.00000000
_cell_angle_gamma   119.99999700
_symmetry_Int_Tables_number   1
_chemical_formula_structural   CaSm2(FeH6)2
_chemical_formula_sum   'Ca1 Sm2 Fe2 H12'
_cell_volume   163.27438628
_cell_formula_units_Z   1
loop_
 _symmetry_equiv_pos_site_id
 _symmetry_equiv_pos_as_xyz
  1  'x, y, z'
loop_
 _atom_site_type_symbol
 _atom_site_label
 _atom_site_symmetry_multiplicity
 _atom_site_fract_x
 _atom_site_fract_y
 _atom_site_fract_z
 _atom_site_occupancy
  Ca  Ca0  1  0.000000  0.000000  0.000000  1
  Sm  Sm1  1  0.666667  0.333333  0.355613  1
  Sm  Sm2  1  0.333333  0.666667  0.644387  1
  Fe  Fe3  1  0.666667  0.333333  0.735075  1
  Fe  Fe4  1  0.333333  0.666667  0.264925  1
  H  H5  1  0.175963  0.824037  0.375982  1
  H  H6  1  0.648074  0.824037  0.375982  1
  H  H7  1  0.175963  0.351926  0.375982  1
  H  H8  1  0.824037  0.175963  0.624018  1
  H  H9  1  0.351926  0.175963  0.624018  1
  H  H10  1  0.824037  0.648074  0.624018  1
  H  H11  1  0.517452  0.034906  0.857257  1
  H  H12  1  0.517452  0.482548  0.857257  1
  H  H13  1  0.965094  0.482548  0.857257  1
  H  H14  1  0.482548  0.965094  0.142743  1
  H  H15  1  0.482548  0.517452  0.142743  1
  H  H16  1  0.034906  0.517452  0.142743  1
