# generated using pymatgen
data_Er18Tm2Bi11Sb
_symmetry_space_group_name_H-M   'P 1'
_cell_length_a   8.17468750
_cell_length_b   9.45411402
_cell_length_c   11.92447522
_cell_angle_alpha   90.00400897
_cell_angle_beta   89.94447539
_cell_angle_gamma   89.99300120
_symmetry_Int_Tables_number   1
_chemical_formula_structural   Er18Tm2Bi11Sb
_chemical_formula_sum   'Er18 Tm2 Bi11 Sb1'
_cell_volume   921.57580147
_cell_formula_units_Z   1
loop_
 _symmetry_equiv_pos_site_id
 _symmetry_equiv_pos_as_xyz
  1  'x, y, z'
loop_
 _atom_site_type_symbol
 _atom_site_label
 _atom_site_symmetry_multiplicity
 _atom_site_fract_x
 _atom_site_fract_y
 _atom_site_fract_z
 _atom_site_occupancy
  Er  Er0  1  0.028265  0.250100  0.511425  1
  Er  Er1  1  0.976062  0.749927  0.489100  1
  Er  Er2  1  0.474970  0.750023  0.011406  1
  Er  Er3  1  0.525470  0.249995  0.988484  1
  Er  Er4  1  0.356024  0.250025  0.286269  1
  Er  Er5  1  0.645078  0.749974  0.716904  1
  Er  Er6  1  0.145011  0.749926  0.782602  1
  Er  Er7  1  0.855057  0.250063  0.217133  1
  Er  Er8  1  0.189145  0.250015  0.780102  1
  Er  Er9  1  0.812383  0.749990  0.217916  1
  Er  Er10  1  0.312750  0.749947  0.282043  1
  Er  Er11  1  0.682632  0.250057  0.715091  1
  Er  Er12  1  0.193022  0.065295  0.059876  1
  Er  Er13  1  0.807035  0.935174  0.940384  1
  Er  Er14  1  0.308422  0.938708  0.559347  1
  Er  Er15  1  0.807026  0.564818  0.940391  1
  Er  Er16  1  0.690200  0.067363  0.441945  1
  Er  Er17  1  0.193074  0.434709  0.059871  1
  Tm  Tm18  1  0.690291  0.432357  0.441931  1
  Tm  Tm19  1  0.308277  0.561499  0.559384  1
  Bi  Bi20  1  0.594245  0.749627  0.457226  1
  Bi  Bi21  1  0.093824  0.749998  0.042591  1
  Bi  Bi22  1  0.906906  0.250002  0.956571  1
  Bi  Bi23  1  0.066513  0.003655  0.325899  1
  Bi  Bi24  1  0.932909  0.996696  0.674214  1
  Bi  Bi25  1  0.433267  0.996042  0.825739  1
  Bi  Bi26  1  0.932983  0.503314  0.674179  1
  Bi  Bi27  1  0.566701  0.004051  0.174430  1
  Bi  Bi28  1  0.066448  0.496339  0.325934  1
  Bi  Bi29  1  0.566701  0.495958  0.174456  1
  Bi  Bi30  1  0.433269  0.503956  0.825694  1
  Sb  Sb31  1  0.406045  0.250395  0.541464  1
