# generated using pymatgen
data_La3As2Cl
_symmetry_space_group_name_H-M   'P 1'
_cell_length_a   7.48229863
_cell_length_b   7.48229730
_cell_length_c   7.48229892
_cell_angle_alpha   146.26058591
_cell_angle_beta   131.95957725
_cell_angle_gamma   59.98819419
_symmetry_Int_Tables_number   1
_chemical_formula_structural   La3As2Cl
_chemical_formula_sum   'La3 As2 Cl1'
_cell_volume   171.42358188
_cell_formula_units_Z   1
loop_
 _symmetry_equiv_pos_site_id
 _symmetry_equiv_pos_as_xyz
  1  'x, y, z'
loop_
 _atom_site_type_symbol
 _atom_site_label
 _atom_site_symmetry_multiplicity
 _atom_site_fract_x
 _atom_site_fract_y
 _atom_site_fract_z
 _atom_site_occupancy
  La  La0  1  0.000000  0.000000  0.000000  1
  La  La1  1  0.676862  0.676862  0.000000  1
  La  La2  1  0.323138  0.323138  0.000000  1
  As  As3  1  0.163283  0.663283  0.500000  1
  As  As4  1  0.836717  0.336717  0.500000  1
  Cl  Cl5  1  0.500000  0.000000  0.500000  1
