# generated using pymatgen
data_Ho16MgIn(HgRh2)2
_symmetry_space_group_name_H-M   'P 1'
_cell_length_a   9.59428667
_cell_length_b   9.58614180
_cell_length_c   9.58804015
_cell_angle_alpha   59.93031539
_cell_angle_beta   59.95938890
_cell_angle_gamma   60.00771670
_symmetry_Int_Tables_number   1
_chemical_formula_structural   Ho16MgIn(HgRh2)2
_chemical_formula_sum   'Ho16 Mg1 In1 Hg2 Rh4'
_cell_volume   623.06606028
_cell_formula_units_Z   1
loop_
 _symmetry_equiv_pos_site_id
 _symmetry_equiv_pos_as_xyz
  1  'x, y, z'
loop_
 _atom_site_type_symbol
 _atom_site_label
 _atom_site_symmetry_multiplicity
 _atom_site_fract_x
 _atom_site_fract_y
 _atom_site_fract_z
 _atom_site_occupancy
  Ho  Ho0  1  0.186376  0.187055  0.813207  1
  Ho  Ho1  1  0.601819  0.598476  0.202550  1
  Ho  Ho2  1  0.436882  0.061513  0.439152  1
  Ho  Ho3  1  0.439261  0.438652  0.059953  1
  Ho  Ho4  1  0.813275  0.184221  0.815116  1
  Ho  Ho5  1  0.185170  0.811903  0.188763  1
  Ho  Ho6  1  0.435181  0.062574  0.062328  1
  Ho  Ho7  1  0.185082  0.813167  0.814404  1
  Ho  Ho8  1  0.058442  0.439646  0.058959  1
  Ho  Ho9  1  0.813106  0.813446  0.187789  1
  Ho  Ho10  1  0.195616  0.602391  0.601890  1
  Ho  Ho11  1  0.057974  0.439984  0.441908  1
  Ho  Ho12  1  0.059285  0.059855  0.439390  1
  Ho  Ho13  1  0.812119  0.183556  0.190206  1
  Ho  Ho14  1  0.602313  0.201357  0.599592  1
  Ho  Ho15  1  0.599847  0.597230  0.598159  1
  Mg  Mg16  1  0.524097  0.826746  0.824163  1
  In  In17  1  0.830951  0.503481  0.831319  1
  Hg  Hg18  1  0.832227  0.836242  0.836165  1
  Hg  Hg19  1  0.832485  0.836650  0.493452  1
  Rh  Rh20  1  0.391670  0.822252  0.393480  1
  Rh  Rh21  1  0.391330  0.393435  0.393227  1
  Rh  Rh22  1  0.824071  0.392404  0.392146  1
  Rh  Rh23  1  0.391419  0.393765  0.822682  1
