# generated using pymatgen
data_Sc2InHgPt
_symmetry_space_group_name_H-M   'P 1'
_cell_length_a   7.80459000
_cell_length_b   7.85150700
_cell_length_c   3.45092000
_cell_angle_alpha   90.00000000
_cell_angle_beta   90.00000000
_cell_angle_gamma   90.00000000
_symmetry_Int_Tables_number   1
_chemical_formula_structural   Sc2InHgPt
_chemical_formula_sum   'Sc4 In2 Hg2 Pt2'
_cell_volume   211.46476148
_cell_formula_units_Z   2
loop_
 _symmetry_equiv_pos_site_id
 _symmetry_equiv_pos_as_xyz
  1  'x, y, z'
loop_
 _atom_site_type_symbol
 _atom_site_label
 _atom_site_symmetry_multiplicity
 _atom_site_fract_x
 _atom_site_fract_y
 _atom_site_fract_z
 _atom_site_occupancy
  Sc  Sc0  1  0.674920  0.129345  0.500000  1
  Sc  Sc1  1  0.174920  0.370656  0.500000  1
  Sc  Sc2  1  0.840606  0.694917  0.500000  1
  Sc  Sc3  1  0.340607  0.805083  0.500000  1
  In  In4  1  0.000237  0.996288  0.000000  1
  In  In5  1  0.500237  0.503712  0.000000  1
  Hg  Hg6  1  0.360496  0.128841  0.000000  1
  Hg  Hg7  1  0.860496  0.371160  0.000000  1
  Pt  Pt8  1  0.123743  0.634504  0.000000  1
  Pt  Pt9  1  0.623743  0.865497  0.000000  1
