# generated using pymatgen
data_Lu4Al18Os4PdRh
_symmetry_space_group_name_H-M   'P 1'
_cell_length_a   7.54995342
_cell_length_b   7.54995365
_cell_length_c   9.50283021
_cell_angle_alpha   90.02511265
_cell_angle_beta   90.02510202
_cell_angle_gamma   119.89814226
_symmetry_Int_Tables_number   1
_chemical_formula_structural   Lu4Al18Os4PdRh
_chemical_formula_sum   'Lu4 Al18 Os4 Pd1 Rh1'
_cell_volume   469.58782899
_cell_formula_units_Z   1
loop_
 _symmetry_equiv_pos_site_id
 _symmetry_equiv_pos_as_xyz
  1  'x, y, z'
loop_
 _atom_site_type_symbol
 _atom_site_label
 _atom_site_symmetry_multiplicity
 _atom_site_fract_x
 _atom_site_fract_y
 _atom_site_fract_z
 _atom_site_occupancy
  Lu  Lu0  1  0.998003  0.666529  0.250579  1
  Lu  Lu1  1  0.001997  0.333471  0.749421  1
  Lu  Lu2  1  0.666529  0.998003  0.250579  1
  Lu  Lu3  1  0.333471  0.001997  0.749421  1
  Al  Al4  1  0.127429  0.127429  0.252392  1
  Al  Al5  1  0.872571  0.872571  0.747608  1
  Al  Al6  1  0.002062  0.338425  0.072363  1
  Al  Al7  1  0.997938  0.661575  0.927637  1
  Al  Al8  1  0.997937  0.664818  0.571842  1
  Al  Al9  1  0.335182  0.002063  0.428158  1
  Al  Al10  1  0.002063  0.335182  0.428158  1
  Al  Al11  1  0.664818  0.997937  0.571842  1
  Al  Al12  1  0.661575  0.997938  0.927637  1
  Al  Al13  1  0.338425  0.002062  0.072363  1
  Al  Al14  1  0.336454  0.336454  0.551770  1
  Al  Al15  1  0.663546  0.663546  0.448230  1
  Al  Al16  1  0.661045  0.661045  0.051972  1
  Al  Al17  1  0.338955  0.338955  0.948028  1
  Al  Al18  1  0.336701  0.548779  0.249899  1
  Al  Al19  1  0.663299  0.451221  0.750101  1
  Al  Al20  1  0.548779  0.336701  0.249899  1
  Al  Al21  1  0.451221  0.663299  0.750101  1
  Os  Os22  1  0.672892  0.327108  0.000000  1
  Os  Os23  1  0.327108  0.672892  0.000000  1
  Os  Os24  1  0.326840  0.673160  0.500000  1
  Os  Os25  1  0.673160  0.326840  0.500000  1
  Pd  Pd26  1  0.000000  0.000000  0.000000  1
  Rh  Rh27  1  0.000000  0.000000  0.500000  1
