# generated using pymatgen
data_LaNd2Si4(AsPd10)2
_symmetry_space_group_name_H-M   'P 1'
_cell_length_a   8.78405029
_cell_length_b   8.87488077
_cell_length_c   8.87487991
_cell_angle_alpha   59.32403472
_cell_angle_beta   60.33798596
_cell_angle_gamma   60.33797949
_symmetry_Int_Tables_number   1
_chemical_formula_structural   LaNd2Si4(AsPd10)2
_chemical_formula_sum   'La1 Nd2 Si4 As2 Pd20'
_cell_volume   489.11925240
_cell_formula_units_Z   1
loop_
 _symmetry_equiv_pos_site_id
 _symmetry_equiv_pos_as_xyz
  1  'x, y, z'
loop_
 _atom_site_type_symbol
 _atom_site_label
 _atom_site_symmetry_multiplicity
 _atom_site_fract_x
 _atom_site_fract_y
 _atom_site_fract_z
 _atom_site_occupancy
  La  La0  1  0.250000  0.250000  0.250000  1
  Nd  Nd1  1  0.750000  0.750000  0.750000  1
  Nd  Nd2  1  0.000000  0.000000  0.000000  1
  Si  Si3  1  0.267381  0.732619  0.267381  1
  Si  Si4  1  0.732619  0.267381  0.732619  1
  Si  Si5  1  0.267381  0.267381  0.732619  1
  Si  Si6  1  0.732619  0.732619  0.267381  1
  As  As7  1  0.736496  0.263504  0.263504  1
  As  As8  1  0.263504  0.736496  0.736496  1
  Pd  Pd9  1  0.347088  0.999886  0.999886  1
  Pd  Pd10  1  0.653140  0.999886  0.999886  1
  Pd  Pd11  1  0.999886  0.347088  0.653140  1
  Pd  Pd12  1  0.999886  0.653140  0.347088  1
  Pd  Pd13  1  0.009098  0.348271  0.990653  1
  Pd  Pd14  1  0.651978  0.990653  0.348271  1
  Pd  Pd15  1  0.990653  0.651978  0.009098  1
  Pd  Pd16  1  0.348271  0.009098  0.651978  1
  Pd  Pd17  1  0.009098  0.990653  0.348271  1
  Pd  Pd18  1  0.990653  0.009098  0.651978  1
  Pd  Pd19  1  0.651978  0.348271  0.990653  1
  Pd  Pd20  1  0.348271  0.651978  0.009098  1
  Pd  Pd21  1  0.380578  0.387706  0.387706  1
  Pd  Pd22  1  0.619488  0.612415  0.612415  1
  Pd  Pd23  1  0.387706  0.380578  0.844009  1
  Pd  Pd24  1  0.387706  0.844009  0.380578  1
  Pd  Pd25  1  0.612415  0.619488  0.155682  1
  Pd  Pd26  1  0.612415  0.155682  0.619488  1
  Pd  Pd27  1  0.844009  0.387706  0.387706  1
  Pd  Pd28  1  0.155682  0.612415  0.612415  1
