# generated using pymatgen
data_Ca8Cd3AgSn4
_symmetry_space_group_name_H-M   'P 1'
_cell_length_a   7.53059002
_cell_length_b   5.45400200
_cell_length_c   10.90923801
_cell_angle_alpha   90.00000000
_cell_angle_beta   89.99404811
_cell_angle_gamma   90.00000000
_symmetry_Int_Tables_number   1
_chemical_formula_structural   Ca8Cd3AgSn4
_chemical_formula_sum   'Ca8 Cd3 Ag1 Sn4'
_cell_volume   448.06261747
_cell_formula_units_Z   1
loop_
 _symmetry_equiv_pos_site_id
 _symmetry_equiv_pos_as_xyz
  1  'x, y, z'
loop_
 _atom_site_type_symbol
 _atom_site_label
 _atom_site_symmetry_multiplicity
 _atom_site_fract_x
 _atom_site_fract_y
 _atom_site_fract_z
 _atom_site_occupancy
  Ca  Ca0  1  0.506290  0.750000  0.125146  1
  Ca  Ca1  1  0.993726  0.750000  0.125299  1
  Ca  Ca2  1  0.503190  0.250000  0.370091  1
  Ca  Ca3  1  0.996849  0.250000  0.370252  1
  Ca  Ca4  1  0.999920  0.750000  0.625192  1
  Ca  Ca5  1  0.500102  0.750000  0.625369  1
  Ca  Ca6  1  0.996809  0.250000  0.879189  1
  Ca  Ca7  1  0.503247  0.250000  0.879346  1
  Cd  Cd8  1  0.250194  0.750000  0.373829  1
  Cd  Cd9  1  0.749842  0.250000  0.624551  1
  Cd  Cd10  1  0.249846  0.750000  0.876972  1
  Ag  Ag11  1  0.750236  0.250000  0.124583  1
  Sn  Sn12  1  0.249986  0.250000  0.124843  1
  Sn  Sn13  1  0.749717  0.750000  0.377220  1
  Sn  Sn14  1  0.249996  0.250000  0.624829  1
  Sn  Sn15  1  0.750053  0.750000  0.873291  1
