# generated using pymatgen
data_Er3Tm5Sc12Si15Ge
_symmetry_space_group_name_H-M   'P 1'
_cell_length_a   7.06370826
_cell_length_b   7.35449856
_cell_length_c   13.92430094
_cell_angle_alpha   90.01637257
_cell_angle_beta   89.89173346
_cell_angle_gamma   90.02974914
_symmetry_Int_Tables_number   1
_chemical_formula_structural   Er3Tm5Sc12Si15Ge
_chemical_formula_sum   'Er3 Tm5 Sc12 Si15 Ge1'
_cell_volume   723.36646434
_cell_formula_units_Z   1
loop_
 _symmetry_equiv_pos_site_id
 _symmetry_equiv_pos_as_xyz
  1  'x, y, z'
loop_
 _atom_site_type_symbol
 _atom_site_label
 _atom_site_symmetry_multiplicity
 _atom_site_fract_x
 _atom_site_fract_y
 _atom_site_fract_z
 _atom_site_occupancy
  Er  Er0  1  0.012313  0.176387  0.096455  1
  Er  Er1  1  0.987898  0.823782  0.903645  1
  Er  Er2  1  0.488290  0.676439  0.903640  1
  Tm  Tm3  1  0.987397  0.824494  0.596617  1
  Tm  Tm4  1  0.512028  0.323548  0.096642  1
  Tm  Tm5  1  0.010875  0.175848  0.402849  1
  Tm  Tm6  1  0.512613  0.322116  0.402630  1
  Tm  Tm7  1  0.490917  0.678131  0.596939  1
  Sc  Sc8  1  0.161026  0.503406  0.751080  1
  Sc  Sc9  1  0.838832  0.496584  0.250072  1
  Sc  Sc10  1  0.339099  0.003363  0.249968  1
  Sc  Sc11  1  0.661014  0.996534  0.749999  1
  Sc  Sc12  1  0.332773  0.174551  0.626006  1
  Sc  Sc13  1  0.668370  0.823618  0.374427  1
  Sc  Sc14  1  0.167986  0.677649  0.374241  1
  Sc  Sc15  1  0.668875  0.822914  0.125220  1
  Sc  Sc16  1  0.829815  0.323041  0.625354  1
  Sc  Sc17  1  0.331157  0.176791  0.874751  1
  Sc  Sc18  1  0.831005  0.323013  0.874765  1
  Sc  Sc19  1  0.168909  0.676979  0.125303  1
  Si  Si20  1  0.033010  0.114311  0.750122  1
  Si  Si21  1  0.967059  0.886403  0.249606  1
  Si  Si22  1  0.466839  0.614030  0.249729  1
  Si  Si23  1  0.532611  0.386304  0.750205  1
  Si  Si24  1  0.285023  0.870550  0.750105  1
  Si  Si25  1  0.714866  0.128966  0.249682  1
  Si  Si26  1  0.214838  0.370938  0.250019  1
  Si  Si27  1  0.785649  0.629066  0.749937  1
  Si  Si28  1  0.835197  0.535745  0.459828  1
  Si  Si29  1  0.339930  0.965329  0.460459  1
  Si  Si30  1  0.840607  0.534528  0.039453  1
  Si  Si31  1  0.659850  0.035001  0.539373  1
  Si  Si32  1  0.159177  0.465342  0.960782  1
  Si  Si33  1  0.659059  0.034864  0.960610  1
  Si  Si34  1  0.340959  0.965403  0.039539  1
  Ge  Ge35  1  0.164138  0.464030  0.539952  1
