# generated using pymatgen
data_LiLa8IrRh5
_symmetry_space_group_name_H-M   'P 1'
_cell_length_a   7.68893777
_cell_length_b   7.72569517
_cell_length_c   7.70855251
_cell_angle_alpha   70.41144786
_cell_angle_beta   70.48704857
_cell_angle_gamma   70.07722237
_symmetry_Int_Tables_number   1
_chemical_formula_structural   LiLa8IrRh5
_chemical_formula_sum   'Li1 La8 Ir1 Rh5'
_cell_volume   392.90256933
_cell_formula_units_Z   1
loop_
 _symmetry_equiv_pos_site_id
 _symmetry_equiv_pos_as_xyz
  1  'x, y, z'
loop_
 _atom_site_type_symbol
 _atom_site_label
 _atom_site_symmetry_multiplicity
 _atom_site_fract_x
 _atom_site_fract_y
 _atom_site_fract_z
 _atom_site_occupancy
  Li  Li0  1  0.999666  0.000819  0.000031  1
  La  La1  1  0.812131  0.812409  0.811381  1
  La  La2  1  0.185778  0.188196  0.186415  1
  La  La3  1  0.140680  0.380273  0.685028  1
  La  La4  1  0.682635  0.142740  0.379518  1
  La  La5  1  0.383501  0.681731  0.141610  1
  La  La6  1  0.855613  0.619317  0.316481  1
  La  La7  1  0.316668  0.857643  0.619218  1
  La  La8  1  0.620696  0.318052  0.857613  1
  Ir  Ir9  1  0.813915  0.426082  0.053748  1
  Rh  Rh10  1  0.947913  0.185599  0.574628  1
  Rh  Rh11  1  0.571850  0.947332  0.187300  1
  Rh  Rh12  1  0.188873  0.574137  0.945972  1
  Rh  Rh13  1  0.054276  0.813328  0.426413  1
  Rh  Rh14  1  0.425806  0.052343  0.814644  1
