# generated using pymatgen
data_La20Ir8Os3Rh
_symmetry_space_group_name_H-M   'P 1'
_cell_length_a   11.41184200
_cell_length_b   11.41184200
_cell_length_c   6.67575100
_cell_angle_alpha   90.00000000
_cell_angle_beta   90.00000000
_cell_angle_gamma   90.00000000
_symmetry_Int_Tables_number   1
_chemical_formula_structural   La20Ir8Os3Rh
_chemical_formula_sum   'La20 Ir8 Os3 Rh1'
_cell_volume   869.38397287
_cell_formula_units_Z   1
loop_
 _symmetry_equiv_pos_site_id
 _symmetry_equiv_pos_as_xyz
  1  'x, y, z'
loop_
 _atom_site_type_symbol
 _atom_site_label
 _atom_site_symmetry_multiplicity
 _atom_site_fract_x
 _atom_site_fract_y
 _atom_site_fract_z
 _atom_site_occupancy
  La  La0  1  0.292997  0.091637  0.393290  1
  La  La1  1  0.293040  0.907893  0.885562  1
  La  La2  1  0.706960  0.092107  0.885562  1
  La  La3  1  0.707003  0.908363  0.393290  1
  La  La4  1  0.592107  0.793040  0.885562  1
  La  La5  1  0.591637  0.207003  0.393290  1
  La  La6  1  0.408363  0.792997  0.393290  1
  La  La7  1  0.407893  0.206960  0.885562  1
  La  La8  1  0.204330  0.410515  0.610494  1
  La  La9  1  0.204621  0.590460  0.111126  1
  La  La10  1  0.795379  0.409540  0.111126  1
  La  La11  1  0.795670  0.589485  0.610494  1
  La  La12  1  0.909540  0.704621  0.111126  1
  La  La13  1  0.910515  0.295670  0.610494  1
  La  La14  1  0.089485  0.704330  0.610494  1
  La  La15  1  0.090460  0.295379  0.111126  1
  La  La16  1  0.000000  0.000000  0.502207  1
  La  La17  1  0.000000  0.000000  0.003166  1
  La  La18  1  0.500000  0.500000  0.003166  1
  La  La19  1  0.500000  0.500000  0.502207  1
  Ir  Ir20  1  0.845593  0.150587  0.249259  1
  Ir  Ir21  1  0.846816  0.848239  0.749457  1
  Ir  Ir22  1  0.153184  0.151761  0.749457  1
  Ir  Ir23  1  0.154407  0.849413  0.249259  1
  Ir  Ir24  1  0.651761  0.346816  0.749457  1
  Ir  Ir25  1  0.650587  0.654407  0.249259  1
  Ir  Ir26  1  0.349413  0.345593  0.249259  1
  Ir  Ir27  1  0.348239  0.653184  0.749457  1
  Os  Os28  1  0.500000  0.000000  0.626763  1
  Os  Os29  1  0.000000  0.500000  0.872557  1
  Os  Os30  1  0.000000  0.500000  0.371833  1
  Rh  Rh31  1  0.500000  0.000000  0.121348  1
