# generated using pymatgen
data_CsCu(BrO3)4
_symmetry_space_group_name_H-M   'P 1'
_cell_length_a   5.93141900
_cell_length_b   7.70014478
_cell_length_c   8.66143873
_cell_angle_alpha   109.80838470
_cell_angle_beta   90.00000000
_cell_angle_gamma   112.65304661
_symmetry_Int_Tables_number   1
_chemical_formula_structural   CsCu(BrO3)4
_chemical_formula_sum   'Cs1 Cu1 Br4 O12'
_cell_volume   339.56981920
_cell_formula_units_Z   1
loop_
 _symmetry_equiv_pos_site_id
 _symmetry_equiv_pos_as_xyz
  1  'x, y, z'
loop_
 _atom_site_type_symbol
 _atom_site_label
 _atom_site_symmetry_multiplicity
 _atom_site_fract_x
 _atom_site_fract_y
 _atom_site_fract_z
 _atom_site_occupancy
  Cs  Cs0  1  0.050528  0.000000  0.000000  1
  Cu  Cu1  1  0.246747  0.000000  0.500000  1
  Br  Br2  1  0.254164  0.638704  0.172824  1
  Br  Br3  1  0.615458  0.361296  0.827176  1
  Br  Br4  1  0.658786  0.273480  0.361184  1
  Br  Br5  1  0.385306  0.726520  0.638816  1
  O  O6  1  0.130061  0.821327  0.282203  1
  O  O7  1  0.308734  0.178673  0.717797  1
  O  O8  1  0.087616  0.431686  0.208307  1
  O  O9  1  0.655930  0.568313  0.791693  1
  O  O10  1  0.146974  0.605127  0.983351  1
  O  O11  1  0.541847  0.394873  0.016649  1
  O  O12  1  0.626604  0.068283  0.200660  1
  O  O13  1  0.558322  0.931717  0.799340  1
  O  O14  1  0.831042  0.284642  0.517875  1
  O  O15  1  0.546400  0.715358  0.482125  1
  O  O16  1  0.357416  0.215573  0.423290  1
  O  O17  1  0.141843  0.784427  0.576710  1
