# generated using pymatgen
data_Np(Hg2Cl3)2
_symmetry_space_group_name_H-M   'P 1'
_cell_length_a   7.48580581
_cell_length_b   7.16786011
_cell_length_c   7.49042800
_cell_angle_alpha   93.26720593
_cell_angle_beta   71.32001087
_cell_angle_gamma   87.41381243
_symmetry_Int_Tables_number   1
_chemical_formula_structural   Np(Hg2Cl3)2
_chemical_formula_sum   'Np1 Hg4 Cl6'
_cell_volume   379.27019828
_cell_formula_units_Z   1
loop_
 _symmetry_equiv_pos_site_id
 _symmetry_equiv_pos_as_xyz
  1  'x, y, z'
loop_
 _atom_site_type_symbol
 _atom_site_label
 _atom_site_symmetry_multiplicity
 _atom_site_fract_x
 _atom_site_fract_y
 _atom_site_fract_z
 _atom_site_occupancy
  Np  Np0  1  0.000000  0.000000  0.000000  1
  Hg  Hg1  1  0.497964  0.733571  0.256002  1
  Hg  Hg2  1  0.163654  0.575256  0.410532  1
  Hg  Hg3  1  0.836345  0.424743  0.589469  1
  Hg  Hg4  1  0.502037  0.266429  0.743999  1
  Cl  Cl5  1  0.193963  0.681875  0.915691  1
  Cl  Cl6  1  0.265898  0.146396  0.113939  1
  Cl  Cl7  1  0.809747  0.893217  0.339435  1
  Cl  Cl8  1  0.190253  0.106782  0.660565  1
  Cl  Cl9  1  0.734101  0.853603  0.886062  1
  Cl  Cl10  1  0.806037  0.318125  0.084310  1
