# generated using pymatgen
data_Li4Pr2SmPb4
_symmetry_space_group_name_H-M   'P 1'
_cell_length_a   4.77397573
_cell_length_b   7.26225668
_cell_length_c   8.92987900
_cell_angle_alpha   113.99311799
_cell_angle_beta   105.50387941
_cell_angle_gamma   90.00000192
_symmetry_Int_Tables_number   1
_chemical_formula_structural   Li4Pr2SmPb4
_chemical_formula_sum   'Li4 Pr2 Sm1 Pb4'
_cell_volume   270.46900390
_cell_formula_units_Z   1
loop_
 _symmetry_equiv_pos_site_id
 _symmetry_equiv_pos_as_xyz
  1  'x, y, z'
loop_
 _atom_site_type_symbol
 _atom_site_label
 _atom_site_symmetry_multiplicity
 _atom_site_fract_x
 _atom_site_fract_y
 _atom_site_fract_z
 _atom_site_occupancy
  Li  Li0  1  0.672594  0.981883  0.345186  1
  Li  Li1  1  0.327406  0.018117  0.654814  1
  Li  Li2  1  0.327406  0.636696  0.654814  1
  Li  Li3  1  0.672594  0.363304  0.345186  1
  Pr  Pr4  1  0.129689  0.629689  0.259376  1
  Pr  Pr5  1  0.870311  0.370311  0.740624  1
  Sm  Sm6  1  0.000000  0.000000  0.000000  1
  Pb  Pb7  1  0.500000  0.706985  0.000000  1
  Pb  Pb8  1  0.500000  0.293015  0.000000  1
  Pb  Pb9  1  0.787461  0.787461  0.574921  1
  Pb  Pb10  1  0.212539  0.212539  0.425079  1
