# generated using pymatgen
data_Ba6Lu2OsO12
_symmetry_space_group_name_H-M   'P 1'
_cell_length_a   9.41673924
_cell_length_b   9.41673725
_cell_length_c   7.46510394
_cell_angle_alpha   67.89612711
_cell_angle_beta   67.89613049
_cell_angle_gamma   36.94873742
_symmetry_Int_Tables_number   1
_chemical_formula_structural   Ba6Lu2OsO12
_chemical_formula_sum   'Ba6 Lu2 Os1 O12'
_cell_volume   365.25434642
_cell_formula_units_Z   1
loop_
 _symmetry_equiv_pos_site_id
 _symmetry_equiv_pos_as_xyz
  1  'x, y, z'
loop_
 _atom_site_type_symbol
 _atom_site_label
 _atom_site_symmetry_multiplicity
 _atom_site_fract_x
 _atom_site_fract_y
 _atom_site_fract_z
 _atom_site_occupancy
  Ba  Ba0  1  0.876816  0.876816  0.711687  1
  Ba  Ba1  1  0.219036  0.219036  0.707269  1
  Ba  Ba2  1  0.548633  0.548633  0.703334  1
  Ba  Ba3  1  0.451367  0.451367  0.296666  1
  Ba  Ba4  1  0.780964  0.780964  0.292731  1
  Ba  Ba5  1  0.123184  0.123184  0.288313  1
  Lu  Lu6  1  0.665976  0.665976  0.998610  1
  Lu  Lu7  1  0.334024  0.334024  0.001390  1
  Os  Os8  1  0.000000  0.000000  0.000000  1
  O  O9  1  0.952106  0.952106  0.290713  1
  O  O10  1  0.283158  0.283158  0.325392  1
  O  O11  1  0.607033  0.607033  0.325318  1
  O  O12  1  0.392967  0.392967  0.674682  1
  O  O13  1  0.716842  0.716842  0.674608  1
  O  O14  1  0.047894  0.047894  0.709287  1
  O  O15  1  0.500000  0.000000  0.000000  1
  O  O16  1  0.845453  0.307364  0.001060  1
  O  O17  1  0.154547  0.692636  0.998940  1
  O  O18  1  0.000000  0.500000  0.000000  1
  O  O19  1  0.307364  0.845453  0.001060  1
  O  O20  1  0.692636  0.154547  0.998940  1
