# generated using pymatgen
data_Y2Pa2CoB14
_symmetry_space_group_name_H-M   'P 1'
_cell_length_a   7.22964244
_cell_length_b   7.21957147
_cell_length_c   7.55952800
_cell_angle_alpha   90.00000000
_cell_angle_beta   90.00000000
_cell_angle_gamma   90.29200674
_symmetry_Int_Tables_number   1
_chemical_formula_structural   Y2Pa2CoB14
_chemical_formula_sum   'Y4 Pa4 Co2 B28'
_cell_volume   394.56383735
_cell_formula_units_Z   2
loop_
 _symmetry_equiv_pos_site_id
 _symmetry_equiv_pos_as_xyz
  1  'x, y, z'
loop_
 _atom_site_type_symbol
 _atom_site_label
 _atom_site_symmetry_multiplicity
 _atom_site_fract_x
 _atom_site_fract_y
 _atom_site_fract_z
 _atom_site_occupancy
  Y  Y0  1  0.306801  0.832239  0.500000  1
  Y  Y1  1  0.808841  0.665428  0.000000  1
  Y  Y2  1  0.831797  0.692877  0.500000  1
  Y  Y3  1  0.167279  0.308428  0.500000  1
  Pa  Pa4  1  0.192632  0.326815  0.000000  1
  Pa  Pa5  1  0.671339  0.191318  0.000000  1
  Pa  Pa6  1  0.327805  0.806642  0.000000  1
  Pa  Pa7  1  0.692879  0.175920  0.500000  1
  Co  Co8  1  0.000090  0.000604  0.000000  1
  Co  Co9  1  0.502469  0.497573  0.500000  1
  B  B10  1  0.172839  0.039545  0.232145  1
  B  B11  1  0.960687  0.174524  0.235200  1
  B  B12  1  0.040264  0.826050  0.229922  1
  B  B13  1  0.674113  0.460074  0.268451  1
  B  B14  1  0.326091  0.540145  0.270305  1
  B  B15  1  0.825604  0.960369  0.230804  1
  B  B16  1  0.539703  0.674162  0.272165  1
  B  B17  1  0.460283  0.325807  0.267836  1
  B  B18  1  0.825604  0.960369  0.769196  1
  B  B19  1  0.040264  0.826050  0.770078  1
  B  B20  1  0.960687  0.174524  0.764800  1
  B  B21  1  0.326091  0.540145  0.729695  1
  B  B22  1  0.674113  0.460074  0.731549  1
  B  B23  1  0.172839  0.039545  0.767855  1
  B  B24  1  0.460283  0.325807  0.732164  1
  B  B25  1  0.539703  0.674162  0.727835  1
  B  B26  1  0.091397  0.590370  0.242740  1
  B  B27  1  0.410585  0.089769  0.244065  1
  B  B28  1  0.588986  0.911541  0.247284  1
  B  B29  1  0.909855  0.408822  0.247345  1
  B  B30  1  0.909855  0.408822  0.752655  1
  B  B31  1  0.588986  0.911541  0.752716  1
  B  B32  1  0.410585  0.089769  0.755935  1
  B  B33  1  0.091397  0.590370  0.757260  1
  B  B34  1  0.998882  0.997991  0.391400  1
  B  B35  1  0.499747  0.501910  0.109518  1
  B  B36  1  0.998882  0.997991  0.608600  1
  B  B37  1  0.499747  0.501910  0.890482  1
