# generated using pymatgen
data_Yb12Ag11Ge12Ir
_symmetry_space_group_name_H-M   'P 1'
_cell_length_a   4.52244600
_cell_length_b   7.82791400
_cell_length_c   21.34229842
_cell_angle_alpha   90.20782753
_cell_angle_beta   90.00000000
_cell_angle_gamma   90.00000000
_symmetry_Int_Tables_number   1
_chemical_formula_structural   Yb12Ag11Ge12Ir
_chemical_formula_sum   'Yb12 Ag11 Ge12 Ir1'
_cell_volume   755.54053013
_cell_formula_units_Z   1
loop_
 _symmetry_equiv_pos_site_id
 _symmetry_equiv_pos_as_xyz
  1  'x, y, z'
loop_
 _atom_site_type_symbol
 _atom_site_label
 _atom_site_symmetry_multiplicity
 _atom_site_fract_x
 _atom_site_fract_y
 _atom_site_fract_z
 _atom_site_occupancy
  Yb  Yb0  1  0.250000  0.788797  0.166065  1
  Yb  Yb1  1  0.250000  0.780087  0.500773  1
  Yb  Yb2  1  0.250000  0.711449  0.332849  1
  Yb  Yb3  1  0.750000  0.220414  0.500805  1
  Yb  Yb4  1  0.750000  0.304300  0.671332  1
  Yb  Yb5  1  0.750000  0.280467  0.999574  1
  Yb  Yb6  1  0.250000  0.783543  0.830372  1
  Yb  Yb7  1  0.250000  0.718645  0.999038  1
  Yb  Yb8  1  0.750000  0.211486  0.167224  1
  Yb  Yb9  1  0.750000  0.288934  0.333720  1
  Yb  Yb10  1  0.250000  0.701872  0.667673  1
  Yb  Yb11  1  0.750000  0.215729  0.833058  1
  Ag  Ag12  1  0.750000  0.582512  0.902286  1
  Ag  Ag13  1  0.250000  0.416341  0.434709  1
  Ag  Ag14  1  0.750000  0.584875  0.564718  1
  Ag  Ag15  1  0.750000  0.917588  0.406176  1
  Ag  Ag16  1  0.250000  0.417598  0.093707  1
  Ag  Ag17  1  0.250000  0.412460  0.238152  1
  Ag  Ag18  1  0.750000  0.912566  0.261853  1
  Ag  Ag19  1  0.250000  0.088922  0.737440  1
  Ag  Ag20  1  0.250000  0.082713  0.933736  1
  Ag  Ag21  1  0.750000  0.915789  0.065398  1
  Ag  Ag22  1  0.250000  0.083997  0.595372  1
  Ge  Ge23  1  0.250000  0.410729  0.899523  1
  Ge  Ge24  1  0.750000  0.897405  0.730417  1
  Ge  Ge25  1  0.750000  0.582762  0.228717  1
  Ge  Ge26  1  0.250000  0.087571  0.072445  1
  Ge  Ge27  1  0.750000  0.911338  0.929452  1
  Ge  Ge28  1  0.750000  0.914799  0.603202  1
  Ge  Ge29  1  0.250000  0.410789  0.570039  1
  Ge  Ge30  1  0.250000  0.087250  0.397007  1
  Ge  Ge31  1  0.250000  0.082860  0.270976  1
  Ge  Ge32  1  0.750000  0.588717  0.426374  1
  Ge  Ge33  1  0.250000  0.430461  0.772179  1
  Ge  Ge34  1  0.750000  0.587320  0.103217  1
  Ir  Ir35  1  0.750000  0.586914  0.760423  1
