# generated using pymatgen
data_KTa4VO13
_symmetry_space_group_name_H-M   'P 1'
_cell_length_a   7.43685899
_cell_length_b   7.43685966
_cell_length_c   10.20756000
_cell_angle_alpha   90.00000000
_cell_angle_beta   90.00000000
_cell_angle_gamma   91.97069019
_symmetry_Int_Tables_number   1
_chemical_formula_structural   KTa4VO13
_chemical_formula_sum   'K2 Ta8 V2 O26'
_cell_volume   564.21435900
_cell_formula_units_Z   2
loop_
 _symmetry_equiv_pos_site_id
 _symmetry_equiv_pos_as_xyz
  1  'x, y, z'
loop_
 _atom_site_type_symbol
 _atom_site_label
 _atom_site_symmetry_multiplicity
 _atom_site_fract_x
 _atom_site_fract_y
 _atom_site_fract_z
 _atom_site_occupancy
  K  K0  1  0.444160  0.444160  0.443241  1
  K  K1  1  0.555840  0.555840  0.943241  1
  Ta  Ta2  1  0.552690  0.893794  0.251426  1
  Ta  Ta3  1  0.106206  0.447310  0.751426  1
  Ta  Ta4  1  0.447310  0.106206  0.751426  1
  Ta  Ta5  1  0.893794  0.552690  0.251426  1
  Ta  Ta6  1  0.171111  0.831575  0.500726  1
  Ta  Ta7  1  0.168425  0.828889  0.000726  1
  Ta  Ta8  1  0.831575  0.171111  0.500726  1
  Ta  Ta9  1  0.828889  0.168425  0.000726  1
  V  V10  1  0.167439  0.167439  0.248040  1
  V  V11  1  0.832561  0.832561  0.748040  1
  O  O12  1  0.659594  0.659594  0.250689  1
  O  O13  1  0.340406  0.340406  0.750689  1
  O  O14  1  0.393588  0.133429  0.253742  1
  O  O15  1  0.866571  0.606412  0.753742  1
  O  O16  1  0.606412  0.866571  0.753742  1
  O  O17  1  0.133429  0.393588  0.253742  1
  O  O18  1  0.802015  0.362743  0.384504  1
  O  O19  1  0.636700  0.194877  0.613117  1
  O  O20  1  0.805123  0.363300  0.113117  1
  O  O21  1  0.637257  0.197985  0.884504  1
  O  O22  1  0.194877  0.636700  0.613117  1
  O  O23  1  0.362743  0.802015  0.384504  1
  O  O24  1  0.197985  0.637257  0.884504  1
  O  O25  1  0.363300  0.805123  0.113117  1
  O  O26  1  0.071754  0.071754  0.393460  1
  O  O27  1  0.929251  0.929251  0.602913  1
  O  O28  1  0.070749  0.070749  0.102913  1
  O  O29  1  0.928246  0.928246  0.893460  1
  O  O30  1  0.696764  0.996595  0.386150  1
  O  O31  1  0.006700  0.305908  0.611363  1
  O  O32  1  0.694092  0.993300  0.111363  1
  O  O33  1  0.003405  0.303236  0.886150  1
  O  O34  1  0.305908  0.006700  0.611363  1
  O  O35  1  0.996595  0.696764  0.386150  1
  O  O36  1  0.303236  0.003405  0.886150  1
  O  O37  1  0.993300  0.694092  0.111363  1
