# generated using pymatgen
data_Yb2YLu(NiB4)4
_symmetry_space_group_name_H-M   'P 1'
_cell_length_a   6.81453071
_cell_length_b   6.81453865
_cell_length_c   6.81453239
_cell_angle_alpha   112.88540830
_cell_angle_beta   112.88100375
_cell_angle_gamma   102.84365489
_symmetry_Int_Tables_number   1
_chemical_formula_structural   Yb2YLu(NiB4)4
_chemical_formula_sum   'Yb2 Y1 Lu1 Ni4 B16'
_cell_volume   241.19979897
_cell_formula_units_Z   1
loop_
 _symmetry_equiv_pos_site_id
 _symmetry_equiv_pos_as_xyz
  1  'x, y, z'
loop_
 _atom_site_type_symbol
 _atom_site_label
 _atom_site_symmetry_multiplicity
 _atom_site_fract_x
 _atom_site_fract_y
 _atom_site_fract_z
 _atom_site_occupancy
  Yb  Yb0  1  0.795531  0.795527  0.999996  1
  Yb  Yb1  1  0.204460  0.204459  0.999999  1
  Y  Y2  1  0.249984  0.749978  0.499994  1
  Lu  Lu3  1  0.750043  0.250030  0.499987  1
  Ni  Ni4  1  0.272208  0.499600  0.772488  1
  Ni  Ni5  1  0.727112  0.499600  0.227392  1
  Ni  Ni6  1  0.500401  0.728069  0.227668  1
  Ni  Ni7  1  0.500344  0.272871  0.772527  1
  B  B8  1  0.276144  0.112098  0.388131  1
  B  B9  1  0.723964  0.888011  0.611864  1
  B  B10  1  0.276146  0.888011  0.164047  1
  B  B11  1  0.723967  0.112098  0.835953  1
  B  B12  1  0.111968  0.723845  0.835940  1
  B  B13  1  0.887909  0.276023  0.164058  1
  B  B14  1  0.111966  0.276023  0.388115  1
  B  B15  1  0.887905  0.723845  0.611876  1
  B  B16  1  0.112430  0.113649  0.530295  1
  B  B17  1  0.583341  0.582116  0.469693  1
  B  B18  1  0.112423  0.582116  0.998774  1
  B  B19  1  0.583354  0.113649  0.001219  1
  B  B20  1  0.886347  0.887552  0.469692  1
  B  B21  1  0.417852  0.416639  0.530298  1
  B  B22  1  0.886341  0.416639  0.998787  1
  B  B23  1  0.417860  0.887552  0.001205  1
