# generated using pymatgen
data_Cs2FeP2O7
_symmetry_space_group_name_H-M   'P 1'
_cell_length_a   7.62730795
_cell_length_b   7.62730690
_cell_length_c   10.42606516
_cell_angle_alpha   79.05943119
_cell_angle_beta   79.05943257
_cell_angle_gamma   120.25727525
_symmetry_Int_Tables_number   1
_chemical_formula_structural   Cs2FeP2O7
_chemical_formula_sum   'Cs4 Fe2 P4 O14'
_cell_volume   484.38598586
_cell_formula_units_Z   2
loop_
 _symmetry_equiv_pos_site_id
 _symmetry_equiv_pos_as_xyz
  1  'x, y, z'
loop_
 _atom_site_type_symbol
 _atom_site_label
 _atom_site_symmetry_multiplicity
 _atom_site_fract_x
 _atom_site_fract_y
 _atom_site_fract_z
 _atom_site_occupancy
  Cs  Cs0  1  0.376462  0.465027  0.128643  1
  Cs  Cs1  1  0.465027  0.376462  0.628643  1
  Cs  Cs2  1  0.594655  0.018461  0.315100  1
  Cs  Cs3  1  0.018461  0.594655  0.815100  1
  Fe  Fe4  1  0.009068  0.772152  0.289935  1
  Fe  Fe5  1  0.772152  0.009068  0.789935  1
  P  P6  1  0.387872  0.984543  0.997195  1
  P  P7  1  0.984543  0.387872  0.497195  1
  P  P8  1  0.026344  0.037842  0.995188  1
  P  P9  1  0.037842  0.026344  0.495188  1
  O  O10  1  0.276186  0.127632  0.427374  1
  O  O11  1  0.127632  0.276186  0.927374  1
  O  O12  1  0.984849  0.204285  0.435347  1
  O  O13  1  0.204285  0.984849  0.935347  1
  O  O14  1  0.554076  0.210924  0.988690  1
  O  O15  1  0.210924  0.554076  0.488690  1
  O  O16  1  0.968618  0.966510  0.154438  1
  O  O17  1  0.966510  0.968618  0.654438  1
  O  O18  1  0.834203  0.889035  0.953201  1
  O  O19  1  0.889035  0.834203  0.453201  1
  O  O20  1  0.466314  0.886887  0.902733  1
  O  O21  1  0.886887  0.466314  0.402733  1
  O  O22  1  0.263659  0.821177  0.147104  1
  O  O23  1  0.821177  0.263659  0.647104  1
