# generated using pymatgen
data_Th2Mn3Al20Pt
_symmetry_space_group_name_H-M   'P 1'
_cell_length_a   6.86145262
_cell_length_b   6.85303990
_cell_length_c   9.13730111
_cell_angle_alpha   90.04318734
_cell_angle_beta   90.26341580
_cell_angle_gamma   97.30529959
_symmetry_Int_Tables_number   1
_chemical_formula_structural   Th2Mn3Al20Pt
_chemical_formula_sum   'Th2 Mn3 Al20 Pt1'
_cell_volume   426.15990828
_cell_formula_units_Z   1
loop_
 _symmetry_equiv_pos_site_id
 _symmetry_equiv_pos_as_xyz
  1  'x, y, z'
loop_
 _atom_site_type_symbol
 _atom_site_label
 _atom_site_symmetry_multiplicity
 _atom_site_fract_x
 _atom_site_fract_y
 _atom_site_fract_z
 _atom_site_occupancy
  Th  Th0  1  0.869174  0.121920  0.753391  1
  Th  Th1  1  0.130826  0.878080  0.246609  1
  Mn  Mn2  1  0.000000  0.500000  0.000000  1
  Mn  Mn3  1  0.500000  0.000000  0.000000  1
  Mn  Mn4  1  0.500000  0.000000  0.500000  1
  Al  Al5  1  0.516684  0.778435  0.749268  1
  Al  Al6  1  0.483316  0.221565  0.250732  1
  Al  Al7  1  0.590106  0.865804  0.248626  1
  Al  Al8  1  0.771319  0.773438  0.000850  1
  Al  Al9  1  0.166120  0.845969  0.602681  1
  Al  Al10  1  0.228681  0.226562  0.999150  1
  Al  Al11  1  0.138428  0.407411  0.243799  1
  Al  Al12  1  0.623260  0.375534  0.952378  1
  Al  Al13  1  0.839455  0.162510  0.099473  1
  Al  Al14  1  0.385198  0.628114  0.448115  1
  Al  Al15  1  0.160545  0.837490  0.900527  1
  Al  Al16  1  0.223593  0.480286  0.759210  1
  Al  Al17  1  0.376740  0.624466  0.047622  1
  Al  Al18  1  0.833880  0.154031  0.397319  1
  Al  Al19  1  0.614802  0.371886  0.551885  1
  Al  Al20  1  0.409894  0.134196  0.751374  1
  Al  Al21  1  0.776407  0.519714  0.240790  1
  Al  Al22  1  0.766871  0.778764  0.503560  1
  Al  Al23  1  0.233129  0.221236  0.496440  1
  Al  Al24  1  0.861572  0.592589  0.756201  1
  Pt  Pt25  1  0.000000  0.500000  0.500000  1
