# generated using pymatgen
data_Tb16CdHg3Ir3Pt
_symmetry_space_group_name_H-M   'P 1'
_cell_length_a   9.64981458
_cell_length_b   9.65540434
_cell_length_c   9.65540401
_cell_angle_alpha   60.19260083
_cell_angle_beta   60.17827293
_cell_angle_gamma   60.17828478
_symmetry_Int_Tables_number   1
_chemical_formula_structural   Tb16CdHg3Ir3Pt
_chemical_formula_sum   'Tb16 Cd1 Hg3 Ir3 Pt1'
_cell_volume   638.76556132
_cell_formula_units_Z   1
loop_
 _symmetry_equiv_pos_site_id
 _symmetry_equiv_pos_as_xyz
  1  'x, y, z'
loop_
 _atom_site_type_symbol
 _atom_site_label
 _atom_site_symmetry_multiplicity
 _atom_site_fract_x
 _atom_site_fract_y
 _atom_site_fract_z
 _atom_site_occupancy
  Tb  Tb0  1  0.598899  0.598564  0.598564  1
  Tb  Tb1  1  0.603735  0.603147  0.196180  1
  Tb  Tb2  1  0.603735  0.196180  0.603147  1
  Tb  Tb3  1  0.193396  0.604225  0.604225  1
  Tb  Tb4  1  0.055040  0.441514  0.441514  1
  Tb  Tb5  1  0.437030  0.060400  0.060400  1
  Tb  Tb6  1  0.440123  0.056057  0.441041  1
  Tb  Tb7  1  0.059339  0.438437  0.059622  1
  Tb  Tb8  1  0.440123  0.441041  0.056057  1
  Tb  Tb9  1  0.059339  0.059622  0.438437  1
  Tb  Tb10  1  0.188491  0.812420  0.812420  1
  Tb  Tb11  1  0.812530  0.188018  0.188018  1
  Tb  Tb12  1  0.811679  0.189297  0.812521  1
  Tb  Tb13  1  0.187259  0.813054  0.188312  1
  Tb  Tb14  1  0.811679  0.812521  0.189297  1
  Tb  Tb15  1  0.187259  0.188312  0.813054  1
  Cd  Cd16  1  0.509070  0.830060  0.830060  1
  Hg  Hg17  1  0.833596  0.835659  0.835659  1
  Hg  Hg18  1  0.834046  0.836199  0.493610  1
  Hg  Hg19  1  0.834046  0.493610  0.836199  1
  Ir  Ir20  1  0.391674  0.392460  0.823810  1
  Ir  Ir21  1  0.391674  0.823810  0.392460  1
  Ir  Ir22  1  0.823820  0.392222  0.392222  1
  Pt  Pt23  1  0.392425  0.393173  0.393173  1
