# generated using pymatgen
data_Rb4CeSnBr12
_symmetry_space_group_name_H-M   'P 1'
_cell_length_a   7.81634800
_cell_length_b   7.81634800
_cell_length_c   11.24398300
_cell_angle_alpha   90.00000000
_cell_angle_beta   90.00000000
_cell_angle_gamma   90.00000000
_symmetry_Int_Tables_number   1
_chemical_formula_structural   Rb4CeSnBr12
_chemical_formula_sum   'Rb4 Ce1 Sn1 Br12'
_cell_volume   686.95447025
_cell_formula_units_Z   1
loop_
 _symmetry_equiv_pos_site_id
 _symmetry_equiv_pos_as_xyz
  1  'x, y, z'
loop_
 _atom_site_type_symbol
 _atom_site_label
 _atom_site_symmetry_multiplicity
 _atom_site_fract_x
 _atom_site_fract_y
 _atom_site_fract_z
 _atom_site_occupancy
  Rb  Rb0  1  0.500000  0.000000  0.755251  1
  Rb  Rb1  1  0.500000  0.000000  0.244749  1
  Rb  Rb2  1  0.000000  0.500000  0.244749  1
  Rb  Rb3  1  0.000000  0.500000  0.755251  1
  Ce  Ce4  1  0.500000  0.500000  0.500000  1
  Sn  Sn5  1  0.000000  0.000000  0.000000  1
  Br  Br6  1  0.792025  0.268484  0.000000  1
  Br  Br7  1  0.207975  0.731516  0.000000  1
  Br  Br8  1  0.500000  0.500000  0.250998  1
  Br  Br9  1  0.285385  0.215501  0.500000  1
  Br  Br10  1  0.268484  0.207975  0.000000  1
  Br  Br11  1  0.784499  0.285385  0.500000  1
  Br  Br12  1  0.000000  0.000000  0.235392  1
  Br  Br13  1  0.714615  0.784499  0.500000  1
  Br  Br14  1  0.215501  0.714615  0.500000  1
  Br  Br15  1  0.500000  0.500000  0.749002  1
  Br  Br16  1  0.731516  0.792025  0.000000  1
  Br  Br17  1  0.000000  0.000000  0.764608  1
