# generated using pymatgen
data_TbDy3(MgIr)4
_symmetry_space_group_name_H-M   'P 1'
_cell_length_a   4.09504100
_cell_length_b   7.05540855
_cell_length_c   8.50800700
_cell_angle_alpha   89.88363653
_cell_angle_beta   90.00000000
_cell_angle_gamma   90.00000000
_symmetry_Int_Tables_number   1
_chemical_formula_structural   TbDy3(MgIr)4
_chemical_formula_sum   'Tb1 Dy3 Mg4 Ir4'
_cell_volume   245.81442473
_cell_formula_units_Z   1
loop_
 _symmetry_equiv_pos_site_id
 _symmetry_equiv_pos_as_xyz
  1  'x, y, z'
loop_
 _atom_site_type_symbol
 _atom_site_label
 _atom_site_symmetry_multiplicity
 _atom_site_fract_x
 _atom_site_fract_y
 _atom_site_fract_z
 _atom_site_occupancy
  Tb  Tb0  1  0.250000  0.960143  0.325390  1
  Dy  Dy1  1  0.250000  0.458843  0.173539  1
  Dy  Dy2  1  0.750000  0.040655  0.674882  1
  Dy  Dy3  1  0.750000  0.540239  0.825590  1
  Mg  Mg4  1  0.250000  0.365689  0.559765  1
  Mg  Mg5  1  0.250000  0.864814  0.940708  1
  Mg  Mg6  1  0.750000  0.634734  0.441429  1
  Mg  Mg7  1  0.750000  0.135008  0.058730  1
  Ir  Ir8  1  0.250000  0.249060  0.869760  1
  Ir  Ir9  1  0.250000  0.749522  0.631095  1
  Ir  Ir10  1  0.750000  0.748905  0.129323  1
  Ir  Ir11  1  0.750000  0.252389  0.369788  1
