# generated using pymatgen
data_Tb2NiRuI2
_symmetry_space_group_name_H-M   'P 1'
_cell_length_a   4.16042400
_cell_length_b   4.16042411
_cell_length_c   11.76794000
_cell_angle_alpha   90.00000000
_cell_angle_beta   90.00000000
_cell_angle_gamma   119.99999914
_symmetry_Int_Tables_number   1
_chemical_formula_structural   Tb2NiRuI2
_chemical_formula_sum   'Tb2 Ni1 Ru1 I2'
_cell_volume   176.40312655
_cell_formula_units_Z   1
loop_
 _symmetry_equiv_pos_site_id
 _symmetry_equiv_pos_as_xyz
  1  'x, y, z'
loop_
 _atom_site_type_symbol
 _atom_site_label
 _atom_site_symmetry_multiplicity
 _atom_site_fract_x
 _atom_site_fract_y
 _atom_site_fract_z
 _atom_site_occupancy
  Tb  Tb0  1  0.000000  0.000000  0.152603  1
  Tb  Tb1  1  0.000000  0.000000  0.845693  1
  Ni  Ni2  1  0.333333  0.666667  0.004508  1
  Ru  Ru3  1  0.666667  0.333333  0.998339  1
  I  I4  1  0.333333  0.666667  0.666862  1
  I  I5  1  0.666667  0.333333  0.331996  1
