# generated using pymatgen
data_Er2Tm10IrOs3
_symmetry_space_group_name_H-M   'P 1'
_cell_length_a   6.29189105
_cell_length_b   7.29184317
_cell_length_c   8.91547300
_cell_angle_alpha   90.00000000
_cell_angle_beta   90.00000000
_cell_angle_gamma   90.08338810
_symmetry_Int_Tables_number   1
_chemical_formula_structural   Er2Tm10IrOs3
_chemical_formula_sum   'Er2 Tm10 Ir1 Os3'
_cell_volume   409.03685697
_cell_formula_units_Z   1
loop_
 _symmetry_equiv_pos_site_id
 _symmetry_equiv_pos_as_xyz
  1  'x, y, z'
loop_
 _atom_site_type_symbol
 _atom_site_label
 _atom_site_symmetry_multiplicity
 _atom_site_fract_x
 _atom_site_fract_y
 _atom_site_fract_z
 _atom_site_occupancy
  Er  Er0  1  0.873193  0.537601  0.250000  1
  Er  Er1  1  0.628155  0.038771  0.250000  1
  Tm  Tm2  1  0.332198  0.673431  0.061512  1
  Tm  Tm3  1  0.170197  0.176441  0.438753  1
  Tm  Tm4  1  0.669588  0.325084  0.562604  1
  Tm  Tm5  1  0.827703  0.824553  0.935565  1
  Tm  Tm6  1  0.669588  0.325084  0.937396  1
  Tm  Tm7  1  0.827703  0.824553  0.564435  1
  Tm  Tm8  1  0.332198  0.673431  0.438488  1
  Tm  Tm9  1  0.170197  0.176441  0.061247  1
  Tm  Tm10  1  0.127692  0.461944  0.750000  1
  Tm  Tm11  1  0.370467  0.961671  0.750000  1
  Ir  Ir12  1  0.039603  0.884350  0.250000  1
  Os  Os13  1  0.462326  0.383879  0.250000  1
  Os  Os14  1  0.963363  0.115957  0.750000  1
  Os  Os15  1  0.535830  0.616811  0.750000  1
