# generated using pymatgen
data_Li4TaCoNi8P7
_symmetry_space_group_name_H-M   'P 1'
_cell_length_a   9.12521924
_cell_length_b   9.11266702
_cell_length_c   3.60615800
_cell_angle_alpha   90.00000000
_cell_angle_beta   90.00000000
_cell_angle_gamma   120.40476825
_symmetry_Int_Tables_number   1
_chemical_formula_structural   Li4TaCoNi8P7
_chemical_formula_sum   'Li4 Ta1 Co1 Ni8 P7'
_cell_volume   258.62966625
_cell_formula_units_Z   1
loop_
 _symmetry_equiv_pos_site_id
 _symmetry_equiv_pos_as_xyz
  1  'x, y, z'
loop_
 _atom_site_type_symbol
 _atom_site_label
 _atom_site_symmetry_multiplicity
 _atom_site_fract_x
 _atom_site_fract_y
 _atom_site_fract_z
 _atom_site_occupancy
  Li  Li0  1  0.898570  0.123542  0.500000  1
  Li  Li1  1  0.224726  0.101611  0.500000  1
  Li  Li2  1  0.331018  0.667471  0.000000  1
  Li  Li3  1  0.661033  0.328828  0.500000  1
  Ta  Ta4  1  0.874068  0.778425  0.500000  1
  Co  Co5  1  0.565062  0.956439  0.500000  1
  Ni  Ni6  1  0.711287  0.880874  0.000000  1
  Ni  Ni7  1  0.166060  0.286539  0.000000  1
  Ni  Ni8  1  0.126353  0.835018  0.000000  1
  Ni  Ni9  1  0.627446  0.565463  0.000000  1
  Ni  Ni10  1  0.939731  0.367885  0.000000  1
  Ni  Ni11  1  0.430245  0.061290  0.000000  1
  Ni  Ni12  1  0.392137  0.437830  0.500000  1
  Ni  Ni13  1  0.055553  0.610529  0.500000  1
  P  P14  1  0.573949  0.715157  0.500000  1
  P  P15  1  0.131418  0.417699  0.500000  1
  P  P16  1  0.295534  0.874600  0.500000  1
  P  P17  1  0.002535  0.000214  0.000000  1
  P  P18  1  0.879678  0.573062  0.000000  1
  P  P19  1  0.693356  0.118370  0.000000  1
  P  P20  1  0.420240  0.299154  0.000000  1
