# generated using pymatgen
data_Tb2Fe11P7Pt
_symmetry_space_group_name_H-M   'P 1'
_cell_length_a   3.67694300
_cell_length_b   9.02533541
_cell_length_c   9.13609380
_cell_angle_alpha   120.20684693
_cell_angle_beta   90.00000000
_cell_angle_gamma   90.00000000
_symmetry_Int_Tables_number   1
_chemical_formula_structural   Tb2Fe11P7Pt
_chemical_formula_sum   'Tb2 Fe11 P7 Pt1'
_cell_volume   262.01879163
_cell_formula_units_Z   1
loop_
 _symmetry_equiv_pos_site_id
 _symmetry_equiv_pos_as_xyz
  1  'x, y, z'
loop_
 _atom_site_type_symbol
 _atom_site_label
 _atom_site_symmetry_multiplicity
 _atom_site_fract_x
 _atom_site_fract_y
 _atom_site_fract_z
 _atom_site_occupancy
  Tb  Tb0  1  0.000000  0.668206  0.335547  1
  Tb  Tb1  1  0.500000  0.332601  0.658625  1
  Fe  Fe2  1  0.000000  0.055327  0.421858  1
  Fe  Fe3  1  0.000000  0.574968  0.629625  1
  Fe  Fe4  1  0.000000  0.881113  0.728853  1
  Fe  Fe5  1  0.000000  0.273310  0.160779  1
  Fe  Fe6  1  0.000000  0.847441  0.119360  1
  Fe  Fe7  1  0.500000  0.947233  0.564351  1
  Fe  Fe8  1  0.500000  0.435171  0.391565  1
  Fe  Fe9  1  0.500000  0.617991  0.051992  1
  Fe  Fe10  1  0.500000  0.119159  0.907170  1
  Fe  Fe11  1  0.500000  0.097339  0.220337  1
  Fe  Fe12  1  0.500000  0.784401  0.880145  1
  P  P13  1  0.000000  0.093324  0.680581  1
  P  P14  1  0.000000  0.299729  0.410895  1
  P  P15  1  0.000000  0.604497  0.883716  1
  P  P16  1  0.500000  0.712212  0.601158  1
  P  P17  1  0.500000  0.400920  0.132539  1
  P  P18  1  0.500000  0.888463  0.289533  1
  P  P19  1  0.000000  0.000530  0.000400  1
  Pt  Pt20  1  0.000000  0.366067  0.930969  1
