# generated using pymatgen
data_Zr16Fe4Os3Pt
_symmetry_space_group_name_H-M   'P 1'
_cell_length_a   8.68691310
_cell_length_b   8.68484674
_cell_length_c   8.68484700
_cell_angle_alpha   60.00000281
_cell_angle_beta   60.00787119
_cell_angle_gamma   60.00787558
_symmetry_Int_Tables_number   1
_chemical_formula_structural   Zr16Fe4Os3Pt
_chemical_formula_sum   'Zr16 Fe4 Os3 Pt1'
_cell_volume   463.36848464
_cell_formula_units_Z   1
loop_
 _symmetry_equiv_pos_site_id
 _symmetry_equiv_pos_as_xyz
  1  'x, y, z'
loop_
 _atom_site_type_symbol
 _atom_site_label
 _atom_site_symmetry_multiplicity
 _atom_site_fract_x
 _atom_site_fract_y
 _atom_site_fract_z
 _atom_site_occupancy
  Zr  Zr0  1  0.053045  0.648985  0.648985  1
  Zr  Zr1  1  0.647099  0.054573  0.649164  1
  Zr  Zr2  1  0.647099  0.649164  0.054573  1
  Zr  Zr3  1  0.647099  0.649164  0.649164  1
  Zr  Zr4  1  0.798945  0.801200  0.199928  1
  Zr  Zr5  1  0.200297  0.200177  0.799763  1
  Zr  Zr6  1  0.798945  0.199928  0.801200  1
  Zr  Zr7  1  0.200297  0.799763  0.200177  1
  Zr  Zr8  1  0.200297  0.799763  0.799763  1
  Zr  Zr9  1  0.798945  0.199928  0.199928  1
  Zr  Zr10  1  0.437117  0.436887  0.062998  1
  Zr  Zr11  1  0.068429  0.057112  0.437229  1
  Zr  Zr12  1  0.437117  0.062998  0.436887  1
  Zr  Zr13  1  0.068429  0.437229  0.057112  1
  Zr  Zr14  1  0.068429  0.437229  0.437229  1
  Zr  Zr15  1  0.437117  0.062998  0.062998  1
  Fe  Fe16  1  0.417909  0.860697  0.860697  1
  Fe  Fe17  1  0.860336  0.417861  0.860902  1
  Fe  Fe18  1  0.860336  0.860902  0.417861  1
  Fe  Fe19  1  0.860336  0.860902  0.860902  1
  Os  Os20  1  0.415651  0.745922  0.419214  1
  Os  Os21  1  0.415651  0.419214  0.745922  1
  Os  Os22  1  0.415651  0.419214  0.419214  1
  Pt  Pt23  1  0.745425  0.418192  0.418192  1
