# generated using pymatgen
data_KHfRhSe4
_symmetry_space_group_name_H-M   'P 1'
_cell_length_a   3.81530400
_cell_length_b   8.49972837
_cell_length_c   6.18536971
_cell_angle_alpha   70.98327270
_cell_angle_beta   90.00000000
_cell_angle_gamma   90.00000000
_symmetry_Int_Tables_number   1
_chemical_formula_structural   KHfRhSe4
_chemical_formula_sum   'K1 Hf1 Rh1 Se4'
_cell_volume   189.63838354
_cell_formula_units_Z   1
loop_
 _symmetry_equiv_pos_site_id
 _symmetry_equiv_pos_as_xyz
  1  'x, y, z'
loop_
 _atom_site_type_symbol
 _atom_site_label
 _atom_site_symmetry_multiplicity
 _atom_site_fract_x
 _atom_site_fract_y
 _atom_site_fract_z
 _atom_site_occupancy
  K  K0  1  0.500000  0.506352  0.659517  1
  Hf  Hf1  1  0.000000  0.991879  0.959711  1
  Rh  Rh2  1  0.500000  0.004660  0.527186  1
  Se  Se3  1  0.000000  0.843095  0.430751  1
  Se  Se4  1  0.500000  0.782549  0.934727  1
  Se  Se5  1  0.000000  0.203920  0.553702  1
  Se  Se6  1  0.500000  0.166665  0.101365  1
