# generated using pymatgen
data_PBr35
_symmetry_space_group_name_H-M   'P 1'
_cell_length_a   15.98197694
_cell_length_b   11.40028128
_cell_length_c   10.79188300
_cell_angle_alpha   88.81408278
_cell_angle_beta   66.02770512
_cell_angle_gamma   92.31545406
_symmetry_Int_Tables_number   1
_chemical_formula_structural   PBr35
_chemical_formula_sum   'P1 Br35'
_cell_volume   1793.71352310
_cell_formula_units_Z   1
loop_
 _symmetry_equiv_pos_site_id
 _symmetry_equiv_pos_as_xyz
  1  'x, y, z'
loop_
 _atom_site_type_symbol
 _atom_site_label
 _atom_site_symmetry_multiplicity
 _atom_site_fract_x
 _atom_site_fract_y
 _atom_site_fract_z
 _atom_site_occupancy
  P  P0  1  0.216920  0.429257  0.482595  1
  Br  Br1  1  0.516754  0.263579  0.522930  1
  Br  Br2  1  0.765246  0.578887  0.560063  1
  Br  Br3  1  0.489800  0.682782  0.743291  1
  Br  Br4  1  0.052155  0.886303  0.861892  1
  Br  Br5  1  0.889979  0.159943  0.011150  1
  Br  Br6  1  0.650278  0.320872  0.292404  1
  Br  Br7  1  0.619476  0.342434  0.834625  1
  Br  Br8  1  0.350372  0.755819  0.710870  1
  Br  Br9  1  0.349833  0.599174  0.179650  1
  Br  Br10  1  0.647958  0.139458  0.810005  1
  Br  Br11  1  0.909677  0.543257  0.359664  1
  Br  Br12  1  0.057977  0.951100  0.633793  1
  Br  Br13  1  0.898437  0.111514  0.245540  1
  Br  Br14  1  0.880572  0.213639  0.793897  1
  Br  Br15  1  0.645375  0.047591  0.232830  1
  Br  Br16  1  0.023039  0.818156  0.108396  1
  Br  Br17  1  0.368617  0.975587  0.727649  1
  Br  Br18  1  0.902870  0.322108  0.309203  1
  Br  Br19  1  0.873805  0.926062  0.711167  1
  Br  Br20  1  0.898280  0.659596  0.793946  1
  Br  Br21  1  0.315256  0.033988  0.287730  1
  Br  Br22  1  0.318254  0.319268  0.311651  1
  Br  Br23  1  0.624060  0.610654  0.787347  1
  Br  Br24  1  0.118326  0.411914  0.373297  1
  Br  Br25  1  0.707000  0.904908  0.794555  1
  Br  Br26  1  0.874746  0.450616  0.802391  1
  Br  Br27  1  0.483526  0.040929  0.262808  1
  Br  Br28  1  0.148942  0.296116  0.647990  1
  Br  Br29  1  0.674708  0.772435  0.267406  1
  Br  Br30  1  0.849216  0.797806  0.189269  1
  Br  Br31  1  0.384614  0.200395  0.744317  1
  Br  Br32  1  0.341335  0.484772  0.533384  1
  Br  Br33  1  0.656052  0.545118  0.272158  1
  Br  Br34  1  0.151854  0.600412  0.569837  1
  Br  Br35  1  0.344691  0.803549  0.230303  1
