# generated using pymatgen
data_Sm2YHo(B6Os)2
_symmetry_space_group_name_H-M   'P 1'
_cell_length_a   3.68250700
_cell_length_b   9.20988036
_cell_length_c   11.60915601
_cell_angle_alpha   90.01860255
_cell_angle_beta   90.00000000
_cell_angle_gamma   90.00000000
_symmetry_Int_Tables_number   1
_chemical_formula_structural   Sm2YHo(B6Os)2
_chemical_formula_sum   'Sm4 Y2 Ho2 B24 Os4'
_cell_volume   393.72971658
_cell_formula_units_Z   2
loop_
 _symmetry_equiv_pos_site_id
 _symmetry_equiv_pos_as_xyz
  1  'x, y, z'
loop_
 _atom_site_type_symbol
 _atom_site_label
 _atom_site_symmetry_multiplicity
 _atom_site_fract_x
 _atom_site_fract_y
 _atom_site_fract_z
 _atom_site_occupancy
  Sm  Sm0  1  0.000000  0.322643  0.413974  1
  Sm  Sm1  1  0.000000  0.677357  0.586026  1
  Sm  Sm2  1  0.000000  0.822318  0.085925  1
  Sm  Sm3  1  0.000000  0.177682  0.914075  1
  Y  Y4  1  0.000000  0.944084  0.372478  1
  Y  Y5  1  0.000000  0.055916  0.627522  1
  Ho  Ho6  1  0.000000  0.444107  0.127339  1
  Ho  Ho7  1  0.000000  0.555893  0.872661  1
  B  B8  1  0.500000  0.554970  0.431512  1
  B  B9  1  0.500000  0.445030  0.568488  1
  B  B10  1  0.500000  0.055177  0.068338  1
  B  B11  1  0.500000  0.944823  0.931662  1
  B  B12  1  0.500000  0.748123  0.418382  1
  B  B13  1  0.500000  0.251877  0.581618  1
  B  B14  1  0.500000  0.248932  0.081452  1
  B  B15  1  0.500000  0.751068  0.918548  1
  B  B16  1  0.500000  0.790165  0.266611  1
  B  B17  1  0.500000  0.209835  0.733389  1
  B  B18  1  0.500000  0.290908  0.233023  1
  B  B19  1  0.500000  0.709092  0.766977  1
  B  B20  1  0.500000  0.630794  0.185218  1
  B  B21  1  0.500000  0.369206  0.814782  1
  B  B22  1  0.500000  0.131470  0.314284  1
  B  B23  1  0.500000  0.868530  0.685716  1
  B  B24  1  0.500000  0.984983  0.213214  1
  B  B25  1  0.500000  0.015017  0.786786  1
  B  B26  1  0.500000  0.484504  0.286216  1
  B  B27  1  0.500000  0.515496  0.713784  1
  B  B28  1  0.500000  0.604895  0.028908  1
  B  B29  1  0.500000  0.395105  0.971092  1
  B  B30  1  0.500000  0.106190  0.470804  1
  B  B31  1  0.500000  0.893810  0.529196  1
  Os  Os32  1  0.000000  0.637595  0.320243  1
  Os  Os33  1  0.000000  0.362405  0.679757  1
  Os  Os34  1  0.000000  0.138572  0.179301  1
  Os  Os35  1  0.000000  0.861428  0.820699  1
