# generated using pymatgen
data_La3Pr(RhBr)2
_symmetry_space_group_name_H-M   'P 1'
_cell_length_a   4.16044100
_cell_length_b   4.16044160
_cell_length_c   16.01424900
_cell_angle_alpha   90.00000000
_cell_angle_beta   90.00000000
_cell_angle_gamma   120.00000319
_symmetry_Int_Tables_number   1
_chemical_formula_structural   La3Pr(RhBr)2
_chemical_formula_sum   'La3 Pr1 Rh2 Br2'
_cell_volume   240.05789432
_cell_formula_units_Z   1
loop_
 _symmetry_equiv_pos_site_id
 _symmetry_equiv_pos_as_xyz
  1  'x, y, z'
loop_
 _atom_site_type_symbol
 _atom_site_label
 _atom_site_symmetry_multiplicity
 _atom_site_fract_x
 _atom_site_fract_y
 _atom_site_fract_z
 _atom_site_occupancy
  La  La0  1  0.333333  0.666667  0.098593  1
  La  La1  1  0.666667  0.333333  0.597130  1
  La  La2  1  0.666667  0.333333  0.901486  1
  Pr  Pr3  1  0.333333  0.666667  0.401315  1
  Rh  Rh4  1  0.000000  0.000000  0.999952  1
  Rh  Rh5  1  0.000000  0.000000  0.501235  1
  Br  Br6  1  0.666667  0.333333  0.250265  1
  Br  Br7  1  0.333333  0.666667  0.750024  1
