# generated using pymatgen
data_Tb5Y11(In3Ni)2
_symmetry_space_group_name_H-M   'P 1'
_cell_length_a   10.51517500
_cell_length_b   10.50539631
_cell_length_c   6.99840045
_cell_angle_alpha   89.96418078
_cell_angle_beta   90.00000000
_cell_angle_gamma   120.03080569
_symmetry_Int_Tables_number   1
_chemical_formula_structural   Tb5Y11(In3Ni)2
_chemical_formula_sum   'Tb5 Y11 In6 Ni2'
_cell_volume   669.30390149
_cell_formula_units_Z   1
loop_
 _symmetry_equiv_pos_site_id
 _symmetry_equiv_pos_as_xyz
  1  'x, y, z'
loop_
 _atom_site_type_symbol
 _atom_site_label
 _atom_site_symmetry_multiplicity
 _atom_site_fract_x
 _atom_site_fract_y
 _atom_site_fract_z
 _atom_site_occupancy
  Tb  Tb0  1  0.176813  0.353626  0.772997  1
  Tb  Tb1  1  0.333423  0.666847  0.094622  1
  Tb  Tb2  1  0.666616  0.333231  0.594110  1
  Tb  Tb3  1  0.999997  0.999994  0.497117  1
  Tb  Tb4  1  0.000287  0.000573  0.997775  1
  Y  Y5  1  0.466530  0.532406  0.479537  1
  Y  Y6  1  0.065876  0.532406  0.479537  1
  Y  Y7  1  0.466782  0.933565  0.480162  1
  Y  Y8  1  0.533356  0.467447  0.979473  1
  Y  Y9  1  0.934092  0.467447  0.979473  1
  Y  Y10  1  0.533053  0.066106  0.980276  1
  Y  Y11  1  0.823441  0.176222  0.272417  1
  Y  Y12  1  0.352781  0.176222  0.272417  1
  Y  Y13  1  0.823488  0.646976  0.272677  1
  Y  Y14  1  0.176330  0.823858  0.772430  1
  Y  Y15  1  0.647528  0.823858  0.772430  1
  In  In16  1  0.163089  0.836852  0.238202  1
  In  In17  1  0.673764  0.836852  0.238202  1
  In  In18  1  0.162814  0.325628  0.238640  1
  In  In19  1  0.836605  0.163109  0.737985  1
  In  In20  1  0.326503  0.163109  0.737985  1
  In  In21  1  0.837071  0.674144  0.738317  1
  Ni  Ni22  1  0.333150  0.666302  0.709016  1
  Ni  Ni23  1  0.666612  0.333223  0.208754  1
