# generated using pymatgen
data_Tb3Pr9(DyPb2)8
_symmetry_space_group_name_H-M   'P 1'
_cell_length_a   8.33897236
_cell_length_b   8.40451791
_cell_length_c   15.93171300
_cell_angle_alpha   90.03010502
_cell_angle_beta   90.15712266
_cell_angle_gamma   90.20292146
_symmetry_Int_Tables_number   1
_chemical_formula_structural   Tb3Pr9(DyPb2)8
_chemical_formula_sum   'Tb3 Pr9 Dy8 Pb16'
_cell_volume   1116.56342232
_cell_formula_units_Z   1
loop_
 _symmetry_equiv_pos_site_id
 _symmetry_equiv_pos_as_xyz
  1  'x, y, z'
loop_
 _atom_site_type_symbol
 _atom_site_label
 _atom_site_symmetry_multiplicity
 _atom_site_fract_x
 _atom_site_fract_y
 _atom_site_fract_z
 _atom_site_occupancy
  Tb  Tb0  1  0.630510  0.159872  0.622142  1
  Tb  Tb1  1  0.130901  0.341074  0.878939  1
  Tb  Tb2  1  0.368886  0.841211  0.121892  1
  Pr  Pr3  1  0.128017  0.339030  0.618870  1
  Pr  Pr4  1  0.471593  0.678739  0.598707  1
  Pr  Pr5  1  0.973267  0.822488  0.903306  1
  Pr  Pr6  1  0.526891  0.322565  0.098171  1
  Pr  Pr7  1  0.028834  0.176314  0.399274  1
  Pr  Pr8  1  0.526768  0.323001  0.400678  1
  Pr  Pr9  1  0.026961  0.177304  0.098614  1
  Pr  Pr10  1  0.473965  0.678307  0.902548  1
  Pr  Pr11  1  0.971892  0.822825  0.598631  1
  Dy  Dy12  1  0.870003  0.657848  0.378333  1
  Dy  Dy13  1  0.371865  0.841804  0.375844  1
  Dy  Dy14  1  0.869158  0.659296  0.122075  1
  Dy  Dy15  1  0.630366  0.158633  0.879804  1
  Dy  Dy16  1  0.795349  0.495191  0.750990  1
  Dy  Dy17  1  0.297065  0.004266  0.750827  1
  Dy  Dy18  1  0.203929  0.505512  0.249085  1
  Dy  Dy19  1  0.704610  0.995277  0.250161  1
  Pb  Pb20  1  0.709681  0.961409  0.456165  1
  Pb  Pb21  1  0.207103  0.538814  0.043823  1
  Pb  Pb22  1  0.292431  0.038981  0.956795  1
  Pb  Pb23  1  0.783046  0.465441  0.542992  1
  Pb  Pb24  1  0.295320  0.031908  0.542167  1
  Pb  Pb25  1  0.792455  0.461225  0.957018  1
  Pb  Pb26  1  0.708525  0.960627  0.044179  1
  Pb  Pb27  1  0.209790  0.542358  0.452752  1
  Pb  Pb28  1  0.435005  0.370989  0.752164  1
  Pb  Pb29  1  0.931561  0.125265  0.752027  1
  Pb  Pb30  1  0.567240  0.628561  0.249513  1
  Pb  Pb31  1  0.065672  0.870514  0.250151  1
  Pb  Pb32  1  0.661792  0.851575  0.750911  1
  Pb  Pb33  1  0.161444  0.650835  0.751533  1
  Pb  Pb34  1  0.338934  0.149521  0.249379  1
  Pb  Pb35  1  0.839167  0.351424  0.249544  1
