# generated using pymatgen
data_Hf8CoSi16Ni11
_symmetry_space_group_name_H-M   'P 1'
_cell_length_a   5.19286500
_cell_length_b   6.86446426
_cell_length_c   13.62352868
_cell_angle_alpha   90.11261987
_cell_angle_beta   90.00000000
_cell_angle_gamma   90.00000000
_symmetry_Int_Tables_number   1
_chemical_formula_structural   Hf8CoSi16Ni11
_chemical_formula_sum   'Hf8 Co1 Si16 Ni11'
_cell_volume   485.62658342
_cell_formula_units_Z   1
loop_
 _symmetry_equiv_pos_site_id
 _symmetry_equiv_pos_as_xyz
  1  'x, y, z'
loop_
 _atom_site_type_symbol
 _atom_site_label
 _atom_site_symmetry_multiplicity
 _atom_site_fract_x
 _atom_site_fract_y
 _atom_site_fract_z
 _atom_site_occupancy
  Hf  Hf0  1  0.247124  0.402454  0.145749  1
  Hf  Hf1  1  0.747042  0.096038  0.145818  1
  Hf  Hf2  1  0.252939  0.097359  0.646033  1
  Hf  Hf3  1  0.752970  0.403675  0.645884  1
  Hf  Hf4  1  0.247124  0.597546  0.354251  1
  Hf  Hf5  1  0.747042  0.903962  0.354182  1
  Hf  Hf6  1  0.252939  0.902641  0.853967  1
  Hf  Hf7  1  0.752970  0.596325  0.854116  1
  Co  Co8  1  0.254251  0.500000  0.750000  1
  Si  Si9  1  0.246487  0.021121  0.068822  1
  Si  Si10  1  0.746572  0.524210  0.431605  1
  Si  Si11  1  0.753374  0.024144  0.569140  1
  Si  Si12  1  0.496623  0.750375  0.188674  1
  Si  Si13  1  0.005254  0.252285  0.810790  1
  Si  Si14  1  0.502016  0.251142  0.810728  1
  Si  Si15  1  0.246487  0.978879  0.431178  1
  Si  Si16  1  0.253365  0.520382  0.928599  1
  Si  Si17  1  0.996428  0.749486  0.188720  1
  Si  Si18  1  0.746572  0.475790  0.068395  1
  Si  Si19  1  0.253365  0.479618  0.571401  1
  Si  Si20  1  0.496623  0.249625  0.311326  1
  Si  Si21  1  0.005254  0.747715  0.689210  1
  Si  Si22  1  0.753374  0.975856  0.930860  1
  Si  Si23  1  0.502016  0.748858  0.689272  1
  Si  Si24  1  0.996428  0.250514  0.311280  1
  Ni  Ni25  1  0.999518  0.250032  0.979524  1
  Ni  Ni26  1  0.499883  0.250587  0.479783  1
  Ni  Ni27  1  0.754523  0.000000  0.750000  1
  Ni  Ni28  1  0.499400  0.245883  0.979551  1
  Ni  Ni29  1  0.745914  0.500000  0.250000  1
  Ni  Ni30  1  0.499400  0.754117  0.520449  1
  Ni  Ni31  1  0.000664  0.253975  0.479778  1
  Ni  Ni32  1  0.000664  0.746025  0.020222  1
  Ni  Ni33  1  0.245995  0.000000  0.250000  1
  Ni  Ni34  1  0.499883  0.749413  0.020217  1
  Ni  Ni35  1  0.999518  0.749968  0.520476  1
