# generated using pymatgen
data_CeThCoCuGe2
_symmetry_space_group_name_H-M   'P 1'
_cell_length_a   4.21765000
_cell_length_b   4.21765046
_cell_length_c   7.83311400
_cell_angle_alpha   90.00000000
_cell_angle_beta   90.00000000
_cell_angle_gamma   120.00001207
_symmetry_Int_Tables_number   1
_chemical_formula_structural   CeThCoCuGe2
_chemical_formula_sum   'Ce1 Th1 Co1 Cu1 Ge2'
_cell_volume   120.67189917
_cell_formula_units_Z   1
loop_
 _symmetry_equiv_pos_site_id
 _symmetry_equiv_pos_as_xyz
  1  'x, y, z'
loop_
 _atom_site_type_symbol
 _atom_site_label
 _atom_site_symmetry_multiplicity
 _atom_site_fract_x
 _atom_site_fract_y
 _atom_site_fract_z
 _atom_site_occupancy
  Ce  Ce0  1  0.000000  0.000000  0.017051  1
  Th  Th1  1  0.000000  0.000000  0.484620  1
  Co  Co2  1  0.666667  0.333333  0.241444  1
  Cu  Cu3  1  0.333333  0.666667  0.744967  1
  Ge  Ge4  1  0.333333  0.666667  0.249625  1
  Ge  Ge5  1  0.666667  0.333333  0.762294  1
