# generated using pymatgen
data_Th5MgRh10
_symmetry_space_group_name_H-M   'P 1'
_cell_length_a   5.95210154
_cell_length_b   5.95210322
_cell_length_c   8.97916800
_cell_angle_alpha   90.00000000
_cell_angle_beta   90.00000000
_cell_angle_gamma   102.26599333
_symmetry_Int_Tables_number   1
_chemical_formula_structural   Th5MgRh10
_chemical_formula_sum   'Th5 Mg1 Rh10'
_cell_volume   310.84782056
_cell_formula_units_Z   1
loop_
 _symmetry_equiv_pos_site_id
 _symmetry_equiv_pos_as_xyz
  1  'x, y, z'
loop_
 _atom_site_type_symbol
 _atom_site_label
 _atom_site_symmetry_multiplicity
 _atom_site_fract_x
 _atom_site_fract_y
 _atom_site_fract_z
 _atom_site_occupancy
  Th  Th0  1  0.385486  0.385486  0.250000  1
  Th  Th1  1  0.797549  0.217351  0.508231  1
  Th  Th2  1  0.217351  0.797549  0.991769  1
  Th  Th3  1  0.217351  0.797549  0.508231  1
  Th  Th4  1  0.797549  0.217351  0.991769  1
  Mg  Mg5  1  0.583717  0.583717  0.750000  1
  Rh  Rh6  1  0.714325  0.714325  0.021886  1
  Rh  Rh7  1  0.714325  0.714325  0.478114  1
  Rh  Rh8  1  0.306692  0.306692  0.945335  1
  Rh  Rh9  1  0.306692  0.306692  0.554665  1
  Rh  Rh10  1  0.508313  0.021457  0.750000  1
  Rh  Rh11  1  0.505057  0.939256  0.250000  1
  Rh  Rh12  1  0.989628  0.989628  0.250000  1
  Rh  Rh13  1  0.995252  0.995252  0.750000  1
  Rh  Rh14  1  0.021457  0.508313  0.750000  1
  Rh  Rh15  1  0.939256  0.505057  0.250000  1
