# generated using pymatgen
data_Sc5Tc4(P4Ir5)3
_symmetry_space_group_name_H-M   'P 1'
_cell_length_a   12.61464629
_cell_length_b   12.49903965
_cell_length_c   3.92595500
_cell_angle_alpha   90.00000000
_cell_angle_beta   90.00000000
_cell_angle_gamma   119.77094284
_symmetry_Int_Tables_number   1
_chemical_formula_structural   Sc5Tc4(P4Ir5)3
_chemical_formula_sum   'Sc5 Tc4 P12 Ir15'
_cell_volume   537.31066507
_cell_formula_units_Z   1
loop_
 _symmetry_equiv_pos_site_id
 _symmetry_equiv_pos_as_xyz
  1  'x, y, z'
loop_
 _atom_site_type_symbol
 _atom_site_label
 _atom_site_symmetry_multiplicity
 _atom_site_fract_x
 _atom_site_fract_y
 _atom_site_fract_z
 _atom_site_occupancy
  Sc  Sc0  1  0.331044  0.662556  0.000000  1
  Sc  Sc1  1  0.666870  0.333570  0.000000  1
  Sc  Sc2  1  0.821544  0.002237  0.500000  1
  Sc  Sc3  1  0.000280  0.819310  0.500000  1
  Sc  Sc4  1  0.183266  0.185747  0.500000  1
  Tc  Tc5  1  0.454410  0.999029  0.000000  1
  Tc  Tc6  1  0.995507  0.452789  0.000000  1
  Tc  Tc7  1  0.548769  0.543797  0.000000  1
  Tc  Tc8  1  0.178137  0.376922  0.000000  1
  P  P9  1  0.176511  0.002313  0.000000  1
  P  P10  1  0.004975  0.181169  0.000000  1
  P  P11  1  0.824611  0.826479  0.000000  1
  P  P12  1  0.171702  0.480298  0.500000  1
  P  P13  1  0.515922  0.684297  0.500000  1
  P  P14  1  0.313512  0.827235  0.500000  1
  P  P15  1  0.684812  0.515173  0.500000  1
  P  P16  1  0.828750  0.314584  0.500000  1
  P  P17  1  0.484445  0.168449  0.500000  1
  P  P18  1  0.639371  0.999345  0.000000  1
  P  P19  1  0.000692  0.640525  0.000000  1
  P  P20  1  0.356271  0.361871  0.000000  1
  Ir  Ir21  1  0.362621  0.491480  0.500000  1
  Ir  Ir22  1  0.506920  0.864514  0.500000  1
  Ir  Ir23  1  0.133054  0.639566  0.500000  1
  Ir  Ir24  1  0.865089  0.509168  0.500000  1
  Ir  Ir25  1  0.641120  0.132722  0.500000  1
  Ir  Ir26  1  0.494252  0.356446  0.500000  1
  Ir  Ir27  1  0.629012  0.808558  0.000000  1
  Ir  Ir28  1  0.191546  0.820159  0.000000  1
  Ir  Ir29  1  0.811343  0.631983  0.000000  1
  Ir  Ir30  1  0.816492  0.189520  0.000000  1
  Ir  Ir31  1  0.371389  0.180610  0.000000  1
  Ir  Ir32  1  0.288281  0.999847  0.500000  1
  Ir  Ir33  1  0.994160  0.284170  0.500000  1
  Ir  Ir34  1  0.712987  0.713182  0.500000  1
  Ir  Ir35  1  0.000332  0.000383  0.000000  1
