# generated using pymatgen
data_KCo12AgO24
_symmetry_space_group_name_H-M   'P 1'
_cell_length_a   7.92804172
_cell_length_b   7.92804229
_cell_length_c   8.03988100
_cell_angle_alpha   108.44024257
_cell_angle_beta   105.38863634
_cell_angle_gamma   114.21199260
_symmetry_Int_Tables_number   1
_chemical_formula_structural   KCo12AgO24
_chemical_formula_sum   'K1 Co12 Ag1 O24'
_cell_volume   388.97314993
_cell_formula_units_Z   1
loop_
 _symmetry_equiv_pos_site_id
 _symmetry_equiv_pos_as_xyz
  1  'x, y, z'
loop_
 _atom_site_type_symbol
 _atom_site_label
 _atom_site_symmetry_multiplicity
 _atom_site_fract_x
 _atom_site_fract_y
 _atom_site_fract_z
 _atom_site_occupancy
  K  K0  1  0.663007  0.663007  0.000000  1
  Co  Co1  1  0.811607  0.996349  0.483547  1
  Co  Co2  1  0.474921  0.659360  0.476263  1
  Co  Co3  1  0.141394  0.325812  0.476287  1
  Co  Co4  1  0.849524  0.665107  0.523713  1
  Co  Co5  1  0.512802  0.328060  0.516453  1
  Co  Co6  1  0.183097  0.998656  0.523737  1
  Co  Co7  1  0.993328  0.481679  0.817455  1
  Co  Co8  1  0.660253  0.148677  0.817478  1
  Co  Co9  1  0.323866  0.817281  0.816601  1
  Co  Co10  1  0.664225  0.175875  0.182545  1
  Co  Co11  1  0.331199  0.842775  0.182522  1
  Co  Co12  1  0.000680  0.507266  0.183399  1
  Ag  Ag13  1  0.162832  0.162832  0.000000  1
  O  O14  1  0.678713  0.369994  0.389423  1
  O  O15  1  0.344014  0.035128  0.389515  1
  O  O16  1  0.012250  0.705774  0.393503  1
  O  O17  1  0.980569  0.289289  0.610577  1
  O  O18  1  0.645612  0.954499  0.610485  1
  O  O19  1  0.312272  0.618747  0.606497  1
  O  O20  1  0.953636  0.318981  0.283501  1
  O  O21  1  0.618624  0.985910  0.280010  1
  O  O22  1  0.288999  0.654171  0.283326  1
  O  O23  1  0.705898  0.338612  0.719990  1
  O  O24  1  0.370845  0.005673  0.716674  1
  O  O25  1  0.035479  0.670133  0.716499  1
  O  O26  1  0.704317  0.345188  0.056468  1
  O  O27  1  0.363863  0.015434  0.054770  1
  O  O28  1  0.035860  0.676642  0.056429  1
  O  O29  1  0.960665  0.309092  0.945230  1
  O  O30  1  0.620213  0.979431  0.943571  1
  O  O31  1  0.288720  0.647849  0.943532  1
  O  O32  1  0.007860  0.970211  0.653593  1
  O  O33  1  0.335478  0.298449  0.640553  1
  O  O34  1  0.666551  0.629522  0.640540  1
  O  O35  1  0.316619  0.354266  0.346407  1
  O  O36  1  0.657898  0.694925  0.359447  1
  O  O37  1  0.988982  0.026012  0.359460  1
