# generated using pymatgen
data_Th2CdHgN2
_symmetry_space_group_name_H-M   'P 1'
_cell_length_a   4.11016100
_cell_length_b   4.11016100
_cell_length_c   8.21337000
_cell_angle_alpha   90.00000000
_cell_angle_beta   90.00000000
_cell_angle_gamma   90.00000000
_symmetry_Int_Tables_number   1
_chemical_formula_structural   Th2CdHgN2
_chemical_formula_sum   'Th2 Cd1 Hg1 N2'
_cell_volume   138.75193733
_cell_formula_units_Z   1
loop_
 _symmetry_equiv_pos_site_id
 _symmetry_equiv_pos_as_xyz
  1  'x, y, z'
loop_
 _atom_site_type_symbol
 _atom_site_label
 _atom_site_symmetry_multiplicity
 _atom_site_fract_x
 _atom_site_fract_y
 _atom_site_fract_z
 _atom_site_occupancy
  Th  Th0  1  0.000000  0.500000  0.863643  1
  Th  Th1  1  0.500000  0.000000  0.138443  1
  Cd  Cd2  1  0.500000  0.000000  0.586279  1
  Hg  Hg3  1  0.000000  0.500000  0.409091  1
  N  N4  1  0.000000  0.000000  0.001272  1
  N  N5  1  0.500000  0.500000  0.001272  1
