# generated using pymatgen
data_Ho6ScVO12
_symmetry_space_group_name_H-M   'P 1'
_cell_length_a   6.54587810
_cell_length_b   6.54587821
_cell_length_c   6.54587849
_cell_angle_alpha   92.44800663
_cell_angle_beta   92.44801088
_cell_angle_gamma   92.44801205
_symmetry_Int_Tables_number   1
_chemical_formula_structural   Ho6ScVO12
_chemical_formula_sum   'Ho6 Sc1 V1 O12'
_cell_volume   279.69068126
_cell_formula_units_Z   1
loop_
 _symmetry_equiv_pos_site_id
 _symmetry_equiv_pos_as_xyz
  1  'x, y, z'
loop_
 _atom_site_type_symbol
 _atom_site_label
 _atom_site_symmetry_multiplicity
 _atom_site_fract_x
 _atom_site_fract_y
 _atom_site_fract_z
 _atom_site_occupancy
  Ho  Ho0  1  0.744131  0.928704  0.437420  1
  Ho  Ho1  1  0.928704  0.437420  0.744131  1
  Ho  Ho2  1  0.437420  0.744131  0.928704  1
  Ho  Ho3  1  0.255869  0.071296  0.562580  1
  Ho  Ho4  1  0.071296  0.562580  0.255869  1
  Ho  Ho5  1  0.562580  0.255869  0.071296  1
  Sc  Sc6  1  0.000000  0.000000  0.000000  1
  V  V7  1  0.500000  0.500000  0.500000  1
  O  O8  1  0.590772  0.462304  0.802355  1
  O  O9  1  0.462304  0.802355  0.590772  1
  O  O10  1  0.802355  0.590772  0.462304  1
  O  O11  1  0.409228  0.537696  0.197645  1
  O  O12  1  0.537696  0.197645  0.409228  1
  O  O13  1  0.197645  0.409228  0.537696  1
  O  O14  1  0.069492  0.913845  0.307835  1
  O  O15  1  0.913845  0.307835  0.069492  1
  O  O16  1  0.692165  0.930508  0.086155  1
  O  O17  1  0.086155  0.692165  0.930508  1
  O  O18  1  0.930508  0.086155  0.692165  1
  O  O19  1  0.307835  0.069492  0.913845  1
