# generated using pymatgen
data_NaSb(SeO4)3
_symmetry_space_group_name_H-M   'P 1'
_cell_length_a   9.00216622
_cell_length_b   9.23415570
_cell_length_c   9.09893200
_cell_angle_alpha   109.80467108
_cell_angle_beta   107.24307213
_cell_angle_gamma   108.60774932
_symmetry_Int_Tables_number   1
_chemical_formula_structural   NaSb(SeO4)3
_chemical_formula_sum   'Na2 Sb2 Se6 O24'
_cell_volume   601.02925313
_cell_formula_units_Z   2
loop_
 _symmetry_equiv_pos_site_id
 _symmetry_equiv_pos_as_xyz
  1  'x, y, z'
loop_
 _atom_site_type_symbol
 _atom_site_label
 _atom_site_symmetry_multiplicity
 _atom_site_fract_x
 _atom_site_fract_y
 _atom_site_fract_z
 _atom_site_occupancy
  Na  Na0  1  0.830661  0.407149  0.219918  1
  Na  Na1  1  0.774370  0.151585  0.613064  1
  Sb  Sb2  1  0.023970  0.980237  0.996670  1
  Sb  Sb3  1  0.482032  0.514491  0.507911  1
  Se  Se4  1  0.584928  0.922693  0.790264  1
  Se  Se5  1  0.206739  0.416051  0.090113  1
  Se  Se6  1  0.088548  0.208874  0.429687  1
  Se  Se7  1  0.897585  0.773042  0.559208  1
  Se  Se8  1  0.758425  0.551315  0.888625  1
  Se  Se9  1  0.465846  0.127877  0.252370  1
  O  O10  1  0.042695  0.852239  0.778644  1
  O  O11  1  0.244219  0.974598  0.124982  1
  O  O12  1  0.991173  0.692719  0.450411  1
  O  O13  1  0.554725  0.023354  0.325475  1
  O  O14  1  0.062803  0.441843  0.155708  1
  O  O15  1  0.521664  0.886382  0.928378  1
  O  O16  1  0.473753  0.741815  0.579489  1
  O  O17  1  0.249324  0.493068  0.964318  1
  O  O18  1  0.241765  0.421043  0.494572  1
  O  O19  1  0.149526  0.193337  0.978905  1
  O  O20  1  0.409293  0.494401  0.267831  1
  O  O21  1  0.830865  0.905762  0.519178  1
  O  O22  1  0.171406  0.099222  0.498607  1
  O  O23  1  0.576750  0.560186  0.758946  1
  O  O24  1  0.909709  0.772137  0.025579  1
  O  O25  1  0.724353  0.587181  0.523432  1
  O  O26  1  0.700319  0.488935  0.018208  1
  O  O27  1  0.457001  0.272291  0.430416  1
  O  O28  1  0.543387  0.228508  0.154890  1
  O  O29  1  0.834510  0.449003  0.771872  1
  O  O30  1  0.587581  0.084212  0.753363  1
  O  O31  1  0.936602  0.246302  0.471404  1
  O  O32  1  0.797278  0.945174  0.830860  1
  O  O33  1  0.995487  0.121461  0.198926  1
