# generated using pymatgen
data_Tb8YHo11Pb16
_symmetry_space_group_name_H-M   'P 1'
_cell_length_a   8.20649504
_cell_length_b   8.28926204
_cell_length_c   15.64330900
_cell_angle_alpha   89.99849215
_cell_angle_beta   90.00135108
_cell_angle_gamma   89.98819753
_symmetry_Int_Tables_number   1
_chemical_formula_structural   Tb8YHo11Pb16
_chemical_formula_sum   'Tb8 Y1 Ho11 Pb16'
_cell_volume   1064.14839684
_cell_formula_units_Z   1
loop_
 _symmetry_equiv_pos_site_id
 _symmetry_equiv_pos_as_xyz
  1  'x, y, z'
loop_
 _atom_site_type_symbol
 _atom_site_label
 _atom_site_symmetry_multiplicity
 _atom_site_fract_x
 _atom_site_fract_y
 _atom_site_fract_z
 _atom_site_occupancy
  Tb  Tb0  1  0.534134  0.322917  0.899910  1
  Tb  Tb1  1  0.034125  0.177112  0.600078  1
  Tb  Tb2  1  0.465857  0.677108  0.399913  1
  Tb  Tb3  1  0.965885  0.822923  0.100087  1
  Tb  Tb4  1  0.465871  0.677042  0.100182  1
  Tb  Tb5  1  0.965846  0.822899  0.399910  1
  Tb  Tb6  1  0.534144  0.322911  0.600086  1
  Tb  Tb7  1  0.034096  0.177156  0.899925  1
  Y  Y8  1  0.376668  0.840764  0.879450  1
  Ho  Ho9  1  0.876696  0.659272  0.620542  1
  Ho  Ho10  1  0.623321  0.159286  0.379447  1
  Ho  Ho11  1  0.123313  0.340723  0.120589  1
  Ho  Ho12  1  0.623317  0.159263  0.120551  1
  Ho  Ho13  1  0.123322  0.340723  0.379447  1
  Ho  Ho14  1  0.376693  0.840736  0.620544  1
  Ho  Ho15  1  0.876714  0.659310  0.879416  1
  Ho  Ho16  1  0.208221  0.504076  0.749979  1
  Ho  Ho17  1  0.708405  0.995867  0.749956  1
  Ho  Ho18  1  0.791728  0.495820  0.250002  1
  Ho  Ho19  1  0.291739  0.004215  0.249995  1
  Pb  Pb20  1  0.281775  0.033746  0.042936  1
  Pb  Pb21  1  0.781883  0.466423  0.457249  1
  Pb  Pb22  1  0.718107  0.966429  0.542744  1
  Pb  Pb23  1  0.217944  0.533213  0.957309  1
  Pb  Pb24  1  0.718378  0.966518  0.957284  1
  Pb  Pb25  1  0.218090  0.533566  0.542748  1
  Pb  Pb26  1  0.281889  0.033577  0.457248  1
  Pb  Pb27  1  0.781889  0.466435  0.042767  1
  Pb  Pb28  1  0.571937  0.627026  0.749847  1
  Pb  Pb29  1  0.071620  0.872836  0.749907  1
  Pb  Pb30  1  0.428214  0.372838  0.250011  1
  Pb  Pb31  1  0.928197  0.127160  0.250019  1
  Pb  Pb32  1  0.344943  0.151755  0.749921  1
  Pb  Pb33  1  0.844936  0.348376  0.749983  1
  Pb  Pb34  1  0.655055  0.848339  0.250012  1
  Pb  Pb35  1  0.155047  0.651641  0.250010  1
