# generated using pymatgen
data_TbTm7Ga3Rh
_symmetry_space_group_name_H-M   'P 1'
_cell_length_a   9.95034100
_cell_length_b   9.95034118
_cell_length_c   6.94597900
_cell_angle_alpha   90.00000000
_cell_angle_beta   90.00000000
_cell_angle_gamma   120.00000273
_symmetry_Int_Tables_number   1
_chemical_formula_structural   TbTm7Ga3Rh
_chemical_formula_sum   'Tb2 Tm14 Ga6 Rh2'
_cell_volume   595.57988591
_cell_formula_units_Z   2
loop_
 _symmetry_equiv_pos_site_id
 _symmetry_equiv_pos_as_xyz
  1  'x, y, z'
loop_
 _atom_site_type_symbol
 _atom_site_label
 _atom_site_symmetry_multiplicity
 _atom_site_fract_x
 _atom_site_fract_y
 _atom_site_fract_z
 _atom_site_occupancy
  Tb  Tb0  1  0.000000  0.000000  0.767919  1
  Tb  Tb1  1  0.000000  0.000000  0.267919  1
  Tm  Tm2  1  0.827967  0.655934  0.487945  1
  Tm  Tm3  1  0.344066  0.172033  0.487945  1
  Tm  Tm4  1  0.827967  0.172033  0.487945  1
  Tm  Tm5  1  0.172033  0.344066  0.987945  1
  Tm  Tm6  1  0.655934  0.827967  0.987945  1
  Tm  Tm7  1  0.172033  0.827967  0.987945  1
  Tm  Tm8  1  0.666667  0.333333  0.165027  1
  Tm  Tm9  1  0.333333  0.666667  0.665027  1
  Tm  Tm10  1  0.534994  0.069988  0.795693  1
  Tm  Tm11  1  0.930012  0.465006  0.795693  1
  Tm  Tm12  1  0.534994  0.465006  0.795693  1
  Tm  Tm13  1  0.465006  0.930012  0.295693  1
  Tm  Tm14  1  0.069988  0.534994  0.295693  1
  Tm  Tm15  1  0.465006  0.534994  0.295693  1
  Ga  Ga16  1  0.836111  0.672222  0.041058  1
  Ga  Ga17  1  0.327778  0.163889  0.041058  1
  Ga  Ga18  1  0.836111  0.163889  0.041058  1
  Ga  Ga19  1  0.163889  0.327778  0.541058  1
  Ga  Ga20  1  0.672222  0.836111  0.541058  1
  Ga  Ga21  1  0.163889  0.836111  0.541058  1
  Rh  Rh22  1  0.666667  0.333333  0.556004  1
  Rh  Rh23  1  0.333333  0.666667  0.056004  1
