# generated using pymatgen
data_PrNd3Sc4Mn4O20
_symmetry_space_group_name_H-M   'P 1'
_cell_length_a   5.91666100
_cell_length_b   7.69413416
_cell_length_c   8.90113334
_cell_angle_alpha   90.06287435
_cell_angle_beta   90.00000000
_cell_angle_gamma   90.00000000
_symmetry_Int_Tables_number   1
_chemical_formula_structural   PrNd3Sc4Mn4O20
_chemical_formula_sum   'Pr1 Nd3 Sc4 Mn4 O20'
_cell_volume   405.21124288
_cell_formula_units_Z   1
loop_
 _symmetry_equiv_pos_site_id
 _symmetry_equiv_pos_as_xyz
  1  'x, y, z'
loop_
 _atom_site_type_symbol
 _atom_site_label
 _atom_site_symmetry_multiplicity
 _atom_site_fract_x
 _atom_site_fract_y
 _atom_site_fract_z
 _atom_site_occupancy
  Pr  Pr0  1  0.000000  0.135447  0.169217  1
  Nd  Nd1  1  0.000000  0.364690  0.669103  1
  Nd  Nd2  1  0.000000  0.635574  0.330969  1
  Nd  Nd3  1  0.000000  0.864078  0.830474  1
  Sc  Sc4  1  0.500000  0.114128  0.853582  1
  Sc  Sc5  1  0.500000  0.885016  0.145885  1
  Sc  Sc6  1  0.500000  0.614375  0.646219  1
  Sc  Sc7  1  0.500000  0.386033  0.354310  1
  Mn  Mn8  1  0.248764  0.500435  0.999871  1
  Mn  Mn9  1  0.751198  0.999870  0.500252  1
  Mn  Mn10  1  0.751236  0.500435  0.999871  1
  Mn  Mn11  1  0.248802  0.999870  0.500252  1
  O  O12  1  0.241458  0.899128  0.301692  1
  O  O13  1  0.240624  0.099830  0.698843  1
  O  O14  1  0.758650  0.402314  0.198958  1
  O  O15  1  0.759246  0.599843  0.801028  1
  O  O16  1  0.759376  0.099830  0.698843  1
  O  O17  1  0.758542  0.899128  0.301692  1
  O  O18  1  0.240754  0.599843  0.801028  1
  O  O19  1  0.241350  0.402314  0.198958  1
  O  O20  1  0.500000  0.355005  0.934479  1
  O  O21  1  0.500000  0.645036  0.064911  1
  O  O22  1  0.500000  0.855087  0.566023  1
  O  O23  1  0.500000  0.144875  0.434272  1
  O  O24  1  0.266781  0.998483  0.999028  1
  O  O25  1  0.734141  0.499930  0.500252  1
  O  O26  1  0.733219  0.998483  0.999028  1
  O  O27  1  0.265859  0.499930  0.500252  1
  O  O28  1  0.000000  0.154189  0.446238  1
  O  O29  1  0.000000  0.845386  0.555139  1
  O  O30  1  0.000000  0.654999  0.054838  1
  O  O31  1  0.000000  0.346418  0.944493  1
