# generated using pymatgen
data_YEr4InBi2
_symmetry_space_group_name_H-M   'P 1'
_cell_length_a   9.02070772
_cell_length_b   9.03285284
_cell_length_c   6.47512300
_cell_angle_alpha   90.00000000
_cell_angle_beta   90.00000000
_cell_angle_gamma   119.62346626
_symmetry_Int_Tables_number   1
_chemical_formula_structural   YEr4InBi2
_chemical_formula_sum   'Y2 Er8 In2 Bi4'
_cell_volume   458.64802699
_cell_formula_units_Z   2
loop_
 _symmetry_equiv_pos_site_id
 _symmetry_equiv_pos_as_xyz
  1  'x, y, z'
loop_
 _atom_site_type_symbol
 _atom_site_label
 _atom_site_symmetry_multiplicity
 _atom_site_fract_x
 _atom_site_fract_y
 _atom_site_fract_z
 _atom_site_occupancy
  Y  Y0  1  0.759950  0.759817  0.750000  1
  Y  Y1  1  0.234506  0.997500  0.750000  1
  Er  Er2  1  0.668752  0.328826  0.003989  1
  Er  Er3  1  0.329475  0.669569  0.004125  1
  Er  Er4  1  0.329475  0.669569  0.495875  1
  Er  Er5  1  0.668752  0.328826  0.496011  1
  Er  Er6  1  0.997271  0.235093  0.750000  1
  Er  Er7  1  0.234627  0.235134  0.250000  1
  Er  Er8  1  0.766715  0.009537  0.250000  1
  Er  Er9  1  0.009572  0.765555  0.250000  1
  In  In10  1  0.397610  0.002618  0.250000  1
  In  In11  1  0.001728  0.396495  0.250000  1
  Bi  Bi12  1  0.392168  0.393235  0.750000  1
  Bi  Bi13  1  0.602615  0.997477  0.750000  1
  Bi  Bi14  1  0.996852  0.600883  0.750000  1
  Bi  Bi15  1  0.609932  0.609868  0.250000  1
