# generated using pymatgen
data_Th10ZnSn2Sb5
_symmetry_space_group_name_H-M   'P 1'
_cell_length_a   9.59049527
_cell_length_b   9.58779553
_cell_length_c   6.54295987
_cell_angle_alpha   89.97048803
_cell_angle_beta   90.05900733
_cell_angle_gamma   120.00931505
_symmetry_Int_Tables_number   1
_chemical_formula_structural   Th10ZnSn2Sb5
_chemical_formula_sum   'Th10 Zn1 Sn2 Sb5'
_cell_volume   520.98315859
_cell_formula_units_Z   1
loop_
 _symmetry_equiv_pos_site_id
 _symmetry_equiv_pos_as_xyz
  1  'x, y, z'
loop_
 _atom_site_type_symbol
 _atom_site_label
 _atom_site_symmetry_multiplicity
 _atom_site_fract_x
 _atom_site_fract_y
 _atom_site_fract_z
 _atom_site_occupancy
  Th  Th0  1  0.000267  0.724380  0.757909  1
  Th  Th1  1  0.275887  0.275620  0.757909  1
  Th  Th2  1  0.333104  0.667057  0.499247  1
  Th  Th3  1  0.666048  0.332943  0.499247  1
  Th  Th4  1  0.723201  0.723475  0.241600  1
  Th  Th5  1  0.724056  0.000000  0.757708  1
  Th  Th6  1  0.999726  0.276525  0.241600  1
  Th  Th7  1  0.278084  0.000000  0.242346  1
  Th  Th8  1  0.333335  0.667098  0.000384  1
  Th  Th9  1  0.666238  0.332902  0.000384  1
  Zn  Zn10  1  0.000702  0.000000  0.001388  1
  Sn  Sn11  1  0.379574  0.379813  0.250975  1
  Sn  Sn12  1  0.999761  0.620187  0.250975  1
  Sb  Sb13  1  0.618509  0.617859  0.749352  1
  Sb  Sb14  1  0.000651  0.382141  0.749352  1
  Sb  Sb15  1  0.381577  0.000000  0.749391  1
  Sb  Sb16  1  0.619102  0.000000  0.250765  1
  Sb  Sb17  1  0.000180  0.000000  0.499467  1
