# generated using pymatgen
data_Tb19SmSn13Sb3
_symmetry_space_group_name_H-M   'P 1'
_cell_length_a   8.13002919
_cell_length_b   8.22070853
_cell_length_c   15.52338900
_cell_angle_alpha   89.85979760
_cell_angle_beta   90.84071057
_cell_angle_gamma   90.19561281
_symmetry_Int_Tables_number   1
_chemical_formula_structural   Tb19SmSn13Sb3
_chemical_formula_sum   'Tb19 Sm1 Sn13 Sb3'
_cell_volume   1037.37878693
_cell_formula_units_Z   1
loop_
 _symmetry_equiv_pos_site_id
 _symmetry_equiv_pos_as_xyz
  1  'x, y, z'
loop_
 _atom_site_type_symbol
 _atom_site_label
 _atom_site_symmetry_multiplicity
 _atom_site_fract_x
 _atom_site_fract_y
 _atom_site_fract_z
 _atom_site_occupancy
  Tb  Tb0  1  0.038084  0.170672  0.395508  1
  Tb  Tb1  1  0.370237  0.836371  0.122341  1
  Tb  Tb2  1  0.124020  0.338282  0.619609  1
  Tb  Tb3  1  0.476343  0.678400  0.900823  1
  Tb  Tb4  1  0.870298  0.662410  0.122883  1
  Tb  Tb5  1  0.129593  0.337360  0.877026  1
  Tb  Tb6  1  0.203223  0.500665  0.246961  1
  Tb  Tb7  1  0.703412  0.999183  0.246493  1
  Tb  Tb8  1  0.464078  0.676830  0.604369  1
  Tb  Tb9  1  0.296948  0.001251  0.751295  1
  Tb  Tb10  1  0.623034  0.160683  0.620565  1
  Tb  Tb11  1  0.796977  0.499525  0.753124  1
  Tb  Tb12  1  0.876919  0.660541  0.380461  1
  Tb  Tb13  1  0.023114  0.178363  0.098456  1
  Tb  Tb14  1  0.976269  0.821959  0.900643  1
  Tb  Tb15  1  0.629713  0.162933  0.877031  1
  Tb  Tb16  1  0.524284  0.322206  0.099223  1
  Tb  Tb17  1  0.376599  0.839085  0.379830  1
  Tb  Tb18  1  0.967579  0.828210  0.603966  1
  Sm  Sm19  1  0.530188  0.320383  0.399146  1
  Sn  Sn20  1  0.664076  0.854631  0.750128  1
  Sn  Sn21  1  0.290082  0.036859  0.958429  1
  Sn  Sn22  1  0.836941  0.354289  0.250571  1
  Sn  Sn23  1  0.790480  0.463961  0.958727  1
  Sn  Sn24  1  0.570632  0.622141  0.252989  1
  Sn  Sn25  1  0.209577  0.535448  0.041330  1
  Sn  Sn26  1  0.429418  0.378422  0.747680  1
  Sn  Sn27  1  0.163855  0.645629  0.749897  1
  Sn  Sn28  1  0.929890  0.122208  0.747863  1
  Sn  Sn29  1  0.280707  0.031022  0.543063  1
  Sn  Sn30  1  0.709438  0.962951  0.041038  1
  Sn  Sn31  1  0.335314  0.144171  0.248642  1
  Sn  Sn32  1  0.069972  0.877403  0.252082  1
  Sb  Sb33  1  0.778273  0.475360  0.546584  1
  Sb  Sb34  1  0.722182  0.969827  0.455858  1
  Sb  Sb35  1  0.218249  0.530363  0.455363  1
