# generated using pymatgen
data_AlV2SiOs4
_symmetry_space_group_name_H-M   'P 1'
_cell_length_a   4.24194800
_cell_length_b   4.24152037
_cell_length_c   7.35395371
_cell_angle_alpha   73.22806997
_cell_angle_beta   89.99991785
_cell_angle_gamma   120.00350756
_symmetry_Int_Tables_number   1
_chemical_formula_structural   AlV2SiOs4
_chemical_formula_sum   'Al1 V2 Si1 Os4'
_cell_volume   108.03535029
_cell_formula_units_Z   1
loop_
 _symmetry_equiv_pos_site_id
 _symmetry_equiv_pos_as_xyz
  1  'x, y, z'
loop_
 _atom_site_type_symbol
 _atom_site_label
 _atom_site_symmetry_multiplicity
 _atom_site_fract_x
 _atom_site_fract_y
 _atom_site_fract_z
 _atom_site_occupancy
  Al  Al0  1  0.124988  0.249972  0.625039  1
  V  V1  1  0.376950  0.753921  0.869258  1
  V  V2  1  0.873098  0.746180  0.380617  1
  Si  Si3  1  0.624991  0.249978  0.125031  1
  Os  Os4  1  0.997994  0.995990  0.006102  1
  Os  Os5  1  0.747922  0.495851  0.756231  1
  Os  Os6  1  0.502072  0.004133  0.493791  1
  Os  Os7  1  0.251992  0.503975  0.243931  1
