# generated using pymatgen
data_TbY7Tc3B24Ru
_symmetry_space_group_name_H-M   'P 1'
_cell_length_a   3.68682600
_cell_length_b   9.17430131
_cell_length_c   11.56569805
_cell_angle_alpha   89.92806419
_cell_angle_beta   90.00000000
_cell_angle_gamma   90.00000000
_symmetry_Int_Tables_number   1
_chemical_formula_structural   TbY7Tc3B24Ru
_chemical_formula_sum   'Tb1 Y7 Tc3 B24 Ru1'
_cell_volume   391.19847085
_cell_formula_units_Z   1
loop_
 _symmetry_equiv_pos_site_id
 _symmetry_equiv_pos_as_xyz
  1  'x, y, z'
loop_
 _atom_site_type_symbol
 _atom_site_label
 _atom_site_symmetry_multiplicity
 _atom_site_fract_x
 _atom_site_fract_y
 _atom_site_fract_z
 _atom_site_occupancy
  Tb  Tb0  1  0.000000  0.323733  0.414030  1
  Y  Y1  1  0.000000  0.675025  0.584092  1
  Y  Y2  1  0.000000  0.823184  0.087195  1
  Y  Y3  1  0.000000  0.177889  0.914526  1
  Y  Y4  1  0.000000  0.942536  0.370328  1
  Y  Y5  1  0.000000  0.057912  0.630637  1
  Y  Y6  1  0.000000  0.442940  0.129863  1
  Y  Y7  1  0.000000  0.557819  0.869216  1
  Tc  Tc8  1  0.000000  0.638271  0.320611  1
  Tc  Tc9  1  0.000000  0.361785  0.679932  1
  Tc  Tc10  1  0.000000  0.137832  0.178199  1
  B  B11  1  0.500000  0.553025  0.432634  1
  B  B12  1  0.500000  0.446555  0.567040  1
  B  B13  1  0.500000  0.053076  0.066994  1
  B  B14  1  0.500000  0.946133  0.932682  1
  B  B15  1  0.500000  0.748071  0.418552  1
  B  B16  1  0.500000  0.251342  0.581766  1
  B  B17  1  0.500000  0.248682  0.081418  1
  B  B18  1  0.500000  0.751992  0.918283  1
  B  B19  1  0.500000  0.791446  0.265580  1
  B  B20  1  0.500000  0.208967  0.735109  1
  B  B21  1  0.500000  0.291306  0.234489  1
  B  B22  1  0.500000  0.709683  0.765311  1
  B  B23  1  0.500000  0.631200  0.185751  1
  B  B24  1  0.500000  0.368952  0.814604  1
  B  B25  1  0.500000  0.130596  0.313818  1
  B  B26  1  0.500000  0.868728  0.686028  1
  B  B27  1  0.500000  0.981999  0.211706  1
  B  B28  1  0.500000  0.016504  0.788537  1
  B  B29  1  0.500000  0.482408  0.288003  1
  B  B30  1  0.500000  0.517403  0.711502  1
  B  B31  1  0.500000  0.602841  0.028278  1
  B  B32  1  0.500000  0.398852  0.971368  1
  B  B33  1  0.500000  0.101934  0.471912  1
  B  B34  1  0.500000  0.897617  0.528961  1
  Ru  Ru35  1  0.000000  0.861760  0.821045  1
