# generated using pymatgen
data_La3Sm(CuP2)4
_symmetry_space_group_name_H-M   'P 1'
_cell_length_a   3.80203200
_cell_length_b   3.92039034
_cell_length_c   20.24522272
_cell_angle_alpha   89.89942116
_cell_angle_beta   90.00000000
_cell_angle_gamma   90.00000000
_symmetry_Int_Tables_number   1
_chemical_formula_structural   La3Sm(CuP2)4
_chemical_formula_sum   'La3 Sm1 Cu4 P8'
_cell_volume   301.76368045
_cell_formula_units_Z   1
loop_
 _symmetry_equiv_pos_site_id
 _symmetry_equiv_pos_as_xyz
  1  'x, y, z'
loop_
 _atom_site_type_symbol
 _atom_site_label
 _atom_site_symmetry_multiplicity
 _atom_site_fract_x
 _atom_site_fract_y
 _atom_site_fract_z
 _atom_site_occupancy
  La  La0  1  0.250000  0.709850  0.378295  1
  La  La1  1  0.250000  0.790132  0.884006  1
  La  La2  1  0.750000  0.290672  0.619764  1
  Sm  Sm3  1  0.750000  0.207691  0.119533  1
  Cu  Cu4  1  0.250000  0.212123  0.246045  1
  Cu  Cu5  1  0.750000  0.786956  0.752620  1
  Cu  Cu6  1  0.250000  0.287811  0.751226  1
  Cu  Cu7  1  0.750000  0.712099  0.246114  1
  P  P8  1  0.750000  0.823794  0.501954  1
  P  P9  1  0.750000  0.679335  0.007547  1
  P  P10  1  0.250000  0.177465  0.496089  1
  P  P11  1  0.250000  0.323311  0.001785  1
  P  P12  1  0.250000  0.709841  0.174040  1
  P  P13  1  0.750000  0.210447  0.317106  1
  P  P14  1  0.750000  0.288965  0.822791  1
  P  P15  1  0.250000  0.789507  0.681085  1
