# generated using pymatgen
data_Sr10Mg4Fe(RuO6)5
_symmetry_space_group_name_H-M   'P 1'
_cell_length_a   8.01544047
_cell_length_b   9.71876737
_cell_length_c   9.72424520
_cell_angle_alpha   80.23438998
_cell_angle_beta   114.33660435
_cell_angle_gamma   114.35468574
_symmetry_Int_Tables_number   1
_chemical_formula_structural   Sr10Mg4Fe(RuO6)5
_chemical_formula_sum   'Sr10 Mg4 Fe1 Ru5 O30'
_cell_volume   628.78596491
_cell_formula_units_Z   1
loop_
 _symmetry_equiv_pos_site_id
 _symmetry_equiv_pos_as_xyz
  1  'x, y, z'
loop_
 _atom_site_type_symbol
 _atom_site_label
 _atom_site_symmetry_multiplicity
 _atom_site_fract_x
 _atom_site_fract_y
 _atom_site_fract_z
 _atom_site_occupancy
  Sr  Sr0  1  0.449607  0.100000  0.299973  1
  Sr  Sr1  1  0.247349  0.500142  0.498452  1
  Sr  Sr2  1  0.052019  0.901052  0.699082  1
  Sr  Sr3  1  0.851872  0.298960  0.900911  1
  Sr  Sr4  1  0.648755  0.699829  0.101571  1
  Sr  Sr5  1  0.347981  0.298948  0.900918  1
  Sr  Sr6  1  0.152651  0.699858  0.101548  1
  Sr  Sr7  1  0.950393  0.100000  0.300027  1
  Sr  Sr8  1  0.751245  0.500171  0.498429  1
  Sr  Sr9  1  0.548128  0.901040  0.699089  1
  Mg  Mg10  1  0.999935  0.000289  0.999572  1
  Mg  Mg11  1  0.800047  0.400053  0.200035  1
  Mg  Mg12  1  0.599953  0.799947  0.399965  1
  Mg  Mg13  1  0.400065  0.199711  0.600428  1
  Fe  Fe14  1  0.200000  0.600000  0.800000  1
  Ru  Ru15  1  0.500996  0.000998  0.000946  1
  Ru  Ru16  1  0.300369  0.399331  0.201393  1
  Ru  Ru17  1  0.099631  0.800669  0.398607  1
  Ru  Ru18  1  0.899004  0.199002  0.599054  1
  Ru  Ru19  1  0.700000  0.600000  0.800000  1
  O  O20  1  0.542318  0.400180  0.199457  1
  O  O21  1  0.342632  0.799794  0.400513  1
  O  O22  1  0.143780  0.201708  0.601155  1
  O  O23  1  0.946985  0.600000  0.799987  1
  O  O24  1  0.740911  0.998280  0.998803  1
  O  O25  1  0.256220  0.998292  0.998845  1
  O  O26  1  0.057368  0.400206  0.199487  1
  O  O27  1  0.857682  0.799820  0.400543  1
  O  O28  1  0.659089  0.201720  0.601197  1
  O  O29  1  0.453015  0.600000  0.800013  1
  O  O30  1  0.849924  0.779395  0.920475  1
  O  O31  1  0.652705  0.180674  0.124644  1
  O  O32  1  0.452189  0.581308  0.323000  1
  O  O33  1  0.252285  0.980261  0.524307  1
  O  O34  1  0.056398  0.385205  0.727589  1
  O  O35  1  0.550076  0.420605  0.679525  1
  O  O36  1  0.343602  0.814795  0.872411  1
  O  O37  1  0.147715  0.219739  0.075693  1
  O  O38  1  0.947811  0.618692  0.277000  1
  O  O39  1  0.747295  0.019326  0.475356  1
  O  O40  1  0.670401  0.721513  0.619326  1
  O  O41  1  0.471328  0.123349  0.819333  1
  O  O42  1  0.271617  0.527315  0.015918  1
  O  O43  1  0.071133  0.923956  0.218342  1
  O  O44  1  0.872336  0.324566  0.420127  1
  O  O45  1  0.729599  0.478487  0.980674  1
  O  O46  1  0.527664  0.875434  0.179873  1
  O  O47  1  0.328867  0.276044  0.381658  1
  O  O48  1  0.128383  0.672685  0.584082  1
  O  O49  1  0.928672  0.076651  0.780667  1
