# generated using pymatgen
data_Sc18AlRe7Se2
_symmetry_space_group_name_H-M   'P 1'
_cell_length_a   8.68276700
_cell_length_b   8.73068590
_cell_length_c   8.68497056
_cell_angle_alpha   120.17470208
_cell_angle_beta   90.00000000
_cell_angle_gamma   90.00000000
_symmetry_Int_Tables_number   1
_chemical_formula_structural   Sc18AlRe7Se2
_chemical_formula_sum   'Sc18 Al1 Re7 Se2'
_cell_volume   569.16509773
_cell_formula_units_Z   1
loop_
 _symmetry_equiv_pos_site_id
 _symmetry_equiv_pos_as_xyz
  1  'x, y, z'
loop_
 _atom_site_type_symbol
 _atom_site_label
 _atom_site_symmetry_multiplicity
 _atom_site_fract_x
 _atom_site_fract_y
 _atom_site_fract_z
 _atom_site_occupancy
  Sc  Sc0  1  0.546206  0.805953  0.611917  1
  Sc  Sc1  1  0.539445  0.800539  0.191621  1
  Sc  Sc2  1  0.539455  0.391079  0.191619  1
  Sc  Sc3  1  0.443893  0.191700  0.383393  1
  Sc  Sc4  1  0.458056  0.196818  0.804757  1
  Sc  Sc5  1  0.458048  0.607934  0.804758  1
  Sc  Sc6  1  0.056107  0.191700  0.383393  1
  Sc  Sc7  1  0.041944  0.196818  0.804757  1
  Sc  Sc8  1  0.041952  0.607934  0.804758  1
  Sc  Sc9  1  0.953794  0.805953  0.611917  1
  Sc  Sc10  1  0.960555  0.800539  0.191621  1
  Sc  Sc11  1  0.960545  0.391079  0.191619  1
  Sc  Sc12  1  0.750000  0.459844  0.919685  1
  Sc  Sc13  1  0.750000  0.470671  0.557892  1
  Sc  Sc14  1  0.750000  0.087210  0.557886  1
  Sc  Sc15  1  0.250000  0.540339  0.080691  1
  Sc  Sc16  1  0.250000  0.540939  0.456283  1
  Sc  Sc17  1  0.250000  0.915350  0.456277  1
  Al  Al18  1  0.750000  0.104774  0.209526  1
  Re  Re19  1  0.750000  0.109943  0.895485  1
  Re  Re20  1  0.750000  0.785541  0.895495  1
  Re  Re21  1  0.250000  0.894808  0.789598  1
  Re  Re22  1  0.250000  0.890597  0.110625  1
  Re  Re23  1  0.250000  0.220049  0.110635  1
  Re  Re24  1  0.494998  0.995524  0.991048  1
  Re  Re25  1  0.005002  0.995524  0.991048  1
  Se  Se26  1  0.750000  0.666172  0.332344  1
  Se  Se27  1  0.250000  0.334669  0.669351  1
