# generated using pymatgen
data_SrTbHoGa8Ag3
_symmetry_space_group_name_H-M   'P 1'
_cell_length_a   4.39080279
_cell_length_b   8.49578136
_cell_length_c   8.49578078
_cell_angle_alpha   68.82955530
_cell_angle_beta   75.02421589
_cell_angle_gamma   75.02421355
_symmetry_Int_Tables_number   1
_chemical_formula_structural   SrTbHoGa8Ag3
_chemical_formula_sum   'Sr1 Tb1 Ho1 Ga8 Ag3'
_cell_volume   280.65907317
_cell_formula_units_Z   1
loop_
 _symmetry_equiv_pos_site_id
 _symmetry_equiv_pos_as_xyz
  1  'x, y, z'
loop_
 _atom_site_type_symbol
 _atom_site_label
 _atom_site_symmetry_multiplicity
 _atom_site_fract_x
 _atom_site_fract_y
 _atom_site_fract_z
 _atom_site_occupancy
  Sr  Sr0  1  0.500104  0.499896  0.499896  1
  Tb  Tb1  1  0.200583  0.799417  0.799417  1
  Ho  Ho2  1  0.799535  0.200465  0.200465  1
  Ga  Ga3  1  0.353751  0.362519  0.929976  1
  Ga  Ga4  1  0.646224  0.637113  0.070442  1
  Ga  Ga5  1  0.353751  0.929976  0.362519  1
  Ga  Ga6  1  0.646224  0.070442  0.637113  1
  Ga  Ga7  1  0.162624  0.470860  0.203893  1
  Ga  Ga8  1  0.837558  0.528747  0.796138  1
  Ga  Ga9  1  0.162624  0.203893  0.470860  1
  Ga  Ga10  1  0.837558  0.796138  0.528747  1
  Ag  Ag11  1  0.499828  0.000172  0.000172  1
  Ag  Ag12  1  0.999819  0.809730  0.190632  1
  Ag  Ag13  1  0.999819  0.190632  0.809730  1
