# generated using pymatgen
data_ErTm15(HfIr3)4
_symmetry_space_group_name_H-M   'P 1'
_cell_length_a   10.72463802
_cell_length_b   10.72281801
_cell_length_c   6.20247101
_cell_angle_alpha   90.00177372
_cell_angle_beta   90.00604448
_cell_angle_gamma   90.00323775
_symmetry_Int_Tables_number   1
_chemical_formula_structural   ErTm15(HfIr3)4
_chemical_formula_sum   'Er1 Tm15 Hf4 Ir12'
_cell_volume   713.27387479
_cell_formula_units_Z   1
loop_
 _symmetry_equiv_pos_site_id
 _symmetry_equiv_pos_as_xyz
  1  'x, y, z'
loop_
 _atom_site_type_symbol
 _atom_site_label
 _atom_site_symmetry_multiplicity
 _atom_site_fract_x
 _atom_site_fract_y
 _atom_site_fract_z
 _atom_site_occupancy
  Er  Er0  1  0.289714  0.086209  0.373730  1
  Tm  Tm1  1  0.289868  0.913888  0.873911  1
  Tm  Tm2  1  0.710143  0.086034  0.873941  1
  Tm  Tm3  1  0.710159  0.913964  0.373923  1
  Tm  Tm4  1  0.586026  0.789828  0.873928  1
  Tm  Tm5  1  0.586159  0.210175  0.373923  1
  Tm  Tm6  1  0.414025  0.789754  0.373947  1
  Tm  Tm7  1  0.414056  0.210199  0.873920  1
  Tm  Tm8  1  0.210135  0.414009  0.626118  1
  Tm  Tm9  1  0.210151  0.586017  0.126047  1
  Tm  Tm10  1  0.789853  0.413988  0.126062  1
  Tm  Tm11  1  0.789856  0.586014  0.626045  1
  Tm  Tm12  1  0.913983  0.710133  0.126064  1
  Tm  Tm13  1  0.913979  0.289862  0.626039  1
  Tm  Tm14  1  0.086016  0.710139  0.626081  1
  Tm  Tm15  1  0.085906  0.289936  0.125973  1
  Hf  Hf16  1  0.999833  0.999920  0.500107  1
  Hf  Hf17  1  0.999970  0.999967  0.000012  1
  Hf  Hf18  1  0.500020  0.500001  0.999995  1
  Hf  Hf19  1  0.500000  0.500003  0.500046  1
  Ir  Ir20  1  0.855144  0.144879  0.250017  1
  Ir  Ir21  1  0.855110  0.855131  0.749982  1
  Ir  Ir22  1  0.144706  0.144965  0.750368  1
  Ir  Ir23  1  0.144753  0.854944  0.249904  1
  Ir  Ir24  1  0.644876  0.355140  0.749993  1
  Ir  Ir25  1  0.644863  0.644870  0.250010  1
  Ir  Ir26  1  0.355176  0.355335  0.249898  1
  Ir  Ir27  1  0.355126  0.644863  0.749985  1
  Ir  Ir28  1  0.500189  0.999917  0.121960  1
  Ir  Ir29  1  0.500193  0.999916  0.622354  1
  Ir  Ir30  1  0.000007  0.499983  0.877858  1
  Ir  Ir31  1  0.000007  0.500015  0.377858  1
