# generated using pymatgen
data_Tb5(ThS4)3
_symmetry_space_group_name_H-M   'P 1'
_cell_length_a   3.92959900
_cell_length_b   10.53081197
_cell_length_c   10.74386649
_cell_angle_alpha   89.82624835
_cell_angle_beta   90.00000000
_cell_angle_gamma   90.00000000
_symmetry_Int_Tables_number   1
_chemical_formula_structural   Tb5(ThS4)3
_chemical_formula_sum   'Tb5 Th3 S12'
_cell_volume   444.59922255
_cell_formula_units_Z   1
loop_
 _symmetry_equiv_pos_site_id
 _symmetry_equiv_pos_as_xyz
  1  'x, y, z'
loop_
 _atom_site_type_symbol
 _atom_site_label
 _atom_site_symmetry_multiplicity
 _atom_site_fract_x
 _atom_site_fract_y
 _atom_site_fract_z
 _atom_site_occupancy
  Tb  Tb0  1  0.250000  0.506071  0.305667  1
  Tb  Tb1  1  0.250000  0.187467  0.484610  1
  Tb  Tb2  1  0.750000  0.813183  0.512014  1
  Tb  Tb3  1  0.750000  0.683624  0.015409  1
  Tb  Tb4  1  0.250000  0.316196  0.990127  1
  Th  Th5  1  0.250000  0.998905  0.804125  1
  Th  Th6  1  0.750000  0.999009  0.196373  1
  Th  Th7  1  0.750000  0.497394  0.691639  1
  S  S8  1  0.250000  0.295422  0.728364  1
  S  S9  1  0.750000  0.702687  0.273127  1
  S  S10  1  0.750000  0.797213  0.773179  1
  S  S11  1  0.250000  0.199226  0.225574  1
  S  S12  1  0.250000  0.944743  0.382482  1
  S  S13  1  0.750000  0.056097  0.616965  1
  S  S14  1  0.750000  0.445746  0.122878  1
  S  S15  1  0.250000  0.554797  0.881118  1
  S  S16  1  0.250000  0.870478  0.045649  1
  S  S17  1  0.750000  0.129314  0.953525  1
  S  S18  1  0.750000  0.373779  0.451276  1
  S  S19  1  0.250000  0.628650  0.545898  1
