# generated using pymatgen
data_Sm4MgBiRu2
_symmetry_space_group_name_H-M   'P 1'
_cell_length_a   9.34276134
_cell_length_b   9.34276120
_cell_length_c   9.34276000
_cell_angle_alpha   132.97493450
_cell_angle_beta   132.97493375
_cell_angle_gamma   68.69351976
_symmetry_Int_Tables_number   1
_chemical_formula_structural   Sm4MgBiRu2
_chemical_formula_sum   'Sm8 Mg2 Bi2 Ru4'
_cell_volume   428.65867478
_cell_formula_units_Z   2
loop_
 _symmetry_equiv_pos_site_id
 _symmetry_equiv_pos_as_xyz
  1  'x, y, z'
loop_
 _atom_site_type_symbol
 _atom_site_label
 _atom_site_symmetry_multiplicity
 _atom_site_fract_x
 _atom_site_fract_y
 _atom_site_fract_z
 _atom_site_occupancy
  Sm  Sm0  1  0.795760  0.295760  0.845616  1
  Sm  Sm1  1  0.204240  0.704240  0.154384  1
  Sm  Sm2  1  0.450164  0.950164  0.154399  1
  Sm  Sm3  1  0.295798  0.450071  0.500007  1
  Sm  Sm4  1  0.049929  0.204202  0.499993  1
  Sm  Sm5  1  0.549836  0.049836  0.845601  1
  Sm  Sm6  1  0.704202  0.549929  0.499993  1
  Sm  Sm7  1  0.950071  0.795798  0.500007  1
  Mg  Mg8  1  0.000000  0.000000  0.000000  1
  Mg  Mg9  1  0.500000  0.500000  0.000000  1
  Bi  Bi10  1  0.250001  0.249999  0.000000  1
  Bi  Bi11  1  0.749999  0.750001  0.000000  1
  Ru  Ru12  1  0.131763  0.631763  0.763521  1
  Ru  Ru13  1  0.868237  0.368237  0.236479  1
  Ru  Ru14  1  0.631763  0.868237  0.500000  1
  Ru  Ru15  1  0.368237  0.131763  0.500000  1
