# generated using pymatgen
data_Y8Sc2(InSb)3
_symmetry_space_group_name_H-M   'P 1'
_cell_length_a   6.41342400
_cell_length_b   8.89597655
_cell_length_c   8.89597600
_cell_angle_alpha   60.00017159
_cell_angle_beta   89.99956079
_cell_angle_gamma   90.00044618
_symmetry_Int_Tables_number   1
_chemical_formula_structural   Y8Sc2(InSb)3
_chemical_formula_sum   'Y8 Sc2 In3 Sb3'
_cell_volume   439.55028645
_cell_formula_units_Z   1
loop_
 _symmetry_equiv_pos_site_id
 _symmetry_equiv_pos_as_xyz
  1  'x, y, z'
loop_
 _atom_site_type_symbol
 _atom_site_label
 _atom_site_symmetry_multiplicity
 _atom_site_fract_x
 _atom_site_fract_y
 _atom_site_fract_z
 _atom_site_occupancy
  Y  Y0  1  0.503419  0.333316  0.333314  1
  Y  Y1  1  0.503419  0.666686  0.666684  1
  Y  Y2  1  0.752064  0.240316  0.759684  1
  Y  Y3  1  0.752061  0.759677  0.000011  1
  Y  Y4  1  0.752061  0.999989  0.240323  1
  Y  Y5  1  0.246829  0.760487  0.239513  1
  Y  Y6  1  0.246812  0.239521  0.999993  1
  Y  Y7  1  0.246812  0.000007  0.760479  1
  Sc  Sc8  1  0.996885  0.666647  0.666659  1
  Sc  Sc9  1  0.996885  0.333341  0.333353  1
  In  In10  1  0.761046  0.602962  0.397038  1
  In  In11  1  0.761103  0.397050  0.000003  1
  In  In12  1  0.761103  0.999997  0.602950  1
  Sb  Sb13  1  0.239887  0.397561  0.602439  1
  Sb  Sb14  1  0.239806  0.602446  0.000003  1
  Sb  Sb15  1  0.239806  0.999997  0.397554  1
