# generated using pymatgen
data_ErTlAg2(Rh2O7)2
_symmetry_space_group_name_H-M   'P 1'
_cell_length_a   7.29623238
_cell_length_b   7.23244017
_cell_length_c   7.23244006
_cell_angle_alpha   59.19294390
_cell_angle_beta   59.24291494
_cell_angle_gamma   59.24292311
_symmetry_Int_Tables_number   1
_chemical_formula_structural   ErTlAg2(Rh2O7)2
_chemical_formula_sum   'Er1 Tl1 Ag2 Rh4 O14'
_cell_volume   265.11240605
_cell_formula_units_Z   1
loop_
 _symmetry_equiv_pos_site_id
 _symmetry_equiv_pos_as_xyz
  1  'x, y, z'
loop_
 _atom_site_type_symbol
 _atom_site_label
 _atom_site_symmetry_multiplicity
 _atom_site_fract_x
 _atom_site_fract_y
 _atom_site_fract_z
 _atom_site_occupancy
  Er  Er0  1  0.625000  0.625000  0.625000  1
  Tl  Tl1  1  0.125000  0.625000  0.625000  1
  Ag  Ag2  1  0.625000  0.625000  0.125000  1
  Ag  Ag3  1  0.625000  0.125000  0.625000  1
  Rh  Rh4  1  0.625000  0.125000  0.125000  1
  Rh  Rh5  1  0.125000  0.125000  0.125000  1
  Rh  Rh6  1  0.125000  0.625000  0.125000  1
  Rh  Rh7  1  0.125000  0.125000  0.625000  1
  O  O8  1  0.033758  0.460465  0.460465  1
  O  O9  1  0.797418  0.794655  0.217306  1
  O  O10  1  0.801727  0.197399  0.197399  1
  O  O11  1  0.727970  0.764110  0.764110  1
  O  O12  1  0.048338  0.456619  0.042743  1
  O  O13  1  0.452582  0.032694  0.455345  1
  O  O14  1  0.048338  0.042743  0.456619  1
  O  O15  1  0.522030  0.485890  0.485890  1
  O  O16  1  0.201662  0.207257  0.793381  1
  O  O17  1  0.201662  0.793381  0.207257  1
  O  O18  1  0.797418  0.217306  0.794655  1
  O  O19  1  0.448273  0.052601  0.052601  1
  O  O20  1  0.452582  0.455345  0.032694  1
  O  O21  1  0.216242  0.789535  0.789535  1
