# generated using pymatgen
data_Sm2CuGePd13
_symmetry_space_group_name_H-M   'P 1'
_cell_length_a   8.96283075
_cell_length_b   8.96348200
_cell_length_c   7.18287100
_cell_angle_alpha   90.00000000
_cell_angle_beta   90.13733233
_cell_angle_gamma   90.00000000
_symmetry_Int_Tables_number   1
_chemical_formula_structural   Sm2CuGePd13
_chemical_formula_sum   'Sm4 Cu2 Ge2 Pd26'
_cell_volume   577.05706867
_cell_formula_units_Z   2
loop_
 _symmetry_equiv_pos_site_id
 _symmetry_equiv_pos_as_xyz
  1  'x, y, z'
loop_
 _atom_site_type_symbol
 _atom_site_label
 _atom_site_symmetry_multiplicity
 _atom_site_fract_x
 _atom_site_fract_y
 _atom_site_fract_z
 _atom_site_occupancy
  Sm  Sm0  1  0.506822  0.000000  0.934566  1
  Sm  Sm1  1  0.993178  0.500000  0.065434  1
  Sm  Sm2  1  0.003051  0.000000  0.499394  1
  Sm  Sm3  1  0.496949  0.500000  0.500606  1
  Cu  Cu4  1  0.250000  0.750000  0.000000  1
  Cu  Cu5  1  0.250000  0.250000  0.000000  1
  Ge  Ge6  1  0.500796  0.000000  0.449165  1
  Ge  Ge7  1  0.999204  0.500000  0.550835  1
  Pd  Pd8  1  0.329257  0.830114  0.623614  1
  Pd  Pd9  1  0.329257  0.169886  0.623614  1
  Pd  Pd10  1  0.669442  0.829349  0.623970  1
  Pd  Pd11  1  0.669442  0.170651  0.623970  1
  Pd  Pd12  1  0.170743  0.669886  0.376386  1
  Pd  Pd13  1  0.170743  0.330114  0.376386  1
  Pd  Pd14  1  0.830558  0.670651  0.376030  1
  Pd  Pd15  1  0.830558  0.329349  0.376030  1
  Pd  Pd16  1  0.494900  0.765580  0.251188  1
  Pd  Pd17  1  0.494900  0.234420  0.251188  1
  Pd  Pd18  1  0.267819  0.000000  0.249897  1
  Pd  Pd19  1  0.736309  0.000000  0.253560  1
  Pd  Pd20  1  0.005100  0.734420  0.748812  1
  Pd  Pd21  1  0.005100  0.265580  0.748812  1
  Pd  Pd22  1  0.232181  0.500000  0.750103  1
  Pd  Pd23  1  0.763691  0.500000  0.746440  1
  Pd  Pd24  1  0.492948  0.345787  0.861793  1
  Pd  Pd25  1  0.492948  0.654213  0.861793  1
  Pd  Pd26  1  0.854946  0.000000  0.854618  1
  Pd  Pd27  1  0.163303  0.000000  0.866848  1
  Pd  Pd28  1  0.007052  0.154213  0.138207  1
  Pd  Pd29  1  0.007052  0.845787  0.138207  1
  Pd  Pd30  1  0.645054  0.500000  0.145382  1
  Pd  Pd31  1  0.336697  0.500000  0.133152  1
  Pd  Pd32  1  0.750000  0.750000  0.000000  1
  Pd  Pd33  1  0.750000  0.250000  0.000000  1
