# generated using pymatgen
data_Y5Ho3V4O20
_symmetry_space_group_name_H-M   'P 1'
_cell_length_a   3.73295400
_cell_length_b   10.40677641
_cell_length_c   11.26646344
_cell_angle_alpha   90.03197887
_cell_angle_beta   90.00000000
_cell_angle_gamma   90.00000000
_symmetry_Int_Tables_number   1
_chemical_formula_structural   Y5Ho3V4O20
_chemical_formula_sum   'Y5 Ho3 V4 O20'
_cell_volume   437.67970189
_cell_formula_units_Z   1
loop_
 _symmetry_equiv_pos_site_id
 _symmetry_equiv_pos_as_xyz
  1  'x, y, z'
loop_
 _atom_site_type_symbol
 _atom_site_label
 _atom_site_symmetry_multiplicity
 _atom_site_fract_x
 _atom_site_fract_y
 _atom_site_fract_z
 _atom_site_occupancy
  Y  Y0  1  0.250000  0.117878  0.274133  1
  Y  Y1  1  0.250000  0.135951  0.944024  1
  Y  Y2  1  0.750000  0.363469  0.444799  1
  Y  Y3  1  0.750000  0.382109  0.773969  1
  Y  Y4  1  0.250000  0.618724  0.225525  1
  Ho  Ho5  1  0.250000  0.637710  0.555186  1
  Ho  Ho6  1  0.750000  0.862659  0.054733  1
  Ho  Ho7  1  0.750000  0.880403  0.725982  1
  V  V8  1  0.250000  0.170868  0.618719  1
  V  V9  1  0.750000  0.328256  0.118342  1
  V  V10  1  0.250000  0.672380  0.881140  1
  V  V11  1  0.750000  0.828214  0.381937  1
  O  O12  1  0.750000  0.004323  0.894255  1
  O  O13  1  0.250000  0.008248  0.655415  1
  O  O14  1  0.250000  0.225676  0.457367  1
  O  O15  1  0.750000  0.234676  0.615911  1
  O  O16  1  0.750000  0.241351  0.268981  1
  O  O17  1  0.250000  0.258738  0.768893  1
  O  O18  1  0.250000  0.264999  0.115754  1
  O  O19  1  0.750000  0.273703  0.957068  1
  O  O20  1  0.750000  0.491101  0.154432  1
  O  O21  1  0.250000  0.495013  0.395304  1
  O  O22  1  0.750000  0.507504  0.605502  1
  O  O23  1  0.250000  0.509622  0.845920  1
  O  O24  1  0.250000  0.727195  0.042349  1
  O  O25  1  0.750000  0.736139  0.883834  1
  O  O26  1  0.750000  0.742650  0.230271  1
  O  O27  1  0.250000  0.759020  0.730286  1
  O  O28  1  0.250000  0.764472  0.385112  1
  O  O29  1  0.750000  0.773504  0.543469  1
  O  O30  1  0.750000  0.990813  0.346254  1
  O  O31  1  0.250000  0.992636  0.105132  1
