# generated using pymatgen
data_Yb5Sm3Ga4
_symmetry_space_group_name_H-M   'P 1'
_cell_length_a   5.12342700
_cell_length_b   6.80750184
_cell_length_c   9.26972983
_cell_angle_alpha   89.43420442
_cell_angle_beta   90.00000000
_cell_angle_gamma   90.00000000
_symmetry_Int_Tables_number   1
_chemical_formula_structural   Yb5Sm3Ga4
_chemical_formula_sum   'Yb5 Sm3 Ga4'
_cell_volume   323.29145139
_cell_formula_units_Z   1
loop_
 _symmetry_equiv_pos_site_id
 _symmetry_equiv_pos_as_xyz
  1  'x, y, z'
loop_
 _atom_site_type_symbol
 _atom_site_label
 _atom_site_symmetry_multiplicity
 _atom_site_fract_x
 _atom_site_fract_y
 _atom_site_fract_z
 _atom_site_occupancy
  Yb  Yb0  1  0.750000  0.689692  0.419657  1
  Yb  Yb1  1  0.250000  0.986653  0.295256  1
  Yb  Yb2  1  0.250000  0.489615  0.205540  1
  Yb  Yb3  1  0.750000  0.010343  0.707066  1
  Yb  Yb4  1  0.750000  0.510553  0.794478  1
  Sm  Sm5  1  0.250000  0.798446  0.919000  1
  Sm  Sm6  1  0.250000  0.317237  0.579554  1
  Sm  Sm7  1  0.750000  0.198594  0.081135  1
  Ga  Ga8  1  0.250000  0.258905  0.905315  1
  Ga  Ga9  1  0.250000  0.762167  0.598097  1
  Ga  Ga10  1  0.750000  0.742635  0.090481  1
  Ga  Ga11  1  0.750000  0.235159  0.404421  1
