# generated using pymatgen
data_Tb2Y4IrI10
_symmetry_space_group_name_H-M   'P 1'
_cell_length_a   7.74729383
_cell_length_b   9.79395536
_cell_length_c   9.73015261
_cell_angle_alpha   106.86056264
_cell_angle_beta   96.64460777
_cell_angle_gamma   104.66572132
_symmetry_Int_Tables_number   1
_chemical_formula_structural   Tb2Y4IrI10
_chemical_formula_sum   'Tb2 Y4 Ir1 I10'
_cell_volume   669.11856628
_cell_formula_units_Z   1
loop_
 _symmetry_equiv_pos_site_id
 _symmetry_equiv_pos_as_xyz
  1  'x, y, z'
loop_
 _atom_site_type_symbol
 _atom_site_label
 _atom_site_symmetry_multiplicity
 _atom_site_fract_x
 _atom_site_fract_y
 _atom_site_fract_z
 _atom_site_occupancy
  Tb  Tb0  1  0.114228  0.042606  0.762750  1
  Tb  Tb1  1  0.885772  0.957394  0.237250  1
  Y  Y2  1  0.969232  0.286002  0.084809  1
  Y  Y3  1  0.030768  0.713998  0.915191  1
  Y  Y4  1  0.349434  0.125502  0.166656  1
  Y  Y5  1  0.650566  0.874498  0.833344  1
  Ir  Ir6  1  0.000000  0.000000  0.000000  1
  I  I7  1  0.349892  0.450405  0.272477  1
  I  I8  1  0.650108  0.549595  0.727523  1
  I  I9  1  0.256885  0.087287  0.461212  1
  I  I10  1  0.743115  0.912713  0.538788  1
  I  I11  1  0.086193  0.373033  0.820575  1
  I  I12  1  0.913807  0.626967  0.179425  1
  I  I13  1  0.454808  0.816491  0.092100  1
  I  I14  1  0.545192  0.183509  0.907900  1
  I  I15  1  0.778587  0.256298  0.345397  1
  I  I16  1  0.221413  0.743702  0.654603  1
