# generated using pymatgen
data_Dy2Y2CdPt
_symmetry_space_group_name_H-M   'P 1'
_cell_length_a   9.70463442
_cell_length_b   9.70463376
_cell_length_c   9.72118900
_cell_angle_alpha   59.94355629
_cell_angle_beta   59.94355851
_cell_angle_gamma   60.11289238
_symmetry_Int_Tables_number   1
_chemical_formula_structural   Dy2Y2CdPt
_chemical_formula_sum   'Dy8 Y8 Cd4 Pt4'
_cell_volume   647.38139028
_cell_formula_units_Z   4
loop_
 _symmetry_equiv_pos_site_id
 _symmetry_equiv_pos_as_xyz
  1  'x, y, z'
loop_
 _atom_site_type_symbol
 _atom_site_label
 _atom_site_symmetry_multiplicity
 _atom_site_fract_x
 _atom_site_fract_y
 _atom_site_fract_z
 _atom_site_occupancy
  Dy  Dy0  1  0.352262  0.352262  0.352303  1
  Dy  Dy1  1  0.352262  0.352262  0.943174  1
  Dy  Dy2  1  0.352303  0.943174  0.352262  1
  Dy  Dy3  1  0.943174  0.352303  0.352262  1
  Dy  Dy4  1  0.810194  0.189806  0.189806  1
  Dy  Dy5  1  0.189806  0.810194  0.810194  1
  Dy  Dy6  1  0.189806  0.810194  0.189806  1
  Dy  Dy7  1  0.810194  0.189806  0.810194  1
  Y  Y8  1  0.190141  0.190141  0.809859  1
  Y  Y9  1  0.809859  0.809859  0.190141  1
  Y  Y10  1  0.935868  0.564132  0.564132  1
  Y  Y11  1  0.564132  0.935868  0.935868  1
  Y  Y12  1  0.564132  0.935868  0.564132  1
  Y  Y13  1  0.935868  0.564132  0.935868  1
  Y  Y14  1  0.563948  0.563948  0.936052  1
  Y  Y15  1  0.936052  0.936052  0.563948  1
  Cd  Cd16  1  0.581876  0.581876  0.581687  1
  Cd  Cd17  1  0.581876  0.581876  0.254561  1
  Cd  Cd18  1  0.581687  0.254561  0.581876  1
  Cd  Cd19  1  0.254561  0.581687  0.581876  1
  Pt  Pt20  1  0.143138  0.143138  0.144682  1
  Pt  Pt21  1  0.143138  0.143138  0.569043  1
  Pt  Pt22  1  0.144682  0.569043  0.143138  1
  Pt  Pt23  1  0.569043  0.144682  0.143138  1
