# generated using pymatgen
data_Eu2Y3Tm(RuO7)2
_symmetry_space_group_name_H-M   'P 1'
_cell_length_a   6.42251491
_cell_length_b   6.42731420
_cell_length_c   7.46209500
_cell_angle_alpha   90.00000000
_cell_angle_beta   90.00000000
_cell_angle_gamma   109.46414713
_symmetry_Int_Tables_number   1
_chemical_formula_structural   Eu2Y3Tm(RuO7)2
_chemical_formula_sum   'Eu2 Y3 Tm1 Ru2 O14'
_cell_volume   290.42775437
_cell_formula_units_Z   1
loop_
 _symmetry_equiv_pos_site_id
 _symmetry_equiv_pos_as_xyz
  1  'x, y, z'
loop_
 _atom_site_type_symbol
 _atom_site_label
 _atom_site_symmetry_multiplicity
 _atom_site_fract_x
 _atom_site_fract_y
 _atom_site_fract_z
 _atom_site_occupancy
  Eu  Eu0  1  0.000171  0.999225  0.499283  1
  Eu  Eu1  1  0.000171  0.999225  0.000717  1
  Y  Y2  1  0.483120  0.932197  0.750000  1
  Y  Y3  1  0.517448  0.067683  0.250000  1
  Y  Y4  1  0.931550  0.482193  0.750000  1
  Tm  Tm5  1  0.064346  0.515646  0.250000  1
  Ru  Ru6  1  0.499821  0.500632  0.499117  1
  Ru  Ru7  1  0.499821  0.500632  0.000883  1
  O  O8  1  0.590046  0.588286  0.750000  1
  O  O9  1  0.406881  0.411885  0.250000  1
  O  O10  1  0.842679  0.116022  0.750000  1
  O  O11  1  0.158841  0.878150  0.250000  1
  O  O12  1  0.114834  0.841232  0.750000  1
  O  O13  1  0.887109  0.161675  0.250000  1
  O  O14  1  0.441936  0.183859  0.962538  1
  O  O15  1  0.560324  0.817730  0.462522  1
  O  O16  1  0.183665  0.447800  0.965427  1
  O  O17  1  0.815656  0.553270  0.458894  1
  O  O18  1  0.441936  0.183859  0.537462  1
  O  O19  1  0.560324  0.817730  0.037478  1
  O  O20  1  0.815656  0.553270  0.041106  1
  O  O21  1  0.183665  0.447800  0.534573  1
