# generated using pymatgen
data_Er5CSe4
_symmetry_space_group_name_H-M   'P 1'
_cell_length_a   6.86900662
_cell_length_b   6.86900980
_cell_length_c   6.86850666
_cell_angle_alpha   99.52145171
_cell_angle_beta   99.52988899
_cell_angle_gamma   131.99369798
_symmetry_Int_Tables_number   1
_chemical_formula_structural   Er5CSe4
_chemical_formula_sum   'Er5 C1 Se4'
_cell_volume   220.02860572
_cell_formula_units_Z   1
loop_
 _symmetry_equiv_pos_site_id
 _symmetry_equiv_pos_as_xyz
  1  'x, y, z'
loop_
 _atom_site_type_symbol
 _atom_site_label
 _atom_site_symmetry_multiplicity
 _atom_site_fract_x
 _atom_site_fract_y
 _atom_site_fract_z
 _atom_site_occupancy
  Er  Er0  1  0.411035  0.759206  0.170242  1
  Er  Er1  1  0.000000  0.000000  0.000000  1
  Er  Er2  1  0.588965  0.240794  0.829758  1
  Er  Er3  1  0.240784  0.411039  0.651825  1
  Er  Er4  1  0.759216  0.588961  0.348175  1
  C  C5  1  0.500000  0.500000  0.000000  1
  Se  Se6  1  0.092794  0.694742  0.787553  1
  Se  Se7  1  0.694769  0.907193  0.601943  1
  Se  Se8  1  0.305231  0.092807  0.398057  1
  Se  Se9  1  0.907206  0.305258  0.212447  1
