# generated using pymatgen
data_Mg(Ta2B5)2
_symmetry_space_group_name_H-M   'P 1'
_cell_length_a   6.16194012
_cell_length_b   7.02501737
_cell_length_c   7.38556990
_cell_angle_alpha   94.09268168
_cell_angle_beta   101.99482980
_cell_angle_gamma   115.98772785
_symmetry_Int_Tables_number   1
_chemical_formula_structural   Mg(Ta2B5)2
_chemical_formula_sum   'Mg2 Ta8 B20'
_cell_volume   276.26562163
_cell_formula_units_Z   2
loop_
 _symmetry_equiv_pos_site_id
 _symmetry_equiv_pos_as_xyz
  1  'x, y, z'
loop_
 _atom_site_type_symbol
 _atom_site_label
 _atom_site_symmetry_multiplicity
 _atom_site_fract_x
 _atom_site_fract_y
 _atom_site_fract_z
 _atom_site_occupancy
  Mg  Mg0  1  0.496261  0.997013  0.997528  1
  Mg  Mg1  1  0.004204  0.603673  0.802697  1
  Ta  Ta2  1  0.999476  0.997505  0.000151  1
  Ta  Ta3  1  0.497915  0.794910  0.400569  1
  Ta  Ta4  1  0.998328  0.395526  0.202560  1
  Ta  Ta5  1  0.501627  0.204442  0.597442  1
  Ta  Ta6  1  0.002017  0.804879  0.399439  1
  Ta  Ta7  1  0.500503  0.602597  0.799727  1
  Ta  Ta8  1  0.499329  0.396616  0.200489  1
  Ta  Ta9  1  0.000770  0.203234  0.599644  1
  B  B10  1  0.333907  0.232195  0.867573  1
  B  B11  1  0.332311  0.633081  0.066779  1
  B  B12  1  0.166102  0.367998  0.932339  1
  B  B13  1  0.333399  0.031713  0.263793  1
  B  B14  1  0.167196  0.765150  0.132765  1
  B  B15  1  0.833730  0.234470  0.865848  1
  B  B16  1  0.166447  0.166494  0.332605  1
  B  B17  1  0.833274  0.631223  0.065879  1
  B  B18  1  0.333300  0.433280  0.467088  1
  B  B19  1  0.666409  0.365843  0.933905  1
  B  B20  1  0.830606  0.031301  0.265404  1
  B  B21  1  0.665333  0.766589  0.131861  1
  B  B22  1  0.332664  0.834708  0.667285  1
  B  B23  1  0.166526  0.567970  0.536433  1
  B  B24  1  0.665193  0.164843  0.331926  1
  B  B25  1  0.834974  0.435079  0.468430  1
  B  B26  1  0.167585  0.966982  0.733119  1
  B  B27  1  0.834546  0.833405  0.667926  1
  B  B28  1  0.669274  0.568381  0.534712  1
  B  B29  1  0.666791  0.968896  0.734082  1
