# generated using pymatgen
data_Tb2SiP(Ru2C)2
_symmetry_space_group_name_H-M   'P 1'
_cell_length_a   3.81236700
_cell_length_b   5.85960712
_cell_length_c   7.12295200
_cell_angle_alpha   90.00000000
_cell_angle_beta   90.00000000
_cell_angle_gamma   71.01570260
_symmetry_Int_Tables_number   1
_chemical_formula_structural   Tb2SiP(Ru2C)2
_chemical_formula_sum   'Tb2 Si1 P1 Ru4 C2'
_cell_volume   150.46456982
_cell_formula_units_Z   1
loop_
 _symmetry_equiv_pos_site_id
 _symmetry_equiv_pos_as_xyz
  1  'x, y, z'
loop_
 _atom_site_type_symbol
 _atom_site_label
 _atom_site_symmetry_multiplicity
 _atom_site_fract_x
 _atom_site_fract_y
 _atom_site_fract_z
 _atom_site_occupancy
  Tb  Tb0  1  0.953698  0.092602  0.250000  1
  Tb  Tb1  1  0.045747  0.908509  0.750000  1
  Si  Si2  1  0.230677  0.538646  0.250000  1
  P  P3  1  0.768906  0.462189  0.750000  1
  Ru  Ru4  1  0.665458  0.669082  0.051795  1
  Ru  Ru5  1  0.665458  0.669082  0.448204  1
  Ru  Ru6  1  0.335439  0.329123  0.559148  1
  Ru  Ru7  1  0.335439  0.329123  0.940853  1
  C  C8  1  0.499590  0.000822  0.001472  1
  C  C9  1  0.499590  0.000822  0.498528  1
