# generated using pymatgen
data_Np8Be3Si13
_symmetry_space_group_name_H-M   'P 1'
_cell_length_a   7.86364500
_cell_length_b   7.86364396
_cell_length_c   8.05008500
_cell_angle_alpha   90.00000000
_cell_angle_beta   90.00000000
_cell_angle_gamma   119.99999176
_symmetry_Int_Tables_number   1
_chemical_formula_structural   Np8Be3Si13
_chemical_formula_sum   'Np8 Be3 Si13'
_cell_volume   431.10084574
_cell_formula_units_Z   1
loop_
 _symmetry_equiv_pos_site_id
 _symmetry_equiv_pos_as_xyz
  1  'x, y, z'
loop_
 _atom_site_type_symbol
 _atom_site_label
 _atom_site_symmetry_multiplicity
 _atom_site_fract_x
 _atom_site_fract_y
 _atom_site_fract_z
 _atom_site_occupancy
  Np  Np0  1  0.500382  0.499618  0.748870  1
  Np  Np1  1  0.500500  0.499500  0.251131  1
  Np  Np2  1  0.999236  0.499618  0.748870  1
  Np  Np3  1  0.999001  0.499500  0.251131  1
  Np  Np4  1  0.500382  0.000764  0.748870  1
  Np  Np5  1  0.500500  0.000999  0.251131  1
  Np  Np6  1  0.000000  0.000000  0.751315  1
  Np  Np7  1  0.000000  0.000000  0.248773  1
  Be  Be8  1  0.666667  0.333333  0.999296  1
  Be  Be9  1  0.333333  0.666667  0.000702  1
  Be  Be10  1  0.333333  0.666667  0.499613  1
  Si  Si11  1  0.827178  0.172822  0.000106  1
  Si  Si12  1  0.173040  0.826960  0.999940  1
  Si  Si13  1  0.345644  0.172822  0.000106  1
  Si  Si14  1  0.175515  0.824485  0.499890  1
  Si  Si15  1  0.653921  0.826960  0.999940  1
  Si  Si16  1  0.836803  0.163197  0.500156  1
  Si  Si17  1  0.827178  0.654356  0.000106  1
  Si  Si18  1  0.648969  0.824485  0.499890  1
  Si  Si19  1  0.173040  0.346079  0.999940  1
  Si  Si20  1  0.326394  0.163197  0.500156  1
  Si  Si21  1  0.175515  0.351031  0.499890  1
  Si  Si22  1  0.836803  0.673606  0.500156  1
  Si  Si23  1  0.666667  0.333333  0.500028  1
