# generated using pymatgen
data_Zr5Au3O
_symmetry_space_group_name_H-M   'P 1'
_cell_length_a   8.44809900
_cell_length_b   8.44809845
_cell_length_c   5.41293700
_cell_angle_alpha   90.00000000
_cell_angle_beta   90.00000000
_cell_angle_gamma   119.99999824
_symmetry_Int_Tables_number   1
_chemical_formula_structural   Zr5Au3O
_chemical_formula_sum   'Zr10 Au6 O2'
_cell_volume   334.56582172
_cell_formula_units_Z   2
loop_
 _symmetry_equiv_pos_site_id
 _symmetry_equiv_pos_as_xyz
  1  'x, y, z'
loop_
 _atom_site_type_symbol
 _atom_site_label
 _atom_site_symmetry_multiplicity
 _atom_site_fract_x
 _atom_site_fract_y
 _atom_site_fract_z
 _atom_site_occupancy
  Zr  Zr0  1  0.229325  0.000000  0.750000  1
  Zr  Zr1  1  0.770675  0.000000  0.250000  1
  Zr  Zr2  1  0.000000  0.229325  0.750000  1
  Zr  Zr3  1  0.000000  0.770675  0.250000  1
  Zr  Zr4  1  0.770675  0.770675  0.750000  1
  Zr  Zr5  1  0.229325  0.229325  0.250000  1
  Zr  Zr6  1  0.333333  0.666667  0.500000  1
  Zr  Zr7  1  0.666667  0.333333  0.500000  1
  Zr  Zr8  1  0.666667  0.333333  0.000000  1
  Zr  Zr9  1  0.333333  0.666667  0.000000  1
  Au  Au10  1  0.598219  0.000000  0.750000  1
  Au  Au11  1  0.401781  0.000000  0.250000  1
  Au  Au12  1  0.000000  0.598219  0.750000  1
  Au  Au13  1  0.000000  0.401781  0.250000  1
  Au  Au14  1  0.401781  0.401781  0.750000  1
  Au  Au15  1  0.598219  0.598219  0.250000  1
  O  O16  1  0.000000  0.000000  0.500000  1
  O  O17  1  0.000000  0.000000  0.000000  1
