# generated using pymatgen
data_BeTe7
_symmetry_space_group_name_H-M   'P 1'
_cell_length_a   8.66654813
_cell_length_b   8.66654767
_cell_length_c   16.37230119
_cell_angle_alpha   92.46357609
_cell_angle_beta   92.46357686
_cell_angle_gamma   28.27024456
_symmetry_Int_Tables_number   1
_chemical_formula_structural   BeTe7
_chemical_formula_sum   'Be2 Te14'
_cell_volume   581.85523797
_cell_formula_units_Z   2
loop_
 _symmetry_equiv_pos_site_id
 _symmetry_equiv_pos_as_xyz
  1  'x, y, z'
loop_
 _atom_site_type_symbol
 _atom_site_label
 _atom_site_symmetry_multiplicity
 _atom_site_fract_x
 _atom_site_fract_y
 _atom_site_fract_z
 _atom_site_occupancy
  Be  Be0  1  0.722102  0.722102  0.772171  1
  Be  Be1  1  0.277898  0.277898  0.227829  1
  Te  Te2  1  0.276332  0.276332  0.382481  1
  Te  Te3  1  0.723668  0.723668  0.617519  1
  Te  Te4  1  0.989089  0.989089  0.264236  1
  Te  Te5  1  0.179826  0.179826  0.952715  1
  Te  Te6  1  0.404317  0.404317  0.151638  1
  Te  Te7  1  0.650080  0.650080  0.358285  1
  Te  Te8  1  0.010911  0.010911  0.735764  1
  Te  Te9  1  0.595683  0.595683  0.848362  1
  Te  Te10  1  0.820174  0.820174  0.047285  1
  Te  Te11  1  0.090332  0.090332  0.592194  1
  Te  Te12  1  0.909668  0.909668  0.407806  1
  Te  Te13  1  0.292406  0.292406  0.814604  1
  Te  Te14  1  0.707594  0.707594  0.185396  1
  Te  Te15  1  0.349920  0.349920  0.641715  1
