# generated using pymatgen
data_Pr3ErAu5
_symmetry_space_group_name_H-M   'P 1'
_cell_length_a   8.21839292
_cell_length_b   8.21839391
_cell_length_c   8.21839300
_cell_angle_alpha   65.70498038
_cell_angle_beta   65.70497727
_cell_angle_gamma   65.70495322
_symmetry_Int_Tables_number   1
_chemical_formula_structural   Pr3ErAu5
_chemical_formula_sum   'Pr6 Er2 Au10'
_cell_volume   441.09577022
_cell_formula_units_Z   2
loop_
 _symmetry_equiv_pos_site_id
 _symmetry_equiv_pos_as_xyz
  1  'x, y, z'
loop_
 _atom_site_type_symbol
 _atom_site_label
 _atom_site_symmetry_multiplicity
 _atom_site_fract_x
 _atom_site_fract_y
 _atom_site_fract_z
 _atom_site_occupancy
  Pr  Pr0  1  0.892423  0.185447  0.621158  1
  Pr  Pr1  1  0.621158  0.892423  0.185447  1
  Pr  Pr2  1  0.185447  0.621158  0.892423  1
  Pr  Pr3  1  0.107577  0.814553  0.378842  1
  Pr  Pr4  1  0.378842  0.107577  0.814553  1
  Pr  Pr5  1  0.814553  0.378842  0.107577  1
  Er  Er6  1  0.657263  0.657263  0.657263  1
  Er  Er7  1  0.342737  0.342737  0.342737  1
  Au  Au8  1  0.000000  0.000000  0.000000  1
  Au  Au9  1  0.500000  0.500000  0.500000  1
  Au  Au10  1  0.804171  0.804171  0.804171  1
  Au  Au11  1  0.195829  0.195829  0.195829  1
  Au  Au12  1  0.940088  0.548118  0.320845  1
  Au  Au13  1  0.320845  0.940088  0.548118  1
  Au  Au14  1  0.548118  0.320845  0.940088  1
  Au  Au15  1  0.059912  0.451882  0.679155  1
  Au  Au16  1  0.679155  0.059912  0.451882  1
  Au  Au17  1  0.451882  0.679155  0.059912  1
