# generated using pymatgen
data_Dy2Sc2CrFeB12
_symmetry_space_group_name_H-M   'P 1'
_cell_length_a   3.44256000
_cell_length_b   8.94982509
_cell_length_c   11.32899041
_cell_angle_alpha   89.87794025
_cell_angle_beta   90.00000000
_cell_angle_gamma   90.00000000
_symmetry_Int_Tables_number   1
_chemical_formula_structural   Dy2Sc2CrFeB12
_chemical_formula_sum   'Dy4 Sc4 Cr2 Fe2 B24'
_cell_volume   349.04891292
_cell_formula_units_Z   2
loop_
 _symmetry_equiv_pos_site_id
 _symmetry_equiv_pos_as_xyz
  1  'x, y, z'
loop_
 _atom_site_type_symbol
 _atom_site_label
 _atom_site_symmetry_multiplicity
 _atom_site_fract_x
 _atom_site_fract_y
 _atom_site_fract_z
 _atom_site_occupancy
  Dy  Dy0  1  0.000000  0.822461  0.084997  1
  Dy  Dy1  1  0.000000  0.177539  0.915003  1
  Dy  Dy2  1  0.000000  0.321944  0.414291  1
  Dy  Dy3  1  0.000000  0.678056  0.585709  1
  Sc  Sc4  1  0.000000  0.443420  0.129567  1
  Sc  Sc5  1  0.000000  0.556580  0.870433  1
  Sc  Sc6  1  0.000000  0.944043  0.370203  1
  Sc  Sc7  1  0.000000  0.055957  0.629797  1
  Cr  Cr8  1  0.000000  0.641652  0.317117  1
  Cr  Cr9  1  0.000000  0.358348  0.682883  1
  Fe  Fe10  1  0.000000  0.141069  0.181659  1
  Fe  Fe11  1  0.000000  0.858931  0.818341  1
  B  B12  1  0.500000  0.056069  0.069128  1
  B  B13  1  0.500000  0.943931  0.930872  1
  B  B14  1  0.500000  0.554499  0.431717  1
  B  B15  1  0.500000  0.445501  0.568283  1
  B  B16  1  0.500000  0.251340  0.083597  1
  B  B17  1  0.500000  0.748660  0.916403  1
  B  B18  1  0.500000  0.752758  0.417379  1
  B  B19  1  0.500000  0.247242  0.582621  1
  B  B20  1  0.500000  0.292135  0.234365  1
  B  B21  1  0.500000  0.707865  0.765635  1
  B  B22  1  0.500000  0.795276  0.264366  1
  B  B23  1  0.500000  0.204724  0.735634  1
  B  B24  1  0.500000  0.129343  0.315124  1
  B  B25  1  0.500000  0.870657  0.684876  1
  B  B26  1  0.500000  0.629831  0.182995  1
  B  B27  1  0.500000  0.370169  0.817005  1
  B  B28  1  0.500000  0.481873  0.285664  1
  B  B29  1  0.500000  0.518127  0.714336  1
  B  B30  1  0.500000  0.984847  0.213137  1
  B  B31  1  0.500000  0.015153  0.786863  1
  B  B32  1  0.500000  0.097353  0.473290  1
  B  B33  1  0.500000  0.902647  0.526710  1
  B  B34  1  0.500000  0.597885  0.025862  1
  B  B35  1  0.500000  0.402115  0.974138  1
