# generated using pymatgen
data_Ni(BrO3)2
_symmetry_space_group_name_H-M   'P 1'
_cell_length_a   4.95257499
_cell_length_b   4.95257439
_cell_length_c   6.48669034
_cell_angle_alpha   87.18505990
_cell_angle_beta   87.18506003
_cell_angle_gamma   67.86014185
_symmetry_Int_Tables_number   1
_chemical_formula_structural   Ni(BrO3)2
_chemical_formula_sum   'Ni1 Br2 O6'
_cell_volume   147.11576134
_cell_formula_units_Z   1
loop_
 _symmetry_equiv_pos_site_id
 _symmetry_equiv_pos_as_xyz
  1  'x, y, z'
loop_
 _atom_site_type_symbol
 _atom_site_label
 _atom_site_symmetry_multiplicity
 _atom_site_fract_x
 _atom_site_fract_y
 _atom_site_fract_z
 _atom_site_occupancy
  Ni  Ni0  1  0.000000  0.000000  0.000000  1
  Br  Br1  1  0.340839  0.340839  0.256118  1
  Br  Br2  1  0.659161  0.659161  0.743882  1
  O  O3  1  0.245473  0.245473  0.033927  1
  O  O4  1  0.754527  0.754527  0.966073  1
  O  O5  1  0.779495  0.290159  0.756917  1
  O  O6  1  0.290159  0.779495  0.756917  1
  O  O7  1  0.220505  0.709841  0.243083  1
  O  O8  1  0.709841  0.220505  0.243083  1
