# generated using pymatgen
data_K6(PdO3)5
_symmetry_space_group_name_H-M   'P 1'
_cell_length_a   7.59526708
_cell_length_b   7.59678951
_cell_length_c   7.59616478
_cell_angle_alpha   87.91959905
_cell_angle_beta   87.93863901
_cell_angle_gamma   87.92339668
_symmetry_Int_Tables_number   1
_chemical_formula_structural   K6(PdO3)5
_chemical_formula_sum   'K6 Pd5 O15'
_cell_volume   437.45586244
_cell_formula_units_Z   1
loop_
 _symmetry_equiv_pos_site_id
 _symmetry_equiv_pos_as_xyz
  1  'x, y, z'
loop_
 _atom_site_type_symbol
 _atom_site_label
 _atom_site_symmetry_multiplicity
 _atom_site_fract_x
 _atom_site_fract_y
 _atom_site_fract_z
 _atom_site_occupancy
  K  K0  1  0.318267  0.681755  0.999804  1
  K  K1  1  0.999886  0.318240  0.681736  1
  K  K2  1  0.681689  0.999871  0.318283  1
  K  K3  1  0.145684  0.854059  0.500084  1
  K  K4  1  0.500053  0.145637  0.854004  1
  K  K5  1  0.854063  0.500047  0.145609  1
  Pd  Pd6  1  0.500097  0.500080  0.500082  1
  Pd  Pd7  1  0.299341  0.299318  0.299341  1
  Pd  Pd8  1  0.700723  0.700747  0.700744  1
  Pd  Pd9  1  0.099539  0.099544  0.099537  1
  Pd  Pd10  1  0.900416  0.900433  0.900427  1
  O  O11  1  0.142159  0.000034  0.857914  1
  O  O12  1  0.857866  0.142163  0.000047  1
  O  O13  1  0.000032  0.857906  0.142177  1
  O  O14  1  0.047015  0.220933  0.328087  1
  O  O15  1  0.328082  0.047045  0.220927  1
  O  O16  1  0.220914  0.328077  0.047050  1
  O  O17  1  0.779254  0.952885  0.671889  1
  O  O18  1  0.671869  0.779267  0.952922  1
  O  O19  1  0.952921  0.671873  0.779268  1
  O  O20  1  0.343778  0.296036  0.559197  1
  O  O21  1  0.559228  0.343803  0.296012  1
  O  O22  1  0.296033  0.559220  0.343802  1
  O  O23  1  0.704198  0.656005  0.440850  1
  O  O24  1  0.440859  0.704172  0.656042  1
  O  O25  1  0.656032  0.440851  0.704168  1
