# generated using pymatgen
data_Nd2BeGaGe2
_symmetry_space_group_name_H-M   'P 1'
_cell_length_a   4.13527324
_cell_length_b   4.24334976
_cell_length_c   7.72948675
_cell_angle_alpha   105.90514554
_cell_angle_beta   105.50734760
_cell_angle_gamma   90.06381828
_symmetry_Int_Tables_number   1
_chemical_formula_structural   Nd2BeGaGe2
_chemical_formula_sum   'Nd2 Be1 Ga1 Ge2'
_cell_volume   125.28595620
_cell_formula_units_Z   1
loop_
 _symmetry_equiv_pos_site_id
 _symmetry_equiv_pos_as_xyz
  1  'x, y, z'
loop_
 _atom_site_type_symbol
 _atom_site_label
 _atom_site_symmetry_multiplicity
 _atom_site_fract_x
 _atom_site_fract_y
 _atom_site_fract_z
 _atom_site_occupancy
  Nd  Nd0  1  0.998603  0.246431  0.493876  1
  Nd  Nd1  1  0.248849  0.000896  0.002094  1
  Be  Be2  1  0.832546  0.585489  0.167953  1
  Ga  Ga3  1  0.591444  0.831164  0.662134  1
  Ge  Ge4  1  0.406518  0.657404  0.315930  1
  Ge  Ge5  1  0.668863  0.425439  0.851412  1
