# generated using pymatgen
data_Nd8LuScPb8
_symmetry_space_group_name_H-M   'P 1'
_cell_length_a   8.33192600
_cell_length_b   8.44853000
_cell_length_c   16.05168300
_cell_angle_alpha   90.00000000
_cell_angle_beta   90.00000000
_cell_angle_gamma   90.00000000
_symmetry_Int_Tables_number   1
_chemical_formula_structural   Nd8LuScPb8
_chemical_formula_sum   'Nd16 Lu2 Sc2 Pb16'
_cell_volume   1129.91852526
_cell_formula_units_Z   2
loop_
 _symmetry_equiv_pos_site_id
 _symmetry_equiv_pos_as_xyz
  1  'x, y, z'
loop_
 _atom_site_type_symbol
 _atom_site_label
 _atom_site_symmetry_multiplicity
 _atom_site_fract_x
 _atom_site_fract_y
 _atom_site_fract_z
 _atom_site_occupancy
  Nd  Nd0  1  0.626195  0.157481  0.621446  1
  Nd  Nd1  1  0.126195  0.342519  0.878554  1
  Nd  Nd2  1  0.373432  0.842276  0.119601  1
  Nd  Nd3  1  0.873432  0.657724  0.380399  1
  Nd  Nd4  1  0.373432  0.842276  0.380399  1
  Nd  Nd5  1  0.873432  0.657724  0.119601  1
  Nd  Nd6  1  0.626195  0.157481  0.878554  1
  Nd  Nd7  1  0.126195  0.342519  0.621446  1
  Nd  Nd8  1  0.469085  0.679244  0.599846  1
  Nd  Nd9  1  0.969085  0.820756  0.900154  1
  Nd  Nd10  1  0.530370  0.321212  0.098467  1
  Nd  Nd11  1  0.030370  0.178788  0.401533  1
  Nd  Nd12  1  0.530370  0.321212  0.401533  1
  Nd  Nd13  1  0.030370  0.178788  0.098467  1
  Nd  Nd14  1  0.469085  0.679244  0.900154  1
  Nd  Nd15  1  0.969085  0.820756  0.599846  1
  Lu  Lu16  1  0.205484  0.504542  0.250000  1
  Lu  Lu17  1  0.705484  0.995458  0.250000  1
  Sc  Sc18  1  0.793943  0.495951  0.750000  1
  Sc  Sc19  1  0.293943  0.004049  0.750000  1
  Pb  Pb20  1  0.716071  0.968006  0.454665  1
  Pb  Pb21  1  0.216071  0.531994  0.045335  1
  Pb  Pb22  1  0.283463  0.031586  0.951981  1
  Pb  Pb23  1  0.783463  0.468414  0.548019  1
  Pb  Pb24  1  0.283463  0.031586  0.548019  1
  Pb  Pb25  1  0.783463  0.468414  0.951981  1
  Pb  Pb26  1  0.716071  0.968006  0.045335  1
  Pb  Pb27  1  0.216071  0.531994  0.454665  1
  Pb  Pb28  1  0.435422  0.378360  0.750000  1
  Pb  Pb29  1  0.935422  0.121640  0.750000  1
  Pb  Pb30  1  0.567680  0.623447  0.250000  1
  Pb  Pb31  1  0.067680  0.876553  0.250000  1
  Pb  Pb32  1  0.660682  0.842966  0.750000  1
  Pb  Pb33  1  0.160682  0.657034  0.750000  1
  Pb  Pb34  1  0.339558  0.154514  0.250000  1
  Pb  Pb35  1  0.839558  0.345486  0.250000  1
