# generated using pymatgen
data_HoTmLu6(CdPt)2
_symmetry_space_group_name_H-M   'P 1'
_cell_length_a   9.51754492
_cell_length_b   9.51219395
_cell_length_c   9.50973420
_cell_angle_alpha   60.04577243
_cell_angle_beta   59.98993123
_cell_angle_gamma   59.96429764
_symmetry_Int_Tables_number   1
_chemical_formula_structural   HoTmLu6(CdPt)2
_chemical_formula_sum   'Ho2 Tm2 Lu12 Cd4 Pt4'
_cell_volume   608.77745074
_cell_formula_units_Z   2
loop_
 _symmetry_equiv_pos_site_id
 _symmetry_equiv_pos_as_xyz
  1  'x, y, z'
loop_
 _atom_site_type_symbol
 _atom_site_label
 _atom_site_symmetry_multiplicity
 _atom_site_fract_x
 _atom_site_fract_y
 _atom_site_fract_z
 _atom_site_occupancy
  Ho  Ho0  1  0.814813  0.814813  0.185187  1
  Ho  Ho1  1  0.185187  0.185187  0.814813  1
  Tm  Tm2  1  0.814539  0.185461  0.814539  1
  Tm  Tm3  1  0.185461  0.814539  0.185461  1
  Lu  Lu4  1  0.602295  0.602424  0.602619  1
  Lu  Lu5  1  0.602424  0.602295  0.192662  1
  Lu  Lu6  1  0.602619  0.192662  0.602295  1
  Lu  Lu7  1  0.192662  0.602619  0.602424  1
  Lu  Lu8  1  0.060691  0.439309  0.439309  1
  Lu  Lu9  1  0.439309  0.060691  0.060691  1
  Lu  Lu10  1  0.439251  0.060749  0.439251  1
  Lu  Lu11  1  0.060749  0.439251  0.060749  1
  Lu  Lu12  1  0.439261  0.439261  0.060739  1
  Lu  Lu13  1  0.060739  0.060739  0.439261  1
  Lu  Lu14  1  0.186628  0.813372  0.813372  1
  Lu  Lu15  1  0.813372  0.186628  0.186628  1
  Cd  Cd16  1  0.832452  0.831716  0.831524  1
  Cd  Cd17  1  0.831716  0.832452  0.504309  1
  Cd  Cd18  1  0.831524  0.504309  0.832452  1
  Cd  Cd19  1  0.504309  0.831524  0.831716  1
  Pt  Pt20  1  0.393631  0.393068  0.392866  1
  Pt  Pt21  1  0.393068  0.393631  0.820434  1
  Pt  Pt22  1  0.392866  0.820434  0.393631  1
  Pt  Pt23  1  0.820434  0.392866  0.393068  1
