# generated using pymatgen
data_Cs3ErBi2
_symmetry_space_group_name_H-M   'P 1'
_cell_length_a   10.69507972
_cell_length_b   10.69416257
_cell_length_c   10.69392790
_cell_angle_alpha   127.17475665
_cell_angle_beta   70.55076603
_cell_angle_gamma   136.77152650
_symmetry_Int_Tables_number   1
_chemical_formula_structural   Cs3ErBi2
_chemical_formula_sum   'Cs6 Er2 Bi4'
_cell_volume   654.46619241
_cell_formula_units_Z   2
loop_
 _symmetry_equiv_pos_site_id
 _symmetry_equiv_pos_as_xyz
  1  'x, y, z'
loop_
 _atom_site_type_symbol
 _atom_site_label
 _atom_site_symmetry_multiplicity
 _atom_site_fract_x
 _atom_site_fract_y
 _atom_site_fract_z
 _atom_site_occupancy
  Cs  Cs0  1  0.250005  0.249949  0.999985  1
  Cs  Cs1  1  0.749961  0.750024  0.000022  1
  Cs  Cs2  1  0.314553  0.806578  0.120942  1
  Cs  Cs3  1  0.185572  0.306463  0.492064  1
  Cs  Cs4  1  0.814432  0.693571  0.508072  1
  Cs  Cs5  1  0.685459  0.193321  0.879076  1
  Er  Er6  1  0.749957  0.249922  0.499864  1
  Er  Er7  1  0.249825  0.749935  0.499863  1
  Bi  Bi8  1  0.905831  0.313271  0.219111  1
  Bi  Bi9  1  0.594328  0.813377  0.407415  1
  Bi  Bi10  1  0.405776  0.186675  0.592569  1
  Bi  Bi11  1  0.094301  0.686915  0.781018  1
