# generated using pymatgen
data_KTi4Tl7P2(O4F9)2
_symmetry_space_group_name_H-M   'P 1'
_cell_length_a   11.16271500
_cell_length_b   5.93705218
_cell_length_c   20.49010500
_cell_angle_alpha   74.14203170
_cell_angle_beta   90.00000000
_cell_angle_gamma   90.00000000
_symmetry_Int_Tables_number   1
_chemical_formula_structural   KTi4Tl7P2(O4F9)2
_chemical_formula_sum   'K2 Ti8 Tl14 P4 O16 F36'
_cell_volume   1306.27250363
_cell_formula_units_Z   2
loop_
 _symmetry_equiv_pos_site_id
 _symmetry_equiv_pos_as_xyz
  1  'x, y, z'
loop_
 _atom_site_type_symbol
 _atom_site_label
 _atom_site_symmetry_multiplicity
 _atom_site_fract_x
 _atom_site_fract_y
 _atom_site_fract_z
 _atom_site_occupancy
  K  K0  1  0.744492  0.125819  0.359051  1
  K  K1  1  0.955101  0.342846  0.167478  1
  Ti  Ti2  1  0.997895  0.001130  0.498687  1
  Ti  Ti3  1  0.746562  0.718879  0.753814  1
  Ti  Ti4  1  0.251204  0.281141  0.245649  1
  Ti  Ti5  1  0.246235  0.280520  0.746966  1
  Ti  Ti6  1  0.500434  0.000851  0.000835  1
  Ti  Ti7  1  0.999732  0.998869  0.001868  1
  Ti  Ti8  1  0.755515  0.716573  0.254352  1
  Ti  Ti9  1  0.502227  0.001969  0.498171  1
  Tl  Tl10  1  0.049529  0.653553  0.835685  1
  Tl  Tl11  1  0.451425  0.653159  0.334688  1
  Tl  Tl12  1  0.267739  0.459380  0.512514  1
  Tl  Tl13  1  0.731876  0.538415  0.487644  1
  Tl  Tl14  1  0.757627  0.125469  0.862183  1
  Tl  Tl15  1  0.768828  0.538168  0.988322  1
  Tl  Tl16  1  0.452730  0.632185  0.852180  1
  Tl  Tl17  1  0.046121  0.633482  0.350884  1
  Tl  Tl18  1  0.242908  0.874585  0.138074  1
  Tl  Tl19  1  0.952591  0.367687  0.648333  1
  Tl  Tl20  1  0.550680  0.366066  0.149621  1
  Tl  Tl21  1  0.549873  0.346430  0.664855  1
  Tl  Tl22  1  0.256780  0.874163  0.638039  1
  Tl  Tl23  1  0.230088  0.460857  0.013099  1
  P  P24  1  0.752711  0.949912  0.592004  1
  P  P25  1  0.252366  0.048461  0.909054  1
  P  P26  1  0.748825  0.951527  0.093142  1
  P  P27  1  0.247320  0.049848  0.407590  1
  O  O28  1  0.161019  0.066920  0.965135  1
  O  O29  1  0.376351  0.118770  0.932045  1
  O  O30  1  0.754369  0.191188  0.105551  1
  O  O31  1  0.623272  0.888363  0.069715  1
  O  O32  1  0.837989  0.930145  0.036417  1
  O  O33  1  0.248615  0.807587  0.396665  1
  O  O34  1  0.341059  0.073156  0.461813  1
  O  O35  1  0.219202  0.242487  0.842665  1
  O  O36  1  0.720044  0.755341  0.658160  1
  O  O37  1  0.277630  0.244248  0.340938  1
  O  O38  1  0.123606  0.118658  0.431566  1
  O  O39  1  0.251098  0.807181  0.897374  1
  O  O40  1  0.661522  0.929854  0.536256  1
  O  O41  1  0.751364  0.191226  0.603595  1
  O  O42  1  0.876738  0.880672  0.568491  1
  O  O43  1  0.780483  0.751491  0.158320  1
  F  F44  1  0.962604  0.850247  0.933793  1
  F  F45  1  0.446136  0.713372  0.555120  1
  F  F46  1  0.771071  0.658018  0.849726  1
  F  F47  1  0.129947  0.055725  0.258419  1
  F  F48  1  0.128038  0.521540  0.725416  1
  F  F49  1  0.133462  0.518579  0.240109  1
  F  F50  1  0.034474  0.149383  0.069823  1
  F  F51  1  0.367108  0.055071  0.759716  1
  F  F52  1  0.899471  0.256186  0.453908  1
  F  F53  1  0.945394  0.286625  0.943240  1
  F  F54  1  0.463638  0.151336  0.565700  1
  F  F55  1  0.867316  0.944834  0.740499  1
  F  F56  1  0.369554  0.521679  0.224746  1
  F  F57  1  0.361773  0.521013  0.741977  1
  F  F58  1  0.926604  0.835094  0.441500  1
  F  F59  1  0.869330  0.944938  0.259387  1
  F  F60  1  0.734144  0.665957  0.350007  1
  F  F61  1  0.093619  0.740689  0.542047  1
  F  F62  1  0.066416  0.174582  0.554456  1
  F  F63  1  0.404665  0.740530  0.044349  1
  F  F64  1  0.544107  0.859265  0.429409  1
  F  F65  1  0.560962  0.286602  0.439799  1
  F  F66  1  0.632663  0.940252  0.240659  1
  F  F67  1  0.270661  0.341427  0.650791  1
  F  F68  1  0.429967  0.173184  0.056466  1
  F  F69  1  0.862245  0.479061  0.758317  1
  F  F70  1  0.130834  0.057512  0.739312  1
  F  F71  1  0.051560  0.709816  0.061203  1
  F  F72  1  0.225843  0.341404  0.149833  1
  F  F73  1  0.871909  0.473837  0.274095  1
  F  F74  1  0.630844  0.942248  0.760769  1
  F  F75  1  0.639257  0.474671  0.261630  1
  F  F76  1  0.595843  0.260286  0.955982  1
  F  F77  1  0.366936  0.057954  0.238668  1
  F  F78  1  0.569856  0.829265  0.944716  1
  F  F79  1  0.627975  0.478589  0.774922  1
