# generated using pymatgen
data_Li4Ac3CeSi8
_symmetry_space_group_name_H-M   'P 1'
_cell_length_a   3.95042600
_cell_length_b   7.81873149
_cell_length_c   10.89158055
_cell_angle_alpha   89.96148540
_cell_angle_beta   90.00000000
_cell_angle_gamma   90.00000000
_symmetry_Int_Tables_number   1
_chemical_formula_structural   Li4Ac3CeSi8
_chemical_formula_sum   'Li4 Ac3 Ce1 Si8'
_cell_volume   336.41165960
_cell_formula_units_Z   1
loop_
 _symmetry_equiv_pos_site_id
 _symmetry_equiv_pos_as_xyz
  1  'x, y, z'
loop_
 _atom_site_type_symbol
 _atom_site_label
 _atom_site_symmetry_multiplicity
 _atom_site_fract_x
 _atom_site_fract_y
 _atom_site_fract_z
 _atom_site_occupancy
  Li  Li0  1  0.250000  0.992805  0.389649  1
  Li  Li1  1  0.250000  0.501687  0.112230  1
  Li  Li2  1  0.750000  0.000205  0.606682  1
  Li  Li3  1  0.750000  0.502796  0.888773  1
  Ac  Ac4  1  0.250000  0.144474  0.868509  1
  Ac  Ac5  1  0.250000  0.638341  0.631561  1
  Ac  Ac6  1  0.750000  0.862295  0.134294  1
  Ce  Ce7  1  0.750000  0.363383  0.367438  1
  Si  Si8  1  0.250000  0.221285  0.565465  1
  Si  Si9  1  0.250000  0.718988  0.924580  1
  Si  Si10  1  0.750000  0.769311  0.423016  1
  Si  Si11  1  0.750000  0.288715  0.084625  1
  Si  Si12  1  0.250000  0.658243  0.322674  1
  Si  Si13  1  0.250000  0.179712  0.188012  1
  Si  Si14  1  0.750000  0.326271  0.669168  1
  Si  Si15  1  0.750000  0.831489  0.823325  1
