# generated using pymatgen
data_TbTa5(B2Os5)2
_symmetry_space_group_name_H-M   'P 1'
_cell_length_a   9.59680541
_cell_length_b   9.59680472
_cell_length_c   3.06065000
_cell_angle_alpha   90.00000000
_cell_angle_beta   90.00000000
_cell_angle_gamma   90.55063377
_symmetry_Int_Tables_number   1
_chemical_formula_structural   TbTa5(B2Os5)2
_chemical_formula_sum   'Tb1 Ta5 B4 Os10'
_cell_volume   281.86876950
_cell_formula_units_Z   1
loop_
 _symmetry_equiv_pos_site_id
 _symmetry_equiv_pos_as_xyz
  1  'x, y, z'
loop_
 _atom_site_type_symbol
 _atom_site_label
 _atom_site_symmetry_multiplicity
 _atom_site_fract_x
 _atom_site_fract_y
 _atom_site_fract_z
 _atom_site_occupancy
  Tb  Tb0  1  0.824038  0.675962  0.000000  1
  Ta  Ta1  1  0.179893  0.320107  0.000000  1
  Ta  Ta2  1  0.324216  0.822784  0.000000  1
  Ta  Ta3  1  0.677216  0.175784  0.000000  1
  Ta  Ta4  1  0.501741  0.500962  0.000000  1
  Ta  Ta5  1  0.999038  0.998259  0.000000  1
  B  B6  1  0.618825  0.881175  0.000000  1
  B  B7  1  0.377150  0.122850  0.000000  1
  B  B8  1  0.122319  0.619650  0.000000  1
  B  B9  1  0.880350  0.377681  0.000000  1
  Os  Os10  1  0.556698  0.726103  0.500000  1
  Os  Os11  1  0.426223  0.283685  0.500000  1
  Os  Os12  1  0.083470  0.782386  0.500000  1
  Os  Os13  1  0.930383  0.215699  0.500000  1
  Os  Os14  1  0.284301  0.569617  0.500000  1
  Os  Os15  1  0.717614  0.416530  0.500000  1
  Os  Os16  1  0.216315  0.073777  0.500000  1
  Os  Os17  1  0.773897  0.943302  0.500000  1
  Os  Os18  1  0.495132  0.004868  0.500000  1
  Os  Os19  1  0.011182  0.488818  0.500000  1
