# generated using pymatgen
data_Th3Pa3(Cu3Sn4)2
_symmetry_space_group_name_H-M   'P 1'
_cell_length_a   8.35176819
_cell_length_b   8.35109228
_cell_length_c   8.35538002
_cell_angle_alpha   109.51606653
_cell_angle_beta   109.39656830
_cell_angle_gamma   109.47908365
_symmetry_Int_Tables_number   1
_chemical_formula_structural   Th3Pa3(Cu3Sn4)2
_chemical_formula_sum   'Th3 Pa3 Cu6 Sn8'
_cell_volume   448.72804737
_cell_formula_units_Z   1
loop_
 _symmetry_equiv_pos_site_id
 _symmetry_equiv_pos_as_xyz
  1  'x, y, z'
loop_
 _atom_site_type_symbol
 _atom_site_label
 _atom_site_symmetry_multiplicity
 _atom_site_fract_x
 _atom_site_fract_y
 _atom_site_fract_z
 _atom_site_occupancy
  Th  Th0  1  0.877530  0.751183  0.125873  1
  Th  Th1  1  0.122995  0.372926  0.249939  1
  Th  Th2  1  0.625273  0.251776  0.374254  1
  Pa  Pa3  1  0.748813  0.872921  0.624270  1
  Pa  Pa4  1  0.376881  0.126805  0.749947  1
  Pa  Pa5  1  0.248648  0.624547  0.875734  1
  Cu  Cu6  1  0.745068  0.373576  0.120665  1
  Cu  Cu7  1  0.624460  0.874704  0.249427  1
  Cu  Cu8  1  0.252915  0.124404  0.379375  1
  Cu  Cu9  1  0.375378  0.753378  0.627877  1
  Cu  Cu10  1  0.875866  0.625342  0.750224  1
  Cu  Cu11  1  0.126283  0.248533  0.872417  1
  Sn  Sn12  1  0.169372  0.997992  0.994983  1
  Sn  Sn13  1  0.663923  0.996693  0.994779  1
  Sn  Sn14  1  0.498704  0.501216  0.167006  1
  Sn  Sn15  1  0.333888  0.831455  0.332654  1
  Sn  Sn16  1  0.003104  0.674222  0.505104  1
  Sn  Sn17  1  0.002009  0.169449  0.505230  1
  Sn  Sn18  1  0.499087  0.501383  0.671927  1
  Sn  Sn19  1  0.829804  0.327494  0.828317  1
