# generated using pymatgen
data_NdDy2Hf3(SnRh)6
_symmetry_space_group_name_H-M   'P 1'
_cell_length_a   7.47956502
_cell_length_b   7.48652547
_cell_length_c   7.58251700
_cell_angle_alpha   90.00000000
_cell_angle_beta   90.00000000
_cell_angle_gamma   119.96198435
_symmetry_Int_Tables_number   1
_chemical_formula_structural   NdDy2Hf3(SnRh)6
_chemical_formula_sum   'Nd1 Dy2 Hf3 Sn6 Rh6'
_cell_volume   367.84673899
_cell_formula_units_Z   1
loop_
 _symmetry_equiv_pos_site_id
 _symmetry_equiv_pos_as_xyz
  1  'x, y, z'
loop_
 _atom_site_type_symbol
 _atom_site_label
 _atom_site_symmetry_multiplicity
 _atom_site_fract_x
 _atom_site_fract_y
 _atom_site_fract_z
 _atom_site_occupancy
  Nd  Nd0  1  0.408632  0.000028  0.750000  1
  Dy  Dy1  1  0.000384  0.406659  0.750000  1
  Dy  Dy2  1  0.593820  0.593271  0.750000  1
  Hf  Hf3  1  0.999988  0.393763  0.250000  1
  Hf  Hf4  1  0.606580  0.605888  0.250000  1
  Hf  Hf5  1  0.393289  0.000345  0.250000  1
  Sn  Sn6  1  0.265175  0.267153  0.492253  1
  Sn  Sn7  1  0.998473  0.733120  0.492273  1
  Sn  Sn8  1  0.998473  0.733120  0.007727  1
  Sn  Sn9  1  0.735539  0.999692  0.488970  1
  Sn  Sn10  1  0.735539  0.999692  0.011030  1
  Sn  Sn11  1  0.265175  0.267153  0.007747  1
  Rh  Rh12  1  0.333093  0.665526  0.456535  1
  Rh  Rh13  1  0.667599  0.334511  0.457081  1
  Rh  Rh14  1  0.333093  0.665526  0.043465  1
  Rh  Rh15  1  0.995774  0.000012  0.750000  1
  Rh  Rh16  1  0.001776  0.000031  0.250000  1
  Rh  Rh17  1  0.667599  0.334511  0.042919  1
