# generated using pymatgen
data_Pr6Y10Cd4OsPt3
_symmetry_space_group_name_H-M   'P 1'
_cell_length_a   9.85792439
_cell_length_b   9.85792432
_cell_length_c   9.85792516
_cell_angle_alpha   59.78829309
_cell_angle_beta   59.78829831
_cell_angle_gamma   59.78829815
_symmetry_Int_Tables_number   1
_chemical_formula_structural   Pr6Y10Cd4OsPt3
_chemical_formula_sum   'Pr6 Y10 Cd4 Os1 Pt3'
_cell_volume   674.13851991
_cell_formula_units_Z   1
loop_
 _symmetry_equiv_pos_site_id
 _symmetry_equiv_pos_as_xyz
  1  'x, y, z'
loop_
 _atom_site_type_symbol
 _atom_site_label
 _atom_site_symmetry_multiplicity
 _atom_site_fract_x
 _atom_site_fract_y
 _atom_site_fract_z
 _atom_site_occupancy
  Pr  Pr0  1  0.938116  0.561978  0.561978  1
  Pr  Pr1  1  0.556141  0.940267  0.940267  1
  Pr  Pr2  1  0.561978  0.938116  0.561978  1
  Pr  Pr3  1  0.940267  0.556141  0.940267  1
  Pr  Pr4  1  0.561978  0.561978  0.938116  1
  Pr  Pr5  1  0.940267  0.940267  0.556141  1
  Y  Y6  1  0.351348  0.351348  0.351348  1
  Y  Y7  1  0.347512  0.347512  0.954243  1
  Y  Y8  1  0.347512  0.954243  0.347512  1
  Y  Y9  1  0.954243  0.347512  0.347512  1
  Y  Y10  1  0.816497  0.186943  0.186943  1
  Y  Y11  1  0.185164  0.811012  0.811012  1
  Y  Y12  1  0.186943  0.816497  0.186943  1
  Y  Y13  1  0.811012  0.185164  0.811012  1
  Y  Y14  1  0.186943  0.186943  0.816497  1
  Y  Y15  1  0.811012  0.811012  0.185164  1
  Cd  Cd16  1  0.579165  0.579165  0.579165  1
  Cd  Cd17  1  0.579358  0.579358  0.260866  1
  Cd  Cd18  1  0.579358  0.260866  0.579358  1
  Cd  Cd19  1  0.260866  0.579358  0.579358  1
  Os  Os20  1  0.142412  0.142412  0.142412  1
  Pt  Pt21  1  0.143729  0.143729  0.574453  1
  Pt  Pt22  1  0.143729  0.574453  0.143729  1
  Pt  Pt23  1  0.574453  0.143729  0.143729  1
