# generated using pymatgen
data_Ba12YHo3Al8O30
_symmetry_space_group_name_H-M   'P 1'
_cell_length_a   5.95308001
_cell_length_b   7.92291946
_cell_length_c   18.49787983
_cell_angle_alpha   88.35253648
_cell_angle_beta   90.00525746
_cell_angle_gamma   89.99905828
_symmetry_Int_Tables_number   1
_chemical_formula_structural   Ba12YHo3Al8O30
_chemical_formula_sum   'Ba12 Y1 Ho3 Al8 O30'
_cell_volume   872.10616330
_cell_formula_units_Z   1
loop_
 _symmetry_equiv_pos_site_id
 _symmetry_equiv_pos_as_xyz
  1  'x, y, z'
loop_
 _atom_site_type_symbol
 _atom_site_label
 _atom_site_symmetry_multiplicity
 _atom_site_fract_x
 _atom_site_fract_y
 _atom_site_fract_z
 _atom_site_occupancy
  Ba  Ba0  1  0.757620  0.501287  0.081927  1
  Ba  Ba1  1  0.242385  0.498719  0.918064  1
  Ba  Ba2  1  0.757580  0.498484  0.418069  1
  Ba  Ba3  1  0.242380  0.501191  0.582017  1
  Ba  Ba4  1  0.746589  0.970098  0.089570  1
  Ba  Ba5  1  0.253412  0.029896  0.910418  1
  Ba  Ba6  1  0.746576  0.030152  0.410425  1
  Ba  Ba7  1  0.253428  0.970173  0.589691  1
  Ba  Ba8  1  0.725808  0.000007  0.750000  1
  Ba  Ba9  1  0.274194  0.000162  0.249876  1
  Ba  Ba10  1  0.672611  0.499988  0.750004  1
  Ba  Ba11  1  0.327439  0.499892  0.249936  1
  Y  Y12  1  0.252922  0.752384  0.410391  1
  Ho  Ho13  1  0.746849  0.751993  0.910415  1
  Ho  Ho14  1  0.253148  0.248043  0.089565  1
  Ho  Ho15  1  0.746857  0.247982  0.589614  1
  Al  Al16  1  0.749048  0.752252  0.556328  1
  Al  Al17  1  0.250907  0.247613  0.444089  1
  Al  Al18  1  0.749064  0.247734  0.944003  1
  Al  Al19  1  0.250948  0.752262  0.056003  1
  Al  Al20  1  0.770729  0.779140  0.267744  1
  Al  Al21  1  0.229286  0.220965  0.732014  1
  Al  Al22  1  0.770738  0.221014  0.232001  1
  Al  Al23  1  0.229283  0.779032  0.768003  1
  O  O24  1  0.208310  0.999994  0.749997  1
  O  O25  1  0.791726  0.000119  0.249969  1
  O  O26  1  0.498800  0.764042  0.000656  1
  O  O27  1  0.501196  0.235962  0.999342  1
  O  O28  1  0.498897  0.235886  0.499373  1
  O  O29  1  0.501785  0.764201  0.501096  1
  O  O30  1  0.760372  0.944244  0.606076  1
  O  O31  1  0.239553  0.056783  0.393866  1
  O  O32  1  0.760338  0.055948  0.894057  1
  O  O33  1  0.239665  0.944057  0.105949  1
  O  O34  1  0.012139  0.762581  0.995485  1
  O  O35  1  0.987872  0.237420  0.004514  1
  O  O36  1  0.012060  0.237342  0.504562  1
  O  O37  1  0.987024  0.762700  0.495882  1
  O  O38  1  0.315173  0.691791  0.686990  1
  O  O39  1  0.684853  0.308186  0.313018  1
  O  O40  1  0.315184  0.308206  0.813016  1
  O  O41  1  0.684663  0.691774  0.186831  1
  O  O42  1  0.451587  0.753833  0.833357  1
  O  O43  1  0.548392  0.246164  0.166646  1
  O  O44  1  0.451548  0.246172  0.666648  1
  O  O45  1  0.549457  0.753777  0.333116  1
  O  O46  1  0.970915  0.729317  0.811691  1
  O  O47  1  0.029109  0.270677  0.188302  1
  O  O48  1  0.970933  0.270691  0.688317  1
  O  O49  1  0.028785  0.728987  0.311170  1
  O  O50  1  0.753365  0.538809  0.592311  1
  O  O51  1  0.246501  0.459880  0.407601  1
  O  O52  1  0.753351  0.460997  0.907769  1
  O  O53  1  0.246648  0.538996  0.092228  1
