# generated using pymatgen
data_Ba5(ZnPd)3
_symmetry_space_group_name_H-M   'P 1'
_cell_length_a   15.97218900
_cell_length_b   15.97218916
_cell_length_c   4.63026900
_cell_angle_alpha   90.00000000
_cell_angle_beta   90.00000000
_cell_angle_gamma   163.19198293
_symmetry_Int_Tables_number   1
_chemical_formula_structural   Ba5(ZnPd)3
_chemical_formula_sum   'Ba5 Zn3 Pd3'
_cell_volume   341.57175775
_cell_formula_units_Z   1
loop_
 _symmetry_equiv_pos_site_id
 _symmetry_equiv_pos_as_xyz
  1  'x, y, z'
loop_
 _atom_site_type_symbol
 _atom_site_label
 _atom_site_symmetry_multiplicity
 _atom_site_fract_x
 _atom_site_fract_y
 _atom_site_fract_z
 _atom_site_occupancy
  Ba  Ba0  1  0.997452  0.002548  0.000000  1
  Ba  Ba1  1  0.612910  0.387088  0.000000  1
  Ba  Ba2  1  0.384157  0.615841  0.000000  1
  Ba  Ba3  1  0.803997  0.196001  0.500001  1
  Ba  Ba4  1  0.195978  0.804020  0.500001  1
  Zn  Zn5  1  0.271812  0.728186  0.000000  1
  Zn  Zn6  1  0.459892  0.540106  0.500001  1
  Zn  Zn7  1  0.078728  0.921271  0.500001  1
  Pd  Pd8  1  0.731697  0.268301  0.000000  1
  Pd  Pd9  1  0.920456  0.079543  0.500001  1
  Pd  Pd10  1  0.542910  0.457088  0.500001  1
