# generated using pymatgen
data_Ba4Sr2Pr2Co4O15
_symmetry_space_group_name_H-M   'P 1'
_cell_length_a   11.76873384
_cell_length_b   11.76873455
_cell_length_c   6.92478741
_cell_angle_alpha   89.93412775
_cell_angle_beta   89.93413190
_cell_angle_gamma   119.88038199
_symmetry_Int_Tables_number   1
_chemical_formula_structural   Ba4Sr2Pr2Co4O15
_chemical_formula_sum   'Ba8 Sr4 Pr4 Co8 O30'
_cell_volume   831.60608274
_cell_formula_units_Z   2
loop_
 _symmetry_equiv_pos_site_id
 _symmetry_equiv_pos_as_xyz
  1  'x, y, z'
loop_
 _atom_site_type_symbol
 _atom_site_label
 _atom_site_symmetry_multiplicity
 _atom_site_fract_x
 _atom_site_fract_y
 _atom_site_fract_z
 _atom_site_occupancy
  Ba  Ba0  1  0.822867  0.176265  0.329776  1
  Ba  Ba1  1  0.827830  0.652045  0.326904  1
  Ba  Ba2  1  0.349462  0.175500  0.334000  1
  Ba  Ba3  1  0.176265  0.822867  0.829776  1
  Ba  Ba4  1  0.175500  0.349462  0.834000  1
  Ba  Ba5  1  0.652045  0.827830  0.826904  1
  Ba  Ba6  1  0.666195  0.332981  0.022377  1
  Ba  Ba7  1  0.332981  0.666195  0.522377  1
  Sr  Sr8  1  0.999686  0.999966  0.513282  1
  Sr  Sr9  1  0.999966  0.999686  0.013282  1
  Sr  Sr10  1  0.525487  0.049834  0.668949  1
  Sr  Sr11  1  0.049834  0.525487  0.168949  1
  Pr  Pr12  1  0.523867  0.475345  0.666823  1
  Pr  Pr13  1  0.951008  0.477056  0.666265  1
  Pr  Pr14  1  0.475345  0.523867  0.166823  1
  Pr  Pr15  1  0.477056  0.951008  0.166265  1
  Co  Co16  1  0.665018  0.332550  0.488723  1
  Co  Co17  1  0.332550  0.665018  0.988723  1
  Co  Co18  1  0.825377  0.176786  0.835604  1
  Co  Co19  1  0.825873  0.650660  0.832897  1
  Co  Co20  1  0.350459  0.171771  0.838646  1
  Co  Co21  1  0.176786  0.825377  0.335604  1
  Co  Co22  1  0.171771  0.350459  0.338646  1
  Co  Co23  1  0.650660  0.825873  0.332897  1
  O  O24  1  0.062716  0.671619  0.477757  1
  O  O25  1  0.333476  0.396837  0.466197  1
  O  O26  1  0.604582  0.933658  0.456391  1
  O  O27  1  0.066103  0.392135  0.478921  1
  O  O28  1  0.328751  0.935460  0.461221  1
  O  O29  1  0.604528  0.665934  0.461009  1
  O  O30  1  0.935460  0.328751  0.961221  1
  O  O31  1  0.665934  0.604528  0.961009  1
  O  O32  1  0.392135  0.066103  0.978921  1
  O  O33  1  0.933658  0.604582  0.956391  1
  O  O34  1  0.671619  0.062716  0.977757  1
  O  O35  1  0.396837  0.333476  0.966197  1
  O  O36  1  0.585063  0.413657  0.337114  1
  O  O37  1  0.587117  0.174714  0.332117  1
  O  O38  1  0.825102  0.412752  0.342491  1
  O  O39  1  0.413657  0.585063  0.837114  1
  O  O40  1  0.412752  0.825102  0.842491  1
  O  O41  1  0.174714  0.587117  0.832117  1
  O  O42  1  0.083864  0.900930  0.250687  1
  O  O43  1  0.096823  0.183643  0.250600  1
  O  O44  1  0.819836  0.904407  0.254362  1
  O  O45  1  0.900930  0.083864  0.750687  1
  O  O46  1  0.904407  0.819836  0.754362  1
  O  O47  1  0.183643  0.096823  0.750600  1
  O  O48  1  0.752967  0.255170  0.661417  1
  O  O49  1  0.748403  0.500470  0.656988  1
  O  O50  1  0.499837  0.255558  0.662679  1
  O  O51  1  0.255170  0.752967  0.161417  1
  O  O52  1  0.255558  0.499837  0.162679  1
  O  O53  1  0.500470  0.748403  0.156988  1
