# generated using pymatgen
data_CeHo2Th(ReC2)2
_symmetry_space_group_name_H-M   'P 1'
_cell_length_a   5.23887300
_cell_length_b   6.61196700
_cell_length_c   9.84806400
_cell_angle_alpha   90.00000000
_cell_angle_beta   90.00000000
_cell_angle_gamma   90.00000000
_symmetry_Int_Tables_number   1
_chemical_formula_structural   CeHo2Th(ReC2)2
_chemical_formula_sum   'Ce2 Ho4 Th2 Re4 C8'
_cell_volume   341.12960402
_cell_formula_units_Z   2
loop_
 _symmetry_equiv_pos_site_id
 _symmetry_equiv_pos_as_xyz
  1  'x, y, z'
loop_
 _atom_site_type_symbol
 _atom_site_label
 _atom_site_symmetry_multiplicity
 _atom_site_fract_x
 _atom_site_fract_y
 _atom_site_fract_z
 _atom_site_occupancy
  Ce  Ce0  1  0.250000  0.469904  0.785196  1
  Ce  Ce1  1  0.750000  0.030096  0.285196  1
  Ho  Ho2  1  0.250000  0.824294  0.051890  1
  Ho  Ho3  1  0.750000  0.675706  0.551890  1
  Ho  Ho4  1  0.250000  0.322984  0.448359  1
  Ho  Ho5  1  0.750000  0.177016  0.948359  1
  Th  Th6  1  0.250000  0.970766  0.715125  1
  Th  Th7  1  0.750000  0.529234  0.215125  1
  Re  Re8  1  0.250000  0.273308  0.135769  1
  Re  Re9  1  0.750000  0.226692  0.635769  1
  Re  Re10  1  0.250000  0.773944  0.364203  1
  Re  Re11  1  0.750000  0.726056  0.864203  1
  C  C12  1  0.250000  0.171289  0.947761  1
  C  C13  1  0.750000  0.829693  0.052013  1
  C  C14  1  0.250000  0.670307  0.552013  1
  C  C15  1  0.750000  0.328711  0.447761  1
  C  C16  1  0.250000  0.041614  0.261090  1
  C  C17  1  0.750000  0.458386  0.761090  1
  C  C18  1  0.250000  0.541716  0.238594  1
  C  C19  1  0.750000  0.958284  0.738594  1
