# generated using pymatgen
data_Ce5Nd3(Nb3Si4)4
_symmetry_space_group_name_H-M   'P 1'
_cell_length_a   6.96929137
_cell_length_b   7.16635345
_cell_length_c   13.54297404
_cell_angle_alpha   89.95116234
_cell_angle_beta   90.07618092
_cell_angle_gamma   89.97735846
_symmetry_Int_Tables_number   1
_chemical_formula_structural   Ce5Nd3(Nb3Si4)4
_chemical_formula_sum   'Ce5 Nd3 Nb12 Si16'
_cell_volume   676.39488728
_cell_formula_units_Z   1
loop_
 _symmetry_equiv_pos_site_id
 _symmetry_equiv_pos_as_xyz
  1  'x, y, z'
loop_
 _atom_site_type_symbol
 _atom_site_label
 _atom_site_symmetry_multiplicity
 _atom_site_fract_x
 _atom_site_fract_y
 _atom_site_fract_z
 _atom_site_occupancy
  Ce  Ce0  1  0.504747  0.332275  0.094531  1
  Ce  Ce1  1  0.004442  0.169364  0.403876  1
  Ce  Ce2  1  0.495092  0.669090  0.595419  1
  Ce  Ce3  1  0.995701  0.830121  0.904384  1
  Ce  Ce4  1  0.495947  0.668112  0.905747  1
  Nd  Nd5  1  0.997380  0.831357  0.594689  1
  Nd  Nd6  1  0.503435  0.331589  0.405157  1
  Nd  Nd7  1  0.003536  0.168613  0.094685  1
  Nb  Nb8  1  0.663496  0.006348  0.750782  1
  Nb  Nb9  1  0.164921  0.493601  0.750701  1
  Nb  Nb10  1  0.335940  0.992192  0.249477  1
  Nb  Nb11  1  0.836419  0.508044  0.250199  1
  Nb  Nb12  1  0.836285  0.326073  0.626021  1
  Nb  Nb13  1  0.336535  0.173544  0.874684  1
  Nb  Nb14  1  0.164611  0.673476  0.124861  1
  Nb  Nb15  1  0.663791  0.826403  0.374650  1
  Nb  Nb16  1  0.162416  0.673980  0.373727  1
  Nb  Nb17  1  0.660699  0.825343  0.125581  1
  Nb  Nb18  1  0.835917  0.327323  0.874267  1
  Nb  Nb19  1  0.338040  0.173016  0.626965  1
  Si  Si20  1  0.796975  0.619709  0.750210  1
  Si  Si21  1  0.299449  0.879318  0.750835  1
  Si  Si22  1  0.202398  0.380636  0.249685  1
  Si  Si23  1  0.701654  0.119711  0.249778  1
  Si  Si24  1  0.541163  0.372663  0.750170  1
  Si  Si25  1  0.041732  0.129546  0.750812  1
  Si  Si26  1  0.458472  0.628783  0.249794  1
  Si  Si27  1  0.958054  0.870739  0.249839  1
  Si  Si28  1  0.658610  0.040096  0.542945  1
  Si  Si29  1  0.159824  0.460708  0.956692  1
  Si  Si30  1  0.341539  0.958937  0.042220  1
  Si  Si31  1  0.841148  0.540083  0.457315  1
  Si  Si32  1  0.341151  0.958883  0.457058  1
  Si  Si33  1  0.841050  0.542200  0.042747  1
  Si  Si34  1  0.658740  0.039794  0.956703  1
  Si  Si35  1  0.158685  0.458328  0.542793  1
