# generated using pymatgen
data_Tb3Y5(AlPt)2
_symmetry_space_group_name_H-M   'P 1'
_cell_length_a   9.63645870
_cell_length_b   9.65024436
_cell_length_c   9.65021324
_cell_angle_alpha   59.90589166
_cell_angle_beta   60.04692561
_cell_angle_gamma   60.04711530
_symmetry_Int_Tables_number   1
_chemical_formula_structural   Tb3Y5(AlPt)2
_chemical_formula_sum   'Tb6 Y10 Al4 Pt4'
_cell_volume   634.56441037
_cell_formula_units_Z   2
loop_
 _symmetry_equiv_pos_site_id
 _symmetry_equiv_pos_as_xyz
  1  'x, y, z'
loop_
 _atom_site_type_symbol
 _atom_site_label
 _atom_site_symmetry_multiplicity
 _atom_site_fract_x
 _atom_site_fract_y
 _atom_site_fract_z
 _atom_site_occupancy
  Tb  Tb0  1  0.354108  0.353883  0.353891  1
  Tb  Tb1  1  0.353890  0.354101  0.938118  1
  Tb  Tb2  1  0.353887  0.938121  0.354106  1
  Tb  Tb3  1  0.938119  0.353882  0.353891  1
  Tb  Tb4  1  0.807179  0.192819  0.192822  1
  Tb  Tb5  1  0.192820  0.807184  0.807176  1
  Y  Y6  1  0.193713  0.806286  0.193716  1
  Y  Y7  1  0.806285  0.193714  0.806286  1
  Y  Y8  1  0.193716  0.193714  0.806285  1
  Y  Y9  1  0.806287  0.806286  0.193714  1
  Y  Y10  1  0.935666  0.564334  0.564333  1
  Y  Y11  1  0.564333  0.935668  0.935664  1
  Y  Y12  1  0.563655  0.936347  0.563654  1
  Y  Y13  1  0.936346  0.563656  0.936345  1
  Y  Y14  1  0.563654  0.563655  0.936345  1
  Y  Y15  1  0.936343  0.936349  0.563654  1
  Al  Al16  1  0.578583  0.577982  0.577981  1
  Al  Al17  1  0.577979  0.578584  0.265456  1
  Al  Al18  1  0.577982  0.265453  0.578584  1
  Al  Al19  1  0.265456  0.577982  0.577980  1
  Pt  Pt20  1  0.142379  0.143884  0.143885  1
  Pt  Pt21  1  0.143883  0.142381  0.569853  1
  Pt  Pt22  1  0.143885  0.569853  0.142380  1
  Pt  Pt23  1  0.569853  0.143882  0.143885  1
