# generated using pymatgen
data_TbSmErP4Pd7
_symmetry_space_group_name_H-M   'P 1'
_cell_length_a   7.94584034
_cell_length_b   7.94584060
_cell_length_c   9.46671647
_cell_angle_alpha   55.81571876
_cell_angle_beta   55.81571878
_cell_angle_gamma   29.25521399
_symmetry_Int_Tables_number   1
_chemical_formula_structural   TbSmErP4Pd7
_chemical_formula_sum   'Tb1 Sm1 Er1 P4 Pd7'
_cell_volume   237.80316900
_cell_formula_units_Z   1
loop_
 _symmetry_equiv_pos_site_id
 _symmetry_equiv_pos_as_xyz
  1  'x, y, z'
loop_
 _atom_site_type_symbol
 _atom_site_label
 _atom_site_symmetry_multiplicity
 _atom_site_fract_x
 _atom_site_fract_y
 _atom_site_fract_z
 _atom_site_occupancy
  Tb  Tb0  1  0.820243  0.820243  0.176125  1
  Sm  Sm1  1  0.500021  0.500021  0.500057  1
  Er  Er2  1  0.179230  0.179230  0.824179  1
  P  P3  1  0.393883  0.393883  0.318227  1
  P  P4  1  0.607048  0.607048  0.681920  1
  P  P5  1  0.838320  0.838320  0.757258  1
  P  P6  1  0.160301  0.160301  0.244794  1
  Pd  Pd7  1  0.669069  0.669069  0.073972  1
  Pd  Pd8  1  0.009647  0.009647  0.213639  1
  Pd  Pd9  1  0.990432  0.990432  0.786017  1
  Pd  Pd10  1  0.501453  0.501453  0.998813  1
  Pd  Pd11  1  0.195203  0.195203  0.470546  1
  Pd  Pd12  1  0.804750  0.804750  0.532054  1
  Pd  Pd13  1  0.330398  0.330398  0.922398  1
