# generated using pymatgen
data_Dy7Tm2Lu11Sn16
_symmetry_space_group_name_H-M   'P 1'
_cell_length_a   7.94278690
_cell_length_b   8.06769559
_cell_length_c   15.24674888
_cell_angle_alpha   90.03262196
_cell_angle_beta   90.03977105
_cell_angle_gamma   90.04115493
_symmetry_Int_Tables_number   1
_chemical_formula_structural   Dy7Tm2Lu11Sn16
_chemical_formula_sum   'Dy7 Tm2 Lu11 Sn16'
_cell_volume   977.01082063
_cell_formula_units_Z   1
loop_
 _symmetry_equiv_pos_site_id
 _symmetry_equiv_pos_as_xyz
  1  'x, y, z'
loop_
 _atom_site_type_symbol
 _atom_site_label
 _atom_site_symmetry_multiplicity
 _atom_site_fract_x
 _atom_site_fract_y
 _atom_site_fract_z
 _atom_site_occupancy
  Dy  Dy0  1  0.020603  0.178747  0.595651  1
  Dy  Dy1  1  0.479246  0.678449  0.403901  1
  Dy  Dy2  1  0.978748  0.822411  0.097330  1
  Dy  Dy3  1  0.480598  0.677912  0.096183  1
  Dy  Dy4  1  0.979477  0.821715  0.403472  1
  Dy  Dy5  1  0.519727  0.321178  0.595361  1
  Dy  Dy6  1  0.020378  0.178498  0.903708  1
  Tm  Tm7  1  0.866107  0.663355  0.877632  1
  Tm  Tm8  1  0.520592  0.321210  0.904108  1
  Lu  Lu9  1  0.364647  0.837525  0.876187  1
  Lu  Lu10  1  0.865185  0.661959  0.623122  1
  Lu  Lu11  1  0.634918  0.161585  0.376634  1
  Lu  Lu12  1  0.134983  0.337859  0.123671  1
  Lu  Lu13  1  0.633750  0.162039  0.124515  1
  Lu  Lu14  1  0.134680  0.337458  0.376577  1
  Lu  Lu15  1  0.365950  0.838113  0.622808  1
  Lu  Lu16  1  0.196843  0.504779  0.749816  1
  Lu  Lu17  1  0.696169  0.995584  0.749414  1
  Lu  Lu18  1  0.803644  0.494929  0.250393  1
  Lu  Lu19  1  0.303240  0.004736  0.249995  1
  Sn  Sn20  1  0.296530  0.039445  0.041469  1
  Sn  Sn21  1  0.796895  0.460630  0.458198  1
  Sn  Sn22  1  0.704124  0.960279  0.541218  1
  Sn  Sn23  1  0.206687  0.538045  0.958824  1
  Sn  Sn24  1  0.701088  0.963473  0.958567  1
  Sn  Sn25  1  0.202562  0.539644  0.541428  1
  Sn  Sn26  1  0.296538  0.039194  0.458336  1
  Sn  Sn27  1  0.796456  0.459061  0.042686  1
  Sn  Sn28  1  0.561999  0.619975  0.749139  1
  Sn  Sn29  1  0.062769  0.880697  0.749107  1
  Sn  Sn30  1  0.437715  0.379792  0.250688  1
  Sn  Sn31  1  0.937659  0.120361  0.250063  1
  Sn  Sn32  1  0.330905  0.149757  0.749829  1
  Sn  Sn33  1  0.830045  0.350583  0.749561  1
  Sn  Sn34  1  0.669067  0.849928  0.250243  1
  Sn  Sn35  1  0.169474  0.649097  0.250168  1
