# generated using pymatgen
data_UVI6
_symmetry_space_group_name_H-M   'P 1'
_cell_length_a   8.71452761
_cell_length_b   8.70381955
_cell_length_c   8.72123400
_cell_angle_alpha   50.74489951
_cell_angle_beta   50.79631615
_cell_angle_gamma   50.81197239
_symmetry_Int_Tables_number   1
_chemical_formula_structural   UVI6
_chemical_formula_sum   'U1 V1 I6'
_cell_volume   366.08306255
_cell_formula_units_Z   1
loop_
 _symmetry_equiv_pos_site_id
 _symmetry_equiv_pos_as_xyz
  1  'x, y, z'
loop_
 _atom_site_type_symbol
 _atom_site_label
 _atom_site_symmetry_multiplicity
 _atom_site_fract_x
 _atom_site_fract_y
 _atom_site_fract_z
 _atom_site_occupancy
  U  U0  1  0.333627  0.334837  0.331846  1
  V  V1  1  0.665578  0.666253  0.668121  1
  I  I2  1  0.732154  0.051875  0.436679  1
  I  I3  1  0.052026  0.434722  0.732898  1
  I  I4  1  0.583489  0.290036  0.906240  1
  I  I5  1  0.904322  0.586159  0.289430  1
  I  I6  1  0.290501  0.904675  0.583041  1
  I  I7  1  0.438301  0.731442  0.051744  1
