# generated using pymatgen
data_La14Ir5Au
_symmetry_space_group_name_H-M   'P 1'
_cell_length_a   6.56394335
_cell_length_b   10.31511748
_cell_length_c   10.31511656
_cell_angle_alpha   120.09878061
_cell_angle_beta   90.03258340
_cell_angle_gamma   89.96741438
_symmetry_Int_Tables_number   1
_chemical_formula_structural   La14Ir5Au
_chemical_formula_sum   'La14 Ir5 Au1'
_cell_volume   604.24147542
_cell_formula_units_Z   1
loop_
 _symmetry_equiv_pos_site_id
 _symmetry_equiv_pos_as_xyz
  1  'x, y, z'
loop_
 _atom_site_type_symbol
 _atom_site_label
 _atom_site_symmetry_multiplicity
 _atom_site_fract_x
 _atom_site_fract_y
 _atom_site_fract_z
 _atom_site_occupancy
  La  La0  1  0.475833  0.333799  0.666201  1
  La  La1  1  0.967050  0.661459  0.338541  1
  La  La2  1  0.249239  0.125391  0.874609  1
  La  La3  1  0.251044  0.743922  0.860267  1
  La  La4  1  0.251044  0.139733  0.256078  1
  La  La5  1  0.733776  0.876114  0.123886  1
  La  La6  1  0.749120  0.250157  0.125877  1
  La  La7  1  0.749120  0.874123  0.749843  1
  La  La8  1  0.436615  0.540393  0.459607  1
  La  La9  1  0.444751  0.927928  0.474132  1
  La  La10  1  0.444751  0.525868  0.072072  1
  La  La11  1  0.932488  0.459989  0.540011  1
  La  La12  1  0.936418  0.079112  0.541102  1
  La  La13  1  0.936418  0.458898  0.920888  1
  Ir  Ir14  1  0.191580  0.378302  0.187720  1
  Ir  Ir15  1  0.191580  0.812280  0.621698  1
  Ir  Ir16  1  0.688743  0.188801  0.811199  1
  Ir  Ir17  1  0.691031  0.624367  0.813118  1
  Ir  Ir18  1  0.691031  0.186882  0.375633  1
  Au  Au19  1  0.190368  0.812483  0.187517  1
