# generated using pymatgen
data_Y4Al17Co5SiNi
_symmetry_space_group_name_H-M   'P 1'
_cell_length_a   7.35559344
_cell_length_b   7.35559348
_cell_length_c   9.22651343
_cell_angle_alpha   89.98223520
_cell_angle_beta   89.98223327
_cell_angle_gamma   119.34075203
_symmetry_Int_Tables_number   1
_chemical_formula_structural   Y4Al17Co5SiNi
_chemical_formula_sum   'Y4 Al17 Co5 Si1 Ni1'
_cell_volume   435.16150378
_cell_formula_units_Z   1
loop_
 _symmetry_equiv_pos_site_id
 _symmetry_equiv_pos_as_xyz
  1  'x, y, z'
loop_
 _atom_site_type_symbol
 _atom_site_label
 _atom_site_symmetry_multiplicity
 _atom_site_fract_x
 _atom_site_fract_y
 _atom_site_fract_z
 _atom_site_occupancy
  Y  Y0  1  0.992921  0.678207  0.250260  1
  Y  Y1  1  0.005340  0.328167  0.749812  1
  Y  Y2  1  0.678207  0.992921  0.250260  1
  Y  Y3  1  0.328167  0.005340  0.749812  1
  Al  Al4  1  0.875027  0.875027  0.746858  1
  Al  Al5  1  0.331123  0.331123  0.546202  1
  Al  Al6  1  0.662542  0.662542  0.043134  1
  Al  Al7  1  0.333532  0.333532  0.951977  1
  Al  Al8  1  0.664915  0.664915  0.458135  1
  Al  Al9  1  0.336583  0.555055  0.250421  1
  Al  Al10  1  0.661156  0.445987  0.749547  1
  Al  Al11  1  0.555055  0.336583  0.250421  1
  Al  Al12  1  0.445987  0.661156  0.749547  1
  Al  Al13  1  0.999228  0.339653  0.074487  1
  Al  Al14  1  0.002359  0.665562  0.570408  1
  Al  Al15  1  0.337179  0.998481  0.427479  1
  Al  Al16  1  0.662289  0.001260  0.927768  1
  Al  Al17  1  0.001260  0.662289  0.927768  1
  Al  Al18  1  0.998481  0.337179  0.427479  1
  Al  Al19  1  0.665562  0.002359  0.570408  1
  Al  Al20  1  0.339653  0.999228  0.074487  1
  Co  Co21  1  0.000993  0.000993  0.491709  1
  Co  Co22  1  0.669064  0.327307  0.000613  1
  Co  Co23  1  0.327579  0.669440  0.499434  1
  Co  Co24  1  0.327307  0.669064  0.000613  1
  Co  Co25  1  0.669440  0.327579  0.499434  1
  Si  Si26  1  0.128025  0.128025  0.253834  1
  Ni  Ni27  1  0.001028  0.001028  0.007693  1
