# generated using pymatgen
data_SmAl7Cu5
_symmetry_space_group_name_H-M   'P 1'
_cell_length_a   6.68388152
_cell_length_b   6.68388109
_cell_length_c   6.68388147
_cell_angle_alpha   134.54291532
_cell_angle_beta   99.00615892
_cell_angle_gamma   98.16452417
_symmetry_Int_Tables_number   1
_chemical_formula_structural   SmAl7Cu5
_chemical_formula_sum   'Sm1 Al7 Cu5'
_cell_volume   196.28461699
_cell_formula_units_Z   1
loop_
 _symmetry_equiv_pos_site_id
 _symmetry_equiv_pos_as_xyz
  1  'x, y, z'
loop_
 _atom_site_type_symbol
 _atom_site_label
 _atom_site_symmetry_multiplicity
 _atom_site_fract_x
 _atom_site_fract_y
 _atom_site_fract_z
 _atom_site_occupancy
  Sm  Sm0  1  0.000009  0.000000  0.000009  1
  Al  Al1  1  0.349989  0.000000  0.349989  1
  Al  Al2  1  0.653698  0.000000  0.653698  1
  Al  Al3  1  0.658990  0.651058  0.007931  1
  Al  Al4  1  0.356872  0.348942  0.007931  1
  Al  Al5  1  0.228361  0.500000  0.728361  1
  Al  Al6  1  0.204586  0.711713  0.492873  1
  Al  Al7  1  0.781159  0.288287  0.492873  1
  Cu  Cu8  1  0.495625  0.995383  0.995902  1
  Cu  Cu9  1  0.495625  0.499724  0.500242  1
  Cu  Cu10  1  0.000519  0.500276  0.995902  1
  Cu  Cu11  1  0.000519  0.004617  0.500242  1
  Cu  Cu12  1  0.774048  0.500000  0.274048  1
