# generated using pymatgen
data_Nd4Cd2CoCuAg2
_symmetry_space_group_name_H-M   'P 1'
_cell_length_a   7.98144928
_cell_length_b   7.98144829
_cell_length_c   3.81490000
_cell_angle_alpha   90.00000000
_cell_angle_beta   90.00000000
_cell_angle_gamma   91.27619561
_symmetry_Int_Tables_number   1
_chemical_formula_structural   Nd4Cd2CoCuAg2
_chemical_formula_sum   'Nd4 Cd2 Co1 Cu1 Ag2'
_cell_volume   242.96229434
_cell_formula_units_Z   1
loop_
 _symmetry_equiv_pos_site_id
 _symmetry_equiv_pos_as_xyz
  1  'x, y, z'
loop_
 _atom_site_type_symbol
 _atom_site_label
 _atom_site_symmetry_multiplicity
 _atom_site_fract_x
 _atom_site_fract_y
 _atom_site_fract_z
 _atom_site_occupancy
  Nd  Nd0  1  0.701760  0.201760  0.000000  1
  Nd  Nd1  1  0.313237  0.813237  0.000000  1
  Nd  Nd2  1  0.150118  0.327274  0.000000  1
  Nd  Nd3  1  0.827274  0.650118  0.000000  1
  Cd  Cd4  1  0.495367  0.499795  0.500000  1
  Cd  Cd5  1  0.999795  0.995367  0.500000  1
  Co  Co6  1  0.888465  0.388465  0.500000  1
  Cu  Cu7  1  0.115102  0.615102  0.500000  1
  Ag  Ag8  1  0.380882  0.128001  0.500000  1
  Ag  Ag9  1  0.628001  0.880882  0.500000  1
