# generated using pymatgen
data_LiMn2Nb12Ga9N4
_symmetry_space_group_name_H-M   'P 1'
_cell_length_a   8.22665611
_cell_length_b   8.24607953
_cell_length_c   8.24290600
_cell_angle_alpha   59.98726455
_cell_angle_beta   59.88820871
_cell_angle_gamma   59.92186580
_symmetry_Int_Tables_number   1
_chemical_formula_structural   LiMn2Nb12Ga9N4
_chemical_formula_sum   'Li1 Mn2 Nb12 Ga9 N4'
_cell_volume   394.79312068
_cell_formula_units_Z   1
loop_
 _symmetry_equiv_pos_site_id
 _symmetry_equiv_pos_as_xyz
  1  'x, y, z'
loop_
 _atom_site_type_symbol
 _atom_site_label
 _atom_site_symmetry_multiplicity
 _atom_site_fract_x
 _atom_site_fract_y
 _atom_site_fract_z
 _atom_site_occupancy
  Li  Li0  1  0.625000  0.625000  0.125000  1
  Mn  Mn1  1  0.625000  0.125000  0.625000  1
  Mn  Mn2  1  0.625000  0.625000  0.625000  1
  Nb  Nb3  1  0.808709  0.806242  0.192547  1
  Nb  Nb4  1  0.193267  0.196056  0.804847  1
  Nb  Nb5  1  0.810943  0.190427  0.808204  1
  Nb  Nb6  1  0.193358  0.804358  0.197924  1
  Nb  Nb7  1  0.193267  0.805830  0.804847  1
  Nb  Nb8  1  0.808709  0.192502  0.192547  1
  Nb  Nb9  1  0.441291  0.443758  0.057453  1
  Nb  Nb10  1  0.056733  0.053944  0.445153  1
  Nb  Nb11  1  0.439057  0.059573  0.441796  1
  Nb  Nb12  1  0.056642  0.445642  0.052076  1
  Nb  Nb13  1  0.056733  0.444170  0.445153  1
  Nb  Nb14  1  0.441291  0.057498  0.057453  1
  Ga  Ga15  1  0.125000  0.625000  0.625000  1
  Ga  Ga16  1  0.759359  0.412910  0.414822  1
  Ga  Ga17  1  0.426626  0.757407  0.407237  1
  Ga  Ga18  1  0.428987  0.407434  0.756147  1
  Ga  Ga19  1  0.426626  0.408731  0.407237  1
  Ga  Ga20  1  0.490641  0.837090  0.835178  1
  Ga  Ga21  1  0.823374  0.492593  0.842763  1
  Ga  Ga22  1  0.821013  0.842566  0.493853  1
  Ga  Ga23  1  0.823374  0.841269  0.842763  1
  N  N24  1  0.625000  0.125000  0.125000  1
  N  N25  1  0.125000  0.625000  0.125000  1
  N  N26  1  0.125000  0.125000  0.625000  1
  N  N27  1  0.125000  0.125000  0.125000  1
