# generated using pymatgen
data_Cs2ZnCr2O8
_symmetry_space_group_name_H-M   'P 1'
_cell_length_a   5.83037026
_cell_length_b   9.50953300
_cell_length_c   17.68107300
_cell_angle_alpha   90.00000000
_cell_angle_beta   91.85312929
_cell_angle_gamma   90.00000000
_symmetry_Int_Tables_number   1
_chemical_formula_structural   Cs2ZnCr2O8
_chemical_formula_sum   'Cs8 Zn4 Cr8 O32'
_cell_volume   979.79845229
_cell_formula_units_Z   4
loop_
 _symmetry_equiv_pos_site_id
 _symmetry_equiv_pos_as_xyz
  1  'x, y, z'
loop_
 _atom_site_type_symbol
 _atom_site_label
 _atom_site_symmetry_multiplicity
 _atom_site_fract_x
 _atom_site_fract_y
 _atom_site_fract_z
 _atom_site_occupancy
  Cs  Cs0  1  0.225881  0.680143  0.021742  1
  Cs  Cs1  1  0.220323  0.355418  0.231813  1
  Cs  Cs2  1  0.279847  0.855377  0.268232  1
  Cs  Cs3  1  0.274110  0.180101  0.478254  1
  Cs  Cs4  1  0.725890  0.819899  0.521746  1
  Cs  Cs5  1  0.720153  0.144623  0.731769  1
  Cs  Cs6  1  0.779677  0.644582  0.768188  1
  Cs  Cs7  1  0.774119  0.319857  0.978258  1
  Zn  Zn8  1  0.752439  0.971329  0.131301  1
  Zn  Zn9  1  0.747557  0.471377  0.368706  1
  Zn  Zn10  1  0.252443  0.528623  0.631294  1
  Zn  Zn11  1  0.247561  0.028671  0.868699  1
  Cr  Cr12  1  0.253298  0.103898  0.070855  1
  Cr  Cr13  1  0.758075  0.618405  0.180913  1
  Cr  Cr14  1  0.742256  0.118366  0.319065  1
  Cr  Cr15  1  0.246649  0.604013  0.429179  1
  Cr  Cr16  1  0.753350  0.395987  0.570820  1
  Cr  Cr17  1  0.257744  0.881634  0.680934  1
  Cr  Cr18  1  0.241925  0.381595  0.819087  1
  Cr  Cr19  1  0.746703  0.896102  0.929146  1
  O  O20  1  0.819683  0.903773  0.020511  1
  O  O21  1  0.417730  0.965057  0.096999  1
  O  O22  1  0.395302  0.249893  0.086228  1
  O  O23  1  0.876142  0.519789  0.115913  1
  O  O24  1  0.014431  0.108164  0.122858  1
  O  O25  1  0.477311  0.613634  0.170069  1
  O  O26  1  0.853113  0.786069  0.172400  1
  O  O27  1  0.661019  0.057596  0.232963  1
  O  O28  1  0.839169  0.557667  0.267065  1
  O  O29  1  0.647167  0.286081  0.327562  1
  O  O30  1  0.023027  0.113641  0.329926  1
  O  O31  1  0.485512  0.608186  0.377166  1
  O  O32  1  0.624159  0.019881  0.384115  1
  O  O33  1  0.104750  0.750016  0.413806  1
  O  O34  1  0.082281  0.465171  0.403054  1
  O  O35  1  0.680234  0.403721  0.479454  1
  O  O36  1  0.319766  0.596279  0.520547  1
  O  O37  1  0.917719  0.534829  0.596947  1
  O  O38  1  0.895250  0.249984  0.586193  1
  O  O39  1  0.375841  0.980119  0.615885  1
  O  O40  1  0.514488  0.391814  0.622834  1
  O  O41  1  0.976973  0.886359  0.670074  1
  O  O42  1  0.352833  0.713919  0.672437  1
  O  O43  1  0.160831  0.442333  0.732934  1
  O  O44  1  0.338981  0.942404  0.767037  1
  O  O45  1  0.146887  0.213931  0.827599  1
  O  O46  1  0.522689  0.386366  0.829931  1
  O  O47  1  0.985569  0.891836  0.877142  1
  O  O48  1  0.123858  0.480211  0.884087  1
  O  O49  1  0.604698  0.750107  0.913772  1
  O  O50  1  0.582270  0.034943  0.903001  1
  O  O51  1  0.180317  0.096227  0.979488  1
