# generated using pymatgen
data_HoEr9In8(PdRh)2
_symmetry_space_group_name_H-M   'P 1'
_cell_length_a   3.59558500
_cell_length_b   8.09508480
_cell_length_c   18.11902302
_cell_angle_alpha   90.02824250
_cell_angle_beta   90.00000000
_cell_angle_gamma   90.00000000
_symmetry_Int_Tables_number   1
_chemical_formula_structural   HoEr9In8(PdRh)2
_chemical_formula_sum   'Ho1 Er9 In8 Pd2 Rh2'
_cell_volume   527.38246592
_cell_formula_units_Z   1
loop_
 _symmetry_equiv_pos_site_id
 _symmetry_equiv_pos_as_xyz
  1  'x, y, z'
loop_
 _atom_site_type_symbol
 _atom_site_label
 _atom_site_symmetry_multiplicity
 _atom_site_fract_x
 _atom_site_fract_y
 _atom_site_fract_z
 _atom_site_occupancy
  Ho  Ho0  1  0.000000  0.000000  0.000000  1
  Er  Er1  1  0.000000  0.500000  0.500000  1
  Er  Er2  1  0.000000  0.732850  0.278632  1
  Er  Er3  1  0.000000  0.267150  0.721368  1
  Er  Er4  1  0.000000  0.748282  0.779917  1
  Er  Er5  1  0.000000  0.251718  0.220083  1
  Er  Er6  1  0.000000  0.615979  0.087031  1
  Er  Er7  1  0.000000  0.384021  0.912969  1
  Er  Er8  1  0.000000  0.882337  0.585414  1
  Er  Er9  1  0.000000  0.117663  0.414586  1
  In  In10  1  0.500000  0.706769  0.932411  1
  In  In11  1  0.500000  0.293231  0.067589  1
  In  In12  1  0.500000  0.792226  0.432792  1
  In  In13  1  0.500000  0.207774  0.567208  1
  In  In14  1  0.500000  0.575445  0.649449  1
  In  In15  1  0.500000  0.424555  0.350551  1
  In  In16  1  0.500000  0.924457  0.149977  1
  In  In17  1  0.500000  0.075543  0.850023  1
  Pd  Pd18  1  0.500000  0.980183  0.695833  1
  Pd  Pd19  1  0.500000  0.019817  0.304167  1
  Rh  Rh20  1  0.500000  0.522002  0.195400  1
  Rh  Rh21  1  0.500000  0.477998  0.804600  1
