# generated using pymatgen
data_Pr2TmMg3Ga2Hg
_symmetry_space_group_name_H-M   'P 1'
_cell_length_a   7.57963600
_cell_length_b   7.48714353
_cell_length_c   4.49556400
_cell_angle_alpha   90.00000000
_cell_angle_beta   90.00000000
_cell_angle_gamma   120.40949017
_symmetry_Int_Tables_number   1
_chemical_formula_structural   Pr2TmMg3Ga2Hg
_chemical_formula_sum   'Pr2 Tm1 Mg3 Ga2 Hg1'
_cell_volume   220.02522217
_cell_formula_units_Z   1
loop_
 _symmetry_equiv_pos_site_id
 _symmetry_equiv_pos_as_xyz
  1  'x, y, z'
loop_
 _atom_site_type_symbol
 _atom_site_label
 _atom_site_symmetry_multiplicity
 _atom_site_fract_x
 _atom_site_fract_y
 _atom_site_fract_z
 _atom_site_occupancy
  Pr  Pr0  1  0.001959  0.574435  0.000000  1
  Pr  Pr1  1  0.427524  0.425565  0.000000  1
  Tm  Tm2  1  0.575030  0.000000  0.000000  1
  Mg  Mg3  1  0.997866  0.245812  0.500000  1
  Mg  Mg4  1  0.752053  0.754188  0.500000  1
  Mg  Mg5  1  0.249017  0.000000  0.500000  1
  Ga  Ga6  1  0.664785  0.324035  0.500000  1
  Ga  Ga7  1  0.340750  0.675965  0.500000  1
  Hg  Hg8  1  0.991016  0.000000  0.000000  1
