# generated using pymatgen
data_LiAlI4
_symmetry_space_group_name_H-M   'P 1'
_cell_length_a   7.89380400
_cell_length_b   8.16806758
_cell_length_c   15.26267849
_cell_angle_alpha   87.14279002
_cell_angle_beta   90.00000000
_cell_angle_gamma   90.00000000
_symmetry_Int_Tables_number   1
_chemical_formula_structural   LiAlI4
_chemical_formula_sum   'Li4 Al4 I16'
_cell_volume   982.87025902
_cell_formula_units_Z   4
loop_
 _symmetry_equiv_pos_site_id
 _symmetry_equiv_pos_as_xyz
  1  'x, y, z'
loop_
 _atom_site_type_symbol
 _atom_site_label
 _atom_site_symmetry_multiplicity
 _atom_site_fract_x
 _atom_site_fract_y
 _atom_site_fract_z
 _atom_site_occupancy
  Li  Li0  1  0.496219  0.153257  0.115190  1
  Li  Li1  1  0.996219  0.846743  0.384810  1
  Li  Li2  1  0.003781  0.153257  0.615190  1
  Li  Li3  1  0.503781  0.846743  0.884810  1
  Al  Al4  1  0.328315  0.291008  0.901283  1
  Al  Al5  1  0.828315  0.708992  0.598717  1
  Al  Al6  1  0.171685  0.291008  0.401283  1
  Al  Al7  1  0.671685  0.708992  0.098717  1
  I  I8  1  0.812885  0.934815  0.186077  1
  I  I9  1  0.687210  0.693060  0.448635  1
  I  I10  1  0.634606  0.187772  0.930541  1
  I  I11  1  0.812790  0.693060  0.948635  1
  I  I12  1  0.187210  0.306940  0.051365  1
  I  I13  1  0.820482  0.435836  0.687782  1
  I  I14  1  0.320482  0.564164  0.812218  1
  I  I15  1  0.179518  0.564164  0.312218  1
  I  I16  1  0.365394  0.812228  0.069459  1
  I  I17  1  0.865394  0.187772  0.430541  1
  I  I18  1  0.679518  0.435836  0.187782  1
  I  I19  1  0.687115  0.934815  0.686077  1
  I  I20  1  0.187115  0.065185  0.813923  1
  I  I21  1  0.134606  0.812228  0.569459  1
  I  I22  1  0.312790  0.306940  0.551365  1
  I  I23  1  0.312885  0.065185  0.313923  1
