# generated using pymatgen
data_Dy6Ho10In4Ir3Pt
_symmetry_space_group_name_H-M   'P 1'
_cell_length_a   9.65704582
_cell_length_b   9.63509011
_cell_length_c   9.65275637
_cell_angle_alpha   60.04128073
_cell_angle_beta   60.08543691
_cell_angle_gamma   60.04037765
_symmetry_Int_Tables_number   1
_chemical_formula_structural   Dy6Ho10In4Ir3Pt
_chemical_formula_sum   'Dy6 Ho10 In4 Ir3 Pt1'
_cell_volume   635.89314441
_cell_formula_units_Z   1
loop_
 _symmetry_equiv_pos_site_id
 _symmetry_equiv_pos_as_xyz
  1  'x, y, z'
loop_
 _atom_site_type_symbol
 _atom_site_label
 _atom_site_symmetry_multiplicity
 _atom_site_fract_x
 _atom_site_fract_y
 _atom_site_fract_z
 _atom_site_occupancy
  Dy  Dy0  1  0.440675  0.437002  0.061044  1
  Dy  Dy1  1  0.652396  0.649001  0.049747  1
  Dy  Dy2  1  0.187496  0.809336  0.194608  1
  Dy  Dy3  1  0.060481  0.439411  0.059954  1
  Dy  Dy4  1  0.188042  0.809220  0.808739  1
  Dy  Dy5  1  0.060497  0.439399  0.439743  1
  Ho  Ho6  1  0.809904  0.189834  0.190927  1
  Ho  Ho7  1  0.653400  0.650050  0.648738  1
  Ho  Ho8  1  0.809839  0.190389  0.809421  1
  Ho  Ho9  1  0.188108  0.194024  0.809070  1
  Ho  Ho10  1  0.046502  0.651515  0.650380  1
  Ho  Ho11  1  0.440482  0.061018  0.061092  1
  Ho  Ho12  1  0.060528  0.060057  0.439493  1
  Ho  Ho13  1  0.653170  0.047979  0.648866  1
  Ho  Ho14  1  0.809395  0.809666  0.190999  1
  Ho  Ho15  1  0.440532  0.061102  0.436952  1
  In  In16  1  0.417071  0.416758  0.417356  1
  In  In17  1  0.417129  0.416996  0.748508  1
  In  In18  1  0.416940  0.749410  0.416984  1
  In  In19  1  0.748706  0.416969  0.417188  1
  Ir  Ir20  1  0.857460  0.859204  0.858640  1
  Ir  Ir21  1  0.858160  0.424078  0.858657  1
  Ir  Ir22  1  0.857104  0.858885  0.425345  1
  Pt  Pt23  1  0.425982  0.858703  0.857554  1
