# generated using pymatgen
data_TbNd(MgIn2)2
_symmetry_space_group_name_H-M   'P 1'
_cell_length_a   6.54536494
_cell_length_b   6.54536550
_cell_length_c   9.37516200
_cell_angle_alpha   90.00000000
_cell_angle_beta   90.00000000
_cell_angle_gamma   91.38500657
_symmetry_Int_Tables_number   1
_chemical_formula_structural   TbNd(MgIn2)2
_chemical_formula_sum   'Tb2 Nd2 Mg4 In8'
_cell_volume   401.53152805
_cell_formula_units_Z   2
loop_
 _symmetry_equiv_pos_site_id
 _symmetry_equiv_pos_as_xyz
  1  'x, y, z'
loop_
 _atom_site_type_symbol
 _atom_site_label
 _atom_site_symmetry_multiplicity
 _atom_site_fract_x
 _atom_site_fract_y
 _atom_site_fract_z
 _atom_site_occupancy
  Tb  Tb0  1  0.998032  0.998031  0.250000  1
  Tb  Tb1  1  0.001969  0.001968  0.750000  1
  Nd  Nd2  1  0.502287  0.502287  0.250000  1
  Nd  Nd3  1  0.497713  0.497713  0.750000  1
  Mg  Mg4  1  0.248426  0.751574  0.500000  1
  Mg  Mg5  1  0.248426  0.751574  0.000000  1
  Mg  Mg6  1  0.751574  0.248426  0.500000  1
  Mg  Mg7  1  0.751574  0.248426  0.000000  1
  In  In8  1  0.246910  0.246910  0.001938  1
  In  In9  1  0.753090  0.753090  0.998062  1
  In  In10  1  0.246910  0.246910  0.498062  1
  In  In11  1  0.753090  0.753090  0.501938  1
  In  In12  1  0.498103  0.002035  0.250000  1
  In  In13  1  0.997965  0.501897  0.750000  1
  In  In14  1  0.501897  0.997965  0.750000  1
  In  In15  1  0.002035  0.498103  0.250000  1
