# generated using pymatgen
data_NdTh2(MgPt)3
_symmetry_space_group_name_H-M   'P 1'
_cell_length_a   7.68125301
_cell_length_b   7.62687345
_cell_length_c   4.06480200
_cell_angle_alpha   90.00000000
_cell_angle_beta   90.00000000
_cell_angle_gamma   119.76608959
_symmetry_Int_Tables_number   1
_chemical_formula_structural   NdTh2(MgPt)3
_chemical_formula_sum   'Nd1 Th2 Mg3 Pt3'
_cell_volume   206.71284682
_cell_formula_units_Z   1
loop_
 _symmetry_equiv_pos_site_id
 _symmetry_equiv_pos_as_xyz
  1  'x, y, z'
loop_
 _atom_site_type_symbol
 _atom_site_label
 _atom_site_symmetry_multiplicity
 _atom_site_fract_x
 _atom_site_fract_y
 _atom_site_fract_z
 _atom_site_occupancy
  Nd  Nd0  1  0.000000  0.587499  0.000000  1
  Th  Th1  1  0.416753  0.415736  0.000000  1
  Th  Th2  1  0.583247  0.998984  0.000000  1
  Mg  Mg3  1  0.000000  0.245100  0.500000  1
  Mg  Mg4  1  0.765455  0.761403  0.500000  1
  Mg  Mg5  1  0.234545  0.995948  0.500000  1
  Pt  Pt6  1  0.649069  0.318300  0.500000  1
  Pt  Pt7  1  0.000000  0.007799  0.000000  1
  Pt  Pt8  1  0.350931  0.669232  0.500000  1
