# generated using pymatgen
data_Tb3Ho(AsS)2
_symmetry_space_group_name_H-M   'P 1'
_cell_length_a   6.97971354
_cell_length_b   6.97971294
_cell_length_c   6.97971274
_cell_angle_alpha   131.79124623
_cell_angle_beta   131.72082304
_cell_angle_gamma   70.61462812
_symmetry_Int_Tables_number   1
_chemical_formula_structural   Tb3Ho(AsS)2
_chemical_formula_sum   'Tb3 Ho1 As2 S2'
_cell_volume   185.38079700
_cell_formula_units_Z   1
loop_
 _symmetry_equiv_pos_site_id
 _symmetry_equiv_pos_as_xyz
  1  'x, y, z'
loop_
 _atom_site_type_symbol
 _atom_site_label
 _atom_site_symmetry_multiplicity
 _atom_site_fract_x
 _atom_site_fract_y
 _atom_site_fract_z
 _atom_site_occupancy
  Tb  Tb0  1  0.750014  0.750014  0.000000  1
  Tb  Tb1  1  0.250039  0.250039  0.000000  1
  Tb  Tb2  1  0.000062  0.500062  0.500000  1
  Ho  Ho3  1  0.499801  0.999801  0.500000  1
  As  As4  1  0.500026  0.500026  0.000000  1
  As  As5  1  0.250744  0.750744  0.500000  1
  S  S6  1  0.000059  0.000059  0.000000  1
  S  S7  1  0.749255  0.249255  0.500000  1
