# generated using pymatgen
data_Y16Al4Co3Ni
_symmetry_space_group_name_H-M   'P 1'
_cell_length_a   9.48381173
_cell_length_b   9.49351104
_cell_length_c   9.49351000
_cell_angle_alpha   60.00000362
_cell_angle_beta   59.96616644
_cell_angle_gamma   59.96616139
_symmetry_Int_Tables_number   1
_chemical_formula_structural   Y16Al4Co3Ni
_chemical_formula_sum   'Y16 Al4 Co3 Ni1'
_cell_volume   604.08674717
_cell_formula_units_Z   1
loop_
 _symmetry_equiv_pos_site_id
 _symmetry_equiv_pos_as_xyz
  1  'x, y, z'
loop_
 _atom_site_type_symbol
 _atom_site_label
 _atom_site_symmetry_multiplicity
 _atom_site_fract_x
 _atom_site_fract_y
 _atom_site_fract_z
 _atom_site_occupancy
  Y  Y0  1  0.597071  0.601079  0.601079  1
  Y  Y1  1  0.597071  0.601079  0.200769  1
  Y  Y2  1  0.597071  0.200769  0.601079  1
  Y  Y3  1  0.202930  0.599023  0.599023  1
  Y  Y4  1  0.062342  0.441285  0.441285  1
  Y  Y5  1  0.440960  0.058952  0.058952  1
  Y  Y6  1  0.440960  0.058952  0.441137  1
  Y  Y7  1  0.062342  0.441285  0.055088  1
  Y  Y8  1  0.440960  0.441137  0.058952  1
  Y  Y9  1  0.062342  0.055088  0.441285  1
  Y  Y10  1  0.186855  0.812371  0.812371  1
  Y  Y11  1  0.810950  0.187876  0.187876  1
  Y  Y12  1  0.810950  0.187876  0.813299  1
  Y  Y13  1  0.186855  0.812371  0.188403  1
  Y  Y14  1  0.810950  0.813299  0.187876  1
  Y  Y15  1  0.186855  0.188403  0.812371  1
  Al  Al16  1  0.827717  0.827530  0.827530  1
  Al  Al17  1  0.827717  0.827530  0.517222  1
  Al  Al18  1  0.827717  0.517222  0.827530  1
  Al  Al19  1  0.517534  0.827489  0.827489  1
  Co  Co20  1  0.391953  0.390890  0.390890  1
  Co  Co21  1  0.391953  0.390890  0.826267  1
  Co  Co22  1  0.391953  0.826267  0.390890  1
  Ni  Ni23  1  0.825989  0.391337  0.391337  1
