# generated using pymatgen
data_SrCu11Ni2
_symmetry_space_group_name_H-M   'P 1'
_cell_length_a   8.18115263
_cell_length_b   8.17565586
_cell_length_c   8.17199012
_cell_angle_alpha   120.02741419
_cell_angle_beta   120.04966514
_cell_angle_gamma   89.97825328
_symmetry_Int_Tables_number   1
_chemical_formula_structural   SrCu11Ni2
_chemical_formula_sum   'Sr2 Cu22 Ni4'
_cell_volume   386.12318291
_cell_formula_units_Z   2
loop_
 _symmetry_equiv_pos_site_id
 _symmetry_equiv_pos_as_xyz
  1  'x, y, z'
loop_
 _atom_site_type_symbol
 _atom_site_label
 _atom_site_symmetry_multiplicity
 _atom_site_fract_x
 _atom_site_fract_y
 _atom_site_fract_z
 _atom_site_occupancy
  Sr  Sr0  1  0.747875  0.249174  0.496751  1
  Sr  Sr1  1  0.251126  0.752425  0.503253  1
  Cu  Cu2  1  0.063318  0.294809  0.000000  1
  Cu  Cu3  1  0.794960  0.436456  0.000000  1
  Cu  Cu4  1  0.204520  0.562349  0.000000  1
  Cu  Cu5  1  0.937418  0.704462  0.000000  1
  Cu  Cu6  1  0.436252  0.797672  0.000000  1
  Cu  Cu7  1  0.703004  0.938777  0.000000  1
  Cu  Cu8  1  0.935181  0.294449  0.231391  1
  Cu  Cu9  1  0.437789  0.434003  0.230798  1
  Cu  Cu10  1  0.795131  0.795179  0.232059  1
  Cu  Cu11  1  0.295891  0.937975  0.231475  1
  Cu  Cu12  1  0.062850  0.062954  0.358370  1
  Cu  Cu13  1  0.295857  0.294209  0.356788  1
  Cu  Cu14  1  0.794223  0.560792  0.356889  1
  Cu  Cu15  1  0.563140  0.795358  0.358210  1
  Cu  Cu16  1  0.437334  0.203904  0.643112  1
  Cu  Cu17  1  0.204930  0.437148  0.641791  1
  Cu  Cu18  1  0.704480  0.704584  0.641631  1
  Cu  Cu19  1  0.939070  0.937422  0.643213  1
  Cu  Cu20  1  0.703790  0.063059  0.768610  1
  Cu  Cu21  1  0.206992  0.203206  0.769203  1
  Cu  Cu22  1  0.563073  0.563121  0.767942  1
  Cu  Cu23  1  0.064417  0.706500  0.768526  1
  Ni  Ni24  1  0.000386  0.999832  0.000000  1
  Ni  Ni25  1  0.294707  0.064489  0.000000  1
  Ni  Ni26  1  0.562213  0.205866  0.000000  1
  Ni  Ni27  1  0.500080  0.499836  0.000000  1
