# generated using pymatgen
data_Yb3Eu(CuH6)2
_symmetry_space_group_name_H-M   'P 1'
_cell_length_a   6.90677133
_cell_length_b   6.90677192
_cell_length_c   5.16331902
_cell_angle_alpha   90.00037275
_cell_angle_beta   90.00037940
_cell_angle_gamma   136.16046931
_symmetry_Int_Tables_number   1
_chemical_formula_structural   Yb3Eu(CuH6)2
_chemical_formula_sum   'Yb3 Eu1 Cu2 H12'
_cell_volume   170.60326368
_cell_formula_units_Z   1
loop_
 _symmetry_equiv_pos_site_id
 _symmetry_equiv_pos_as_xyz
  1  'x, y, z'
loop_
 _atom_site_type_symbol
 _atom_site_label
 _atom_site_symmetry_multiplicity
 _atom_site_fract_x
 _atom_site_fract_y
 _atom_site_fract_z
 _atom_site_occupancy
  Yb  Yb0  1  0.647166  0.352834  0.000000  1
  Yb  Yb1  1  0.854443  0.145557  0.500000  1
  Yb  Yb2  1  0.354854  0.645146  0.000000  1
  Eu  Eu3  1  0.147734  0.852266  0.500000  1
  Cu  Cu4  1  0.498033  0.501967  0.500000  1
  Cu  Cu5  1  0.997940  0.002060  0.000000  1
  H  H6  1  0.998777  0.496926  0.752363  1
  H  H7  1  0.503074  0.001223  0.247637  1
  H  H8  1  0.998796  0.496951  0.247634  1
  H  H9  1  0.503049  0.001204  0.752366  1
  H  H10  1  0.371401  0.628599  0.500000  1
  H  H11  1  0.871966  0.128034  0.000000  1
  H  H12  1  0.625959  0.374041  0.500000  1
  H  H13  1  0.125679  0.874321  0.000000  1
  H  H14  1  0.249473  0.248918  0.748850  1
  H  H15  1  0.751082  0.750527  0.251150  1
  H  H16  1  0.248967  0.248392  0.251016  1
  H  H17  1  0.751608  0.751033  0.748984  1
