# generated using pymatgen
data_TbTm(ThNi2)2
_symmetry_space_group_name_H-M   'P 1'
_cell_length_a   3.65889100
_cell_length_b   4.26226300
_cell_length_c   10.55778200
_cell_angle_alpha   90.00000000
_cell_angle_beta   90.00000000
_cell_angle_gamma   90.00000000
_symmetry_Int_Tables_number   1
_chemical_formula_structural   TbTm(ThNi2)2
_chemical_formula_sum   'Tb1 Tm1 Th2 Ni4'
_cell_volume   164.65025446
_cell_formula_units_Z   1
loop_
 _symmetry_equiv_pos_site_id
 _symmetry_equiv_pos_as_xyz
  1  'x, y, z'
loop_
 _atom_site_type_symbol
 _atom_site_label
 _atom_site_symmetry_multiplicity
 _atom_site_fract_x
 _atom_site_fract_y
 _atom_site_fract_z
 _atom_site_occupancy
  Tb  Tb0  1  0.000000  0.000000  0.144814  1
  Tm  Tm1  1  0.500000  0.500000  0.358940  1
  Th  Th2  1  0.000000  0.500000  0.872264  1
  Th  Th3  1  0.500000  0.000000  0.626763  1
  Ni  Ni4  1  0.500000  0.500000  0.077966  1
  Ni  Ni5  1  0.000000  0.500000  0.584146  1
  Ni  Ni6  1  0.000000  0.000000  0.421902  1
  Ni  Ni7  1  0.500000  0.000000  0.913204  1
