# generated using pymatgen
data_Er5TmGa7Co16
_symmetry_space_group_name_H-M   'P 1'
_cell_length_a   8.44645626
_cell_length_b   8.44645630
_cell_length_c   8.44455700
_cell_angle_alpha   60.00744206
_cell_angle_beta   60.00744189
_cell_angle_gamma   59.98512776
_symmetry_Int_Tables_number   1
_chemical_formula_structural   Er5TmGa7Co16
_chemical_formula_sum   'Er5 Tm1 Ga7 Co16'
_cell_volume   426.00132007
_cell_formula_units_Z   1
loop_
 _symmetry_equiv_pos_site_id
 _symmetry_equiv_pos_as_xyz
  1  'x, y, z'
loop_
 _atom_site_type_symbol
 _atom_site_label
 _atom_site_symmetry_multiplicity
 _atom_site_fract_x
 _atom_site_fract_y
 _atom_site_fract_z
 _atom_site_occupancy
  Er  Er0  1  0.719224  0.280975  0.280776  1
  Er  Er1  1  0.280975  0.719224  0.719025  1
  Er  Er2  1  0.280975  0.719224  0.280776  1
  Er  Er3  1  0.280571  0.280571  0.719429  1
  Er  Er4  1  0.719224  0.280975  0.719025  1
  Tm  Tm5  1  0.719713  0.719713  0.280287  1
  Ga  Ga6  1  0.500330  0.999854  0.000146  1
  Ga  Ga7  1  0.999854  0.500330  0.499670  1
  Ga  Ga8  1  0.999854  0.500330  0.000146  1
  Ga  Ga9  1  0.999781  0.999781  0.500219  1
  Ga  Ga10  1  0.500330  0.999854  0.499670  1
  Ga  Ga11  1  0.499781  0.499781  0.000219  1
  Ga  Ga12  1  0.999951  0.999951  0.000049  1
  Co  Co13  1  0.321604  0.321604  0.321621  1
  Co  Co14  1  0.321604  0.321604  0.035173  1
  Co  Co15  1  0.035131  0.321634  0.321619  1
  Co  Co16  1  0.321634  0.035131  0.321619  1
  Co  Co17  1  0.678381  0.678381  0.678366  1
  Co  Co18  1  0.678381  0.678381  0.964869  1
  Co  Co19  1  0.678379  0.964827  0.678396  1
  Co  Co20  1  0.964827  0.678379  0.678396  1
  Co  Co21  1  0.125720  0.125720  0.125691  1
  Co  Co22  1  0.125720  0.125720  0.622869  1
  Co  Co23  1  0.623038  0.125271  0.125846  1
  Co  Co24  1  0.125271  0.623038  0.125846  1
  Co  Co25  1  0.874154  0.874154  0.874729  1
  Co  Co26  1  0.874154  0.874154  0.376962  1
  Co  Co27  1  0.874309  0.377131  0.874280  1
  Co  Co28  1  0.377131  0.874309  0.874280  1
