# generated using pymatgen
data_TbY3Al18(IrPd)3
_symmetry_space_group_name_H-M   'P 1'
_cell_length_a   7.60233548
_cell_length_b   7.60206689
_cell_length_c   9.45737800
_cell_angle_alpha   89.97908881
_cell_angle_beta   89.97953945
_cell_angle_gamma   119.65458269
_symmetry_Int_Tables_number   1
_chemical_formula_structural   TbY3Al18(IrPd)3
_chemical_formula_sum   'Tb1 Y3 Al18 Ir3 Pd3'
_cell_volume   474.98633380
_cell_formula_units_Z   1
loop_
 _symmetry_equiv_pos_site_id
 _symmetry_equiv_pos_as_xyz
  1  'x, y, z'
loop_
 _atom_site_type_symbol
 _atom_site_label
 _atom_site_symmetry_multiplicity
 _atom_site_fract_x
 _atom_site_fract_y
 _atom_site_fract_z
 _atom_site_occupancy
  Tb  Tb0  1  0.329915  0.004275  0.749647  1
  Y  Y1  1  0.995720  0.670108  0.250363  1
  Y  Y2  1  0.004990  0.330106  0.749694  1
  Y  Y3  1  0.669911  0.995013  0.250308  1
  Al  Al4  1  0.127150  0.127961  0.250452  1
  Al  Al5  1  0.872011  0.872821  0.749547  1
  Al  Al6  1  0.000518  0.331497  0.076281  1
  Al  Al7  1  0.999313  0.668683  0.922970  1
  Al  Al8  1  0.996715  0.664965  0.574927  1
  Al  Al9  1  0.334997  0.003254  0.425054  1
  Al  Al10  1  0.996444  0.330778  0.425146  1
  Al  Al11  1  0.669258  0.003554  0.574855  1
  Al  Al12  1  0.668536  0.999481  0.923713  1
  Al  Al13  1  0.331278  0.000654  0.077045  1
  Al  Al14  1  0.333094  0.329944  0.552438  1
  Al  Al15  1  0.670083  0.666900  0.447547  1
  Al  Al16  1  0.668955  0.668894  0.055929  1
  Al  Al17  1  0.331104  0.331069  0.944084  1
  Al  Al18  1  0.340251  0.546686  0.250655  1
  Al  Al19  1  0.659113  0.452284  0.747557  1
  Al  Al20  1  0.547755  0.340899  0.252444  1
  Al  Al21  1  0.453334  0.659751  0.749344  1
  Ir  Ir22  1  0.671889  0.328142  0.499974  1
  Ir  Ir23  1  0.999990  0.999979  0.000024  1
  Ir  Ir24  1  0.000349  0.999632  0.499977  1
  Pd  Pd25  1  0.672061  0.327993  0.000025  1
  Pd  Pd26  1  0.327629  0.672343  0.000023  1
  Pd  Pd27  1  0.327640  0.672334  0.499976  1
