# generated using pymatgen
data_Tb8Ho11ErPb16
_symmetry_space_group_name_H-M   'P 1'
_cell_length_a   8.19784802
_cell_length_b   8.28040002
_cell_length_c   15.62163700
_cell_angle_alpha   90.00000000
_cell_angle_beta   90.00000000
_cell_angle_gamma   90.00828930
_symmetry_Int_Tables_number   1
_chemical_formula_structural   Tb8Ho11ErPb16
_chemical_formula_sum   'Tb8 Ho11 Er1 Pb16'
_cell_volume   1060.41953065
_cell_formula_units_Z   1
loop_
 _symmetry_equiv_pos_site_id
 _symmetry_equiv_pos_as_xyz
  1  'x, y, z'
loop_
 _atom_site_type_symbol
 _atom_site_label
 _atom_site_symmetry_multiplicity
 _atom_site_fract_x
 _atom_site_fract_y
 _atom_site_fract_z
 _atom_site_occupancy
  Tb  Tb0  1  0.534301  0.322970  0.899987  1
  Tb  Tb1  1  0.034292  0.177027  0.599999  1
  Tb  Tb2  1  0.465680  0.677075  0.399991  1
  Tb  Tb3  1  0.965742  0.823001  0.100015  1
  Tb  Tb4  1  0.465680  0.677075  0.100009  1
  Tb  Tb5  1  0.965742  0.823001  0.399985  1
  Tb  Tb6  1  0.534301  0.322970  0.600013  1
  Tb  Tb7  1  0.034292  0.177027  0.900001  1
  Ho  Ho8  1  0.376559  0.840842  0.879295  1
  Ho  Ho9  1  0.876560  0.659155  0.620718  1
  Ho  Ho10  1  0.623370  0.159110  0.379282  1
  Ho  Ho11  1  0.123496  0.340808  0.120707  1
  Ho  Ho12  1  0.623370  0.159110  0.120718  1
  Ho  Ho13  1  0.123496  0.340808  0.379293  1
  Ho  Ho14  1  0.376559  0.840842  0.620705  1
  Ho  Ho15  1  0.876560  0.659155  0.879282  1
  Ho  Ho16  1  0.208173  0.504342  0.750000  1
  Ho  Ho17  1  0.708176  0.995684  0.750000  1
  Ho  Ho18  1  0.791829  0.495690  0.250000  1
  Er  Er19  1  0.291683  0.004353  0.250000  1
  Pb  Pb20  1  0.282255  0.033905  0.042787  1
  Pb  Pb21  1  0.782243  0.466093  0.457286  1
  Pb  Pb22  1  0.717763  0.966081  0.542689  1
  Pb  Pb23  1  0.217760  0.533907  0.957310  1
  Pb  Pb24  1  0.717763  0.966081  0.957311  1
  Pb  Pb25  1  0.217760  0.533907  0.542690  1
  Pb  Pb26  1  0.282255  0.033905  0.457213  1
  Pb  Pb27  1  0.782243  0.466093  0.042714  1
  Pb  Pb28  1  0.571668  0.627427  0.750000  1
  Pb  Pb29  1  0.071661  0.872577  0.750000  1
  Pb  Pb30  1  0.428305  0.372471  0.250000  1
  Pb  Pb31  1  0.928511  0.127325  0.250000  1
  Pb  Pb32  1  0.345243  0.151898  0.750000  1
  Pb  Pb33  1  0.845250  0.348052  0.750000  1
  Pb  Pb34  1  0.654702  0.848108  0.250000  1
  Pb  Pb35  1  0.154755  0.652123  0.250000  1
