# generated using pymatgen
data_Tb16Hg4PtRh3
_symmetry_space_group_name_H-M   'P 1'
_cell_length_a   9.63959449
_cell_length_b   9.65586897
_cell_length_c   9.63950200
_cell_angle_alpha   60.05765144
_cell_angle_beta   60.00126352
_cell_angle_gamma   60.05746404
_symmetry_Int_Tables_number   1
_chemical_formula_structural   Tb16Hg4PtRh3
_chemical_formula_sum   'Tb16 Hg4 Pt1 Rh3'
_cell_volume   634.99625642
_cell_formula_units_Z   1
loop_
 _symmetry_equiv_pos_site_id
 _symmetry_equiv_pos_as_xyz
  1  'x, y, z'
loop_
 _atom_site_type_symbol
 _atom_site_label
 _atom_site_symmetry_multiplicity
 _atom_site_fract_x
 _atom_site_fract_y
 _atom_site_fract_z
 _atom_site_occupancy
  Tb  Tb0  1  0.811586  0.810907  0.188746  1
  Tb  Tb1  1  0.810620  0.186140  0.810629  1
  Tb  Tb2  1  0.192589  0.186148  0.810628  1
  Tb  Tb3  1  0.649800  0.050644  0.649788  1
  Tb  Tb4  1  0.063946  0.064686  0.435677  1
  Tb  Tb5  1  0.435069  0.437060  0.063931  1
  Tb  Tb6  1  0.647667  0.650901  0.647651  1
  Tb  Tb7  1  0.810628  0.186135  0.192599  1
  Tb  Tb8  1  0.188744  0.810913  0.811595  1
  Tb  Tb9  1  0.053760  0.650921  0.647679  1
  Tb  Tb10  1  0.435676  0.064674  0.063948  1
  Tb  Tb11  1  0.435681  0.064670  0.435695  1
  Tb  Tb12  1  0.063931  0.437052  0.063939  1
  Tb  Tb13  1  0.647685  0.650916  0.053760  1
  Tb  Tb14  1  0.188741  0.810916  0.188740  1
  Tb  Tb15  1  0.063924  0.437060  0.435071  1
  Hg  Hg16  1  0.415696  0.416085  0.415694  1
  Hg  Hg17  1  0.415697  0.416092  0.752503  1
  Hg  Hg18  1  0.415635  0.753093  0.415637  1
  Hg  Hg19  1  0.752498  0.416089  0.415701  1
  Pt  Pt20  1  0.857161  0.428539  0.857153  1
  Rh  Rh21  1  0.857702  0.856831  0.857716  1
  Rh  Rh22  1  0.857679  0.856776  0.427854  1
  Rh  Rh23  1  0.427885  0.856749  0.857664  1
