# generated using pymatgen
data_Tb3YBSe3
_symmetry_space_group_name_H-M   'P 1'
_cell_length_a   7.08873409
_cell_length_b   7.08873416
_cell_length_c   7.07824600
_cell_angle_alpha   79.73425789
_cell_angle_beta   79.73425778
_cell_angle_gamma   32.72521689
_symmetry_Int_Tables_number   1
_chemical_formula_structural   Tb3YBSe3
_chemical_formula_sum   'Tb3 Y1 B1 Se3'
_cell_volume   188.94011660
_cell_formula_units_Z   1
loop_
 _symmetry_equiv_pos_site_id
 _symmetry_equiv_pos_as_xyz
  1  'x, y, z'
loop_
 _atom_site_type_symbol
 _atom_site_label
 _atom_site_symmetry_multiplicity
 _atom_site_fract_x
 _atom_site_fract_y
 _atom_site_fract_z
 _atom_site_occupancy
  Tb  Tb0  1  0.232947  0.232947  0.230255  1
  Tb  Tb1  1  0.509123  0.509123  0.463017  1
  Tb  Tb2  1  0.740801  0.740801  0.786669  1
  Y  Y3  1  0.016926  0.016926  0.019839  1
  B  B4  1  0.624990  0.624990  0.124895  1
  Se  Se5  1  0.867849  0.867849  0.379007  1
  Se  Se6  1  0.124774  0.124774  0.625478  1
  Se  Se7  1  0.382588  0.382588  0.870841  1
