# generated using pymatgen
data_Th2Ga(Co2P)6
_symmetry_space_group_name_H-M   'P 1'
_cell_length_a   9.16295500
_cell_length_b   9.16295405
_cell_length_c   3.60942300
_cell_angle_alpha   90.00000000
_cell_angle_beta   90.00000000
_cell_angle_gamma   119.99999981
_symmetry_Int_Tables_number   1
_chemical_formula_structural   Th2Ga(Co2P)6
_chemical_formula_sum   'Th2 Ga1 Co12 P6'
_cell_volume   262.44570908
_cell_formula_units_Z   1
loop_
 _symmetry_equiv_pos_site_id
 _symmetry_equiv_pos_as_xyz
  1  'x, y, z'
loop_
 _atom_site_type_symbol
 _atom_site_label
 _atom_site_symmetry_multiplicity
 _atom_site_fract_x
 _atom_site_fract_y
 _atom_site_fract_z
 _atom_site_occupancy
  Th  Th0  1  0.000000  0.000000  0.000000  1
  Th  Th1  1  0.333333  0.666667  0.500000  1
  Ga  Ga2  1  0.666667  0.333333  0.000000  1
  Co  Co3  1  0.104409  0.396256  0.000000  1
  Co  Co4  1  0.603744  0.708152  0.000000  1
  Co  Co5  1  0.291848  0.895591  0.000000  1
  Co  Co6  1  0.052164  0.771894  0.500000  1
  Co  Co7  1  0.228106  0.280270  0.500000  1
  Co  Co8  1  0.719730  0.947836  0.500000  1
  Co  Co9  1  0.825490  0.622771  0.000000  1
  Co  Co10  1  0.377229  0.202721  0.000000  1
  Co  Co11  1  0.797279  0.174510  0.000000  1
  Co  Co12  1  0.918194  0.448657  0.500000  1
  Co  Co13  1  0.551343  0.469537  0.500000  1
  Co  Co14  1  0.530463  0.081806  0.500000  1
  P  P15  1  0.769036  0.728114  0.500000  1
  P  P16  1  0.271886  0.040922  0.500000  1
  P  P17  1  0.959078  0.230964  0.500000  1
  P  P18  1  0.063046  0.624852  0.000000  1
  P  P19  1  0.375148  0.438193  0.000000  1
  P  P20  1  0.561807  0.936954  0.000000  1
