# generated using pymatgen
data_Y2Al2IrPd
_symmetry_space_group_name_H-M   'P 1'
_cell_length_a   4.37694100
_cell_length_b   6.89413100
_cell_length_c   7.87059900
_cell_angle_alpha   90.00000000
_cell_angle_beta   90.00000000
_cell_angle_gamma   90.00000000
_symmetry_Int_Tables_number   1
_chemical_formula_structural   Y2Al2IrPd
_chemical_formula_sum   'Y4 Al4 Ir2 Pd2'
_cell_volume   237.49693541
_cell_formula_units_Z   2
loop_
 _symmetry_equiv_pos_site_id
 _symmetry_equiv_pos_as_xyz
  1  'x, y, z'
loop_
 _atom_site_type_symbol
 _atom_site_label
 _atom_site_symmetry_multiplicity
 _atom_site_fract_x
 _atom_site_fract_y
 _atom_site_fract_z
 _atom_site_occupancy
  Y  Y0  1  0.250000  0.033232  0.322119  1
  Y  Y1  1  0.250000  0.533232  0.177881  1
  Y  Y2  1  0.750000  0.974911  0.682943  1
  Y  Y3  1  0.750000  0.474911  0.817057  1
  Al  Al4  1  0.250000  0.140716  0.933175  1
  Al  Al5  1  0.250000  0.640716  0.566825  1
  Al  Al6  1  0.750000  0.854185  0.057805  1
  Al  Al7  1  0.750000  0.354185  0.442195  1
  Ir  Ir8  1  0.250000  0.270810  0.617494  1
  Ir  Ir9  1  0.250000  0.770810  0.882506  1
  Pd  Pd10  1  0.750000  0.726146  0.379104  1
  Pd  Pd11  1  0.750000  0.226146  0.120896  1
