# generated using pymatgen
data_Nb12Al4Au4CN3
_symmetry_space_group_name_H-M   'P 1'
_cell_length_a   7.12757830
_cell_length_b   7.12757830
_cell_length_c   7.12757830
_cell_angle_alpha   90.06501385
_cell_angle_beta   89.93498615
_cell_angle_gamma   89.93498615
_symmetry_Int_Tables_number   1
_chemical_formula_structural   Nb12Al4Au4CN3
_chemical_formula_sum   'Nb12 Al4 Au4 C1 N3'
_cell_volume   362.09718673
_cell_formula_units_Z   1
loop_
 _symmetry_equiv_pos_site_id
 _symmetry_equiv_pos_as_xyz
  1  'x, y, z'
loop_
 _atom_site_type_symbol
 _atom_site_label
 _atom_site_symmetry_multiplicity
 _atom_site_fract_x
 _atom_site_fract_y
 _atom_site_fract_z
 _atom_site_occupancy
  Nb  Nb0  1  0.786807  0.955923  0.375836  1
  Nb  Nb1  1  0.712822  0.043481  0.876694  1
  Nb  Nb2  1  0.214117  0.456826  0.124084  1
  Nb  Nb3  1  0.286007  0.543450  0.623742  1
  Nb  Nb4  1  0.956519  0.376694  0.787178  1
  Nb  Nb5  1  0.044077  0.875836  0.713193  1
  Nb  Nb6  1  0.456550  0.123742  0.213993  1
  Nb  Nb7  1  0.543174  0.624084  0.285883  1
  Nb  Nb8  1  0.375916  0.785883  0.956826  1
  Nb  Nb9  1  0.876258  0.713993  0.043450  1
  Nb  Nb10  1  0.124164  0.213193  0.455923  1
  Nb  Nb11  1  0.623306  0.287178  0.543481  1
  Al  Al12  1  0.572087  0.427913  0.927913  1
  Al  Al13  1  0.428479  0.928032  0.572371  1
  Al  Al14  1  0.927629  0.571521  0.428032  1
  Al  Al15  1  0.071968  0.072371  0.071521  1
  Au  Au16  1  0.179177  0.820823  0.320823  1
  Au  Au17  1  0.321471  0.179294  0.820893  1
  Au  Au18  1  0.820706  0.320893  0.178529  1
  Au  Au19  1  0.679107  0.678529  0.679294  1
  C  C20  1  0.876528  0.123472  0.623472  1
  N  N21  1  0.622414  0.876288  0.122993  1
  N  N22  1  0.123712  0.622993  0.877586  1
  N  N23  1  0.377007  0.377586  0.376288  1
