# generated using pymatgen
data_Zr2Fe3Cu4
_symmetry_space_group_name_H-M   'P 1'
_cell_length_a   4.78111816
_cell_length_b   4.78111873
_cell_length_c   6.49713175
_cell_angle_alpha   82.57995365
_cell_angle_beta   82.57994428
_cell_angle_gamma   119.92766744
_symmetry_Int_Tables_number   1
_chemical_formula_structural   Zr2Fe3Cu4
_chemical_formula_sum   'Zr2 Fe3 Cu4'
_cell_volume   124.35672594
_cell_formula_units_Z   1
loop_
 _symmetry_equiv_pos_site_id
 _symmetry_equiv_pos_as_xyz
  1  'x, y, z'
loop_
 _atom_site_type_symbol
 _atom_site_label
 _atom_site_symmetry_multiplicity
 _atom_site_fract_x
 _atom_site_fract_y
 _atom_site_fract_z
 _atom_site_occupancy
  Zr  Zr0  1  0.594660  0.594660  0.248888  1
  Zr  Zr1  1  0.405340  0.405340  0.751112  1
  Fe  Fe2  1  0.000000  0.000000  0.500000  1
  Fe  Fe3  1  0.500000  0.000000  0.500000  1
  Fe  Fe4  1  0.000000  0.500000  0.500000  1
  Cu  Cu5  1  0.289020  0.959937  0.154062  1
  Cu  Cu6  1  0.040063  0.710980  0.845938  1
  Cu  Cu7  1  0.710980  0.040063  0.845938  1
  Cu  Cu8  1  0.959937  0.289020  0.154062  1
