# generated using pymatgen
data_Ho2Sc2CoB12Ir
_symmetry_space_group_name_H-M   'P 1'
_cell_length_a   3.50244000
_cell_length_b   8.96426992
_cell_length_c   11.31935294
_cell_angle_alpha   89.89286342
_cell_angle_beta   90.00000000
_cell_angle_gamma   90.00000000
_symmetry_Int_Tables_number   1
_chemical_formula_structural   Ho2Sc2CoB12Ir
_chemical_formula_sum   'Ho4 Sc4 Co2 B24 Ir2'
_cell_volume   355.39103775
_cell_formula_units_Z   2
loop_
 _symmetry_equiv_pos_site_id
 _symmetry_equiv_pos_as_xyz
  1  'x, y, z'
loop_
 _atom_site_type_symbol
 _atom_site_label
 _atom_site_symmetry_multiplicity
 _atom_site_fract_x
 _atom_site_fract_y
 _atom_site_fract_z
 _atom_site_occupancy
  Ho  Ho0  1  0.500000  0.317475  0.411594  1
  Ho  Ho1  1  0.500000  0.682525  0.588406  1
  Ho  Ho2  1  0.500000  0.175767  0.916079  1
  Ho  Ho3  1  0.500000  0.824233  0.083921  1
  Sc  Sc4  1  0.500000  0.440753  0.125061  1
  Sc  Sc5  1  0.500000  0.559247  0.874939  1
  Sc  Sc6  1  0.500000  0.052359  0.627408  1
  Sc  Sc7  1  0.500000  0.947641  0.372592  1
  Co  Co8  1  0.500000  0.141259  0.182492  1
  Co  Co9  1  0.500000  0.858741  0.817508  1
  B  B10  1  0.000000  0.099696  0.472801  1
  B  B11  1  0.000000  0.900304  0.527199  1
  B  B12  1  0.000000  0.399135  0.973313  1
  B  B13  1  0.000000  0.600865  0.026687  1
  B  B14  1  0.000000  0.130396  0.316304  1
  B  B15  1  0.000000  0.869604  0.683696  1
  B  B16  1  0.000000  0.369986  0.818872  1
  B  B17  1  0.000000  0.630014  0.181128  1
  B  B18  1  0.000000  0.055060  0.067449  1
  B  B19  1  0.000000  0.944940  0.932551  1
  B  B20  1  0.000000  0.445446  0.566311  1
  B  B21  1  0.000000  0.554554  0.433689  1
  B  B22  1  0.000000  0.480625  0.284567  1
  B  B23  1  0.000000  0.519375  0.715433  1
  B  B24  1  0.000000  0.015129  0.786983  1
  B  B25  1  0.000000  0.984871  0.213017  1
  B  B26  1  0.000000  0.251039  0.081909  1
  B  B27  1  0.000000  0.748961  0.918091  1
  B  B28  1  0.000000  0.244769  0.580566  1
  B  B29  1  0.000000  0.755231  0.419434  1
  B  B30  1  0.000000  0.292692  0.234408  1
  B  B31  1  0.000000  0.707308  0.765592  1
  B  B32  1  0.000000  0.203507  0.736112  1
  B  B33  1  0.000000  0.796493  0.263888  1
  Ir  Ir34  1  0.500000  0.359324  0.681099  1
  Ir  Ir35  1  0.500000  0.640676  0.318901  1
