# generated using pymatgen
data_TbHo2Er5(ReB6)4
_symmetry_space_group_name_H-M   'P 1'
_cell_length_a   3.66549000
_cell_length_b   9.14395800
_cell_length_c   11.52510500
_cell_angle_alpha   89.99782518
_cell_angle_beta   90.00000000
_cell_angle_gamma   90.00000000
_symmetry_Int_Tables_number   1
_chemical_formula_structural   TbHo2Er5(ReB6)4
_chemical_formula_sum   'Tb1 Ho2 Er5 Re4 B24'
_cell_volume   386.28794234
_cell_formula_units_Z   1
loop_
 _symmetry_equiv_pos_site_id
 _symmetry_equiv_pos_as_xyz
  1  'x, y, z'
loop_
 _atom_site_type_symbol
 _atom_site_label
 _atom_site_symmetry_multiplicity
 _atom_site_fract_x
 _atom_site_fract_y
 _atom_site_fract_z
 _atom_site_occupancy
  Tb  Tb0  1  0.000000  0.323244  0.413889  1
  Ho  Ho1  1  0.000000  0.676614  0.586167  1
  Ho  Ho2  1  0.000000  0.823412  0.086043  1
  Er  Er3  1  0.000000  0.176491  0.913941  1
  Er  Er4  1  0.000000  0.943088  0.370019  1
  Er  Er5  1  0.000000  0.056831  0.630033  1
  Er  Er6  1  0.000000  0.443106  0.129697  1
  Er  Er7  1  0.000000  0.556855  0.870212  1
  Re  Re8  1  0.000000  0.639033  0.320528  1
  Re  Re9  1  0.000000  0.361179  0.679790  1
  Re  Re10  1  0.000000  0.138558  0.178930  1
  Re  Re11  1  0.000000  0.861443  0.820746  1
  B  B12  1  0.500000  0.553597  0.432931  1
  B  B13  1  0.500000  0.446754  0.567377  1
  B  B14  1  0.500000  0.053336  0.066787  1
  B  B15  1  0.500000  0.946917  0.932993  1
  B  B16  1  0.500000  0.749689  0.418726  1
  B  B17  1  0.500000  0.250313  0.581789  1
  B  B18  1  0.500000  0.249565  0.080953  1
  B  B19  1  0.500000  0.750485  0.918684  1
  B  B20  1  0.500000  0.792396  0.265339  1
  B  B21  1  0.500000  0.207496  0.734898  1
  B  B22  1  0.500000  0.292201  0.234197  1
  B  B23  1  0.500000  0.707650  0.765443  1
  B  B24  1  0.500000  0.630706  0.185245  1
  B  B25  1  0.500000  0.369174  0.814895  1
  B  B26  1  0.500000  0.130436  0.314357  1
  B  B27  1  0.500000  0.869406  0.685430  1
  B  B28  1  0.500000  0.981957  0.211946  1
  B  B29  1  0.500000  0.018283  0.788105  1
  B  B30  1  0.500000  0.482301  0.287667  1
  B  B31  1  0.500000  0.518069  0.712216  1
  B  B32  1  0.500000  0.599581  0.027792  1
  B  B33  1  0.500000  0.400173  0.972082  1
  B  B34  1  0.500000  0.099092  0.472334  1
  B  B35  1  0.500000  0.900568  0.527820  1
