# generated using pymatgen
data_PrEu2Ho(Si5Pt3)2
_symmetry_space_group_name_H-M   'P 1'
_cell_length_a   8.26959286
_cell_length_b   8.28534128
_cell_length_c   8.28533995
_cell_angle_alpha   136.98472639
_cell_angle_beta   104.78384943
_cell_angle_gamma   90.81172247
_symmetry_Int_Tables_number   1
_chemical_formula_structural   PrEu2Ho(Si5Pt3)2
_chemical_formula_sum   'Pr1 Eu2 Ho1 Si10 Pt6'
_cell_volume   356.68631024
_cell_formula_units_Z   1
loop_
 _symmetry_equiv_pos_site_id
 _symmetry_equiv_pos_as_xyz
  1  'x, y, z'
loop_
 _atom_site_type_symbol
 _atom_site_label
 _atom_site_symmetry_multiplicity
 _atom_site_fract_x
 _atom_site_fract_y
 _atom_site_fract_z
 _atom_site_occupancy
  Pr  Pr0  1  0.604595  0.871441  0.733154  1
  Eu  Eu1  1  0.861910  0.629219  0.232691  1
  Eu  Eu2  1  0.137876  0.370848  0.767028  1
  Ho  Ho3  1  0.396687  0.128525  0.268162  1
  Si  Si4  1  0.499672  0.746283  0.245488  1
  Si  Si5  1  0.499672  0.254184  0.753389  1
  Si  Si6  1  0.227646  0.979831  0.749521  1
  Si  Si7  1  0.770938  0.521251  0.751835  1
  Si  Si8  1  0.770938  0.019103  0.249686  1
  Si  Si9  1  0.227646  0.478125  0.247815  1
  Si  Si10  1  0.042583  0.890168  0.152416  1
  Si  Si11  1  0.961195  0.113082  0.848113  1
  Si  Si12  1  0.738993  0.387801  0.351193  1
  Si  Si13  1  0.259782  0.610360  0.649422  1
  Pt  Pt14  1  0.001393  0.753129  0.753413  1
  Pt  Pt15  1  0.001393  0.247980  0.248263  1
  Pt  Pt16  1  0.255232  0.865831  0.389401  1
  Pt  Pt17  1  0.745038  0.135678  0.609359  1
  Pt  Pt18  1  0.474711  0.360598  0.114114  1
  Pt  Pt19  1  0.522098  0.636563  0.885536  1
