# generated using pymatgen
data_Mn24Al5
_symmetry_space_group_name_H-M   'P 1'
_cell_length_a   7.55459983
_cell_length_b   7.55460013
_cell_length_c   7.55460000
_cell_angle_alpha   109.47122027
_cell_angle_beta   109.47122110
_cell_angle_gamma   109.47122313
_symmetry_Int_Tables_number   1
_chemical_formula_structural   Mn24Al5
_chemical_formula_sum   'Mn24 Al5'
_cell_volume   331.90402256
_cell_formula_units_Z   1
loop_
 _symmetry_equiv_pos_site_id
 _symmetry_equiv_pos_as_xyz
  1  'x, y, z'
loop_
 _atom_site_type_symbol
 _atom_site_label
 _atom_site_symmetry_multiplicity
 _atom_site_fract_x
 _atom_site_fract_y
 _atom_site_fract_z
 _atom_site_occupancy
  Mn  Mn0  1  0.385399  0.673325  0.000000  1
  Mn  Mn1  1  0.712074  0.326675  0.326675  1
  Mn  Mn2  1  0.385399  0.000000  0.673325  1
  Mn  Mn3  1  0.673325  0.385399  0.000000  1
  Mn  Mn4  1  0.000000  0.385399  0.673325  1
  Mn  Mn5  1  0.326675  0.712074  0.326675  1
  Mn  Mn6  1  0.326675  0.326675  0.712074  1
  Mn  Mn7  1  0.000000  0.673325  0.385399  1
  Mn  Mn8  1  0.673325  0.000000  0.385399  1
  Mn  Mn9  1  0.614601  0.614601  0.287926  1
  Mn  Mn10  1  0.287926  0.614601  0.614601  1
  Mn  Mn11  1  0.614601  0.287926  0.614601  1
  Mn  Mn12  1  0.372170  0.193663  0.000000  1
  Mn  Mn13  1  0.178507  0.806337  0.806337  1
  Mn  Mn14  1  0.372170  0.000000  0.193663  1
  Mn  Mn15  1  0.193663  0.372170  0.000000  1
  Mn  Mn16  1  0.000000  0.372170  0.193663  1
  Mn  Mn17  1  0.806337  0.178507  0.806337  1
  Mn  Mn18  1  0.806337  0.806337  0.178507  1
  Mn  Mn19  1  0.000000  0.193663  0.372170  1
  Mn  Mn20  1  0.193663  0.000000  0.372170  1
  Mn  Mn21  1  0.627830  0.627830  0.821493  1
  Mn  Mn22  1  0.821493  0.627830  0.627830  1
  Mn  Mn23  1  0.627830  0.821493  0.627830  1
  Al  Al24  1  0.000000  0.000000  0.000000  1
  Al  Al25  1  0.631929  0.000000  0.000000  1
  Al  Al26  1  0.000000  0.631929  0.000000  1
  Al  Al27  1  0.000000  0.000000  0.631929  1
  Al  Al28  1  0.368071  0.368071  0.368071  1
