# generated using pymatgen
data_Nb2ReB2Ru
_symmetry_space_group_name_H-M   'P 1'
_cell_length_a   3.16389900
_cell_length_b   6.48437003
_cell_length_c   11.03666349
_cell_angle_alpha   90.09089410
_cell_angle_beta   90.00000000
_cell_angle_gamma   90.00000000
_symmetry_Int_Tables_number   1
_chemical_formula_structural   Nb2ReB2Ru
_chemical_formula_sum   'Nb6 Re3 B6 Ru3'
_cell_volume   226.42670964
_cell_formula_units_Z   3
loop_
 _symmetry_equiv_pos_site_id
 _symmetry_equiv_pos_as_xyz
  1  'x, y, z'
loop_
 _atom_site_type_symbol
 _atom_site_label
 _atom_site_symmetry_multiplicity
 _atom_site_fract_x
 _atom_site_fract_y
 _atom_site_fract_z
 _atom_site_occupancy
  Nb  Nb0  1  0.000000  0.280141  0.955164  1
  Nb  Nb1  1  0.000000  0.723211  0.045725  1
  Nb  Nb2  1  0.000000  0.278201  0.544372  1
  Nb  Nb3  1  0.000000  0.723120  0.455451  1
  Nb  Nb4  1  0.000000  0.350773  0.249519  1
  Nb  Nb5  1  0.000000  0.646874  0.749644  1
  Re  Re6  1  0.500000  0.074799  0.122389  1
  Re  Re7  1  0.500000  0.698021  0.251235  1
  Re  Re8  1  0.500000  0.300009  0.749122  1
  B  B9  1  0.000000  0.949955  0.247512  1
  B  B10  1  0.000000  0.050606  0.750439  1
  B  B11  1  0.500000  0.448102  0.088168  1
  B  B12  1  0.500000  0.552261  0.911885  1
  B  B13  1  0.500000  0.451911  0.415472  1
  B  B14  1  0.500000  0.547681  0.585359  1
  Ru  Ru15  1  0.500000  0.925766  0.875588  1
  Ru  Ru16  1  0.500000  0.073512  0.379191  1
  Ru  Ru17  1  0.500000  0.925057  0.623763  1
