# generated using pymatgen
data_PuSe14
_symmetry_space_group_name_H-M   'P 1'
_cell_length_a   8.65071689
_cell_length_b   7.12895352
_cell_length_c   9.90782197
_cell_angle_alpha   98.88506181
_cell_angle_beta   64.99124589
_cell_angle_gamma   91.28470953
_symmetry_Int_Tables_number   1
_chemical_formula_structural   PuSe14
_chemical_formula_sum   'Pu1 Se14'
_cell_volume   546.46123247
_cell_formula_units_Z   1
loop_
 _symmetry_equiv_pos_site_id
 _symmetry_equiv_pos_as_xyz
  1  'x, y, z'
loop_
 _atom_site_type_symbol
 _atom_site_label
 _atom_site_symmetry_multiplicity
 _atom_site_fract_x
 _atom_site_fract_y
 _atom_site_fract_z
 _atom_site_occupancy
  Pu  Pu0  1  0.500000  0.500000  0.500000  1
  Se  Se1  1  0.346840  0.694243  0.982091  1
  Se  Se2  1  0.734673  0.743357  0.279165  1
  Se  Se3  1  0.176062  0.911868  0.194924  1
  Se  Se4  1  0.759136  0.271278  0.202233  1
  Se  Se5  1  0.565649  0.066889  0.353806  1
  Se  Se6  1  0.955891  0.738272  0.361987  1
  Se  Se7  1  0.285507  0.503879  0.382359  1
  Se  Se8  1  0.714493  0.496121  0.617641  1
  Se  Se9  1  0.044108  0.261728  0.638012  1
  Se  Se10  1  0.434351  0.933111  0.646194  1
  Se  Se11  1  0.240863  0.728722  0.797767  1
  Se  Se12  1  0.823938  0.088132  0.805076  1
  Se  Se13  1  0.265327  0.256643  0.720834  1
  Se  Se14  1  0.653159  0.305757  0.017908  1
