# generated using pymatgen
data_Dy5Tc6P12IrRh12
_symmetry_space_group_name_H-M   'P 1'
_cell_length_a   12.67751300
_cell_length_b   12.67751334
_cell_length_c   3.94823900
_cell_angle_alpha   90.00000000
_cell_angle_beta   90.00000000
_cell_angle_gamma   119.99999649
_symmetry_Int_Tables_number   1
_chemical_formula_structural   Dy5Tc6P12IrRh12
_chemical_formula_sum   'Dy5 Tc6 P12 Ir1 Rh12'
_cell_volume   549.54368551
_cell_formula_units_Z   1
loop_
 _symmetry_equiv_pos_site_id
 _symmetry_equiv_pos_as_xyz
  1  'x, y, z'
loop_
 _atom_site_type_symbol
 _atom_site_label
 _atom_site_symmetry_multiplicity
 _atom_site_fract_x
 _atom_site_fract_y
 _atom_site_fract_z
 _atom_site_occupancy
  Dy  Dy0  1  0.333333  0.666667  0.500000  1
  Dy  Dy1  1  0.666667  0.333333  0.500000  1
  Dy  Dy2  1  0.999998  0.811760  0.000000  1
  Dy  Dy3  1  0.188240  0.188238  0.000000  1
  Dy  Dy4  1  0.811762  0.000002  0.000000  1
  Tc  Tc5  1  0.988767  0.444441  0.500000  1
  Tc  Tc6  1  0.555559  0.544326  0.500000  1
  Tc  Tc7  1  0.455674  0.011233  0.500000  1
  Tc  Tc8  1  0.620154  0.798660  0.500000  1
  Tc  Tc9  1  0.201340  0.821494  0.500000  1
  Tc  Tc10  1  0.178506  0.379846  0.500000  1
  P  P11  1  0.005809  0.637103  0.500000  1
  P  P12  1  0.362897  0.368706  0.500000  1
  P  P13  1  0.631294  0.994191  0.500000  1
  P  P14  1  0.521564  0.691923  0.000000  1
  P  P15  1  0.308077  0.829641  0.000000  1
  P  P16  1  0.170359  0.478436  0.000000  1
  P  P17  1  0.481897  0.164134  0.000000  1
  P  P18  1  0.682236  0.518103  0.000000  1
  P  P19  1  0.835866  0.317764  0.000000  1
  P  P20  1  0.004615  0.183284  0.500000  1
  P  P21  1  0.816716  0.821332  0.500000  1
  P  P22  1  0.178668  0.995385  0.500000  1
  Ir  Ir23  1  0.000000  0.000000  0.500000  1
  Rh  Rh24  1  0.508457  0.875242  0.000000  1
  Rh  Rh25  1  0.124758  0.633216  0.000000  1
  Rh  Rh26  1  0.366784  0.491543  0.000000  1
  Rh  Rh27  1  0.489905  0.355142  0.000000  1
  Rh  Rh28  1  0.865238  0.510095  0.000000  1
  Rh  Rh29  1  0.644858  0.134762  0.000000  1
  Rh  Rh30  1  0.995098  0.279316  0.000000  1
  Rh  Rh31  1  0.720684  0.715783  0.000000  1
  Rh  Rh32  1  0.284217  0.004902  0.000000  1
  Rh  Rh33  1  0.374453  0.183697  0.500000  1
  Rh  Rh34  1  0.809245  0.625547  0.500000  1
  Rh  Rh35  1  0.816303  0.190755  0.500000  1
