# generated using pymatgen
data_NaYb7(Si3Au)4
_symmetry_space_group_name_H-M   'P 1'
_cell_length_a   8.28097200
_cell_length_b   8.31876324
_cell_length_c   8.71456800
_cell_angle_alpha   90.00000000
_cell_angle_beta   90.00000000
_cell_angle_gamma   120.15107486
_symmetry_Int_Tables_number   1
_chemical_formula_structural   NaYb7(Si3Au)4
_chemical_formula_sum   'Na1 Yb7 Si12 Au4'
_cell_volume   519.10285851
_cell_formula_units_Z   1
loop_
 _symmetry_equiv_pos_site_id
 _symmetry_equiv_pos_as_xyz
  1  'x, y, z'
loop_
 _atom_site_type_symbol
 _atom_site_label
 _atom_site_symmetry_multiplicity
 _atom_site_fract_x
 _atom_site_fract_y
 _atom_site_fract_z
 _atom_site_occupancy
  Na  Na0  1  0.001374  0.500687  0.750000  1
  Yb  Yb1  1  0.000090  0.000045  0.250000  1
  Yb  Yb2  1  0.999820  0.999910  0.750000  1
  Yb  Yb3  1  0.500124  0.499671  0.250000  1
  Yb  Yb4  1  0.500124  0.000453  0.250000  1
  Yb  Yb5  1  0.999404  0.499701  0.250000  1
  Yb  Yb6  1  0.499746  0.500396  0.750000  1
  Yb  Yb7  1  0.499746  0.999349  0.750000  1
  Si  Si8  1  0.162468  0.837100  0.498888  1
  Si  Si9  1  0.162468  0.325367  0.498888  1
  Si  Si10  1  0.676060  0.838030  0.499660  1
  Si  Si11  1  0.837466  0.162884  0.497449  1
  Si  Si12  1  0.837466  0.674583  0.497449  1
  Si  Si13  1  0.323902  0.161952  0.498335  1
  Si  Si14  1  0.837466  0.162884  0.002551  1
  Si  Si15  1  0.837466  0.674583  0.002551  1
  Si  Si16  1  0.323902  0.161952  0.001665  1
  Si  Si17  1  0.162468  0.837100  0.001112  1
  Si  Si18  1  0.162468  0.325367  0.001112  1
  Si  Si19  1  0.676060  0.838030  0.000340  1
  Au  Au20  1  0.333815  0.666909  0.495756  1
  Au  Au21  1  0.666142  0.333070  0.498474  1
  Au  Au22  1  0.666142  0.333070  0.001526  1
  Au  Au23  1  0.333815  0.666909  0.004244  1
