# generated using pymatgen
data_Sc4Os3Ru5
_symmetry_space_group_name_H-M   'P 1'
_cell_length_a   5.15607446
_cell_length_b   5.14573195
_cell_length_c   8.71084600
_cell_angle_alpha   90.00000000
_cell_angle_beta   90.00000000
_cell_angle_gamma   119.93368391
_symmetry_Int_Tables_number   1
_chemical_formula_structural   Sc4Os3Ru5
_chemical_formula_sum   'Sc4 Os3 Ru5'
_cell_volume   200.28440494
_cell_formula_units_Z   1
loop_
 _symmetry_equiv_pos_site_id
 _symmetry_equiv_pos_as_xyz
  1  'x, y, z'
loop_
 _atom_site_type_symbol
 _atom_site_label
 _atom_site_symmetry_multiplicity
 _atom_site_fract_x
 _atom_site_fract_y
 _atom_site_fract_z
 _atom_site_occupancy
  Sc  Sc0  1  0.333942  0.666972  0.432383  1
  Sc  Sc1  1  0.667640  0.333819  0.567819  1
  Sc  Sc2  1  0.667640  0.333819  0.932181  1
  Sc  Sc3  1  0.333942  0.666972  0.067617  1
  Os  Os4  1  0.164172  0.338829  0.750000  1
  Os  Os5  1  0.164172  0.825343  0.750000  1
  Os  Os6  1  0.333899  0.166949  0.250000  1
  Ru  Ru7  1  0.820368  0.653899  0.250000  1
  Ru  Ru8  1  0.651838  0.825919  0.750000  1
  Ru  Ru9  1  0.021009  0.010504  0.000472  1
  Ru  Ru10  1  0.820368  0.166469  0.250000  1
  Ru  Ru11  1  0.021009  0.010504  0.499528  1
