# generated using pymatgen
data_Ho2ErTh5(ReC2)4
_symmetry_space_group_name_H-M   'P 1'
_cell_length_a   5.29548400
_cell_length_b   6.66523550
_cell_length_c   9.92831126
_cell_angle_alpha   90.22480523
_cell_angle_beta   90.00000000
_cell_angle_gamma   90.00000000
_symmetry_Int_Tables_number   1
_chemical_formula_structural   Ho2ErTh5(ReC2)4
_chemical_formula_sum   'Ho2 Er1 Th5 Re4 C8'
_cell_volume   350.42348142
_cell_formula_units_Z   1
loop_
 _symmetry_equiv_pos_site_id
 _symmetry_equiv_pos_as_xyz
  1  'x, y, z'
loop_
 _atom_site_type_symbol
 _atom_site_label
 _atom_site_symmetry_multiplicity
 _atom_site_fract_x
 _atom_site_fract_y
 _atom_site_fract_z
 _atom_site_occupancy
  Ho  Ho0  1  0.750000  0.675467  0.551615  1
  Ho  Ho1  1  0.750000  0.179619  0.946518  1
  Er  Er2  1  0.250000  0.324595  0.447966  1
  Th  Th3  1  0.250000  0.469741  0.781151  1
  Th  Th4  1  0.750000  0.029414  0.285042  1
  Th  Th5  1  0.250000  0.972968  0.712494  1
  Th  Th6  1  0.750000  0.525268  0.221275  1
  Th  Th7  1  0.250000  0.814629  0.047481  1
  Re  Re8  1  0.250000  0.273481  0.137443  1
  Re  Re9  1  0.750000  0.228523  0.635495  1
  Re  Re10  1  0.250000  0.772530  0.366870  1
  Re  Re11  1  0.750000  0.729274  0.860571  1
  C  C12  1  0.250000  0.170784  0.947690  1
  C  C13  1  0.750000  0.833174  0.052065  1
  C  C14  1  0.250000  0.668605  0.553115  1
  C  C15  1  0.750000  0.331616  0.447945  1
  C  C16  1  0.250000  0.041195  0.263712  1
  C  C17  1  0.750000  0.461755  0.759033  1
  C  C18  1  0.250000  0.535354  0.244871  1
  C  C19  1  0.750000  0.962007  0.737649  1
