# generated using pymatgen
data_Ba8Zn(CoO4)3
_symmetry_space_group_name_H-M   'P 1'
_cell_length_a   6.50795809
_cell_length_b   6.51746284
_cell_length_c   12.69782583
_cell_angle_alpha   88.45589262
_cell_angle_beta   88.54216162
_cell_angle_gamma   125.68009898
_symmetry_Int_Tables_number   1
_chemical_formula_structural   Ba8Zn(CoO4)3
_chemical_formula_sum   'Ba8 Zn1 Co3 O12'
_cell_volume   436.76253277
_cell_formula_units_Z   1
loop_
 _symmetry_equiv_pos_site_id
 _symmetry_equiv_pos_as_xyz
  1  'x, y, z'
loop_
 _atom_site_type_symbol
 _atom_site_label
 _atom_site_symmetry_multiplicity
 _atom_site_fract_x
 _atom_site_fract_y
 _atom_site_fract_z
 _atom_site_occupancy
  Ba  Ba0  1  0.440472  0.028945  0.151996  1
  Ba  Ba1  1  0.029963  0.440830  0.651577  1
  Ba  Ba2  1  0.559002  0.970188  0.848032  1
  Ba  Ba3  1  0.969094  0.559379  0.347970  1
  Ba  Ba4  1  0.866025  0.658221  0.924776  1
  Ba  Ba5  1  0.341799  0.134636  0.574376  1
  Ba  Ba6  1  0.136052  0.342684  0.074613  1
  Ba  Ba7  1  0.658523  0.866034  0.425420  1
  Zn  Zn8  1  0.730773  0.725936  0.164137  1
  Co  Co9  1  0.728101  0.733371  0.664576  1
  Co  Co10  1  0.272080  0.266730  0.336012  1
  Co  Co11  1  0.266734  0.272112  0.835374  1
  O  O12  1  0.324132  0.128308  0.963950  1
  O  O13  1  0.871525  0.675759  0.536215  1
  O  O14  1  0.676487  0.873400  0.035209  1
  O  O15  1  0.127692  0.323936  0.464162  1
  O  O16  1  0.992685  0.007265  0.750107  1
  O  O17  1  0.009315  0.994912  0.249951  1
  O  O18  1  0.594070  0.406591  0.750165  1
  O  O19  1  0.490002  0.149296  0.367705  1
  O  O20  1  0.149240  0.489582  0.867879  1
  O  O21  1  0.510256  0.850518  0.632468  1
  O  O22  1  0.850889  0.508923  0.132461  1
  O  O23  1  0.405088  0.592445  0.250871  1
