# generated using pymatgen
data_LiTi2(AsPd)3
_symmetry_space_group_name_H-M   'P 1'
_cell_length_a   6.61022900
_cell_length_b   6.79393861
_cell_length_c   3.66871300
_cell_angle_alpha   90.00000000
_cell_angle_beta   90.00000000
_cell_angle_gamma   119.10948112
_symmetry_Int_Tables_number   1
_chemical_formula_structural   LiTi2(AsPd)3
_chemical_formula_sum   'Li1 Ti2 As3 Pd3'
_cell_volume   143.94947608
_cell_formula_units_Z   1
loop_
 _symmetry_equiv_pos_site_id
 _symmetry_equiv_pos_as_xyz
  1  'x, y, z'
loop_
 _atom_site_type_symbol
 _atom_site_label
 _atom_site_symmetry_multiplicity
 _atom_site_fract_x
 _atom_site_fract_y
 _atom_site_fract_z
 _atom_site_occupancy
  Li  Li0  1  0.599719  0.000000  0.000000  1
  Ti  Ti1  1  0.995761  0.594530  0.000000  1
  Ti  Ti2  1  0.401231  0.405470  0.000000  1
  As  As3  1  0.315385  0.646271  0.500000  1
  As  As4  1  0.669115  0.353729  0.500000  1
  As  As5  1  0.014952  0.000000  0.000000  1
  Pd  Pd6  1  0.283347  0.000000  0.500000  1
  Pd  Pd7  1  0.983949  0.247408  0.500000  1
  Pd  Pd8  1  0.736542  0.752592  0.500000  1
