# generated using pymatgen
data_Tb7Ho(Si3Pt)4
_symmetry_space_group_name_H-M   'P 1'
_cell_length_a   8.14417700
_cell_length_b   8.14933953
_cell_length_c   8.19466700
_cell_angle_alpha   90.00000000
_cell_angle_beta   90.00000000
_cell_angle_gamma   120.02097389
_symmetry_Int_Tables_number   1
_chemical_formula_structural   Tb7Ho(Si3Pt)4
_chemical_formula_sum   'Tb7 Ho1 Si12 Pt4'
_cell_volume   470.91197313
_cell_formula_units_Z   1
loop_
 _symmetry_equiv_pos_site_id
 _symmetry_equiv_pos_as_xyz
  1  'x, y, z'
loop_
 _atom_site_type_symbol
 _atom_site_label
 _atom_site_symmetry_multiplicity
 _atom_site_fract_x
 _atom_site_fract_y
 _atom_site_fract_z
 _atom_site_occupancy
  Tb  Tb0  1  0.000009  0.000004  0.250000  1
  Tb  Tb1  1  0.000011  0.000005  0.750000  1
  Tb  Tb2  1  0.499247  0.500753  0.250000  1
  Tb  Tb3  1  0.500766  0.001527  0.750000  1
  Tb  Tb4  1  0.499250  0.998494  0.250000  1
  Tb  Tb5  1  0.500765  0.499239  0.750000  1
  Tb  Tb6  1  0.998456  0.499230  0.750000  1
  Ho  Ho7  1  0.001403  0.500701  0.250000  1
  Si  Si8  1  0.165490  0.330930  0.999438  1
  Si  Si9  1  0.669118  0.834560  0.999176  1
  Si  Si10  1  0.165490  0.330930  0.500562  1
  Si  Si11  1  0.330896  0.165447  0.000777  1
  Si  Si12  1  0.165489  0.834562  0.999438  1
  Si  Si13  1  0.669118  0.834560  0.500824  1
  Si  Si14  1  0.834529  0.669083  0.001043  1
  Si  Si15  1  0.330896  0.165447  0.499223  1
  Si  Si16  1  0.165489  0.834562  0.500562  1
  Si  Si17  1  0.834529  0.669083  0.498957  1
  Si  Si18  1  0.834530  0.165442  0.001042  1
  Si  Si19  1  0.834530  0.165442  0.498958  1
  Pt  Pt20  1  0.332679  0.666341  0.999966  1
  Pt  Pt21  1  0.332679  0.666341  0.500034  1
  Pt  Pt22  1  0.667315  0.333656  0.001935  1
  Pt  Pt23  1  0.667315  0.333656  0.498065  1
