# generated using pymatgen
data_Yb6Sm3DyRu4
_symmetry_space_group_name_H-M   'P 1'
_cell_length_a   8.53303425
_cell_length_b   8.53303463
_cell_length_c   7.46814761
_cell_angle_alpha   83.30324879
_cell_angle_beta   83.30324075
_cell_angle_gamma   43.82231664
_symmetry_Int_Tables_number   1
_chemical_formula_structural   Yb6Sm3DyRu4
_chemical_formula_sum   'Yb6 Sm3 Dy1 Ru4'
_cell_volume   373.53736570
_cell_formula_units_Z   1
loop_
 _symmetry_equiv_pos_site_id
 _symmetry_equiv_pos_as_xyz
  1  'x, y, z'
loop_
 _atom_site_type_symbol
 _atom_site_label
 _atom_site_symmetry_multiplicity
 _atom_site_fract_x
 _atom_site_fract_y
 _atom_site_fract_z
 _atom_site_occupancy
  Yb  Yb0  1  0.202644  0.975623  0.583248  1
  Yb  Yb1  1  0.024377  0.797356  0.916752  1
  Yb  Yb2  1  0.202451  0.365778  0.317176  1
  Yb  Yb3  1  0.634222  0.797549  0.182824  1
  Yb  Yb4  1  0.805239  0.628058  0.677855  1
  Yb  Yb5  1  0.371942  0.194761  0.822145  1
  Sm  Sm6  1  0.970295  0.203471  0.079481  1
  Sm  Sm7  1  0.796529  0.029705  0.420519  1
  Sm  Sm8  1  0.562876  0.437124  0.750000  1
  Dy  Dy9  1  0.419327  0.580673  0.250000  1
  Ru  Ru10  1  0.177197  0.602943  0.573417  1
  Ru  Ru11  1  0.397057  0.822803  0.926583  1
  Ru  Ru12  1  0.818403  0.382561  0.416752  1
  Ru  Ru13  1  0.617439  0.181597  0.083248  1
