# generated using pymatgen
data_Tb2Ho3Tm3(WO6)4
_symmetry_space_group_name_H-M   'P 1'
_cell_length_a   5.37907629
_cell_length_b   7.67525834
_cell_length_c   11.41411284
_cell_angle_alpha   75.45072862
_cell_angle_beta   90.00003363
_cell_angle_gamma   90.03670918
_symmetry_Int_Tables_number   1
_chemical_formula_structural   Tb2Ho3Tm3(WO6)4
_chemical_formula_sum   'Tb2 Ho3 Tm3 W4 O24'
_cell_volume   456.12891814
_cell_formula_units_Z   1
loop_
 _symmetry_equiv_pos_site_id
 _symmetry_equiv_pos_as_xyz
  1  'x, y, z'
loop_
 _atom_site_type_symbol
 _atom_site_label
 _atom_site_symmetry_multiplicity
 _atom_site_fract_x
 _atom_site_fract_y
 _atom_site_fract_z
 _atom_site_occupancy
  Tb  Tb0  1  0.684324  0.499536  0.750495  1
  Tb  Tb1  1  0.315990  0.499826  0.249882  1
  Ho  Ho2  1  0.740598  0.000319  0.750644  1
  Ho  Ho3  1  0.259555  0.000280  0.249501  1
  Ho  Ho4  1  0.185287  0.796130  0.577754  1
  Tm  Tm5  1  0.815176  0.795454  0.078140  1
  Tm  Tm6  1  0.184807  0.204575  0.921757  1
  Tm  Tm7  1  0.814752  0.204993  0.421558  1
  W  W8  1  0.255101  0.723928  0.886094  1
  W  W9  1  0.745290  0.723918  0.385052  1
  W  W10  1  0.254743  0.275729  0.614374  1
  W  W11  1  0.745189  0.275880  0.114347  1
  O  O12  1  0.043438  0.941232  0.896550  1
  O  O13  1  0.535068  0.846765  0.932286  1
  O  O14  1  0.956429  0.941572  0.395750  1
  O  O15  1  0.459300  0.791122  0.727531  1
  O  O16  1  0.466641  0.847716  0.430240  1
  O  O17  1  0.981790  0.712916  0.771096  1
  O  O18  1  0.542479  0.791245  0.225942  1
  O  O19  1  0.851378  0.635309  0.548506  1
  O  O20  1  0.357485  0.488597  0.887046  1
  O  O21  1  0.018190  0.713211  0.269949  1
  O  O22  1  0.359361  0.510232  0.613147  1
  O  O23  1  0.853872  0.363620  0.951247  1
  O  O24  1  0.146152  0.636123  0.049060  1
  O  O25  1  0.641941  0.488492  0.386505  1
  O  O26  1  0.982685  0.287209  0.730305  1
  O  O27  1  0.642446  0.511121  0.113014  1
  O  O28  1  0.146333  0.363913  0.451143  1
  O  O29  1  0.457471  0.208020  0.773820  1
  O  O30  1  0.017709  0.286755  0.229954  1
  O  O31  1  0.534382  0.152763  0.568359  1
  O  O32  1  0.542273  0.208476  0.273576  1
  O  O33  1  0.040825  0.060568  0.603618  1
  O  O34  1  0.464717  0.153567  0.068284  1
  O  O35  1  0.956825  0.058888  0.103478  1
