# generated using pymatgen
data_Tb3Mg3Ir2Pt
_symmetry_space_group_name_H-M   'P 1'
_cell_length_a   7.34856900
_cell_length_b   7.34857024
_cell_length_c   4.05178700
_cell_angle_alpha   90.00000000
_cell_angle_beta   90.00000000
_cell_angle_gamma   120.00000793
_symmetry_Int_Tables_number   1
_chemical_formula_structural   Tb3Mg3Ir2Pt
_chemical_formula_sum   'Tb3 Mg3 Ir2 Pt1'
_cell_volume   189.48848768
_cell_formula_units_Z   1
loop_
 _symmetry_equiv_pos_site_id
 _symmetry_equiv_pos_as_xyz
  1  'x, y, z'
loop_
 _atom_site_type_symbol
 _atom_site_label
 _atom_site_symmetry_multiplicity
 _atom_site_fract_x
 _atom_site_fract_y
 _atom_site_fract_z
 _atom_site_occupancy
  Tb  Tb0  1  0.414655  0.414655  0.000000  1
  Tb  Tb1  1  0.585345  0.000000  0.000000  1
  Tb  Tb2  1  0.000000  0.585345  0.000000  1
  Mg  Mg3  1  0.000000  0.247025  0.500000  1
  Mg  Mg4  1  0.752975  0.752975  0.500000  1
  Mg  Mg5  1  0.247025  0.000000  0.500000  1
  Ir  Ir6  1  0.666667  0.333333  0.500000  1
  Ir  Ir7  1  0.333333  0.666667  0.500000  1
  Pt  Pt8  1  0.000000  0.000000  0.000000  1
