# generated using pymatgen
data_Dy7Lu(Sc3Sn4)4
_symmetry_space_group_name_H-M   'P 1'
_cell_length_a   7.66538610
_cell_length_b   7.94212709
_cell_length_c   14.80479300
_cell_angle_alpha   89.99715041
_cell_angle_beta   90.00931337
_cell_angle_gamma   89.99173304
_symmetry_Int_Tables_number   1
_chemical_formula_structural   Dy7Lu(Sc3Sn4)4
_chemical_formula_sum   'Dy7 Lu1 Sc12 Sn16'
_cell_volume   901.30793821
_cell_formula_units_Z   1
loop_
 _symmetry_equiv_pos_site_id
 _symmetry_equiv_pos_as_xyz
  1  'x, y, z'
loop_
 _atom_site_type_symbol
 _atom_site_label
 _atom_site_symmetry_multiplicity
 _atom_site_fract_x
 _atom_site_fract_y
 _atom_site_fract_z
 _atom_site_occupancy
  Dy  Dy0  1  0.005879  0.823007  0.906311  1
  Dy  Dy1  1  0.505388  0.677209  0.906323  1
  Dy  Dy2  1  0.005504  0.822814  0.594082  1
  Dy  Dy3  1  0.494421  0.322565  0.094087  1
  Dy  Dy4  1  0.994717  0.177213  0.406176  1
  Dy  Dy5  1  0.494384  0.322751  0.405376  1
  Dy  Dy6  1  0.505691  0.677054  0.594081  1
  Lu  Lu7  1  0.993626  0.177823  0.094243  1
  Sc  Sc8  1  0.165168  0.496222  0.750105  1
  Sc  Sc9  1  0.834939  0.503713  0.249795  1
  Sc  Sc10  1  0.334750  0.996445  0.249792  1
  Sc  Sc11  1  0.665199  0.003789  0.750101  1
  Sc  Sc12  1  0.336515  0.161582  0.627345  1
  Sc  Sc13  1  0.663644  0.838439  0.372461  1
  Sc  Sc14  1  0.163564  0.661392  0.372384  1
  Sc  Sc15  1  0.663692  0.838793  0.127201  1
  Sc  Sc16  1  0.836534  0.338543  0.627351  1
  Sc  Sc17  1  0.336634  0.161502  0.872874  1
  Sc  Sc18  1  0.836839  0.338141  0.872888  1
  Sc  Sc19  1  0.163554  0.661568  0.127357  1
  Sn  Sn20  1  0.028146  0.124034  0.750082  1
  Sn  Sn21  1  0.972154  0.876575  0.249884  1
  Sn  Sn22  1  0.472104  0.624183  0.249821  1
  Sn  Sn23  1  0.528185  0.375865  0.750199  1
  Sn  Sn24  1  0.307663  0.849549  0.750106  1
  Sn  Sn25  1  0.693182  0.150556  0.249466  1
  Sn  Sn26  1  0.190741  0.348283  0.248971  1
  Sn  Sn27  1  0.807588  0.650439  0.750152  1
  Sn  Sn28  1  0.181016  0.457761  0.542304  1
  Sn  Sn29  1  0.819043  0.542348  0.457465  1
  Sn  Sn30  1  0.319400  0.957496  0.457480  1
  Sn  Sn31  1  0.819513  0.541556  0.042681  1
  Sn  Sn32  1  0.681012  0.042313  0.542296  1
  Sn  Sn33  1  0.180627  0.457099  0.957870  1
  Sn  Sn34  1  0.682386  0.042707  0.958089  1
  Sn  Sn35  1  0.316602  0.958671  0.042801  1
