# generated using pymatgen
data_YBe12Ni
_symmetry_space_group_name_H-M   'P 1'
_cell_length_a   7.27203516
_cell_length_b   7.33160043
_cell_length_c   7.24683051
_cell_angle_alpha   59.84076680
_cell_angle_beta   59.57515201
_cell_angle_gamma   59.50073077
_symmetry_Int_Tables_number   1
_chemical_formula_structural   YBe12Ni
_chemical_formula_sum   'Y2 Be24 Ni2'
_cell_volume   270.95730335
_cell_formula_units_Z   2
loop_
 _symmetry_equiv_pos_site_id
 _symmetry_equiv_pos_as_xyz
  1  'x, y, z'
loop_
 _atom_site_type_symbol
 _atom_site_label
 _atom_site_symmetry_multiplicity
 _atom_site_fract_x
 _atom_site_fract_y
 _atom_site_fract_z
 _atom_site_occupancy
  Y  Y0  1  0.248976  0.251024  0.248976  1
  Y  Y1  1  0.751024  0.748976  0.751024  1
  Be  Be2  1  0.500000  0.500000  0.500000  1
  Be  Be3  1  0.000000  0.000000  0.000000  1
  Be  Be4  1  0.568530  0.787316  0.431470  1
  Be  Be5  1  0.431470  0.212684  0.568530  1
  Be  Be6  1  0.293898  0.935350  0.706102  1
  Be  Be7  1  0.706102  0.064650  0.293898  1
  Be  Be8  1  0.932293  0.284600  0.067707  1
  Be  Be9  1  0.067707  0.715400  0.932293  1
  Be  Be10  1  0.206189  0.797589  0.560676  1
  Be  Be11  1  0.793811  0.202411  0.439324  1
  Be  Be12  1  0.439324  0.564454  0.793811  1
  Be  Be13  1  0.560676  0.435546  0.206189  1
  Be  Be14  1  0.711442  0.283633  0.935427  1
  Be  Be15  1  0.288558  0.716367  0.064573  1
  Be  Be16  1  0.064573  0.930500  0.288558  1
  Be  Be17  1  0.935427  0.069500  0.711442  1
  Be  Be18  1  0.561877  0.207324  0.794799  1
  Be  Be19  1  0.438123  0.792676  0.205201  1
  Be  Be20  1  0.794799  0.435998  0.561877  1
  Be  Be21  1  0.205201  0.564002  0.438123  1
  Be  Be22  1  0.936339  0.711093  0.289064  1
  Be  Be23  1  0.063661  0.288907  0.710936  1
  Be  Be24  1  0.289064  0.063503  0.936339  1
  Be  Be25  1  0.710936  0.936497  0.063661  1
  Ni  Ni26  1  0.799390  0.558831  0.200610  1
  Ni  Ni27  1  0.200610  0.441169  0.799390  1
