# generated using pymatgen
data_Nb2Zn(Fe10B3)2
_symmetry_space_group_name_H-M   'P 1'
_cell_length_a   7.55970450
_cell_length_b   7.56091773
_cell_length_c   7.55992501
_cell_angle_alpha   59.99825969
_cell_angle_beta   59.99389708
_cell_angle_gamma   59.99528686
_symmetry_Int_Tables_number   1
_chemical_formula_structural   Nb2Zn(Fe10B3)2
_chemical_formula_sum   'Nb2 Zn1 Fe20 B6'
_cell_volume   305.52067574
_cell_formula_units_Z   1
loop_
 _symmetry_equiv_pos_site_id
 _symmetry_equiv_pos_as_xyz
  1  'x, y, z'
loop_
 _atom_site_type_symbol
 _atom_site_label
 _atom_site_symmetry_multiplicity
 _atom_site_fract_x
 _atom_site_fract_y
 _atom_site_fract_z
 _atom_site_occupancy
  Nb  Nb0  1  0.249743  0.249837  0.250134  1
  Nb  Nb1  1  0.750257  0.750163  0.749866  1
  Zn  Zn2  1  0.000000  0.000000  0.000000  1
  Fe  Fe3  1  0.343027  0.657030  0.999970  1
  Fe  Fe4  1  0.343047  0.999990  0.656954  1
  Fe  Fe5  1  0.999982  0.657026  0.343024  1
  Fe  Fe6  1  0.616277  0.151088  0.616299  1
  Fe  Fe7  1  0.383774  0.383719  0.848814  1
  Fe  Fe8  1  0.848955  0.383666  0.383706  1
  Fe  Fe9  1  0.383774  0.383711  0.383729  1
  Fe  Fe10  1  0.151045  0.616334  0.616294  1
  Fe  Fe11  1  0.616226  0.616289  0.616271  1
  Fe  Fe12  1  0.616226  0.616281  0.151186  1
  Fe  Fe13  1  0.383723  0.848912  0.383701  1
  Fe  Fe14  1  0.656973  0.342970  0.000030  1
  Fe  Fe15  1  0.000018  0.342974  0.656976  1
  Fe  Fe16  1  0.656955  0.000021  0.000004  1
  Fe  Fe17  1  0.999985  0.999988  0.343094  1
  Fe  Fe18  1  0.000015  0.000012  0.656906  1
  Fe  Fe19  1  0.000003  0.342978  0.000027  1
  Fe  Fe20  1  0.656953  0.000010  0.343046  1
  Fe  Fe21  1  0.343045  0.999979  0.999996  1
  Fe  Fe22  1  0.999997  0.657022  0.999973  1
  B  B23  1  0.276166  0.276201  0.723842  1
  B  B24  1  0.723834  0.723799  0.276158  1
  B  B25  1  0.723923  0.276070  0.723728  1
  B  B26  1  0.276077  0.723930  0.276272  1
  B  B27  1  0.276049  0.723909  0.723746  1
  B  B28  1  0.723951  0.276091  0.276254  1
