# generated using pymatgen
data_Ho3TmMg2(Ni7B2)2
_symmetry_space_group_name_H-M   'P 1'
_cell_length_a   4.98106900
_cell_length_b   4.98106900
_cell_length_c   14.21047600
_cell_angle_alpha   90.00000000
_cell_angle_beta   90.00000000
_cell_angle_gamma   120.00000666
_symmetry_Int_Tables_number   1
_chemical_formula_structural   Ho3TmMg2(Ni7B2)2
_chemical_formula_sum   'Ho3 Tm1 Mg2 Ni14 B4'
_cell_volume   305.34045148
_cell_formula_units_Z   1
loop_
 _symmetry_equiv_pos_site_id
 _symmetry_equiv_pos_as_xyz
  1  'x, y, z'
loop_
 _atom_site_type_symbol
 _atom_site_label
 _atom_site_symmetry_multiplicity
 _atom_site_fract_x
 _atom_site_fract_y
 _atom_site_fract_z
 _atom_site_occupancy
  Ho  Ho0  1  0.666667  0.333333  0.469693  1
  Ho  Ho1  1  0.333333  0.666667  0.969852  1
  Ho  Ho2  1  0.333333  0.666667  0.744883  1
  Tm  Tm3  1  0.666667  0.333333  0.244892  1
  Mg  Mg4  1  0.333333  0.666667  0.533230  1
  Mg  Mg5  1  0.666667  0.333333  0.033403  1
  Ni  Ni6  1  0.000000  0.000000  0.001017  1
  Ni  Ni7  1  0.000000  0.000000  0.501048  1
  Ni  Ni8  1  0.165622  0.331243  0.146816  1
  Ni  Ni9  1  0.834407  0.668813  0.646642  1
  Ni  Ni10  1  0.668757  0.834378  0.146816  1
  Ni  Ni11  1  0.165622  0.834378  0.146816  1
  Ni  Ni12  1  0.834407  0.165593  0.646642  1
  Ni  Ni13  1  0.331187  0.165593  0.646642  1
  Ni  Ni14  1  0.833745  0.667490  0.852951  1
  Ni  Ni15  1  0.833745  0.166255  0.852951  1
  Ni  Ni16  1  0.332510  0.166255  0.852951  1
  Ni  Ni17  1  0.667542  0.833771  0.352798  1
  Ni  Ni18  1  0.166229  0.833771  0.352798  1
  Ni  Ni19  1  0.166229  0.332458  0.352798  1
  B  B20  1  0.333333  0.666667  0.250112  1
  B  B21  1  0.666667  0.333333  0.750111  1
  B  B22  1  0.000000  0.000000  0.252063  1
  B  B23  1  0.000000  0.000000  0.752072  1
