# generated using pymatgen
data_Zr2Cr2FeCo9P7
_symmetry_space_group_name_H-M   'P 1'
_cell_length_a   8.93862900
_cell_length_b   8.91950527
_cell_length_c   3.59193100
_cell_angle_alpha   90.00000000
_cell_angle_beta   90.00000000
_cell_angle_gamma   120.10345471
_symmetry_Int_Tables_number   1
_chemical_formula_structural   Zr2Cr2FeCo9P7
_chemical_formula_sum   'Zr2 Cr2 Fe1 Co9 P7'
_cell_volume   247.75168035
_cell_formula_units_Z   1
loop_
 _symmetry_equiv_pos_site_id
 _symmetry_equiv_pos_as_xyz
  1  'x, y, z'
loop_
 _atom_site_type_symbol
 _atom_site_label
 _atom_site_symmetry_multiplicity
 _atom_site_fract_x
 _atom_site_fract_y
 _atom_site_fract_z
 _atom_site_occupancy
  Zr  Zr0  1  0.998991  0.002903  0.000000  1
  Zr  Zr1  1  0.334666  0.666952  0.500000  1
  Cr  Cr2  1  0.542623  0.114084  0.500000  1
  Cr  Cr3  1  0.568136  0.452432  0.500000  1
  Fe  Fe4  1  0.383889  0.210811  0.000000  1
  Co  Co5  1  0.102896  0.397059  0.000000  1
  Co  Co6  1  0.297217  0.898841  0.000000  1
  Co  Co7  1  0.604142  0.705068  0.000000  1
  Co  Co8  1  0.828358  0.614999  0.000000  1
  Co  Co9  1  0.785168  0.175381  0.000000  1
  Co  Co10  1  0.055643  0.771695  0.500000  1
  Co  Co11  1  0.718698  0.946603  0.500000  1
  Co  Co12  1  0.227606  0.281887  0.500000  1
  Co  Co13  1  0.889668  0.428062  0.500000  1
  P  P14  1  0.078707  0.628824  0.000000  1
  P  P15  1  0.551868  0.920425  0.000000  1
  P  P16  1  0.372025  0.448712  0.000000  1
  P  P17  1  0.783478  0.737284  0.500000  1
  P  P18  1  0.954929  0.216870  0.500000  1
  P  P19  1  0.255547  0.044762  0.500000  1
  P  P20  1  0.665749  0.336343  0.000000  1
