# generated using pymatgen
data_NaLi2Dy4P12Ir17
_symmetry_space_group_name_H-M   'P 1'
_cell_length_a   12.65644518
_cell_length_b   12.73435923
_cell_length_c   3.96676900
_cell_angle_alpha   90.00000000
_cell_angle_beta   90.00000000
_cell_angle_gamma   119.77861318
_symmetry_Int_Tables_number   1
_chemical_formula_structural   NaLi2Dy4P12Ir17
_chemical_formula_sum   'Na1 Li2 Dy4 P12 Ir17'
_cell_volume   554.90789889
_cell_formula_units_Z   1
loop_
 _symmetry_equiv_pos_site_id
 _symmetry_equiv_pos_as_xyz
  1  'x, y, z'
loop_
 _atom_site_type_symbol
 _atom_site_label
 _atom_site_symmetry_multiplicity
 _atom_site_fract_x
 _atom_site_fract_y
 _atom_site_fract_z
 _atom_site_occupancy
  Na  Na0  1  0.001576  0.812266  0.000000  1
  Li  Li1  1  0.999399  0.442307  0.500000  1
  Li  Li2  1  0.556893  0.558218  0.500000  1
  Dy  Dy3  1  0.333055  0.662862  0.500000  1
  Dy  Dy4  1  0.668818  0.336507  0.500000  1
  Dy  Dy5  1  0.191641  0.188538  0.000000  1
  Dy  Dy6  1  0.812892  0.000029  0.000000  1
  P  P7  1  0.999323  0.630856  0.500000  1
  P  P8  1  0.369205  0.369157  0.500000  1
  P  P9  1  0.639860  0.000185  0.500000  1
  P  P10  1  0.514815  0.684781  0.000000  1
  P  P11  1  0.305353  0.823618  0.000000  1
  P  P12  1  0.167597  0.479841  0.000000  1
  P  P13  1  0.483442  0.176139  0.000000  1
  P  P14  1  0.689131  0.521641  0.000000  1
  P  P15  1  0.829298  0.316054  0.000000  1
  P  P16  1  0.997498  0.177967  0.500000  1
  P  P17  1  0.819656  0.821526  0.500000  1
  P  P18  1  0.178114  0.998378  0.500000  1
  Ir  Ir19  1  0.502702  0.866493  0.000000  1
  Ir  Ir20  1  0.129823  0.637215  0.000000  1
  Ir  Ir21  1  0.356929  0.488472  0.000000  1
  Ir  Ir22  1  0.492442  0.362689  0.000000  1
  Ir  Ir23  1  0.868900  0.511631  0.000000  1
  Ir  Ir24  1  0.637863  0.133951  0.000000  1
  Ir  Ir25  1  0.459841  0.001892  0.500000  1
  Ir  Ir26  1  0.996319  0.277861  0.000000  1
  Ir  Ir27  1  0.719235  0.722969  0.000000  1
  Ir  Ir28  1  0.288399  0.001932  0.000000  1
  Ir  Ir29  1  0.622033  0.807296  0.500000  1
  Ir  Ir30  1  0.198386  0.819931  0.500000  1
  Ir  Ir31  1  0.177574  0.370179  0.500000  1
  Ir  Ir32  1  0.376045  0.177278  0.500000  1
  Ir  Ir33  1  0.802247  0.624556  0.500000  1
  Ir  Ir34  1  0.815239  0.193096  0.500000  1
  Ir  Ir35  1  0.998456  0.001691  0.500000  1
