# generated using pymatgen
data_DyU9O20
_symmetry_space_group_name_H-M   'P 1'
_cell_length_a   6.62382386
_cell_length_b   7.65219321
_cell_length_c   8.55505555
_cell_angle_alpha   102.95523161
_cell_angle_beta   97.39715778
_cell_angle_gamma   106.77249554
_symmetry_Int_Tables_number   1
_chemical_formula_structural   DyU9O20
_chemical_formula_sum   'Dy1 U9 O20'
_cell_volume   395.82228137
_cell_formula_units_Z   1
loop_
 _symmetry_equiv_pos_site_id
 _symmetry_equiv_pos_as_xyz
  1  'x, y, z'
loop_
 _atom_site_type_symbol
 _atom_site_label
 _atom_site_symmetry_multiplicity
 _atom_site_fract_x
 _atom_site_fract_y
 _atom_site_fract_z
 _atom_site_occupancy
  Dy  Dy0  1  0.000000  0.000000  0.000000  1
  U  U1  1  0.000000  0.500000  0.000000  1
  U  U2  1  0.400759  0.801147  0.801732  1
  U  U3  1  0.397608  0.298686  0.800557  1
  U  U4  1  0.800113  0.100060  0.601585  1
  U  U5  1  0.800811  0.601004  0.601104  1
  U  U6  1  0.199189  0.398996  0.398896  1
  U  U7  1  0.199887  0.899940  0.398415  1
  U  U8  1  0.602392  0.701314  0.199443  1
  U  U9  1  0.599241  0.198853  0.198268  1
  O  O10  1  0.353910  0.076165  0.948500  1
  O  O11  1  0.351218  0.574894  0.950424  1
  O  O12  1  0.050660  0.227931  0.848351  1
  O  O13  1  0.051844  0.721411  0.847864  1
  O  O14  1  0.448012  0.523372  0.649762  1
  O  O15  1  0.449128  0.025412  0.648934  1
  O  O16  1  0.748344  0.374542  0.750758  1
  O  O17  1  0.746116  0.873750  0.747622  1
  O  O18  1  0.149930  0.675095  0.547885  1
  O  O19  1  0.149599  0.174361  0.549490  1
  O  O20  1  0.850070  0.324905  0.452115  1
  O  O21  1  0.551988  0.476628  0.350238  1
  O  O22  1  0.550872  0.974588  0.351066  1
  O  O23  1  0.850401  0.825639  0.450510  1
  O  O24  1  0.253884  0.126250  0.252378  1
  O  O25  1  0.251656  0.625458  0.249242  1
  O  O26  1  0.648782  0.425106  0.049576  1
  O  O27  1  0.646090  0.923835  0.051500  1
  O  O28  1  0.948156  0.278589  0.152136  1
  O  O29  1  0.949340  0.772069  0.151649  1
