# generated using pymatgen
data_CaLaB4Ir5
_symmetry_space_group_name_H-M   'P 1'
_cell_length_a   7.58505940
_cell_length_b   6.34161337
_cell_length_c   5.72753711
_cell_angle_alpha   77.69006191
_cell_angle_beta   54.77011990
_cell_angle_gamma   47.53982337
_symmetry_Int_Tables_number   1
_chemical_formula_structural   CaLaB4Ir5
_chemical_formula_sum   'Ca1 La1 B4 Ir5'
_cell_volume   158.76750809
_cell_formula_units_Z   1
loop_
 _symmetry_equiv_pos_site_id
 _symmetry_equiv_pos_as_xyz
  1  'x, y, z'
loop_
 _atom_site_type_symbol
 _atom_site_label
 _atom_site_symmetry_multiplicity
 _atom_site_fract_x
 _atom_site_fract_y
 _atom_site_fract_z
 _atom_site_occupancy
  Ca  Ca0  1  0.144589  0.144589  0.855411  1
  La  La1  1  0.861343  0.861343  0.138657  1
  B  B2  1  0.788933  0.469708  0.530292  1
  B  B3  1  0.208110  0.529578  0.470422  1
  B  B4  1  0.529578  0.208110  0.791890  1
  B  B5  1  0.469708  0.788933  0.211067  1
  Ir  Ir6  1  0.500550  0.500550  0.499450  1
  Ir  Ir7  1  0.500412  0.500412  0.999588  1
  Ir  Ir8  1  0.000412  0.000412  0.499588  1
  Ir  Ir9  1  0.748182  0.748182  0.751818  1
  Ir  Ir10  1  0.248182  0.248182  0.251818  1
