# generated using pymatgen
data_Y2Lu2CuPt3
_symmetry_space_group_name_H-M   'P 1'
_cell_length_a   4.50560200
_cell_length_b   5.53329579
_cell_length_c   6.92290898
_cell_angle_alpha   91.11439733
_cell_angle_beta   90.00000000
_cell_angle_gamma   90.00000000
_symmetry_Int_Tables_number   1
_chemical_formula_structural   Y2Lu2CuPt3
_chemical_formula_sum   'Y2 Lu2 Cu1 Pt3'
_cell_volume   172.56121207
_cell_formula_units_Z   1
loop_
 _symmetry_equiv_pos_site_id
 _symmetry_equiv_pos_as_xyz
  1  'x, y, z'
loop_
 _atom_site_type_symbol
 _atom_site_label
 _atom_site_symmetry_multiplicity
 _atom_site_fract_x
 _atom_site_fract_y
 _atom_site_fract_z
 _atom_site_occupancy
  Y  Y0  1  0.250000  0.641937  0.181849  1
  Y  Y1  1  0.750000  0.363568  0.814036  1
  Lu  Lu2  1  0.750000  0.138391  0.325656  1
  Lu  Lu3  1  0.250000  0.855894  0.679531  1
  Cu  Cu4  1  0.250000  0.137979  0.036522  1
  Pt  Pt5  1  0.750000  0.869038  0.964933  1
  Pt  Pt6  1  0.750000  0.658482  0.456290  1
  Pt  Pt7  1  0.250000  0.334708  0.541181  1
