# generated using pymatgen
data_Lu5(SiBi)2
_symmetry_space_group_name_H-M   'P 1'
_cell_length_a   8.48710486
_cell_length_b   8.48710526
_cell_length_c   7.75775100
_cell_angle_alpha   90.00000000
_cell_angle_beta   90.00000000
_cell_angle_gamma   125.75918355
_symmetry_Int_Tables_number   1
_chemical_formula_structural   Lu5(SiBi)2
_chemical_formula_sum   'Lu10 Si4 Bi4'
_cell_volume   453.45373897
_cell_formula_units_Z   2
loop_
 _symmetry_equiv_pos_site_id
 _symmetry_equiv_pos_as_xyz
  1  'x, y, z'
loop_
 _atom_site_type_symbol
 _atom_site_label
 _atom_site_symmetry_multiplicity
 _atom_site_fract_x
 _atom_site_fract_y
 _atom_site_fract_z
 _atom_site_occupancy
  Lu  Lu0  1  0.044396  0.285522  0.335020  1
  Lu  Lu1  1  0.955604  0.714478  0.664980  1
  Lu  Lu2  1  0.455604  0.214478  0.835020  1
  Lu  Lu3  1  0.785522  0.544396  0.164980  1
  Lu  Lu4  1  0.544396  0.785522  0.164980  1
  Lu  Lu5  1  0.214478  0.455604  0.835020  1
  Lu  Lu6  1  0.714478  0.955604  0.664980  1
  Lu  Lu7  1  0.285522  0.044396  0.335020  1
  Lu  Lu8  1  0.000000  0.000000  0.000000  1
  Lu  Lu9  1  0.500000  0.500000  0.500000  1
  Si  Si10  1  0.366459  0.366459  0.132268  1
  Si  Si11  1  0.633541  0.633541  0.867732  1
  Si  Si12  1  0.133541  0.133541  0.632268  1
  Si  Si13  1  0.866459  0.866459  0.367732  1
  Bi  Bi14  1  0.791828  0.208172  0.000000  1
  Bi  Bi15  1  0.208172  0.791828  0.000000  1
  Bi  Bi16  1  0.708172  0.291828  0.500000  1
  Bi  Bi17  1  0.291828  0.708172  0.500000  1
