# generated using pymatgen
data_Tb10In8CoCu3
_symmetry_space_group_name_H-M   'P 1'
_cell_length_a   8.10922769
_cell_length_b   18.11734985
_cell_length_c   3.63067600
_cell_angle_alpha   90.00000000
_cell_angle_beta   90.00000000
_cell_angle_gamma   89.97124588
_symmetry_Int_Tables_number   1
_chemical_formula_structural   Tb10In8CoCu3
_chemical_formula_sum   'Tb10 In8 Co1 Cu3'
_cell_volume   533.41055488
_cell_formula_units_Z   1
loop_
 _symmetry_equiv_pos_site_id
 _symmetry_equiv_pos_as_xyz
  1  'x, y, z'
loop_
 _atom_site_type_symbol
 _atom_site_label
 _atom_site_symmetry_multiplicity
 _atom_site_fract_x
 _atom_site_fract_y
 _atom_site_fract_z
 _atom_site_occupancy
  Tb  Tb0  1  0.502331  0.499082  0.000000  1
  Tb  Tb1  1  0.002186  0.001315  0.000000  1
  Tb  Tb2  1  0.724505  0.276116  0.000000  1
  Tb  Tb3  1  0.259292  0.720249  0.000000  1
  Tb  Tb4  1  0.760550  0.780329  0.000000  1
  Tb  Tb5  1  0.262783  0.218816  0.000000  1
  Tb  Tb6  1  0.614628  0.089346  0.000000  1
  Tb  Tb7  1  0.379658  0.917135  0.000000  1
  Tb  Tb8  1  0.879872  0.582665  0.000000  1
  Tb  Tb9  1  0.118632  0.415996  0.000000  1
  In  In10  1  0.707857  0.932282  0.500000  1
  In  In11  1  0.294768  0.070595  0.500000  1
  In  In12  1  0.792266  0.428657  0.500000  1
  In  In13  1  0.207978  0.568705  0.500000  1
  In  In14  1  0.575426  0.650277  0.500000  1
  In  In15  1  0.425620  0.348708  0.500000  1
  In  In16  1  0.925804  0.152344  0.500000  1
  In  In17  1  0.075224  0.849949  0.500000  1
  Co  Co18  1  0.520878  0.195883  0.500000  1
  Cu  Cu19  1  0.475034  0.802730  0.500000  1
  Cu  Cu20  1  0.974065  0.697409  0.500000  1
  Cu  Cu21  1  0.020643  0.301410  0.500000  1
