# generated using pymatgen
data_Y2Ti3Si4
_symmetry_space_group_name_H-M   'P 1'
_cell_length_a   7.07063501
_cell_length_b   7.07073202
_cell_length_c   12.99379102
_cell_angle_alpha   89.99996996
_cell_angle_beta   89.99743565
_cell_angle_gamma   89.99898713
_symmetry_Int_Tables_number   1
_chemical_formula_structural   Y2Ti3Si4
_chemical_formula_sum   'Y8 Ti12 Si16'
_cell_volume   649.61893293
_cell_formula_units_Z   4
loop_
 _symmetry_equiv_pos_site_id
 _symmetry_equiv_pos_as_xyz
  1  'x, y, z'
loop_
 _atom_site_type_symbol
 _atom_site_label
 _atom_site_symmetry_multiplicity
 _atom_site_fract_x
 _atom_site_fract_y
 _atom_site_fract_z
 _atom_site_occupancy
  Y  Y0  1  0.997582  0.660082  0.033405  1
  Y  Y1  1  0.339943  0.002363  0.466612  1
  Y  Y2  1  0.497646  0.839963  0.716573  1
  Y  Y3  1  0.502370  0.160077  0.216585  1
  Y  Y4  1  0.839920  0.497617  0.283430  1
  Y  Y5  1  0.160054  0.502368  0.783396  1
  Y  Y6  1  0.660063  0.997623  0.966576  1
  Y  Y7  1  0.002361  0.339952  0.533429  1
  Ti  Ti8  1  0.327260  0.327260  0.999997  1
  Ti  Ti9  1  0.172756  0.827228  0.250001  1
  Ti  Ti10  1  0.827229  0.172734  0.749974  1
  Ti  Ti11  1  0.672774  0.672766  0.500019  1
  Ti  Ti12  1  0.152710  0.008756  0.876519  1
  Ti  Ti13  1  0.491246  0.652663  0.126542  1
  Ti  Ti14  1  0.508783  0.347306  0.626531  1
  Ti  Ti15  1  0.652709  0.491198  0.873443  1
  Ti  Ti16  1  0.347358  0.508738  0.373501  1
  Ti  Ti17  1  0.847276  0.991245  0.376573  1
  Ti  Ti18  1  0.008756  0.152752  0.123459  1
  Ti  Ti19  1  0.991190  0.847298  0.623456  1
  Si  Si20  1  0.202443  0.129369  0.684934  1
  Si  Si21  1  0.370642  0.702484  0.934952  1
  Si  Si22  1  0.629387  0.297539  0.434975  1
  Si  Si23  1  0.702443  0.370598  0.065035  1
  Si  Si24  1  0.297511  0.629406  0.565052  1
  Si  Si25  1  0.797463  0.870616  0.184974  1
  Si  Si26  1  0.129407  0.202500  0.315070  1
  Si  Si27  1  0.870635  0.797559  0.814999  1
  Si  Si28  1  0.290597  0.953297  0.064831  1
  Si  Si29  1  0.546733  0.790552  0.314862  1
  Si  Si30  1  0.453299  0.209439  0.814835  1
  Si  Si31  1  0.790559  0.546736  0.685134  1
  Si  Si32  1  0.209464  0.453255  0.185155  1
  Si  Si33  1  0.709469  0.046691  0.564873  1
  Si  Si34  1  0.953265  0.290520  0.935112  1
  Si  Si35  1  0.046697  0.709448  0.435190  1
