# generated using pymatgen
data_LuZn3NiAg
_symmetry_space_group_name_H-M   'P 1'
_cell_length_a   5.06147267
_cell_length_b   5.06147276
_cell_length_c   5.06147191
_cell_angle_alpha   60.92934866
_cell_angle_beta   60.92934759
_cell_angle_gamma   60.92933316
_symmetry_Int_Tables_number   1
_chemical_formula_structural   LuZn3NiAg
_chemical_formula_sum   'Lu1 Zn3 Ni1 Ag1'
_cell_volume   93.60892702
_cell_formula_units_Z   1
loop_
 _symmetry_equiv_pos_site_id
 _symmetry_equiv_pos_as_xyz
  1  'x, y, z'
loop_
 _atom_site_type_symbol
 _atom_site_label
 _atom_site_symmetry_multiplicity
 _atom_site_fract_x
 _atom_site_fract_y
 _atom_site_fract_z
 _atom_site_occupancy
  Lu  Lu0  1  0.997994  0.997994  0.997994  1
  Zn  Zn1  1  0.622979  0.622979  0.129393  1
  Zn  Zn2  1  0.622979  0.129393  0.622979  1
  Zn  Zn3  1  0.129393  0.622979  0.622979  1
  Ni  Ni4  1  0.626428  0.626428  0.626428  1
  Ag  Ag5  1  0.250225  0.250225  0.250225  1
