# generated using pymatgen
data_Th2SnAu2
_symmetry_space_group_name_H-M   'P 1'
_cell_length_a   7.77526900
_cell_length_b   7.77526900
_cell_length_c   4.27720300
_cell_angle_alpha   90.00000000
_cell_angle_beta   90.00000000
_cell_angle_gamma   90.00000000
_symmetry_Int_Tables_number   1
_chemical_formula_structural   Th2SnAu2
_chemical_formula_sum   'Th4 Sn2 Au4'
_cell_volume   258.57748624
_cell_formula_units_Z   2
loop_
 _symmetry_equiv_pos_site_id
 _symmetry_equiv_pos_as_xyz
  1  'x, y, z'
loop_
 _atom_site_type_symbol
 _atom_site_label
 _atom_site_symmetry_multiplicity
 _atom_site_fract_x
 _atom_site_fract_y
 _atom_site_fract_z
 _atom_site_occupancy
  Th  Th0  1  0.675143  0.175143  0.500000  1
  Th  Th1  1  0.324857  0.824857  0.500000  1
  Th  Th2  1  0.175143  0.324857  0.500000  1
  Th  Th3  1  0.824857  0.675143  0.500000  1
  Sn  Sn4  1  0.500000  0.500000  0.000000  1
  Sn  Sn5  1  0.000000  0.000000  0.000000  1
  Au  Au6  1  0.127748  0.627748  0.000000  1
  Au  Au7  1  0.872252  0.372252  0.000000  1
  Au  Au8  1  0.627748  0.872252  0.000000  1
  Au  Au9  1  0.372252  0.127748  0.000000  1
