# generated using pymatgen
data_Zr5BeAs3
_symmetry_space_group_name_H-M   'P 1'
_cell_length_a   3.69113900
_cell_length_b   10.43602800
_cell_length_c   17.67939200
_cell_angle_alpha   90.00000000
_cell_angle_beta   90.00000000
_cell_angle_gamma   90.00000000
_symmetry_Int_Tables_number   1
_chemical_formula_structural   Zr5BeAs3
_chemical_formula_sum   'Zr20 Be4 As12'
_cell_volume   681.02485296
_cell_formula_units_Z   4
loop_
 _symmetry_equiv_pos_site_id
 _symmetry_equiv_pos_as_xyz
  1  'x, y, z'
loop_
 _atom_site_type_symbol
 _atom_site_label
 _atom_site_symmetry_multiplicity
 _atom_site_fract_x
 _atom_site_fract_y
 _atom_site_fract_z
 _atom_site_occupancy
  Zr  Zr0  1  0.250000  0.187439  0.369884  1
  Zr  Zr1  1  0.750000  0.812561  0.630116  1
  Zr  Zr2  1  0.750000  0.687439  0.130116  1
  Zr  Zr3  1  0.250000  0.312561  0.869884  1
  Zr  Zr4  1  0.250000  0.877213  0.477433  1
  Zr  Zr5  1  0.750000  0.122787  0.522567  1
  Zr  Zr6  1  0.750000  0.377213  0.022567  1
  Zr  Zr7  1  0.250000  0.622787  0.977433  1
  Zr  Zr8  1  0.250000  0.939362  0.079207  1
  Zr  Zr9  1  0.750000  0.060638  0.920793  1
  Zr  Zr10  1  0.750000  0.439362  0.420793  1
  Zr  Zr11  1  0.250000  0.560638  0.579207  1
  Zr  Zr12  1  0.250000  0.245353  0.167923  1
  Zr  Zr13  1  0.750000  0.754647  0.832077  1
  Zr  Zr14  1  0.750000  0.745353  0.332077  1
  Zr  Zr15  1  0.250000  0.254647  0.667923  1
  Zr  Zr16  1  0.250000  0.517122  0.272201  1
  Zr  Zr17  1  0.750000  0.482878  0.727799  1
  Zr  Zr18  1  0.750000  0.017122  0.227799  1
  Zr  Zr19  1  0.250000  0.982878  0.772201  1
  Be  Be20  1  0.250000  0.627724  0.414825  1
  Be  Be21  1  0.750000  0.372276  0.585175  1
  Be  Be22  1  0.750000  0.127724  0.085175  1
  Be  Be23  1  0.250000  0.872276  0.914825  1
  As  As24  1  0.250000  0.492329  0.116348  1
  As  As25  1  0.750000  0.507671  0.883652  1
  As  As26  1  0.750000  0.992329  0.383652  1
  As  As27  1  0.250000  0.007671  0.616348  1
  As  As28  1  0.250000  0.809998  0.221092  1
  As  As29  1  0.750000  0.190002  0.778908  1
  As  As30  1  0.750000  0.309998  0.278908  1
  As  As31  1  0.250000  0.690002  0.721092  1
  As  As32  1  0.250000  0.182471  0.011056  1
  As  As33  1  0.750000  0.817529  0.988944  1
  As  As34  1  0.750000  0.682471  0.488944  1
  As  As35  1  0.250000  0.317529  0.511056  1
