# generated using pymatgen
data_CeBi3F15
_symmetry_space_group_name_H-M   'P 1'
_cell_length_a   8.74072511
_cell_length_b   8.74072565
_cell_length_c   8.73264284
_cell_angle_alpha   79.37887205
_cell_angle_beta   79.37887026
_cell_angle_gamma   100.25334515
_symmetry_Int_Tables_number   1
_chemical_formula_structural   CeBi3F15
_chemical_formula_sum   'Ce2 Bi6 F30'
_cell_volume   628.80390798
_cell_formula_units_Z   2
loop_
 _symmetry_equiv_pos_site_id
 _symmetry_equiv_pos_as_xyz
  1  'x, y, z'
loop_
 _atom_site_type_symbol
 _atom_site_label
 _atom_site_symmetry_multiplicity
 _atom_site_fract_x
 _atom_site_fract_y
 _atom_site_fract_z
 _atom_site_occupancy
  Ce  Ce0  1  0.672582  0.327418  0.750000  1
  Ce  Ce1  1  0.327418  0.672582  0.250000  1
  Bi  Bi2  1  0.249627  0.750373  0.750000  1
  Bi  Bi3  1  0.750373  0.249627  0.250000  1
  Bi  Bi4  1  0.830035  0.753090  0.324426  1
  Bi  Bi5  1  0.246910  0.169965  0.175574  1
  Bi  Bi6  1  0.169965  0.246910  0.675574  1
  Bi  Bi7  1  0.753090  0.830035  0.824426  1
  F  F8  1  0.158505  0.189987  0.950169  1
  F  F9  1  0.692172  0.545689  0.841535  1
  F  F10  1  0.063413  0.661542  0.306761  1
  F  F11  1  0.661542  0.063413  0.806761  1
  F  F12  1  0.545689  0.692172  0.341535  1
  F  F13  1  0.189987  0.158505  0.450169  1
  F  F14  1  0.841495  0.810013  0.049831  1
  F  F15  1  0.307828  0.454311  0.158465  1
  F  F16  1  0.936587  0.338458  0.693239  1
  F  F17  1  0.338458  0.936587  0.193239  1
  F  F18  1  0.454311  0.307828  0.658465  1
  F  F19  1  0.810013  0.841495  0.549831  1
  F  F20  1  0.205880  0.727491  0.993995  1
  F  F21  1  0.229658  0.507996  0.787960  1
  F  F22  1  0.007335  0.710158  0.768121  1
  F  F23  1  0.710158  0.007335  0.268121  1
  F  F24  1  0.507996  0.229658  0.287960  1
  F  F25  1  0.727491  0.205880  0.493995  1
  F  F26  1  0.794120  0.272509  0.006005  1
  F  F27  1  0.770342  0.492004  0.212040  1
  F  F28  1  0.992665  0.289842  0.231879  1
  F  F29  1  0.289842  0.992665  0.731879  1
  F  F30  1  0.492004  0.770342  0.712040  1
  F  F31  1  0.272509  0.794120  0.506005  1
  F  F32  1  0.974650  0.025350  0.750000  1
  F  F33  1  0.518127  0.752135  0.028903  1
  F  F34  1  0.247865  0.481873  0.471097  1
  F  F35  1  0.481873  0.247865  0.971097  1
  F  F36  1  0.752135  0.518127  0.528903  1
  F  F37  1  0.025350  0.974650  0.250000  1
