# generated using pymatgen
data_Li3Ac2LuPt3
_symmetry_space_group_name_H-M   'P 1'
_cell_length_a   7.44399300
_cell_length_b   7.46991589
_cell_length_c   4.24441800
_cell_angle_alpha   90.00000000
_cell_angle_beta   90.00000000
_cell_angle_gamma   120.11525004
_symmetry_Int_Tables_number   1
_chemical_formula_structural   Li3Ac2LuPt3
_chemical_formula_sum   'Li3 Ac2 Lu1 Pt3'
_cell_volume   204.15729973
_cell_formula_units_Z   1
loop_
 _symmetry_equiv_pos_site_id
 _symmetry_equiv_pos_as_xyz
  1  'x, y, z'
loop_
 _atom_site_type_symbol
 _atom_site_label
 _atom_site_symmetry_multiplicity
 _atom_site_fract_x
 _atom_site_fract_y
 _atom_site_fract_z
 _atom_site_occupancy
  Li  Li0  1  0.784896  0.768975  0.500000  1
  Li  Li1  1  0.215104  0.984079  0.500000  1
  Li  Li2  1  0.000000  0.233889  0.500000  1
  Ac  Ac3  1  0.410259  0.413127  0.000000  1
  Ac  Ac4  1  0.589741  0.002867  0.000000  1
  Lu  Lu5  1  0.000000  0.598868  0.000000  1
  Pt  Pt6  1  0.000000  0.980897  0.000000  1
  Pt  Pt7  1  0.699567  0.358431  0.500000  1
  Pt  Pt8  1  0.300433  0.658864  0.500000  1
