# generated using pymatgen
data_Sm2Cu17Si8Ni
_symmetry_space_group_name_H-M   'P 1'
_cell_length_a   8.13970626
_cell_length_b   8.13970705
_cell_length_c   8.09337229
_cell_angle_alpha   120.49098235
_cell_angle_beta   120.49098902
_cell_angle_gamma   89.48267584
_symmetry_Int_Tables_number   1
_chemical_formula_structural   Sm2Cu17Si8Ni
_chemical_formula_sum   'Sm2 Cu17 Si8 Ni1'
_cell_volume   375.22430919
_cell_formula_units_Z   1
loop_
 _symmetry_equiv_pos_site_id
 _symmetry_equiv_pos_as_xyz
  1  'x, y, z'
loop_
 _atom_site_type_symbol
 _atom_site_label
 _atom_site_symmetry_multiplicity
 _atom_site_fract_x
 _atom_site_fract_y
 _atom_site_fract_z
 _atom_site_occupancy
  Sm  Sm0  1  0.250000  0.250000  0.000000  1
  Sm  Sm1  1  0.750000  0.750000  0.000000  1
  Cu  Cu2  1  0.934139  0.201778  0.135917  1
  Cu  Cu3  1  0.200010  0.067553  0.267564  1
  Cu  Cu4  1  0.799990  0.932447  0.732436  1
  Cu  Cu5  1  0.432447  0.299990  0.732436  1
  Cu  Cu6  1  0.065861  0.798222  0.864083  1
  Cu  Cu7  1  0.807802  0.057553  0.500000  1
  Cu  Cu8  1  0.557553  0.307802  0.500000  1
  Cu  Cu9  1  0.192198  0.942447  0.500000  1
  Cu  Cu10  1  0.442447  0.692198  0.500000  1
  Cu  Cu11  1  0.944902  0.444902  0.756429  1
  Cu  Cu12  1  0.688472  0.188472  0.243571  1
  Cu  Cu13  1  0.055098  0.555098  0.243571  1
  Cu  Cu14  1  0.701778  0.434139  0.135917  1
  Cu  Cu15  1  0.567553  0.700010  0.267564  1
  Cu  Cu16  1  0.000000  0.500000  0.500000  1
  Cu  Cu17  1  0.311528  0.811528  0.756429  1
  Cu  Cu18  1  0.298222  0.565861  0.864083  1
  Si  Si19  1  0.785774  0.285774  0.841016  1
  Si  Si20  1  0.555242  0.055242  0.841016  1
  Si  Si21  1  0.055022  0.206662  0.500000  1
  Si  Si22  1  0.293338  0.444978  0.500000  1
  Si  Si23  1  0.944978  0.793338  0.500000  1
  Si  Si24  1  0.444758  0.944758  0.158984  1
  Si  Si25  1  0.214226  0.714226  0.158984  1
  Si  Si26  1  0.706662  0.555022  0.500000  1
  Ni  Ni27  1  0.500000  0.000000  0.500000  1
