# generated using pymatgen
data_Yb2YTmB16
_symmetry_space_group_name_H-M   'P 1'
_cell_length_a   7.10239004
_cell_length_b   7.10996305
_cell_length_c   4.02437500
_cell_angle_alpha   90.00000000
_cell_angle_beta   90.00000000
_cell_angle_gamma   90.19270941
_symmetry_Int_Tables_number   1
_chemical_formula_structural   Yb2YTmB16
_chemical_formula_sum   'Yb2 Y1 Tm1 B16'
_cell_volume   203.22065592
_cell_formula_units_Z   1
loop_
 _symmetry_equiv_pos_site_id
 _symmetry_equiv_pos_as_xyz
  1  'x, y, z'
loop_
 _atom_site_type_symbol
 _atom_site_label
 _atom_site_symmetry_multiplicity
 _atom_site_fract_x
 _atom_site_fract_y
 _atom_site_fract_z
 _atom_site_occupancy
  Yb  Yb0  1  0.183819  0.683699  0.000000  1
  Yb  Yb1  1  0.683362  0.816583  0.000000  1
  Y  Y2  1  0.817346  0.316827  0.000000  1
  Tm  Tm3  1  0.317280  0.183014  0.000000  1
  B  B4  1  0.323857  0.461000  0.500000  1
  B  B5  1  0.675913  0.537554  0.500000  1
  B  B6  1  0.536464  0.323697  0.500000  1
  B  B7  1  0.461834  0.675598  0.500000  1
  B  B8  1  0.000311  0.998517  0.203195  1
  B  B9  1  0.498752  0.501169  0.796814  1
  B  B10  1  0.000311  0.998517  0.796805  1
  B  B11  1  0.498752  0.501169  0.203186  1
  B  B12  1  0.586022  0.087006  0.500000  1
  B  B13  1  0.086330  0.413380  0.500000  1
  B  B14  1  0.913807  0.585989  0.500000  1
  B  B15  1  0.413237  0.914136  0.500000  1
  B  B16  1  0.038930  0.176136  0.500000  1
  B  B17  1  0.176871  0.963578  0.500000  1
  B  B18  1  0.824597  0.038003  0.500000  1
  B  B19  1  0.962206  0.824429  0.500000  1
