# generated using pymatgen
data_Dy3Y17(Ir3Os)3
_symmetry_space_group_name_H-M   'P 1'
_cell_length_a   10.90792100
_cell_length_b   10.90817000
_cell_length_c   6.42952900
_cell_angle_alpha   90.00000000
_cell_angle_beta   90.00000000
_cell_angle_gamma   90.00096648
_symmetry_Int_Tables_number   1
_chemical_formula_structural   Dy3Y17(Ir3Os)3
_chemical_formula_sum   'Dy3 Y17 Ir9 Os3'
_cell_volume   765.02044383
_cell_formula_units_Z   1
loop_
 _symmetry_equiv_pos_site_id
 _symmetry_equiv_pos_as_xyz
  1  'x, y, z'
loop_
 _atom_site_type_symbol
 _atom_site_label
 _atom_site_symmetry_multiplicity
 _atom_site_fract_x
 _atom_site_fract_y
 _atom_site_fract_z
 _atom_site_occupancy
  Dy  Dy0  1  0.000000  0.000000  0.999857  1
  Dy  Dy1  1  0.500000  0.500000  0.999860  1
  Dy  Dy2  1  0.500000  0.500000  0.499676  1
  Y  Y3  1  0.294018  0.086714  0.378015  1
  Y  Y4  1  0.293982  0.913555  0.878031  1
  Y  Y5  1  0.706018  0.086445  0.878031  1
  Y  Y6  1  0.705982  0.913286  0.378015  1
  Y  Y7  1  0.586418  0.794009  0.878091  1
  Y  Y8  1  0.586682  0.206008  0.378061  1
  Y  Y9  1  0.413318  0.793992  0.378061  1
  Y  Y10  1  0.413582  0.205991  0.878091  1
  Y  Y11  1  0.207750  0.412710  0.623487  1
  Y  Y12  1  0.207395  0.587282  0.119799  1
  Y  Y13  1  0.792605  0.412718  0.119799  1
  Y  Y14  1  0.792250  0.587290  0.623487  1
  Y  Y15  1  0.912693  0.707424  0.119847  1
  Y  Y16  1  0.912678  0.292285  0.623515  1
  Y  Y17  1  0.087322  0.707715  0.623515  1
  Y  Y18  1  0.087307  0.292576  0.119847  1
  Y  Y19  1  0.000000  0.000000  0.499661  1
  Ir  Ir20  1  0.848291  0.152960  0.249845  1
  Ir  Ir21  1  0.848122  0.847183  0.750320  1
  Ir  Ir22  1  0.151878  0.152817  0.750320  1
  Ir  Ir23  1  0.151709  0.847040  0.249845  1
  Ir  Ir24  1  0.652586  0.348369  0.749895  1
  Ir  Ir25  1  0.652709  0.651477  0.250260  1
  Ir  Ir26  1  0.347291  0.348523  0.250260  1
  Ir  Ir27  1  0.347414  0.651631  0.749895  1
  Ir  Ir28  1  0.000000  0.500000  0.377096  1
  Os  Os29  1  0.500000  0.000000  0.124970  1
  Os  Os30  1  0.500000  0.000000  0.624837  1
  Os  Os31  1  0.000000  0.500000  0.875711  1
