# generated using pymatgen
data_K5HfAs3
_symmetry_space_group_name_H-M   'P 1'
_cell_length_a   8.47118200
_cell_length_b   9.20346432
_cell_length_c   17.80989794
_cell_angle_alpha   59.69466981
_cell_angle_beta   90.00000000
_cell_angle_gamma   90.00000000
_symmetry_Int_Tables_number   1
_chemical_formula_structural   K5HfAs3
_chemical_formula_sum   'K20 Hf4 As12'
_cell_volume   1198.78961156
_cell_formula_units_Z   4
loop_
 _symmetry_equiv_pos_site_id
 _symmetry_equiv_pos_as_xyz
  1  'x, y, z'
loop_
 _atom_site_type_symbol
 _atom_site_label
 _atom_site_symmetry_multiplicity
 _atom_site_fract_x
 _atom_site_fract_y
 _atom_site_fract_z
 _atom_site_occupancy
  K  K0  1  0.165327  0.841281  0.739607  1
  K  K1  1  0.665327  0.158719  0.760393  1
  K  K2  1  0.834673  0.158719  0.260393  1
  K  K3  1  0.334673  0.841281  0.239607  1
  K  K4  1  0.169537  0.161270  0.419242  1
  K  K5  1  0.669537  0.838730  0.080758  1
  K  K6  1  0.830463  0.838730  0.580758  1
  K  K7  1  0.330463  0.161270  0.919242  1
  K  K8  1  0.005847  0.087898  0.091347  1
  K  K9  1  0.505847  0.912102  0.408653  1
  K  K10  1  0.994153  0.912102  0.908653  1
  K  K11  1  0.494153  0.087898  0.591347  1
  K  K12  1  0.519568  0.262003  0.077747  1
  K  K13  1  0.019568  0.737997  0.422253  1
  K  K14  1  0.480432  0.737997  0.922253  1
  K  K15  1  0.980432  0.262003  0.577747  1
  K  K16  1  0.985425  0.550222  0.257353  1
  K  K17  1  0.485425  0.449778  0.242647  1
  K  K18  1  0.014575  0.449778  0.742647  1
  K  K19  1  0.514575  0.550222  0.757353  1
  Hf  Hf20  1  0.367228  0.491781  0.581174  1
  Hf  Hf21  1  0.867228  0.508219  0.918826  1
  Hf  Hf22  1  0.632772  0.508219  0.418826  1
  Hf  Hf23  1  0.132772  0.491781  0.081174  1
  As  As24  1  0.319295  0.486772  0.434313  1
  As  As25  1  0.819295  0.513228  0.065687  1
  As  As26  1  0.680705  0.513228  0.565687  1
  As  As27  1  0.180705  0.486772  0.934313  1
  As  As28  1  0.218002  0.210757  0.219068  1
  As  As29  1  0.718002  0.789243  0.280932  1
  As  As30  1  0.781998  0.789243  0.780932  1
  As  As31  1  0.281998  0.210757  0.719068  1
  As  As32  1  0.254065  0.756168  0.078381  1
  As  As33  1  0.754065  0.243832  0.421619  1
  As  As34  1  0.745935  0.243832  0.921619  1
  As  As35  1  0.245935  0.756168  0.578381  1
