# generated using pymatgen
data_HoTm3Co11(Ni3P4)3
_symmetry_space_group_name_H-M   'P 1'
_cell_length_a   3.66042400
_cell_length_b   10.25461660
_cell_length_c   11.78594789
_cell_angle_alpha   90.09395324
_cell_angle_beta   90.00000000
_cell_angle_gamma   90.00000000
_symmetry_Int_Tables_number   1
_chemical_formula_structural   HoTm3Co11(Ni3P4)3
_chemical_formula_sum   'Ho1 Tm3 Co11 Ni9 P12'
_cell_volume   442.39962932
_cell_formula_units_Z   1
loop_
 _symmetry_equiv_pos_site_id
 _symmetry_equiv_pos_as_xyz
  1  'x, y, z'
loop_
 _atom_site_type_symbol
 _atom_site_label
 _atom_site_symmetry_multiplicity
 _atom_site_fract_x
 _atom_site_fract_y
 _atom_site_fract_z
 _atom_site_occupancy
  Ho  Ho0  1  0.750000  0.418494  0.296013  1
  Tm  Tm1  1  0.250000  0.581383  0.703378  1
  Tm  Tm2  1  0.250000  0.918778  0.204543  1
  Tm  Tm3  1  0.750000  0.081249  0.796614  1
  Co  Co4  1  0.250000  0.277169  0.675857  1
  Co  Co5  1  0.750000  0.777609  0.824130  1
  Co  Co6  1  0.750000  0.722972  0.323971  1
  Co  Co7  1  0.250000  0.880606  0.698643  1
  Co  Co8  1  0.250000  0.620696  0.197576  1
  Co  Co9  1  0.750000  0.118789  0.301927  1
  Co  Co10  1  0.750000  0.381024  0.801042  1
  Co  Co11  1  0.250000  0.466479  0.931502  1
  Co  Co12  1  0.250000  0.032108  0.433155  1
  Co  Co13  1  0.750000  0.534007  0.066429  1
  Co  Co14  1  0.750000  0.966614  0.568413  1
  Ni  Ni15  1  0.250000  0.712602  0.989006  1
  Ni  Ni16  1  0.250000  0.786316  0.490089  1
  Ni  Ni17  1  0.750000  0.285036  0.008889  1
  Ni  Ni18  1  0.750000  0.213101  0.510001  1
  Ni  Ni19  1  0.250000  0.409003  0.485202  1
  Ni  Ni20  1  0.250000  0.092106  0.985688  1
  Ni  Ni21  1  0.750000  0.591378  0.515999  1
  Ni  Ni22  1  0.750000  0.908248  0.015174  1
  Ni  Ni23  1  0.250000  0.223865  0.176721  1
  P  P24  1  0.250000  0.424311  0.112421  1
  P  P25  1  0.250000  0.078974  0.614314  1
  P  P26  1  0.750000  0.579341  0.885060  1
  P  P27  1  0.750000  0.920335  0.386884  1
  P  P28  1  0.250000  0.270422  0.864848  1
  P  P29  1  0.250000  0.228387  0.368592  1
  P  P30  1  0.750000  0.730184  0.134791  1
  P  P31  1  0.750000  0.770401  0.634642  1
  P  P32  1  0.250000  0.605578  0.387423  1
  P  P33  1  0.250000  0.895389  0.887417  1
  P  P34  1  0.750000  0.395502  0.612228  1
  P  P35  1  0.750000  0.101544  0.111414  1
