# generated using pymatgen
data_Rb3DyIr2O9
_symmetry_space_group_name_H-M   'P 1'
_cell_length_a   6.08995428
_cell_length_b   6.08999378
_cell_length_c   14.64187647
_cell_angle_alpha   89.88973082
_cell_angle_beta   89.89056427
_cell_angle_gamma   119.99600761
_symmetry_Int_Tables_number   1
_chemical_formula_structural   Rb3DyIr2O9
_chemical_formula_sum   'Rb6 Dy2 Ir4 O18'
_cell_volume   470.29734747
_cell_formula_units_Z   2
loop_
 _symmetry_equiv_pos_site_id
 _symmetry_equiv_pos_as_xyz
  1  'x, y, z'
loop_
 _atom_site_type_symbol
 _atom_site_label
 _atom_site_symmetry_multiplicity
 _atom_site_fract_x
 _atom_site_fract_y
 _atom_site_fract_z
 _atom_site_occupancy
  Rb  Rb0  1  0.331547  0.665028  0.601005  1
  Rb  Rb1  1  0.999685  0.000301  0.749960  1
  Rb  Rb2  1  0.334965  0.668449  0.898949  1
  Rb  Rb3  1  0.668453  0.334972  0.398995  1
  Rb  Rb4  1  0.000315  0.999699  0.250040  1
  Rb  Rb5  1  0.665035  0.331551  0.101051  1
  Dy  Dy6  1  0.000000  0.000000  0.000000  1
  Dy  Dy7  1  0.000000  0.000000  0.500000  1
  Ir  Ir8  1  0.668691  0.335502  0.846785  1
  Ir  Ir9  1  0.335511  0.668709  0.346769  1
  Ir  Ir10  1  0.331309  0.664498  0.153215  1
  Ir  Ir11  1  0.664489  0.331291  0.653231  1
  O  O12  1  0.175711  0.355050  0.085585  1
  O  O13  1  0.645040  0.824341  0.414405  1
  O  O14  1  0.824289  0.644950  0.914415  1
  O  O15  1  0.354960  0.175659  0.585595  1
  O  O16  1  0.816834  0.175686  0.584357  1
  O  O17  1  0.824261  0.183203  0.915658  1
  O  O18  1  0.183166  0.824314  0.415643  1
  O  O19  1  0.175739  0.816797  0.084342  1
  O  O20  1  0.816779  0.637519  0.583080  1
  O  O21  1  0.362558  0.183254  0.916922  1
  O  O22  1  0.183221  0.362481  0.416920  1
  O  O23  1  0.637442  0.816746  0.083078  1
  O  O24  1  0.063812  0.531746  0.251124  1
  O  O25  1  0.468265  0.936205  0.248766  1
  O  O26  1  0.936188  0.468254  0.748876  1
  O  O27  1  0.531735  0.063795  0.751234  1
  O  O28  1  0.468337  0.531668  0.249943  1
  O  O29  1  0.531663  0.468332  0.750057  1
