# generated using pymatgen
data_YEr15MgIn3Ni4
_symmetry_space_group_name_H-M   'P 1'
_cell_length_a   9.54116027
_cell_length_b   9.51727776
_cell_length_c   9.51727903
_cell_angle_alpha   60.00024292
_cell_angle_beta   60.07388252
_cell_angle_gamma   60.07387945
_symmetry_Int_Tables_number   1
_chemical_formula_structural   YEr15MgIn3Ni4
_chemical_formula_sum   'Y1 Er15 Mg1 In3 Ni4'
_cell_volume   611.78189291
_cell_formula_units_Z   1
loop_
 _symmetry_equiv_pos_site_id
 _symmetry_equiv_pos_as_xyz
  1  'x, y, z'
loop_
 _atom_site_type_symbol
 _atom_site_label
 _atom_site_symmetry_multiplicity
 _atom_site_fract_x
 _atom_site_fract_y
 _atom_site_fract_z
 _atom_site_occupancy
  Y  Y0  1  0.185917  0.814565  0.814565  1
  Er  Er1  1  0.813450  0.186676  0.186676  1
  Er  Er2  1  0.813067  0.186987  0.813195  1
  Er  Er3  1  0.185865  0.814451  0.185562  1
  Er  Er4  1  0.813067  0.813195  0.186987  1
  Er  Er5  1  0.185865  0.185562  0.814451  1
  Er  Er6  1  0.598404  0.596072  0.596072  1
  Er  Er7  1  0.598080  0.596251  0.209489  1
  Er  Er8  1  0.598080  0.209489  0.596251  1
  Er  Er9  1  0.206296  0.597757  0.597757  1
  Er  Er10  1  0.060297  0.439061  0.439061  1
  Er  Er11  1  0.435159  0.063630  0.063630  1
  Er  Er12  1  0.435400  0.063784  0.437219  1
  Er  Er13  1  0.060154  0.438813  0.061642  1
  Er  Er14  1  0.435400  0.437219  0.063784  1
  Er  Er15  1  0.060154  0.061642  0.438813  1
  Mg  Mg16  1  0.517586  0.827517  0.827517  1
  In  In17  1  0.831860  0.833010  0.833010  1
  In  In18  1  0.832131  0.832987  0.502005  1
  In  In19  1  0.832131  0.502005  0.832987  1
  Ni  Ni20  1  0.392233  0.391853  0.391853  1
  Ni  Ni21  1  0.392297  0.391679  0.824094  1
  Ni  Ni22  1  0.392297  0.824094  0.391679  1
  Ni  Ni23  1  0.824807  0.391700  0.391700  1
