# generated using pymatgen
data_Zr3Ti2NbRh10
_symmetry_space_group_name_H-M   'P 1'
_cell_length_a   4.20565800
_cell_length_b   5.57363397
_cell_length_c   10.90694639
_cell_angle_alpha   90.21640586
_cell_angle_beta   90.00000000
_cell_angle_gamma   90.00000000
_symmetry_Int_Tables_number   1
_chemical_formula_structural   Zr3Ti2NbRh10
_chemical_formula_sum   'Zr3 Ti2 Nb1 Rh10'
_cell_volume   255.66570668
_cell_formula_units_Z   1
loop_
 _symmetry_equiv_pos_site_id
 _symmetry_equiv_pos_as_xyz
  1  'x, y, z'
loop_
 _atom_site_type_symbol
 _atom_site_label
 _atom_site_symmetry_multiplicity
 _atom_site_fract_x
 _atom_site_fract_y
 _atom_site_fract_z
 _atom_site_occupancy
  Zr  Zr0  1  0.500000  0.664370  0.856401  1
  Zr  Zr1  1  0.500000  0.837510  0.356754  1
  Zr  Zr2  1  0.500000  0.162119  0.644745  1
  Ti  Ti3  1  0.000000  0.004435  0.001695  1
  Ti  Ti4  1  0.000000  0.499106  0.501105  1
  Nb  Nb5  1  0.500000  0.338872  0.144875  1
  Rh  Rh6  1  0.000000  0.000760  0.498503  1
  Rh  Rh7  1  0.000000  0.494946  0.004390  1
  Rh  Rh8  1  0.000000  0.097131  0.234691  1
  Rh  Rh9  1  0.000000  0.910329  0.760978  1
  Rh  Rh10  1  0.000000  0.586989  0.257166  1
  Rh  Rh11  1  0.000000  0.409671  0.740169  1
  Rh  Rh12  1  0.500000  0.324594  0.390422  1
  Rh  Rh13  1  0.500000  0.676316  0.602365  1
  Rh  Rh14  1  0.500000  0.812889  0.104384  1
  Rh  Rh15  1  0.500000  0.179961  0.901357  1
