# generated using pymatgen
data_NaCe6OsI12
_symmetry_space_group_name_H-M   'P 1'
_cell_length_a   10.17246094
_cell_length_b   10.17245990
_cell_length_c   10.17246000
_cell_angle_alpha   106.99007334
_cell_angle_beta   106.99007156
_cell_angle_gamma   106.99006646
_symmetry_Int_Tables_number   1
_chemical_formula_structural   NaCe6OsI12
_chemical_formula_sum   'Na1 Ce6 Os1 I12'
_cell_volume   876.88225706
_cell_formula_units_Z   1
loop_
 _symmetry_equiv_pos_site_id
 _symmetry_equiv_pos_as_xyz
  1  'x, y, z'
loop_
 _atom_site_type_symbol
 _atom_site_label
 _atom_site_symmetry_multiplicity
 _atom_site_fract_x
 _atom_site_fract_y
 _atom_site_fract_z
 _atom_site_occupancy
  Na  Na0  1  0.500000  0.500000  0.500000  1
  Ce  Ce1  1  0.897224  0.695728  0.971455  1
  Ce  Ce2  1  0.971455  0.897224  0.695728  1
  Ce  Ce3  1  0.695728  0.971455  0.897224  1
  Ce  Ce4  1  0.102776  0.304272  0.028545  1
  Ce  Ce5  1  0.028545  0.102776  0.304272  1
  Ce  Ce6  1  0.304272  0.028545  0.102776  1
  Os  Os7  1  0.000000  0.000000  0.000000  1
  I  I8  1  0.626915  0.851357  0.547583  1
  I  I9  1  0.547583  0.626915  0.851357  1
  I  I10  1  0.851357  0.547583  0.626915  1
  I  I11  1  0.373085  0.148643  0.452417  1
  I  I12  1  0.452417  0.373085  0.148643  1
  I  I13  1  0.148643  0.452417  0.373085  1
  I  I14  1  0.682646  0.075076  0.222300  1
  I  I15  1  0.222300  0.682646  0.075076  1
  I  I16  1  0.075076  0.222300  0.682646  1
  I  I17  1  0.317354  0.924924  0.777700  1
  I  I18  1  0.777700  0.317354  0.924924  1
  I  I19  1  0.924924  0.777700  0.317354  1
