# generated using pymatgen
data_Dy2CrO6
_symmetry_space_group_name_H-M   'P 1'
_cell_length_a   4.32426400
_cell_length_b   7.12863069
_cell_length_c   8.11517515
_cell_angle_alpha   107.09669313
_cell_angle_beta   90.00000000
_cell_angle_gamma   107.65607149
_symmetry_Int_Tables_number   1
_chemical_formula_structural   Dy2CrO6
_chemical_formula_sum   'Dy4 Cr2 O12'
_cell_volume   226.74682575
_cell_formula_units_Z   2
loop_
 _symmetry_equiv_pos_site_id
 _symmetry_equiv_pos_as_xyz
  1  'x, y, z'
loop_
 _atom_site_type_symbol
 _atom_site_label
 _atom_site_symmetry_multiplicity
 _atom_site_fract_x
 _atom_site_fract_y
 _atom_site_fract_z
 _atom_site_occupancy
  Dy  Dy0  1  0.665147  0.348199  0.086155  1
  Dy  Dy1  1  0.316947  0.651802  0.413846  1
  Dy  Dy2  1  0.683052  0.348198  0.586154  1
  Dy  Dy3  1  0.334855  0.651802  0.913846  1
  Cr  Cr4  1  0.039208  0.000000  0.250000  1
  Cr  Cr5  1  0.960793  0.000001  0.750000  1
  O  O6  1  0.269479  0.998070  0.084813  1
  O  O7  1  0.214414  0.482222  0.120895  1
  O  O8  1  0.715487  0.790694  0.197128  1
  O  O9  1  0.924791  0.209305  0.302872  1
  O  O10  1  0.732190  0.517777  0.379104  1
  O  O11  1  0.271410  0.001930  0.415188  1
  O  O12  1  0.728592  0.998071  0.584813  1
  O  O13  1  0.267809  0.482223  0.620895  1
  O  O14  1  0.075208  0.790695  0.697128  1
  O  O15  1  0.284511  0.209305  0.802872  1
  O  O16  1  0.785587  0.517777  0.879105  1
  O  O17  1  0.730520  0.001930  0.915187  1
