# generated using pymatgen
data_Eu2B2Pd3Pt5
_symmetry_space_group_name_H-M   'P 1'
_cell_length_a   5.54429566
_cell_length_b   5.54429627
_cell_length_c   7.69580300
_cell_angle_alpha   90.00000000
_cell_angle_beta   90.00000000
_cell_angle_gamma   120.05592539
_symmetry_Int_Tables_number   1
_chemical_formula_structural   Eu2B2Pd3Pt5
_chemical_formula_sum   'Eu2 B2 Pd3 Pt5'
_cell_volume   204.75398655
_cell_formula_units_Z   1
loop_
 _symmetry_equiv_pos_site_id
 _symmetry_equiv_pos_as_xyz
  1  'x, y, z'
loop_
 _atom_site_type_symbol
 _atom_site_label
 _atom_site_symmetry_multiplicity
 _atom_site_fract_x
 _atom_site_fract_y
 _atom_site_fract_z
 _atom_site_occupancy
  Eu  Eu0  1  0.000000  0.000000  0.501129  1
  Eu  Eu1  1  0.000000  0.000000  0.000930  1
  B  B2  1  0.669268  0.330732  0.499635  1
  B  B3  1  0.330732  0.669268  0.499635  1
  Pd  Pd4  1  0.500000  0.500000  0.698462  1
  Pd  Pd5  1  0.667545  0.332455  0.999374  1
  Pd  Pd6  1  0.332455  0.667545  0.999374  1
  Pt  Pt7  1  0.500000  0.000000  0.697013  1
  Pt  Pt8  1  0.000000  0.500000  0.697013  1
  Pt  Pt9  1  0.500000  0.500000  0.305367  1
  Pt  Pt10  1  0.500000  0.000000  0.301035  1
  Pt  Pt11  1  0.000000  0.500000  0.301035  1
