# generated using pymatgen
data_Li8PrNd6ThSn8
_symmetry_space_group_name_H-M   'P 1'
_cell_length_a   9.56801701
_cell_length_b   9.56947383
_cell_length_c   7.64460403
_cell_angle_alpha   89.98698034
_cell_angle_beta   89.99881533
_cell_angle_gamma   120.00060864
_symmetry_Int_Tables_number   1
_chemical_formula_structural   Li8PrNd6ThSn8
_chemical_formula_sum   'Li8 Pr1 Nd6 Th1 Sn8'
_cell_volume   606.16791440
_cell_formula_units_Z   1
loop_
 _symmetry_equiv_pos_site_id
 _symmetry_equiv_pos_as_xyz
  1  'x, y, z'
loop_
 _atom_site_type_symbol
 _atom_site_label
 _atom_site_symmetry_multiplicity
 _atom_site_fract_x
 _atom_site_fract_y
 _atom_site_fract_z
 _atom_site_occupancy
  Li  Li0  1  0.167022  0.334278  0.286743  1
  Li  Li1  1  0.164239  0.831799  0.285603  1
  Li  Li2  1  0.667623  0.831942  0.285565  1
  Li  Li3  1  0.833289  0.666448  0.789728  1
  Li  Li4  1  0.834063  0.167717  0.788446  1
  Li  Li5  1  0.333610  0.167637  0.788482  1
  Li  Li6  1  0.331908  0.664060  0.672847  1
  Li  Li7  1  0.666815  0.333530  0.170096  1
  Pr  Pr8  1  0.511777  0.489025  0.494926  1
  Nd  Nd9  1  0.977369  0.489011  0.494950  1
  Nd  Nd10  1  0.488290  0.976588  0.994074  1
  Nd  Nd11  1  0.488557  0.512013  0.994627  1
  Nd  Nd12  1  0.023452  0.512013  0.994645  1
  Nd  Nd13  1  0.000477  0.000946  0.498233  1
  Nd  Nd14  1  0.000412  0.000833  0.998331  1
  Th  Th15  1  0.510674  0.021233  0.494410  1
  Sn  Sn16  1  0.166418  0.333405  0.730390  1
  Sn  Sn17  1  0.168455  0.834538  0.727501  1
  Sn  Sn18  1  0.666293  0.834929  0.727778  1
  Sn  Sn19  1  0.833405  0.666326  0.227695  1
  Sn  Sn20  1  0.831903  0.166037  0.232454  1
  Sn  Sn21  1  0.333957  0.165696  0.232152  1
  Sn  Sn22  1  0.333887  0.668319  0.268136  1
  Sn  Sn23  1  0.666105  0.331676  0.764157  1
