# generated using pymatgen
data_Tb7DyCd2CoRu
_symmetry_space_group_name_H-M   'P 1'
_cell_length_a   9.69641416
_cell_length_b   9.61942256
_cell_length_c   9.61506059
_cell_angle_alpha   59.53565589
_cell_angle_beta   59.73282791
_cell_angle_gamma   59.74866051
_symmetry_Int_Tables_number   1
_chemical_formula_structural   Tb7DyCd2CoRu
_chemical_formula_sum   'Tb14 Dy2 Cd4 Co2 Ru2'
_cell_volume   629.43204312
_cell_formula_units_Z   2
loop_
 _symmetry_equiv_pos_site_id
 _symmetry_equiv_pos_as_xyz
  1  'x, y, z'
loop_
 _atom_site_type_symbol
 _atom_site_label
 _atom_site_symmetry_multiplicity
 _atom_site_fract_x
 _atom_site_fract_y
 _atom_site_fract_z
 _atom_site_occupancy
  Tb  Tb0  1  0.186669  0.813344  0.813481  1
  Tb  Tb1  1  0.065686  0.057605  0.437033  1
  Tb  Tb2  1  0.438992  0.061378  0.060795  1
  Tb  Tb3  1  0.813978  0.188492  0.809340  1
  Tb  Tb4  1  0.439709  0.057683  0.436922  1
  Tb  Tb5  1  0.593483  0.211194  0.601921  1
  Tb  Tb6  1  0.814032  0.809258  0.188459  1
  Tb  Tb7  1  0.212834  0.598386  0.598651  1
  Tb  Tb8  1  0.809148  0.190787  0.190672  1
  Tb  Tb9  1  0.061669  0.438443  0.438239  1
  Tb  Tb10  1  0.188253  0.809215  0.188263  1
  Tb  Tb11  1  0.593558  0.601757  0.210949  1
  Tb  Tb12  1  0.188178  0.188251  0.809332  1
  Tb  Tb13  1  0.066102  0.437020  0.057475  1
  Dy  Dy14  1  0.439590  0.437082  0.057467  1
  Dy  Dy15  1  0.590171  0.598158  0.598751  1
  Cd  Cd16  1  0.830970  0.829470  0.508419  1
  Cd  Cd17  1  0.831265  0.829909  0.829877  1
  Cd  Cd18  1  0.508968  0.829740  0.829859  1
  Cd  Cd19  1  0.830901  0.508406  0.829523  1
  Co  Co20  1  0.388566  0.829757  0.393422  1
  Co  Co21  1  0.388642  0.393337  0.829804  1
  Ru  Ru22  1  0.388410  0.390552  0.390528  1
  Ru  Ru23  1  0.830223  0.390774  0.390815  1
