# generated using pymatgen
data_Hf3Ga3RuAu2
_symmetry_space_group_name_H-M   'P 1'
_cell_length_a   7.32341700
_cell_length_b   7.32341661
_cell_length_c   6.96630600
_cell_angle_alpha   90.00000000
_cell_angle_beta   90.00000000
_cell_angle_gamma   119.99999726
_symmetry_Int_Tables_number   1
_chemical_formula_structural   Hf3Ga3RuAu2
_chemical_formula_sum   'Hf6 Ga6 Ru2 Au4'
_cell_volume   323.56437229
_cell_formula_units_Z   2
loop_
 _symmetry_equiv_pos_site_id
 _symmetry_equiv_pos_as_xyz
  1  'x, y, z'
loop_
 _atom_site_type_symbol
 _atom_site_label
 _atom_site_symmetry_multiplicity
 _atom_site_fract_x
 _atom_site_fract_y
 _atom_site_fract_z
 _atom_site_occupancy
  Hf  Hf0  1  0.737112  0.045478  0.000000  1
  Hf  Hf1  1  0.308366  0.262888  0.000000  1
  Hf  Hf2  1  0.954522  0.691634  0.000000  1
  Hf  Hf3  1  0.312587  0.264504  0.500000  1
  Hf  Hf4  1  0.735496  0.048083  0.500000  1
  Hf  Hf5  1  0.951917  0.687413  0.500000  1
  Ga  Ga6  1  0.610184  0.664617  0.749644  1
  Ga  Ga7  1  0.054434  0.389816  0.749644  1
  Ga  Ga8  1  0.335383  0.945566  0.749644  1
  Ga  Ga9  1  0.610184  0.664617  0.250356  1
  Ga  Ga10  1  0.054434  0.389816  0.250356  1
  Ga  Ga11  1  0.335383  0.945566  0.250356  1
  Ru  Ru12  1  0.000000  0.000000  0.252261  1
  Ru  Ru13  1  0.000000  0.000000  0.747739  1
  Au  Au14  1  0.333333  0.666667  0.000000  1
  Au  Au15  1  0.333333  0.666667  0.500000  1
  Au  Au16  1  0.666667  0.333333  0.755660  1
  Au  Au17  1  0.666667  0.333333  0.244340  1
