# generated using pymatgen
data_LiY2ThZn2Pd3
_symmetry_space_group_name_H-M   'P 1'
_cell_length_a   7.42924959
_cell_length_b   7.39119050
_cell_length_c   3.93913700
_cell_angle_alpha   90.00000000
_cell_angle_beta   90.00000000
_cell_angle_gamma   120.40888810
_symmetry_Int_Tables_number   1
_chemical_formula_structural   LiY2ThZn2Pd3
_chemical_formula_sum   'Li1 Y2 Th1 Zn2 Pd3'
_cell_volume   186.54640490
_cell_formula_units_Z   1
loop_
 _symmetry_equiv_pos_site_id
 _symmetry_equiv_pos_as_xyz
  1  'x, y, z'
loop_
 _atom_site_type_symbol
 _atom_site_label
 _atom_site_symmetry_multiplicity
 _atom_site_fract_x
 _atom_site_fract_y
 _atom_site_fract_z
 _atom_site_occupancy
  Li  Li0  1  0.768869  0.759590  0.000000  1
  Y  Y1  1  0.394731  0.390316  0.500000  1
  Y  Y2  1  0.009618  0.593304  0.500000  1
  Th  Th3  1  0.583932  0.004747  0.500000  1
  Zn  Zn4  1  0.002768  0.252274  0.000000  1
  Zn  Zn5  1  0.232704  0.992944  0.000000  1
  Pd  Pd6  1  0.999979  0.007084  0.500000  1
  Pd  Pd7  1  0.341915  0.672535  0.000000  1
  Pd  Pd8  1  0.665484  0.327207  0.000000  1
