# generated using pymatgen
data_Yb12Si8OsPd7
_symmetry_space_group_name_H-M   'P 1'
_cell_length_a   5.61933325
_cell_length_b   7.96740394
_cell_length_c   13.26162892
_cell_angle_alpha   90.27017887
_cell_angle_beta   89.96308801
_cell_angle_gamma   90.27125052
_symmetry_Int_Tables_number   1
_chemical_formula_structural   Yb12Si8OsPd7
_chemical_formula_sum   'Yb12 Si8 Os1 Pd7'
_cell_volume   593.72962172
_cell_formula_units_Z   1
loop_
 _symmetry_equiv_pos_site_id
 _symmetry_equiv_pos_as_xyz
  1  'x, y, z'
loop_
 _atom_site_type_symbol
 _atom_site_label
 _atom_site_symmetry_multiplicity
 _atom_site_fract_x
 _atom_site_fract_y
 _atom_site_fract_z
 _atom_site_occupancy
  Yb  Yb0  1  0.652582  0.240923  0.250563  1
  Yb  Yb1  1  0.350175  0.755824  0.749209  1
  Yb  Yb2  1  0.355408  0.746412  0.247882  1
  Yb  Yb3  1  0.652245  0.251657  0.750479  1
  Yb  Yb4  1  0.138553  0.386166  0.098978  1
  Yb  Yb5  1  0.858422  0.610670  0.898108  1
  Yb  Yb6  1  0.860699  0.608904  0.601784  1
  Yb  Yb7  1  0.860993  0.891568  0.398427  1
  Yb  Yb8  1  0.138900  0.389634  0.398579  1
  Yb  Yb9  1  0.140590  0.108056  0.602243  1
  Yb  Yb10  1  0.136160  0.108215  0.901038  1
  Yb  Yb11  1  0.856156  0.896688  0.101733  1
  Si  Si12  1  0.164946  0.093600  0.247404  1
  Si  Si13  1  0.848722  0.899170  0.747469  1
  Si  Si14  1  0.845382  0.595869  0.250038  1
  Si  Si15  1  0.158836  0.401079  0.750331  1
  Si  Si16  1  0.611692  0.243544  0.003880  1
  Si  Si17  1  0.372755  0.760837  0.006358  1
  Si  Si18  1  0.372011  0.750205  0.499467  1
  Si  Si19  1  0.627624  0.250913  0.500270  1
  Os  Os20  1  0.370388  0.034985  0.090624  1
  Pd  Pd21  1  0.627740  0.964563  0.904781  1
  Pd  Pd22  1  0.628447  0.967959  0.589495  1
  Pd  Pd23  1  0.626909  0.533112  0.409561  1
  Pd  Pd24  1  0.370887  0.034287  0.410749  1
  Pd  Pd25  1  0.372174  0.467701  0.590224  1
  Pd  Pd26  1  0.369591  0.476112  0.910455  1
  Pd  Pd27  1  0.631011  0.531346  0.089870  1
