# generated using pymatgen
data_Hf6Ti4(AlSb)3
_symmetry_space_group_name_H-M   'P 1'
_cell_length_a   8.14315300
_cell_length_b   8.14315330
_cell_length_c   5.43094800
_cell_angle_alpha   90.00000000
_cell_angle_beta   90.00000000
_cell_angle_gamma   119.99999472
_symmetry_Int_Tables_number   1
_chemical_formula_structural   Hf6Ti4(AlSb)3
_chemical_formula_sum   'Hf6 Ti4 Al3 Sb3'
_cell_volume   311.88285766
_cell_formula_units_Z   1
loop_
 _symmetry_equiv_pos_site_id
 _symmetry_equiv_pos_as_xyz
  1  'x, y, z'
loop_
 _atom_site_type_symbol
 _atom_site_label
 _atom_site_symmetry_multiplicity
 _atom_site_fract_x
 _atom_site_fract_y
 _atom_site_fract_z
 _atom_site_occupancy
  Hf  Hf0  1  0.756363  0.756363  0.500000  1
  Hf  Hf1  1  0.243637  0.000000  0.500000  1
  Hf  Hf2  1  0.000000  0.243637  0.500000  1
  Hf  Hf3  1  0.234984  0.234984  0.000000  1
  Hf  Hf4  1  0.765016  0.000000  0.000000  1
  Hf  Hf5  1  0.000000  0.765016  0.000000  1
  Ti  Ti6  1  0.666667  0.333333  0.739820  1
  Ti  Ti7  1  0.333333  0.666667  0.739820  1
  Ti  Ti8  1  0.333333  0.666667  0.260180  1
  Ti  Ti9  1  0.666667  0.333333  0.260180  1
  Al  Al10  1  0.396771  0.396771  0.500000  1
  Al  Al11  1  0.603229  0.000000  0.500000  1
  Al  Al12  1  0.000000  0.603229  0.500000  1
  Sb  Sb13  1  0.592053  0.592053  0.000000  1
  Sb  Sb14  1  0.407947  0.000000  0.000000  1
  Sb  Sb15  1  0.000000  0.407947  0.000000  1
