# generated using pymatgen
data_Cs5Rb(InSb2)2
_symmetry_space_group_name_H-M   'P 1'
_cell_length_a   10.24221026
_cell_length_b   10.24221153
_cell_length_c   10.24221188
_cell_angle_alpha   127.06487157
_cell_angle_beta   71.83656859
_cell_angle_gamma   135.15438986
_symmetry_Int_Tables_number   1
_chemical_formula_structural   Cs5Rb(InSb2)2
_chemical_formula_sum   'Cs5 Rb1 In2 Sb4'
_cell_volume   591.70668148
_cell_formula_units_Z   1
loop_
 _symmetry_equiv_pos_site_id
 _symmetry_equiv_pos_as_xyz
  1  'x, y, z'
loop_
 _atom_site_type_symbol
 _atom_site_label
 _atom_site_symmetry_multiplicity
 _atom_site_fract_x
 _atom_site_fract_y
 _atom_site_fract_z
 _atom_site_occupancy
  Cs  Cs0  1  0.750000  0.750000  0.000000  1
  Cs  Cs1  1  0.825875  0.299295  0.124833  1
  Cs  Cs2  1  0.674124  0.798957  0.473420  1
  Cs  Cs3  1  0.325537  0.200705  0.526580  1
  Cs  Cs4  1  0.174462  0.701044  0.875167  1
  Rb  Rb5  1  0.250000  0.250000  0.000000  1
  In  In6  1  0.750000  0.250000  0.500000  1
  In  In7  1  0.250000  0.750000  0.500000  1
  Sb  Sb8  1  0.406445  0.816977  0.226173  1
  Sb  Sb9  1  0.093555  0.319728  0.410531  1
  Sb  Sb10  1  0.909196  0.683023  0.589470  1
  Sb  Sb11  1  0.590804  0.180272  0.773827  1
