# generated using pymatgen
data_Sr21In(Ga4Si3)2
_symmetry_space_group_name_H-M   'P 1'
_cell_length_a   11.83225303
_cell_length_b   11.83225288
_cell_length_c   11.83225200
_cell_angle_alpha   60.00000245
_cell_angle_beta   60.00000287
_cell_angle_gamma   59.99999826
_symmetry_Int_Tables_number   1
_chemical_formula_structural   Sr21In(Ga4Si3)2
_chemical_formula_sum   'Sr21 In1 Ga8 Si6'
_cell_volume   1171.35170869
_cell_formula_units_Z   1
loop_
 _symmetry_equiv_pos_site_id
 _symmetry_equiv_pos_as_xyz
  1  'x, y, z'
loop_
 _atom_site_type_symbol
 _atom_site_label
 _atom_site_symmetry_multiplicity
 _atom_site_fract_x
 _atom_site_fract_y
 _atom_site_fract_z
 _atom_site_occupancy
  Sr  Sr0  1  0.872244  0.872244  0.383265  1
  Sr  Sr1  1  0.616735  0.127756  0.127756  1
  Sr  Sr2  1  0.872244  0.383265  0.872244  1
  Sr  Sr3  1  0.127756  0.127756  0.127756  1
  Sr  Sr4  1  0.383265  0.872244  0.872244  1
  Sr  Sr5  1  0.872244  0.872244  0.872244  1
  Sr  Sr6  1  0.176450  0.823550  0.500000  1
  Sr  Sr7  1  0.823550  0.500000  0.500000  1
  Sr  Sr8  1  0.127756  0.127756  0.616735  1
  Sr  Sr9  1  0.823550  0.176450  0.500000  1
  Sr  Sr10  1  0.176450  0.500000  0.500000  1
  Sr  Sr11  1  0.127756  0.616735  0.127756  1
  Sr  Sr12  1  0.500000  0.500000  0.176450  1
  Sr  Sr13  1  0.500000  0.176450  0.823550  1
  Sr  Sr14  1  0.500000  0.823550  0.176450  1
  Sr  Sr15  1  0.500000  0.500000  0.823550  1
  Sr  Sr16  1  0.500000  0.176450  0.500000  1
  Sr  Sr17  1  0.176450  0.500000  0.823550  1
  Sr  Sr18  1  0.000000  0.000000  0.000000  1
  Sr  Sr19  1  0.500000  0.823550  0.500000  1
  Sr  Sr20  1  0.823550  0.500000  0.176450  1
  In  In21  1  0.500000  0.500000  0.500000  1
  Ga  Ga22  1  0.692974  0.921079  0.692974  1
  Ga  Ga23  1  0.692974  0.692974  0.921079  1
  Ga  Ga24  1  0.692974  0.692974  0.692974  1
  Ga  Ga25  1  0.307026  0.078921  0.307026  1
  Ga  Ga26  1  0.921079  0.692974  0.692974  1
  Ga  Ga27  1  0.307026  0.307026  0.078921  1
  Ga  Ga28  1  0.078921  0.307026  0.307026  1
  Ga  Ga29  1  0.307026  0.307026  0.307026  1
  Si  Si30  1  0.786404  0.213596  0.786404  1
  Si  Si31  1  0.786404  0.213596  0.213596  1
  Si  Si32  1  0.213596  0.786404  0.213596  1
  Si  Si33  1  0.213596  0.786404  0.786404  1
  Si  Si34  1  0.786404  0.786404  0.213596  1
  Si  Si35  1  0.213596  0.213596  0.786404  1
