# generated using pymatgen
data_HoEr3(As4O9)2
_symmetry_space_group_name_H-M   'P 1'
_cell_length_a   6.70989240
_cell_length_b   7.51461283
_cell_length_c   9.78240451
_cell_angle_alpha   94.88472318
_cell_angle_beta   104.12302890
_cell_angle_gamma   104.72471263
_symmetry_Int_Tables_number   1
_chemical_formula_structural   HoEr3(As4O9)2
_chemical_formula_sum   'Ho1 Er3 As8 O18'
_cell_volume   456.90141506
_cell_formula_units_Z   1
loop_
 _symmetry_equiv_pos_site_id
 _symmetry_equiv_pos_as_xyz
  1  'x, y, z'
loop_
 _atom_site_type_symbol
 _atom_site_label
 _atom_site_symmetry_multiplicity
 _atom_site_fract_x
 _atom_site_fract_y
 _atom_site_fract_z
 _atom_site_occupancy
  Ho  Ho0  1  0.243168  0.939297  0.614828  1
  Er  Er1  1  0.756666  0.061196  0.385159  1
  Er  Er2  1  0.721200  0.529248  0.409851  1
  Er  Er3  1  0.278660  0.470614  0.589996  1
  As  As4  1  0.682780  0.773972  0.078676  1
  As  As5  1  0.317259  0.226228  0.921534  1
  As  As6  1  0.170233  0.752263  0.912720  1
  As  As7  1  0.829700  0.247611  0.087388  1
  As  As8  1  0.743627  0.914929  0.709570  1
  As  As9  1  0.256567  0.085063  0.290307  1
  As  As10  1  0.809870  0.351480  0.701663  1
  As  As11  1  0.190253  0.648438  0.298235  1
  O  O12  1  0.723466  0.748776  0.259970  1
  O  O13  1  0.276626  0.251779  0.740288  1
  O  O14  1  0.315570  0.978579  0.869093  1
  O  O15  1  0.684680  0.021542  0.131562  1
  O  O16  1  0.608443  0.325668  0.985307  1
  O  O17  1  0.391545  0.674308  0.014698  1
  O  O18  1  0.126476  0.644873  0.737300  1
  O  O19  1  0.873468  0.354959  0.262741  1
  O  O20  1  0.847245  0.875904  0.558583  1
  O  O21  1  0.151758  0.124546  0.440696  1
  O  O22  1  0.481601  0.767234  0.666097  1
  O  O23  1  0.519024  0.232257  0.334095  1
  O  O24  1  0.373118  0.532541  0.380210  1
  O  O25  1  0.626932  0.467356  0.619743  1
  O  O26  1  0.088858  0.669283  0.454104  1
  O  O27  1  0.910717  0.329901  0.545500  1
  O  O28  1  0.378527  0.899541  0.358975  1
  O  O29  1  0.621963  0.100617  0.641112  1
