# generated using pymatgen
data_TbHf4Pd15
_symmetry_space_group_name_H-M   'P 1'
_cell_length_a   4.04204100
_cell_length_b   4.04204100
_cell_length_c   20.18686000
_cell_angle_alpha   90.00000000
_cell_angle_beta   90.00000000
_cell_angle_gamma   90.00000000
_symmetry_Int_Tables_number   1
_chemical_formula_structural   TbHf4Pd15
_chemical_formula_sum   'Tb1 Hf4 Pd15'
_cell_volume   329.81484543
_cell_formula_units_Z   1
loop_
 _symmetry_equiv_pos_site_id
 _symmetry_equiv_pos_as_xyz
  1  'x, y, z'
loop_
 _atom_site_type_symbol
 _atom_site_label
 _atom_site_symmetry_multiplicity
 _atom_site_fract_x
 _atom_site_fract_y
 _atom_site_fract_z
 _atom_site_occupancy
  Tb  Tb0  1  0.000000  0.000000  0.000000  1
  Hf  Hf1  1  0.000000  0.000000  0.200861  1
  Hf  Hf2  1  0.000000  0.000000  0.400301  1
  Hf  Hf3  1  0.000000  0.000000  0.599699  1
  Hf  Hf4  1  0.000000  0.000000  0.799139  1
  Pd  Pd5  1  0.500000  0.500000  0.000000  1
  Pd  Pd6  1  0.500000  0.500000  0.204474  1
  Pd  Pd7  1  0.500000  0.500000  0.401209  1
  Pd  Pd8  1  0.500000  0.500000  0.598791  1
  Pd  Pd9  1  0.500000  0.500000  0.795526  1
  Pd  Pd10  1  0.500000  0.000000  0.106340  1
  Pd  Pd11  1  0.500000  0.000000  0.302562  1
  Pd  Pd12  1  0.500000  0.000000  0.500000  1
  Pd  Pd13  1  0.500000  0.000000  0.697438  1
  Pd  Pd14  1  0.500000  0.000000  0.893660  1
  Pd  Pd15  1  0.000000  0.500000  0.106340  1
  Pd  Pd16  1  0.000000  0.500000  0.302562  1
  Pd  Pd17  1  0.000000  0.500000  0.500000  1
  Pd  Pd18  1  0.000000  0.500000  0.697438  1
  Pd  Pd19  1  0.000000  0.500000  0.893660  1
