# generated using pymatgen
data_LaCeZr4F22
_symmetry_space_group_name_H-M   'P 1'
_cell_length_a   8.55600209
_cell_length_b   8.55600295
_cell_length_c   8.55600200
_cell_angle_alpha   124.84624186
_cell_angle_beta   106.53721115
_cell_angle_gamma   98.27856247
_symmetry_Int_Tables_number   1
_chemical_formula_structural   LaCeZr4F22
_chemical_formula_sum   'La1 Ce1 Zr4 F22'
_cell_volume   453.80497208
_cell_formula_units_Z   1
loop_
 _symmetry_equiv_pos_site_id
 _symmetry_equiv_pos_as_xyz
  1  'x, y, z'
loop_
 _atom_site_type_symbol
 _atom_site_label
 _atom_site_symmetry_multiplicity
 _atom_site_fract_x
 _atom_site_fract_y
 _atom_site_fract_z
 _atom_site_occupancy
  La  La0  1  0.750000  0.250000  0.500000  1
  Ce  Ce1  1  0.250000  0.750000  0.500000  1
  Zr  Zr2  1  0.680730  0.633402  0.313985  1
  Zr  Zr3  1  0.319418  0.366746  0.686015  1
  Zr  Zr4  1  0.180582  0.866598  0.047328  1
  Zr  Zr5  1  0.819270  0.133254  0.952672  1
  F  F6  1  0.705834  0.892386  0.340208  1
  F  F7  1  0.294167  0.106024  0.658866  1
  F  F8  1  0.552177  0.365626  0.659792  1
  F  F9  1  0.947823  0.607614  0.813448  1
  F  F10  1  0.447160  0.635301  0.341134  1
  F  F11  1  0.052840  0.393976  0.188143  1
  F  F12  1  0.794166  0.134374  0.186552  1
  F  F13  1  0.205833  0.864699  0.811857  1
  F  F14  1  0.499895  0.499895  0.000000  1
  F  F15  1  0.000105  0.000105  0.000000  1
  F  F16  1  0.780107  0.870585  0.650685  1
  F  F17  1  0.219900  0.129422  0.349315  1
  F  F18  1  0.280100  0.629415  0.909522  1
  F  F19  1  0.719893  0.370578  0.090478  1
  F  F20  1  0.950987  0.738157  0.417011  1
  F  F21  1  0.049761  0.261646  0.583095  1
  F  F22  1  0.321146  0.533976  0.582989  1
  F  F23  1  0.178854  0.761843  0.212830  1
  F  F24  1  0.678551  0.466666  0.416905  1
  F  F25  1  0.821449  0.238354  0.788115  1
  F  F26  1  0.549013  0.966024  0.787170  1
  F  F27  1  0.450239  0.033334  0.211885  1
