# generated using pymatgen
data_Nd4ZnCuPt2
_symmetry_space_group_name_H-M   'P 1'
_cell_length_a   4.58188600
_cell_length_b   5.75785410
_cell_length_c   7.42067611
_cell_angle_alpha   89.69617486
_cell_angle_beta   90.00000000
_cell_angle_gamma   90.00000000
_symmetry_Int_Tables_number   1
_chemical_formula_structural   Nd4ZnCuPt2
_chemical_formula_sum   'Nd4 Zn1 Cu1 Pt2'
_cell_volume   195.76827138
_cell_formula_units_Z   1
loop_
 _symmetry_equiv_pos_site_id
 _symmetry_equiv_pos_as_xyz
  1  'x, y, z'
loop_
 _atom_site_type_symbol
 _atom_site_label
 _atom_site_symmetry_multiplicity
 _atom_site_fract_x
 _atom_site_fract_y
 _atom_site_fract_z
 _atom_site_occupancy
  Nd  Nd0  1  0.000000  0.634168  0.327478  1
  Nd  Nd1  1  0.000000  0.871936  0.810917  1
  Nd  Nd2  1  0.500000  0.361598  0.681179  1
  Nd  Nd3  1  0.500000  0.133473  0.183205  1
  Zn  Zn4  1  0.500000  0.629595  0.036986  1
  Cu  Cu5  1  0.000000  0.129557  0.460246  1
  Pt  Pt6  1  0.000000  0.375263  0.962390  1
  Pt  Pt7  1  0.500000  0.864408  0.537601  1
