# generated using pymatgen
data_Gd5Tm
_symmetry_space_group_name_H-M   'P 1'
_cell_length_a   5.75216100
_cell_length_b   6.33146875
_cell_length_c   6.33147000
_cell_angle_alpha   60.00000393
_cell_angle_beta   90.00000000
_cell_angle_gamma   90.00000000
_symmetry_Int_Tables_number   1
_chemical_formula_structural   Gd5Tm
_chemical_formula_sum   'Gd5 Tm1'
_cell_volume   199.69661503
_cell_formula_units_Z   1
loop_
 _symmetry_equiv_pos_site_id
 _symmetry_equiv_pos_as_xyz
  1  'x, y, z'
loop_
 _atom_site_type_symbol
 _atom_site_label
 _atom_site_symmetry_multiplicity
 _atom_site_fract_x
 _atom_site_fract_y
 _atom_site_fract_z
 _atom_site_occupancy
  Gd  Gd0  1  0.500000  0.333334  0.000000  1
  Gd  Gd1  1  0.000000  0.993414  0.006586  1
  Gd  Gd2  1  0.000000  0.339921  0.333333  1
  Gd  Gd3  1  0.000000  0.666667  0.660080  1
  Gd  Gd4  1  0.500000  0.000000  0.666667  1
  Tm  Tm5  1  0.500000  0.666667  0.333333  1
