# generated using pymatgen
data_LiY3Cu3Si4
_symmetry_space_group_name_H-M   'P 1'
_cell_length_a   7.88068322
_cell_length_b   7.98132903
_cell_length_c   7.98132975
_cell_angle_alpha   149.78085060
_cell_angle_beta   130.91252265
_cell_angle_gamma   58.85021465
_symmetry_Int_Tables_number   1
_chemical_formula_structural   LiY3Cu3Si4
_chemical_formula_sum   'Li1 Y3 Cu3 Si4'
_cell_volume   189.37604160
_cell_formula_units_Z   1
loop_
 _symmetry_equiv_pos_site_id
 _symmetry_equiv_pos_as_xyz
  1  'x, y, z'
loop_
 _atom_site_type_symbol
 _atom_site_label
 _atom_site_symmetry_multiplicity
 _atom_site_fract_x
 _atom_site_fract_y
 _atom_site_fract_z
 _atom_site_occupancy
  Li  Li0  1  0.639088  0.328178  0.310910  1
  Y  Y1  1  0.363209  0.870296  0.492913  1
  Y  Y2  1  0.633293  0.129451  0.503842  1
  Y  Y3  1  0.000502  0.001323  0.999179  1
  Cu  Cu4  1  0.368884  0.674278  0.694606  1
  Cu  Cu5  1  0.018002  0.331879  0.686123  1
  Cu  Cu6  1  0.977774  0.664863  0.312911  1
  Si  Si7  1  0.204120  0.213885  0.990235  1
  Si  Si8  1  0.798192  0.783015  0.015178  1
  Si  Si9  1  0.681974  0.501596  0.180378  1
  Si  Si10  1  0.314962  0.501235  0.813727  1
