# generated using pymatgen
data_Pr2Y(AlI)2
_symmetry_space_group_name_H-M   'P 1'
_cell_length_a   9.88094348
_cell_length_b   9.88094400
_cell_length_c   12.14529443
_cell_angle_alpha   59.68451338
_cell_angle_beta   59.68451055
_cell_angle_gamma   25.09538777
_symmetry_Int_Tables_number   1
_chemical_formula_structural   Pr2Y(AlI)2
_chemical_formula_sum   'Pr4 Y2 Al4 I4'
_cell_volume   430.45957826
_cell_formula_units_Z   2
loop_
 _symmetry_equiv_pos_site_id
 _symmetry_equiv_pos_as_xyz
  1  'x, y, z'
loop_
 _atom_site_type_symbol
 _atom_site_label
 _atom_site_symmetry_multiplicity
 _atom_site_fract_x
 _atom_site_fract_y
 _atom_site_fract_z
 _atom_site_occupancy
  Pr  Pr0  1  0.755361  0.755361  0.800312  1
  Pr  Pr1  1  0.244639  0.244639  0.199688  1
  Pr  Pr2  1  0.534814  0.534814  0.311389  1
  Pr  Pr3  1  0.465186  0.465186  0.688611  1
  Y  Y4  1  0.831365  0.831365  0.390714  1
  Y  Y5  1  0.168635  0.168635  0.609286  1
  Al  Al6  1  0.925738  0.925738  0.529547  1
  Al  Al7  1  0.074262  0.074262  0.470453  1
  Al  Al8  1  0.336207  0.336207  0.580481  1
  Al  Al9  1  0.663793  0.663793  0.419519  1
  I  I10  1  0.421459  0.421459  0.176424  1
  I  I11  1  0.578541  0.578541  0.823576  1
  I  I12  1  0.860192  0.860192  0.942277  1
  I  I13  1  0.139808  0.139808  0.057723  1
