# generated using pymatgen
data_Tm16In4IrOsRh2
_symmetry_space_group_name_H-M   'P 1'
_cell_length_a   9.55986574
_cell_length_b   9.55986631
_cell_length_c   9.58904613
_cell_angle_alpha   59.76708367
_cell_angle_beta   59.76708008
_cell_angle_gamma   59.66193311
_symmetry_Int_Tables_number   1
_chemical_formula_structural   Tm16In4IrOsRh2
_chemical_formula_sum   'Tm16 In4 Ir1 Os1 Rh2'
_cell_volume   615.90254355
_cell_formula_units_Z   1
loop_
 _symmetry_equiv_pos_site_id
 _symmetry_equiv_pos_as_xyz
  1  'x, y, z'
loop_
 _atom_site_type_symbol
 _atom_site_label
 _atom_site_symmetry_multiplicity
 _atom_site_fract_x
 _atom_site_fract_y
 _atom_site_fract_z
 _atom_site_occupancy
  Tm  Tm0  1  0.056414  0.056414  0.440254  1
  Tm  Tm1  1  0.445562  0.058966  0.436646  1
  Tm  Tm2  1  0.061026  0.440882  0.059904  1
  Tm  Tm3  1  0.046192  0.650288  0.650878  1
  Tm  Tm4  1  0.438375  0.438375  0.060831  1
  Tm  Tm5  1  0.650288  0.046192  0.650878  1
  Tm  Tm6  1  0.190625  0.809599  0.193445  1
  Tm  Tm7  1  0.192419  0.192419  0.809186  1
  Tm  Tm8  1  0.807984  0.807984  0.194109  1
  Tm  Tm9  1  0.440882  0.061026  0.059904  1
  Tm  Tm10  1  0.809599  0.190625  0.193445  1
  Tm  Tm11  1  0.058966  0.445562  0.436646  1
  Tm  Tm12  1  0.808620  0.192998  0.807981  1
  Tm  Tm13  1  0.192998  0.808620  0.807981  1
  Tm  Tm14  1  0.650349  0.650349  0.047208  1
  Tm  Tm15  1  0.651490  0.651490  0.650227  1
  In  In16  1  0.416468  0.416468  0.416094  1
  In  In17  1  0.750183  0.416306  0.415987  1
  In  In18  1  0.416306  0.750183  0.415987  1
  In  In19  1  0.417145  0.417145  0.748403  1
  Ir  Ir20  1  0.859119  0.859119  0.860965  1
  Os  Os21  1  0.858155  0.858155  0.424119  1
  Rh  Rh22  1  0.422219  0.858616  0.859466  1
  Rh  Rh23  1  0.858616  0.422219  0.859466  1
