# generated using pymatgen
data_La12TlNi6
_symmetry_space_group_name_H-M   'P 1'
_cell_length_a   8.88312552
_cell_length_b   8.88312482
_cell_length_c   8.88312500
_cell_angle_alpha   109.47122332
_cell_angle_beta   109.47122173
_cell_angle_gamma   109.47121790
_symmetry_Int_Tables_number   1
_chemical_formula_structural   La12TlNi6
_chemical_formula_sum   'La12 Tl1 Ni6'
_cell_volume   539.60434795
_cell_formula_units_Z   1
loop_
 _symmetry_equiv_pos_site_id
 _symmetry_equiv_pos_as_xyz
  1  'x, y, z'
loop_
 _atom_site_type_symbol
 _atom_site_label
 _atom_site_symmetry_multiplicity
 _atom_site_fract_x
 _atom_site_fract_y
 _atom_site_fract_z
 _atom_site_occupancy
  La  La0  1  0.816490  0.687817  0.504307  1
  La  La1  1  0.183510  0.312183  0.495693  1
  La  La2  1  0.183510  0.687817  0.871327  1
  La  La3  1  0.816490  0.312183  0.128673  1
  La  La4  1  0.687817  0.504307  0.816490  1
  La  La5  1  0.312183  0.495693  0.183510  1
  La  La6  1  0.687817  0.871327  0.183510  1
  La  La7  1  0.312183  0.128673  0.816490  1
  La  La8  1  0.504307  0.816490  0.687817  1
  La  La9  1  0.495693  0.183510  0.312183  1
  La  La10  1  0.128673  0.816490  0.312183  1
  La  La11  1  0.871327  0.183510  0.687817  1
  Tl  Tl12  1  0.000000  0.000000  0.000000  1
  Ni  Ni13  1  0.876065  0.376065  0.500000  1
  Ni  Ni14  1  0.123935  0.623935  0.500000  1
  Ni  Ni15  1  0.376065  0.500000  0.876065  1
  Ni  Ni16  1  0.623935  0.500000  0.123935  1
  Ni  Ni17  1  0.500000  0.876065  0.376065  1
  Ni  Ni18  1  0.500000  0.123935  0.623935  1
