# generated using pymatgen
data_Tb7PrDy4Fe2I17
_symmetry_space_group_name_H-M   'P 1'
_cell_length_a   9.77086950
_cell_length_b   11.76872981
_cell_length_c   11.75041592
_cell_angle_alpha   93.53689704
_cell_angle_beta   104.72242706
_cell_angle_gamma   114.34057388
_symmetry_Int_Tables_number   1
_chemical_formula_structural   Tb7PrDy4Fe2I17
_chemical_formula_sum   'Tb7 Pr1 Dy4 Fe2 I17'
_cell_volume   1169.23477772
_cell_formula_units_Z   1
loop_
 _symmetry_equiv_pos_site_id
 _symmetry_equiv_pos_as_xyz
  1  'x, y, z'
loop_
 _atom_site_type_symbol
 _atom_site_label
 _atom_site_symmetry_multiplicity
 _atom_site_fract_x
 _atom_site_fract_y
 _atom_site_fract_z
 _atom_site_occupancy
  Tb  Tb0  1  0.051437  0.500452  0.320162  1
  Tb  Tb1  1  0.990658  0.809758  0.584381  1
  Tb  Tb2  1  0.654101  0.241504  0.281434  1
  Tb  Tb3  1  0.007745  0.192588  0.409696  1
  Tb  Tb4  1  0.219705  0.670577  0.985576  1
  Tb  Tb5  1  0.257123  0.981030  0.889446  1
  Tb  Tb6  1  0.337792  0.757614  0.720412  1
  Pr  Pr7  1  0.853821  0.712761  0.846395  1
  Dy  Dy8  1  0.946494  0.493829  0.678530  1
  Dy  Dy9  1  0.748550  0.025945  0.112725  1
  Dy  Dy10  1  0.143653  0.287789  0.154587  1
  Dy  Dy11  1  0.783467  0.326775  0.020133  1
  Fe  Fe12  1  0.100804  0.737196  0.785553  1
  Fe  Fe13  1  0.896778  0.262018  0.214441  1
  I  I14  1  0.783941  0.528464  0.418829  1
  I  I15  1  0.644581  0.410518  0.759522  1
  I  I16  1  0.845262  0.897244  0.325949  1
  I  I17  1  0.328249  0.214183  0.368579  1
  I  I18  1  0.156484  0.102999  0.673321  1
  I  I19  1  0.584791  0.050572  0.842999  1
  I  I20  1  0.759044  0.188046  0.539083  1
  I  I21  1  0.546268  0.711914  0.954281  1
  I  I22  1  0.356377  0.581199  0.238281  1
  I  I23  1  0.216629  0.472936  0.584142  1
  I  I24  1  0.058284  0.369405  0.896921  1
  I  I25  1  0.449893  0.289313  0.045361  1
  I  I26  1  0.004259  0.004360  0.001279  1
  I  I27  1  0.241986  0.811504  0.463146  1
  I  I28  1  0.412659  0.946367  0.155607  1
  I  I29  1  0.671866  0.790006  0.622807  1
  I  I30  1  0.947294  0.631136  0.106421  1
