# generated using pymatgen
data_ZrPaCoP2
_symmetry_space_group_name_H-M   'P 1'
_cell_length_a   3.85978800
_cell_length_b   3.85978710
_cell_length_c   13.52728400
_cell_angle_alpha   90.00000000
_cell_angle_beta   90.00000000
_cell_angle_gamma   119.99999057
_symmetry_Int_Tables_number   1
_chemical_formula_structural   ZrPaCoP2
_chemical_formula_sum   'Zr2 Pa2 Co2 P4'
_cell_volume   174.52919393
_cell_formula_units_Z   2
loop_
 _symmetry_equiv_pos_site_id
 _symmetry_equiv_pos_as_xyz
  1  'x, y, z'
loop_
 _atom_site_type_symbol
 _atom_site_label
 _atom_site_symmetry_multiplicity
 _atom_site_fract_x
 _atom_site_fract_y
 _atom_site_fract_z
 _atom_site_occupancy
  Zr  Zr0  1  0.333333  0.666667  0.612958  1
  Zr  Zr1  1  0.666667  0.333333  0.112958  1
  Pa  Pa2  1  0.666667  0.333333  0.382165  1
  Pa  Pa3  1  0.333333  0.666667  0.882165  1
  Co  Co4  1  0.000000  0.000000  0.754564  1
  Co  Co5  1  0.000000  0.000000  0.254564  1
  P  P6  1  0.333333  0.666667  0.242041  1
  P  P7  1  0.000000  0.000000  0.008271  1
  P  P8  1  0.000000  0.000000  0.508271  1
  P  P9  1  0.666667  0.333333  0.742041  1
