# generated using pymatgen
data_LaSmZn3Ni7
_symmetry_space_group_name_H-M   'P 1'
_cell_length_a   4.06478500
_cell_length_b   5.06215108
_cell_length_c   8.73564268
_cell_angle_alpha   89.27708266
_cell_angle_beta   90.00000000
_cell_angle_gamma   90.00000000
_symmetry_Int_Tables_number   1
_chemical_formula_structural   LaSmZn3Ni7
_chemical_formula_sum   'La1 Sm1 Zn3 Ni7'
_cell_volume   179.73513141
_cell_formula_units_Z   1
loop_
 _symmetry_equiv_pos_site_id
 _symmetry_equiv_pos_as_xyz
  1  'x, y, z'
loop_
 _atom_site_type_symbol
 _atom_site_label
 _atom_site_symmetry_multiplicity
 _atom_site_fract_x
 _atom_site_fract_y
 _atom_site_fract_z
 _atom_site_occupancy
  La  La0  1  0.000000  0.752271  0.260154  1
  Sm  Sm1  1  0.000000  0.248786  0.740876  1
  Zn  Zn2  1  0.500000  0.258410  0.254370  1
  Zn  Zn3  1  0.500000  0.740576  0.745536  1
  Zn  Zn4  1  0.500000  0.002171  0.996264  1
  Ni  Ni5  1  0.500000  0.496711  0.503100  1
  Ni  Ni6  1  0.500000  0.498348  0.997768  1
  Ni  Ni7  1  0.500000  0.002708  0.503156  1
  Ni  Ni8  1  0.000000  0.259835  0.075540  1
  Ni  Ni9  1  0.000000  0.748800  0.579369  1
  Ni  Ni10  1  0.000000  0.739796  0.921466  1
  Ni  Ni11  1  0.000000  0.251588  0.422400  1
