# generated using pymatgen
data_Li4Ga3Au
_symmetry_space_group_name_H-M   'P 1'
_cell_length_a   7.69381931
_cell_length_b   7.69381906
_cell_length_c   7.69381952
_cell_angle_alpha   33.32640086
_cell_angle_beta   33.32640187
_cell_angle_gamma   33.32640359
_symmetry_Int_Tables_number   1
_chemical_formula_structural   Li4Ga3Au
_chemical_formula_sum   'Li4 Ga3 Au1'
_cell_volume   122.40362707
_cell_formula_units_Z   1
loop_
 _symmetry_equiv_pos_site_id
 _symmetry_equiv_pos_as_xyz
  1  'x, y, z'
loop_
 _atom_site_type_symbol
 _atom_site_label
 _atom_site_symmetry_multiplicity
 _atom_site_fract_x
 _atom_site_fract_y
 _atom_site_fract_z
 _atom_site_occupancy
  Li  Li0  1  0.124166  0.124166  0.124166  1
  Li  Li1  1  0.626414  0.626414  0.626414  1
  Li  Li2  1  0.001909  0.001909  0.001909  1
  Li  Li3  1  0.497729  0.497729  0.497729  1
  Ga  Ga4  1  0.873266  0.873266  0.873266  1
  Ga  Ga5  1  0.749389  0.749389  0.749389  1
  Ga  Ga6  1  0.251584  0.251584  0.251584  1
  Au  Au7  1  0.375545  0.375545  0.375545  1
