# generated using pymatgen
data_YHo3Ir2(PdO7)2
_symmetry_space_group_name_H-M   'P 1'
_cell_length_a   7.24705619
_cell_length_b   7.27841164
_cell_length_c   7.24705571
_cell_angle_alpha   59.87794009
_cell_angle_beta   59.67221560
_cell_angle_gamma   59.87793104
_symmetry_Int_Tables_number   1
_chemical_formula_structural   YHo3Ir2(PdO7)2
_chemical_formula_sum   'Y1 Ho3 Ir2 Pd2 O14'
_cell_volume   269.12723893
_cell_formula_units_Z   1
loop_
 _symmetry_equiv_pos_site_id
 _symmetry_equiv_pos_as_xyz
  1  'x, y, z'
loop_
 _atom_site_type_symbol
 _atom_site_label
 _atom_site_symmetry_multiplicity
 _atom_site_fract_x
 _atom_site_fract_y
 _atom_site_fract_z
 _atom_site_occupancy
  Y  Y0  1  0.125000  0.125000  0.125000  1
  Ho  Ho1  1  0.625000  0.125000  0.125000  1
  Ho  Ho2  1  0.125000  0.625000  0.125000  1
  Ho  Ho3  1  0.125000  0.125000  0.625000  1
  Ir  Ir4  1  0.625000  0.125000  0.625000  1
  Ir  Ir5  1  0.625000  0.625000  0.625000  1
  Pd  Pd6  1  0.125000  0.625000  0.625000  1
  Pd  Pd7  1  0.625000  0.625000  0.125000  1
  O  O8  1  0.711511  0.718275  0.288804  1
  O  O9  1  0.288709  0.281912  0.710443  1
  O  O10  1  0.710060  0.290121  0.710060  1
  O  O11  1  0.281116  0.717899  0.281116  1
  O  O12  1  0.288804  0.718275  0.711511  1
  O  O13  1  0.710443  0.281912  0.288709  1
  O  O14  1  0.538489  0.531725  0.961196  1
  O  O15  1  0.961291  0.968088  0.539557  1
  O  O16  1  0.539940  0.959879  0.539940  1
  O  O17  1  0.968884  0.532101  0.968884  1
  O  O18  1  0.961196  0.531725  0.538489  1
  O  O19  1  0.539557  0.968088  0.961291  1
  O  O20  1  0.250908  0.250282  0.250908  1
  O  O21  1  0.999092  0.999718  0.999092  1
