# generated using pymatgen
data_NaTiIrSe4
_symmetry_space_group_name_H-M   'P 1'
_cell_length_a   3.70721000
_cell_length_b   5.94766848
_cell_length_c   8.05046999
_cell_angle_alpha   66.20154199
_cell_angle_beta   90.00000000
_cell_angle_gamma   90.00000000
_symmetry_Int_Tables_number   1
_chemical_formula_structural   NaTiIrSe4
_chemical_formula_sum   'Na1 Ti1 Ir1 Se4'
_cell_volume   162.41355859
_cell_formula_units_Z   1
loop_
 _symmetry_equiv_pos_site_id
 _symmetry_equiv_pos_as_xyz
  1  'x, y, z'
loop_
 _atom_site_type_symbol
 _atom_site_label
 _atom_site_symmetry_multiplicity
 _atom_site_fract_x
 _atom_site_fract_y
 _atom_site_fract_z
 _atom_site_occupancy
  Na  Na0  1  0.500000  0.616128  0.512581  1
  Ti  Ti1  1  0.500000  0.562821  0.007990  1
  Ir  Ir2  1  0.000000  0.972607  0.991278  1
  Se  Se3  1  0.000000  0.537532  0.231731  1
  Se  Se4  1  0.500000  0.064741  0.167033  1
  Se  Se5  1  0.000000  0.436417  0.822709  1
  Se  Se6  1  0.500000  0.974854  0.771378  1
