# generated using pymatgen
data_CaTaCo4As3
_symmetry_space_group_name_H-M   'P 1'
_cell_length_a   3.78151900
_cell_length_b   10.94363500
_cell_length_c   12.50171100
_cell_angle_alpha   90.00000000
_cell_angle_beta   90.00000000
_cell_angle_gamma   90.00000000
_symmetry_Int_Tables_number   1
_chemical_formula_structural   CaTaCo4As3
_chemical_formula_sum   'Ca4 Ta4 Co16 As12'
_cell_volume   517.36535330
_cell_formula_units_Z   4
loop_
 _symmetry_equiv_pos_site_id
 _symmetry_equiv_pos_as_xyz
  1  'x, y, z'
loop_
 _atom_site_type_symbol
 _atom_site_label
 _atom_site_symmetry_multiplicity
 _atom_site_fract_x
 _atom_site_fract_y
 _atom_site_fract_z
 _atom_site_occupancy
  Ca  Ca0  1  0.250000  0.580969  0.705090  1
  Ca  Ca1  1  0.250000  0.919031  0.205090  1
  Ca  Ca2  1  0.750000  0.419031  0.294910  1
  Ca  Ca3  1  0.750000  0.080969  0.794910  1
  Ta  Ta4  1  0.250000  0.701042  0.990683  1
  Ta  Ta5  1  0.250000  0.798958  0.490683  1
  Ta  Ta6  1  0.750000  0.298958  0.009317  1
  Ta  Ta7  1  0.750000  0.201042  0.509317  1
  Co  Co8  1  0.250000  0.401753  0.489300  1
  Co  Co9  1  0.250000  0.098247  0.989300  1
  Co  Co10  1  0.750000  0.598247  0.510700  1
  Co  Co11  1  0.750000  0.901753  0.010700  1
  Co  Co12  1  0.250000  0.217974  0.172340  1
  Co  Co13  1  0.250000  0.282026  0.672340  1
  Co  Co14  1  0.750000  0.782026  0.827660  1
  Co  Co15  1  0.750000  0.717974  0.327660  1
  Co  Co16  1  0.250000  0.883916  0.697828  1
  Co  Co17  1  0.250000  0.616084  0.197828  1
  Co  Co18  1  0.750000  0.116084  0.302172  1
  Co  Co19  1  0.750000  0.383916  0.802172  1
  Co  Co20  1  0.250000  0.463700  0.936648  1
  Co  Co21  1  0.250000  0.036300  0.436648  1
  Co  Co22  1  0.750000  0.536300  0.063352  1
  Co  Co23  1  0.750000  0.963700  0.563352  1
  As  As24  1  0.250000  0.420995  0.120671  1
  As  As25  1  0.250000  0.079005  0.620671  1
  As  As26  1  0.750000  0.579005  0.879329  1
  As  As27  1  0.750000  0.920995  0.379329  1
  As  As28  1  0.250000  0.266448  0.859191  1
  As  As29  1  0.250000  0.233552  0.359191  1
  As  As30  1  0.750000  0.733552  0.140809  1
  As  As31  1  0.750000  0.766448  0.640809  1
  As  As32  1  0.250000  0.588857  0.389137  1
  As  As33  1  0.250000  0.911143  0.889137  1
  As  As34  1  0.750000  0.411143  0.610863  1
  As  As35  1  0.750000  0.088857  0.110863  1
