# generated using pymatgen
data_NaPr(PuB12)2
_symmetry_space_group_name_H-M   'P 1'
_cell_length_a   7.14958546
_cell_length_b   7.14958699
_cell_length_c   5.84192400
_cell_angle_alpha   90.00000000
_cell_angle_beta   90.00000000
_cell_angle_gamma   109.40369213
_symmetry_Int_Tables_number   1
_chemical_formula_structural   NaPr(PuB12)2
_chemical_formula_sum   'Na1 Pr1 Pu2 B24'
_cell_volume   281.65799750
_cell_formula_units_Z   1
loop_
 _symmetry_equiv_pos_site_id
 _symmetry_equiv_pos_as_xyz
  1  'x, y, z'
loop_
 _atom_site_type_symbol
 _atom_site_label
 _atom_site_symmetry_multiplicity
 _atom_site_fract_x
 _atom_site_fract_y
 _atom_site_fract_z
 _atom_site_occupancy
  Na  Na0  1  0.999785  0.000215  0.000000  1
  Pr  Pr1  1  0.249081  0.750919  0.500000  1
  Pu  Pu2  1  0.750646  0.249354  0.500000  1
  Pu  Pu3  1  0.500435  0.499565  0.000000  1
  B  B4  1  0.175365  0.324825  0.650484  1
  B  B5  1  0.924287  0.574703  0.149569  1
  B  B6  1  0.675175  0.824635  0.650484  1
  B  B7  1  0.425297  0.075713  0.149569  1
  B  B8  1  0.175365  0.324825  0.349516  1
  B  B9  1  0.924287  0.574703  0.850431  1
  B  B10  1  0.675175  0.824635  0.349516  1
  B  B11  1  0.425297  0.075713  0.850431  1
  B  B12  1  0.400365  0.400281  0.500000  1
  B  B13  1  0.148916  0.650378  0.000000  1
  B  B14  1  0.899483  0.899607  0.500000  1
  B  B15  1  0.651067  0.149575  0.000000  1
  B  B16  1  0.325079  0.175756  0.650669  1
  B  B17  1  0.075135  0.424549  0.149323  1
  B  B18  1  0.824244  0.674921  0.650669  1
  B  B19  1  0.575451  0.924865  0.149323  1
  B  B20  1  0.100393  0.100517  0.500000  1
  B  B21  1  0.850425  0.348933  0.000000  1
  B  B22  1  0.599719  0.599635  0.500000  1
  B  B23  1  0.349622  0.851084  0.000000  1
  B  B24  1  0.325079  0.175756  0.349331  1
  B  B25  1  0.075135  0.424549  0.850677  1
  B  B26  1  0.824244  0.674921  0.349331  1
  B  B27  1  0.575451  0.924865  0.850677  1
