# generated using pymatgen
data_Y16Er3ThSn16
_symmetry_space_group_name_H-M   'P 1'
_cell_length_a   8.06081030
_cell_length_b   8.18267726
_cell_length_c   15.48429199
_cell_angle_alpha   90.03314996
_cell_angle_beta   89.67037416
_cell_angle_gamma   89.85897876
_symmetry_Int_Tables_number   1
_chemical_formula_structural   Y16Er3ThSn16
_chemical_formula_sum   'Y16 Er3 Th1 Sn16'
_cell_volume   1021.30838190
_cell_formula_units_Z   1
loop_
 _symmetry_equiv_pos_site_id
 _symmetry_equiv_pos_as_xyz
  1  'x, y, z'
loop_
 _atom_site_type_symbol
 _atom_site_label
 _atom_site_symmetry_multiplicity
 _atom_site_fract_x
 _atom_site_fract_y
 _atom_site_fract_z
 _atom_site_occupancy
  Y  Y0  1  0.366481  0.836499  0.876796  1
  Y  Y1  1  0.868798  0.663603  0.621254  1
  Y  Y2  1  0.630005  0.161902  0.377195  1
  Y  Y3  1  0.133098  0.337394  0.123588  1
  Y  Y4  1  0.633604  0.162327  0.123684  1
  Y  Y5  1  0.131372  0.338604  0.377805  1
  Y  Y6  1  0.370293  0.838435  0.622411  1
  Y  Y7  1  0.866952  0.661395  0.877379  1
  Y  Y8  1  0.523672  0.322380  0.903170  1
  Y  Y9  1  0.026183  0.178423  0.598658  1
  Y  Y10  1  0.476872  0.678014  0.401911  1
  Y  Y11  1  0.978934  0.821435  0.098055  1
  Y  Y12  1  0.478819  0.677759  0.097577  1
  Y  Y13  1  0.976311  0.821875  0.401910  1
  Y  Y14  1  0.522572  0.323458  0.595956  1
  Y  Y15  1  0.198509  0.501490  0.749016  1
  Er  Er16  1  0.698649  0.996415  0.748664  1
  Er  Er17  1  0.800951  0.497296  0.250966  1
  Er  Er18  1  0.301188  0.002727  0.250341  1
  Th  Th19  1  0.016943  0.179359  0.903770  1
  Sn  Sn20  1  0.295272  0.035184  0.042787  1
  Sn  Sn21  1  0.791002  0.463290  0.457811  1
  Sn  Sn22  1  0.710152  0.966859  0.542053  1
  Sn  Sn23  1  0.208310  0.536288  0.958428  1
  Sn  Sn24  1  0.702293  0.958939  0.959347  1
  Sn  Sn25  1  0.208704  0.538223  0.541388  1
  Sn  Sn26  1  0.291139  0.036067  0.458071  1
  Sn  Sn27  1  0.793857  0.461670  0.041859  1
  Sn  Sn28  1  0.565367  0.619852  0.749524  1
  Sn  Sn29  1  0.064582  0.879523  0.750547  1
  Sn  Sn30  1  0.434935  0.381870  0.250132  1
  Sn  Sn31  1  0.935171  0.118751  0.250958  1
  Sn  Sn32  1  0.334863  0.149251  0.749963  1
  Sn  Sn33  1  0.828303  0.353657  0.747439  1
  Sn  Sn34  1  0.668126  0.850313  0.249603  1
  Sn  Sn35  1  0.167717  0.649469  0.249984  1
