# generated using pymatgen
data_Dy3Er(Tm2Co)4
_symmetry_space_group_name_H-M   'P 1'
_cell_length_a   6.18136300
_cell_length_b   6.91529006
_cell_length_c   9.31013300
_cell_angle_alpha   90.00000000
_cell_angle_beta   90.00000000
_cell_angle_gamma   90.03356139
_symmetry_Int_Tables_number   1
_chemical_formula_structural   Dy3Er(Tm2Co)4
_chemical_formula_sum   'Dy3 Er1 Tm8 Co4'
_cell_volume   397.97011500
_cell_formula_units_Z   1
loop_
 _symmetry_equiv_pos_site_id
 _symmetry_equiv_pos_as_xyz
  1  'x, y, z'
loop_
 _atom_site_type_symbol
 _atom_site_label
 _atom_site_symmetry_multiplicity
 _atom_site_fract_x
 _atom_site_fract_y
 _atom_site_fract_z
 _atom_site_occupancy
  Dy  Dy0  1  0.862051  0.541549  0.250000  1
  Dy  Dy1  1  0.638399  0.041413  0.250000  1
  Dy  Dy2  1  0.138828  0.458163  0.750000  1
  Er  Er3  1  0.360991  0.958614  0.750000  1
  Tm  Tm4  1  0.323727  0.675398  0.067777  1
  Tm  Tm5  1  0.176427  0.174447  0.432341  1
  Tm  Tm6  1  0.676231  0.324764  0.568163  1
  Tm  Tm7  1  0.823197  0.825313  0.931575  1
  Tm  Tm8  1  0.676231  0.324764  0.931837  1
  Tm  Tm9  1  0.823197  0.825313  0.568425  1
  Tm  Tm10  1  0.323727  0.675398  0.432223  1
  Tm  Tm11  1  0.176427  0.174447  0.067659  1
  Co  Co12  1  0.050712  0.886682  0.250000  1
  Co  Co13  1  0.449320  0.386806  0.250000  1
  Co  Co14  1  0.950635  0.113002  0.750000  1
  Co  Co15  1  0.549902  0.613927  0.750000  1
