# generated using pymatgen
data_SrEu(BiPt)2
_symmetry_space_group_name_H-M   'P 1'
_cell_length_a   4.83503600
_cell_length_b   7.76426220
_cell_length_c   8.28362342
_cell_angle_alpha   90.33577639
_cell_angle_beta   90.00000000
_cell_angle_gamma   90.00000000
_symmetry_Int_Tables_number   1
_chemical_formula_structural   SrEu(BiPt)2
_chemical_formula_sum   'Sr2 Eu2 Bi4 Pt4'
_cell_volume   310.96591938
_cell_formula_units_Z   2
loop_
 _symmetry_equiv_pos_site_id
 _symmetry_equiv_pos_as_xyz
  1  'x, y, z'
loop_
 _atom_site_type_symbol
 _atom_site_label
 _atom_site_symmetry_multiplicity
 _atom_site_fract_x
 _atom_site_fract_y
 _atom_site_fract_z
 _atom_site_occupancy
  Sr  Sr0  1  0.250000  0.487879  0.802914  1
  Sr  Sr1  1  0.750000  0.512121  0.197086  1
  Eu  Eu2  1  0.750000  0.010352  0.305721  1
  Eu  Eu3  1  0.250000  0.989648  0.694279  1
  Bi  Bi4  1  0.750000  0.682475  0.589554  1
  Bi  Bi5  1  0.250000  0.317525  0.410446  1
  Bi  Bi6  1  0.250000  0.821854  0.088800  1
  Bi  Bi7  1  0.750000  0.178146  0.911200  1
  Pt  Pt8  1  0.750000  0.804447  0.912354  1
  Pt  Pt9  1  0.250000  0.195553  0.087646  1
  Pt  Pt10  1  0.250000  0.711940  0.417352  1
  Pt  Pt11  1  0.750000  0.288060  0.582648  1
