# generated using pymatgen
data_ErTm7Ti9Si16W3
_symmetry_space_group_name_H-M   'P 1'
_cell_length_a   6.95788313
_cell_length_b   6.95826178
_cell_length_c   12.79666603
_cell_angle_alpha   90.00349458
_cell_angle_beta   89.98578264
_cell_angle_gamma   89.95805597
_symmetry_Int_Tables_number   1
_chemical_formula_structural   ErTm7Ti9Si16W3
_chemical_formula_sum   'Er1 Tm7 Ti9 Si16 W3'
_cell_volume   619.54748497
_cell_formula_units_Z   1
loop_
 _symmetry_equiv_pos_site_id
 _symmetry_equiv_pos_as_xyz
  1  'x, y, z'
loop_
 _atom_site_type_symbol
 _atom_site_label
 _atom_site_symmetry_multiplicity
 _atom_site_fract_x
 _atom_site_fract_y
 _atom_site_fract_z
 _atom_site_occupancy
  Er  Er0  1  0.999530  0.659212  0.032837  1
  Tm  Tm1  1  0.340790  0.001880  0.466686  1
  Tm  Tm2  1  0.498777  0.842147  0.718149  1
  Tm  Tm3  1  0.500060  0.158072  0.216724  1
  Tm  Tm4  1  0.842145  0.498780  0.281890  1
  Tm  Tm5  1  0.158156  0.500058  0.783218  1
  Tm  Tm6  1  0.658964  0.999855  0.967095  1
  Tm  Tm7  1  0.001899  0.340790  0.533316  1
  Ti  Ti8  1  0.672395  0.672399  0.500017  1
  Ti  Ti9  1  0.152020  0.008100  0.875656  1
  Ti  Ti10  1  0.491840  0.652464  0.124796  1
  Ti  Ti11  1  0.506924  0.347178  0.626765  1
  Ti  Ti12  1  0.652384  0.491807  0.875169  1
  Ti  Ti13  1  0.347202  0.506963  0.373238  1
  Ti  Ti14  1  0.849125  0.992578  0.374402  1
  Ti  Ti15  1  0.008087  0.152012  0.124300  1
  Ti  Ti16  1  0.992551  0.849099  0.625591  1
  Si  Si17  1  0.202416  0.131377  0.683344  1
  Si  Si18  1  0.368538  0.701418  0.933267  1
  Si  Si19  1  0.631872  0.297063  0.433379  1
  Si  Si20  1  0.701186  0.368065  0.066653  1
  Si  Si21  1  0.297064  0.631890  0.566666  1
  Si  Si22  1  0.797973  0.868550  0.183855  1
  Si  Si23  1  0.131419  0.202407  0.316641  1
  Si  Si24  1  0.868320  0.798235  0.816224  1
  Si  Si25  1  0.292975  0.953632  0.064971  1
  Si  Si26  1  0.545816  0.791898  0.314935  1
  Si  Si27  1  0.453173  0.207706  0.815355  1
  Si  Si28  1  0.791859  0.545859  0.685051  1
  Si  Si29  1  0.207862  0.453002  0.184750  1
  Si  Si30  1  0.706987  0.047815  0.565921  1
  Si  Si31  1  0.953412  0.292487  0.934938  1
  Si  Si32  1  0.047819  0.706991  0.434106  1
  W  W33  1  0.327395  0.327135  0.999987  1
  W  W34  1  0.173494  0.827658  0.249375  1
  W  W35  1  0.827570  0.173420  0.750735  1
