# generated using pymatgen
data_Sc12Ti4Co7Cu
_symmetry_space_group_name_H-M   'P 1'
_cell_length_a   8.35552535
_cell_length_b   8.42513079
_cell_length_c   8.42513100
_cell_angle_alpha   60.00000311
_cell_angle_beta   59.72404872
_cell_angle_gamma   59.72405812
_symmetry_Int_Tables_number   1
_chemical_formula_structural   Sc12Ti4Co7Cu
_chemical_formula_sum   'Sc12 Ti4 Co7 Cu1'
_cell_volume   417.62647890
_cell_formula_units_Z   1
loop_
 _symmetry_equiv_pos_site_id
 _symmetry_equiv_pos_as_xyz
  1  'x, y, z'
loop_
 _atom_site_type_symbol
 _atom_site_label
 _atom_site_symmetry_multiplicity
 _atom_site_fract_x
 _atom_site_fract_y
 _atom_site_fract_z
 _atom_site_occupancy
  Sc  Sc0  1  0.808077  0.811905  0.190009  1
  Sc  Sc1  1  0.187839  0.189375  0.811393  1
  Sc  Sc2  1  0.808077  0.190009  0.811905  1
  Sc  Sc3  1  0.187839  0.811393  0.189375  1
  Sc  Sc4  1  0.187839  0.811393  0.811393  1
  Sc  Sc5  1  0.808077  0.190009  0.190009  1
  Sc  Sc6  1  0.439579  0.439254  0.060584  1
  Sc  Sc7  1  0.064958  0.052411  0.441316  1
  Sc  Sc8  1  0.439579  0.060584  0.439254  1
  Sc  Sc9  1  0.064958  0.441316  0.052411  1
  Sc  Sc10  1  0.064958  0.441316  0.441316  1
  Sc  Sc11  1  0.439579  0.060584  0.060584  1
  Ti  Ti12  1  0.130537  0.623154  0.623154  1
  Ti  Ti13  1  0.622140  0.113928  0.631966  1
  Ti  Ti14  1  0.622140  0.631966  0.113928  1
  Ti  Ti15  1  0.622140  0.631966  0.631966  1
  Co  Co16  1  0.420258  0.741781  0.418981  1
  Co  Co17  1  0.420258  0.418981  0.741781  1
  Co  Co18  1  0.420258  0.418981  0.418981  1
  Co  Co19  1  0.507089  0.830970  0.830970  1
  Co  Co20  1  0.832972  0.507444  0.829792  1
  Co  Co21  1  0.832972  0.829792  0.507444  1
  Co  Co22  1  0.832972  0.829792  0.829792  1
  Cu  Cu23  1  0.734908  0.421697  0.421697  1
