# generated using pymatgen
data_Er8Tc3B24Ru
_symmetry_space_group_name_H-M   'P 1'
_cell_length_a   3.65170100
_cell_length_b   9.10977627
_cell_length_c   11.48512784
_cell_angle_alpha   89.91926646
_cell_angle_beta   90.00000000
_cell_angle_gamma   90.00000000
_symmetry_Int_Tables_number   1
_chemical_formula_structural   Er8Tc3B24Ru
_chemical_formula_sum   'Er8 Tc3 B24 Ru1'
_cell_volume   382.06594056
_cell_formula_units_Z   1
loop_
 _symmetry_equiv_pos_site_id
 _symmetry_equiv_pos_as_xyz
  1  'x, y, z'
loop_
 _atom_site_type_symbol
 _atom_site_label
 _atom_site_symmetry_multiplicity
 _atom_site_fract_x
 _atom_site_fract_y
 _atom_site_fract_z
 _atom_site_occupancy
  Er  Er0  1  0.000000  0.323825  0.413905  1
  Er  Er1  1  0.000000  0.674971  0.584161  1
  Er  Er2  1  0.000000  0.823163  0.087390  1
  Er  Er3  1  0.000000  0.177766  0.914351  1
  Er  Er4  1  0.000000  0.942989  0.370514  1
  Er  Er5  1  0.000000  0.057346  0.630351  1
  Er  Er6  1  0.000000  0.443460  0.129813  1
  Er  Er7  1  0.000000  0.557502  0.869491  1
  Tc  Tc8  1  0.000000  0.638507  0.320603  1
  Tc  Tc9  1  0.000000  0.361524  0.680117  1
  Tc  Tc10  1  0.000000  0.138064  0.178173  1
  B  B11  1  0.500000  0.552943  0.433137  1
  B  B12  1  0.500000  0.446777  0.566607  1
  B  B13  1  0.500000  0.052901  0.066486  1
  B  B14  1  0.500000  0.946154  0.932999  1
  B  B15  1  0.500000  0.748944  0.419275  1
  B  B16  1  0.500000  0.250434  0.580927  1
  B  B17  1  0.500000  0.249568  0.080676  1
  B  B18  1  0.500000  0.751104  0.918896  1
  B  B19  1  0.500000  0.792485  0.265590  1
  B  B20  1  0.500000  0.207704  0.735180  1
  B  B21  1  0.500000  0.292450  0.234615  1
  B  B22  1  0.500000  0.708547  0.765206  1
  B  B23  1  0.500000  0.631420  0.185218  1
  B  B24  1  0.500000  0.368712  0.815423  1
  B  B25  1  0.500000  0.130835  0.314420  1
  B  B26  1  0.500000  0.868506  0.685290  1
  B  B27  1  0.500000  0.981597  0.211935  1
  B  B28  1  0.500000  0.016840  0.788156  1
  B  B29  1  0.500000  0.481916  0.287844  1
  B  B30  1  0.500000  0.517979  0.711860  1
  B  B31  1  0.500000  0.602692  0.028175  1
  B  B32  1  0.500000  0.399136  0.971578  1
  B  B33  1  0.500000  0.102033  0.471937  1
  B  B34  1  0.500000  0.897822  0.528819  1
  Ru  Ru35  1  0.000000  0.861384  0.820880  1
