# generated using pymatgen
data_La9DySi5Ag
_symmetry_space_group_name_H-M   'P 1'
_cell_length_a   7.81492027
_cell_length_b   7.81492167
_cell_length_c   9.11013400
_cell_angle_alpha   115.39864080
_cell_angle_beta   115.39863756
_cell_angle_gamma   89.99999813
_symmetry_Int_Tables_number   1
_chemical_formula_structural   La9DySi5Ag
_chemical_formula_sum   'La9 Dy1 Si5 Ag1'
_cell_volume   442.33897156
_cell_formula_units_Z   1
loop_
 _symmetry_equiv_pos_site_id
 _symmetry_equiv_pos_as_xyz
  1  'x, y, z'
loop_
 _atom_site_type_symbol
 _atom_site_label
 _atom_site_symmetry_multiplicity
 _atom_site_fract_x
 _atom_site_fract_y
 _atom_site_fract_z
 _atom_site_occupancy
  La  La0  1  0.020475  0.020475  0.040950  1
  La  La1  1  0.965538  0.821284  0.287270  1
  La  La2  1  0.321730  0.465986  0.287270  1
  La  La3  1  0.821284  0.321730  0.287270  1
  La  La4  1  0.465986  0.965538  0.287270  1
  La  La5  1  0.034746  0.177740  0.711043  1
  La  La6  1  0.676298  0.533303  0.711043  1
  La  La7  1  0.177740  0.676298  0.711043  1
  La  La8  1  0.533303  0.034746  0.711043  1
  Dy  Dy9  1  0.486210  0.486210  0.972421  1
  Si  Si10  1  0.254328  0.254328  0.508656  1
  Si  Si11  1  0.610823  0.881089  0.997425  1
  Si  Si12  1  0.386603  0.116336  0.997425  1
  Si  Si13  1  0.881089  0.386603  0.997425  1
  Si  Si14  1  0.116336  0.610823  0.997425  1
  Ag  Ag15  1  0.747511  0.747511  0.495022  1
