# generated using pymatgen
data_SrCaAu4(SO4)8
_symmetry_space_group_name_H-M   'P 1'
_cell_length_a   9.33016591
_cell_length_b   9.33016502
_cell_length_c   10.53160754
_cell_angle_alpha   76.73818613
_cell_angle_beta   76.73818928
_cell_angle_gamma   115.54032794
_symmetry_Int_Tables_number   1
_chemical_formula_structural   SrCaAu4(SO4)8
_chemical_formula_sum   'Sr1 Ca1 Au4 S8 O32'
_cell_volume   746.77362514
_cell_formula_units_Z   1
loop_
 _symmetry_equiv_pos_site_id
 _symmetry_equiv_pos_as_xyz
  1  'x, y, z'
loop_
 _atom_site_type_symbol
 _atom_site_label
 _atom_site_symmetry_multiplicity
 _atom_site_fract_x
 _atom_site_fract_y
 _atom_site_fract_z
 _atom_site_occupancy
  Sr  Sr0  1  0.870235  0.129765  0.750000  1
  Ca  Ca1  1  0.127812  0.872188  0.250000  1
  Au  Au2  1  0.498426  0.499916  0.005217  1
  Au  Au3  1  0.500084  0.501574  0.494783  1
  Au  Au4  1  0.996429  0.493865  0.006046  1
  Au  Au5  1  0.506135  0.003571  0.493954  1
  S  S6  1  0.853441  0.739972  0.003534  1
  S  S7  1  0.260028  0.146559  0.496466  1
  S  S8  1  0.145836  0.253136  0.005499  1
  S  S9  1  0.746864  0.854164  0.494501  1
  S  S10  1  0.622556  0.231748  0.038436  1
  S  S11  1  0.768252  0.377444  0.461564  1
  S  S12  1  0.366478  0.763446  0.973755  1
  S  S13  1  0.236554  0.633522  0.526245  1
  O  O14  1  0.668539  0.593949  0.099219  1
  O  O15  1  0.406051  0.331461  0.400781  1
  O  O16  1  0.329233  0.403464  0.911476  1
  O  O17  1  0.596536  0.670767  0.588524  1
  O  O18  1  0.940380  0.668930  0.913215  1
  O  O19  1  0.331070  0.059620  0.586785  1
  O  O20  1  0.053951  0.318394  0.098127  1
  O  O21  1  0.681606  0.946049  0.401873  1
  O  O22  1  0.847754  0.867841  0.900011  1
  O  O23  1  0.132159  0.152246  0.599989  1
  O  O24  1  0.153664  0.123865  0.106052  1
  O  O25  1  0.876135  0.846336  0.393948  1
  O  O26  1  0.936637  0.792222  0.098199  1
  O  O27  1  0.207778  0.063363  0.401801  1
  O  O28  1  0.065718  0.203755  0.908300  1
  O  O29  1  0.796245  0.934282  0.591700  1
  O  O30  1  0.742656  0.316193  0.111159  1
  O  O31  1  0.683807  0.257344  0.388841  1
  O  O32  1  0.248683  0.674909  0.900646  1
  O  O33  1  0.325091  0.751317  0.599354  1
  O  O34  1  0.607708  0.369624  0.937691  1
  O  O35  1  0.630376  0.392292  0.562309  1
  O  O36  1  0.388353  0.630383  0.072588  1
  O  O37  1  0.369617  0.611647  0.427412  1
  O  O38  1  0.460737  0.106192  0.152954  1
  O  O39  1  0.893808  0.539263  0.347046  1
  O  O40  1  0.526002  0.892708  0.858173  1
  O  O41  1  0.107292  0.473998  0.641827  1
  O  O42  1  0.699623  0.170447  0.944681  1
  O  O43  1  0.829553  0.300377  0.555319  1
  O  O44  1  0.284814  0.820705  0.068889  1
  O  O45  1  0.179295  0.715186  0.431111  1
