# generated using pymatgen
data_Dy4Tm16Bi11Sb
_symmetry_space_group_name_H-M   'P 1'
_cell_length_a   8.17038024
_cell_length_b   9.41512900
_cell_length_c   11.90640334
_cell_angle_alpha   90.00000000
_cell_angle_beta   90.02743760
_cell_angle_gamma   90.00000000
_symmetry_Int_Tables_number   1
_chemical_formula_structural   Dy4Tm16Bi11Sb
_chemical_formula_sum   'Dy4 Tm16 Bi11 Sb1'
_cell_volume   915.90216141
_cell_formula_units_Z   1
loop_
 _symmetry_equiv_pos_site_id
 _symmetry_equiv_pos_as_xyz
  1  'x, y, z'
loop_
 _atom_site_type_symbol
 _atom_site_label
 _atom_site_symmetry_multiplicity
 _atom_site_fract_x
 _atom_site_fract_y
 _atom_site_fract_z
 _atom_site_occupancy
  Dy  Dy0  1  0.312776  0.250000  0.217998  1
  Dy  Dy1  1  0.812752  0.250000  0.282042  1
  Dy  Dy2  1  0.683200  0.750000  0.784511  1
  Dy  Dy3  1  0.188826  0.750000  0.719691  1
  Tm  Tm4  1  0.353339  0.750000  0.214021  1
  Tm  Tm5  1  0.852660  0.750000  0.282552  1
  Tm  Tm6  1  0.647494  0.250000  0.782734  1
  Tm  Tm7  1  0.147524  0.250000  0.717372  1
  Tm  Tm8  1  0.689544  0.568277  0.058437  1
  Tm  Tm9  1  0.192407  0.933751  0.440224  1
  Tm  Tm10  1  0.308888  0.062225  0.940589  1
  Tm  Tm11  1  0.807583  0.433951  0.559664  1
  Tm  Tm12  1  0.308888  0.437775  0.940589  1
  Tm  Tm13  1  0.807583  0.066049  0.559664  1
  Tm  Tm14  1  0.689544  0.931723  0.058437  1
  Tm  Tm15  1  0.192407  0.566249  0.440224  1
  Tm  Tm16  1  0.476008  0.250000  0.488702  1
  Tm  Tm17  1  0.976649  0.250000  0.011164  1
  Tm  Tm18  1  0.523985  0.750000  0.511389  1
  Tm  Tm19  1  0.027807  0.750000  0.988482  1
  Bi  Bi20  1  0.905155  0.750000  0.541863  1
  Bi  Bi21  1  0.595249  0.250000  0.041519  1
  Bi  Bi22  1  0.095080  0.250000  0.458490  1
  Bi  Bi23  1  0.565389  0.994621  0.325746  1
  Bi  Bi24  1  0.065272  0.505154  0.174153  1
  Bi  Bi25  1  0.434608  0.494629  0.674205  1
  Bi  Bi26  1  0.934391  0.005056  0.825796  1
  Bi  Bi27  1  0.434608  0.005371  0.674205  1
  Bi  Bi28  1  0.934391  0.494944  0.825796  1
  Bi  Bi29  1  0.565389  0.505379  0.325746  1
  Bi  Bi30  1  0.065272  0.994846  0.174153  1
  Sb  Sb31  1  0.405335  0.750000  0.959845  1
