# generated using pymatgen
data_Tb6NbCo17P12
_symmetry_space_group_name_H-M   'P 1'
_cell_length_a   3.71060700
_cell_length_b   10.57823900
_cell_length_c   12.28891800
_cell_angle_alpha   90.00000000
_cell_angle_beta   90.00000000
_cell_angle_gamma   90.00000000
_symmetry_Int_Tables_number   1
_chemical_formula_structural   Tb6NbCo17P12
_chemical_formula_sum   'Tb6 Nb1 Co17 P12'
_cell_volume   482.36077127
_cell_formula_units_Z   1
loop_
 _symmetry_equiv_pos_site_id
 _symmetry_equiv_pos_as_xyz
  1  'x, y, z'
loop_
 _atom_site_type_symbol
 _atom_site_label
 _atom_site_symmetry_multiplicity
 _atom_site_fract_x
 _atom_site_fract_y
 _atom_site_fract_z
 _atom_site_occupancy
  Tb  Tb0  1  0.000000  0.500000  0.526129  1
  Tb  Tb1  1  0.500000  0.000000  0.478142  1
  Tb  Tb2  1  0.500000  0.819672  0.206967  1
  Tb  Tb3  1  0.500000  0.180328  0.206967  1
  Tb  Tb4  1  0.000000  0.682858  0.795723  1
  Tb  Tb5  1  0.000000  0.317142  0.795723  1
  Nb  Nb6  1  0.500000  0.500000  0.154341  1
  Co  Co7  1  0.000000  0.000000  0.839527  1
  Co  Co8  1  0.500000  0.500000  0.702189  1
  Co  Co9  1  0.000000  0.000000  0.296385  1
  Co  Co10  1  0.000000  0.500000  0.984557  1
  Co  Co11  1  0.500000  0.000000  0.013999  1
  Co  Co12  1  0.500000  0.329897  0.989981  1
  Co  Co13  1  0.500000  0.670103  0.989981  1
  Co  Co14  1  0.000000  0.163846  0.004189  1
  Co  Co15  1  0.000000  0.836154  0.004189  1
  Co  Co16  1  0.500000  0.295405  0.432405  1
  Co  Co17  1  0.500000  0.704595  0.432405  1
  Co  Co18  1  0.000000  0.202700  0.569622  1
  Co  Co19  1  0.000000  0.797300  0.569622  1
  Co  Co20  1  0.500000  0.879943  0.708735  1
  Co  Co21  1  0.500000  0.120057  0.708735  1
  Co  Co22  1  0.000000  0.622498  0.294096  1
  Co  Co23  1  0.000000  0.377502  0.294096  1
  P  P24  1  0.500000  0.500000  0.881483  1
  P  P25  1  0.000000  0.000000  0.116562  1
  P  P26  1  0.500000  0.500000  0.354743  1
  P  P27  1  0.000000  0.000000  0.656887  1
  P  P28  1  0.500000  0.309174  0.616641  1
  P  P29  1  0.500000  0.690826  0.616641  1
  P  P30  1  0.000000  0.188962  0.385812  1
  P  P31  1  0.000000  0.811038  0.385812  1
  P  P32  1  0.500000  0.851093  0.890802  1
  P  P33  1  0.500000  0.148907  0.890802  1
  P  P34  1  0.000000  0.660581  0.102558  1
  P  P35  1  0.000000  0.339419  0.102558  1
