# generated using pymatgen
data_Sm10In3Hg5Rh4
_symmetry_space_group_name_H-M   'P 1'
_cell_length_a   8.03606115
_cell_length_b   18.41320448
_cell_length_c   3.73054400
_cell_angle_alpha   90.00000000
_cell_angle_beta   90.00000000
_cell_angle_gamma   89.87117292
_symmetry_Int_Tables_number   1
_chemical_formula_structural   Sm10In3Hg5Rh4
_chemical_formula_sum   'Sm10 In3 Hg5 Rh4'
_cell_volume   552.00584656
_cell_formula_units_Z   1
loop_
 _symmetry_equiv_pos_site_id
 _symmetry_equiv_pos_as_xyz
  1  'x, y, z'
loop_
 _atom_site_type_symbol
 _atom_site_label
 _atom_site_symmetry_multiplicity
 _atom_site_fract_x
 _atom_site_fract_y
 _atom_site_fract_z
 _atom_site_occupancy
  Sm  Sm0  1  0.497387  0.500307  0.000000  1
  Sm  Sm1  1  0.999583  0.000356  0.000000  1
  Sm  Sm2  1  0.750218  0.282712  0.000000  1
  Sm  Sm3  1  0.256828  0.715645  0.000000  1
  Sm  Sm4  1  0.748425  0.779991  0.000000  1
  Sm  Sm5  1  0.251409  0.218313  0.000000  1
  Sm  Sm6  1  0.612406  0.087248  0.000000  1
  Sm  Sm7  1  0.387178  0.913465  0.000000  1
  Sm  Sm8  1  0.886229  0.588684  0.000000  1
  Sm  Sm9  1  0.110035  0.413307  0.000000  1
  In  In10  1  0.423149  0.349689  0.500000  1
  In  In11  1  0.923737  0.151082  0.500000  1
  In  In12  1  0.075365  0.847891  0.500000  1
  Hg  Hg13  1  0.713086  0.933080  0.500000  1
  Hg  Hg14  1  0.287307  0.066284  0.500000  1
  Hg  Hg15  1  0.785344  0.435717  0.500000  1
  Hg  Hg16  1  0.206959  0.564700  0.500000  1
  Hg  Hg17  1  0.576915  0.648237  0.500000  1
  Rh  Rh18  1  0.541885  0.198991  0.500000  1
  Rh  Rh19  1  0.457232  0.803562  0.500000  1
  Rh  Rh20  1  0.967918  0.698602  0.500000  1
  Rh  Rh21  1  0.041404  0.302138  0.500000  1
