# generated using pymatgen
data_Ce4CuSi8Pt7
_symmetry_space_group_name_H-M   'P 1'
_cell_length_a   4.23125620
_cell_length_b   8.49862573
_cell_length_c   9.85372051
_cell_angle_alpha   89.97092253
_cell_angle_beta   89.96624903
_cell_angle_gamma   90.00814545
_symmetry_Int_Tables_number   1
_chemical_formula_structural   Ce4CuSi8Pt7
_chemical_formula_sum   'Ce4 Cu1 Si8 Pt7'
_cell_volume   354.33832726
_cell_formula_units_Z   1
loop_
 _symmetry_equiv_pos_site_id
 _symmetry_equiv_pos_as_xyz
  1  'x, y, z'
loop_
 _atom_site_type_symbol
 _atom_site_label
 _atom_site_symmetry_multiplicity
 _atom_site_fract_x
 _atom_site_fract_y
 _atom_site_fract_z
 _atom_site_occupancy
  Ce  Ce0  1  0.751917  0.625463  0.753622  1
  Ce  Ce1  1  0.749441  0.125240  0.752276  1
  Ce  Ce2  1  0.251538  0.877178  0.247499  1
  Ce  Ce3  1  0.248190  0.371942  0.247041  1
  Cu  Cu4  1  0.236937  0.127374  0.501016  1
  Si  Si5  1  0.747259  0.374472  0.000909  1
  Si  Si6  1  0.740449  0.124019  0.370284  1
  Si  Si7  1  0.257588  0.880236  0.631514  1
  Si  Si8  1  0.252679  0.625204  0.998913  1
  Si  Si9  1  0.753487  0.875200  0.000620  1
  Si  Si10  1  0.245773  0.371857  0.632563  1
  Si  Si11  1  0.248792  0.124842  0.999334  1
  Si  Si12  1  0.754165  0.624207  0.365302  1
  Pt  Pt13  1  0.247937  0.374913  0.878488  1
  Pt  Pt14  1  0.752137  0.624905  0.121086  1
  Pt  Pt15  1  0.759690  0.872024  0.499785  1
  Pt  Pt16  1  0.744851  0.376195  0.499841  1
  Pt  Pt17  1  0.748987  0.124636  0.122411  1
  Pt  Pt18  1  0.255025  0.624846  0.499628  1
  Pt  Pt19  1  0.253159  0.875247  0.877871  1
