# generated using pymatgen
data_NbSb8W3Se4
_symmetry_space_group_name_H-M   'P 1'
_cell_length_a   6.67573000
_cell_length_b   6.63486555
_cell_length_c   18.81649199
_cell_angle_alpha   86.15331297
_cell_angle_beta   90.00000000
_cell_angle_gamma   90.00000000
_symmetry_Int_Tables_number   1
_chemical_formula_structural   NbSb8W3Se4
_chemical_formula_sum   'Nb2 Sb16 W6 Se8'
_cell_volume   831.55319983
_cell_formula_units_Z   2
loop_
 _symmetry_equiv_pos_site_id
 _symmetry_equiv_pos_as_xyz
  1  'x, y, z'
loop_
 _atom_site_type_symbol
 _atom_site_label
 _atom_site_symmetry_multiplicity
 _atom_site_fract_x
 _atom_site_fract_y
 _atom_site_fract_z
 _atom_site_occupancy
  Nb  Nb0  1  0.875320  0.669206  0.493231  1
  Nb  Nb1  1  0.375320  0.330794  0.006769  1
  Sb  Sb2  1  0.404394  0.201262  0.274461  1
  Sb  Sb3  1  0.904394  0.798738  0.225539  1
  Sb  Sb4  1  0.594788  0.798529  0.725577  1
  Sb  Sb5  1  0.094788  0.201471  0.774423  1
  Sb  Sb6  1  0.846253  0.207104  0.273640  1
  Sb  Sb7  1  0.346253  0.792896  0.226360  1
  Sb  Sb8  1  0.154858  0.797828  0.725705  1
  Sb  Sb9  1  0.654858  0.202172  0.774295  1
  Sb  Sb10  1  0.376087  0.074634  0.426720  1
  Sb  Sb11  1  0.876087  0.925366  0.073280  1
  Sb  Sb12  1  0.622393  0.927178  0.574260  1
  Sb  Sb13  1  0.122393  0.072822  0.925740  1
  Sb  Sb14  1  0.874138  0.079659  0.425251  1
  Sb  Sb15  1  0.374138  0.920341  0.074749  1
  Sb  Sb16  1  0.127243  0.927253  0.574373  1
  Sb  Sb17  1  0.627243  0.072747  0.925627  1
  W  W18  1  0.127105  0.330536  0.506295  1
  W  W19  1  0.627105  0.669464  0.993705  1
  W  W20  1  0.622778  0.330534  0.506540  1
  W  W21  1  0.122778  0.669466  0.993460  1
  W  W22  1  0.374856  0.667628  0.493329  1
  W  W23  1  0.874856  0.332372  0.006671  1
  Se  Se24  1  0.875001  0.400292  0.601577  1
  Se  Se25  1  0.375001  0.599708  0.898423  1
  Se  Se26  1  0.129075  0.585925  0.397742  1
  Se  Se27  1  0.629075  0.414075  0.102258  1
  Se  Se28  1  0.621062  0.586056  0.397883  1
  Se  Se29  1  0.121062  0.413944  0.102117  1
  Se  Se30  1  0.374647  0.412940  0.601059  1
  Se  Se31  1  0.874647  0.587060  0.898941  1
