# generated using pymatgen
data_LiMn4AlPd10
_symmetry_space_group_name_H-M   'P 1'
_cell_length_a   4.10755200
_cell_length_b   5.41660289
_cell_length_c   10.65022156
_cell_angle_alpha   90.11773074
_cell_angle_beta   90.00000000
_cell_angle_gamma   90.00000000
_symmetry_Int_Tables_number   1
_chemical_formula_structural   LiMn4AlPd10
_chemical_formula_sum   'Li1 Mn4 Al1 Pd10'
_cell_volume   236.95604531
_cell_formula_units_Z   1
loop_
 _symmetry_equiv_pos_site_id
 _symmetry_equiv_pos_as_xyz
  1  'x, y, z'
loop_
 _atom_site_type_symbol
 _atom_site_label
 _atom_site_symmetry_multiplicity
 _atom_site_fract_x
 _atom_site_fract_y
 _atom_site_fract_z
 _atom_site_occupancy
  Li  Li0  1  0.000000  0.000000  0.000000  1
  Mn  Mn1  1  0.500000  0.178163  0.360055  1
  Mn  Mn2  1  0.500000  0.821837  0.639945  1
  Mn  Mn3  1  0.500000  0.682406  0.133932  1
  Mn  Mn4  1  0.500000  0.317594  0.866068  1
  Al  Al5  1  0.000000  0.500000  0.500000  1
  Pd  Pd6  1  0.500000  0.187174  0.110662  1
  Pd  Pd7  1  0.500000  0.812826  0.889338  1
  Pd  Pd8  1  0.500000  0.684453  0.392019  1
  Pd  Pd9  1  0.500000  0.315547  0.607981  1
  Pd  Pd10  1  0.000000  0.000000  0.500000  1
  Pd  Pd11  1  0.000000  0.500000  0.000000  1
  Pd  Pd12  1  0.000000  0.919787  0.241467  1
  Pd  Pd13  1  0.000000  0.080213  0.758533  1
  Pd  Pd14  1  0.000000  0.420796  0.259001  1
  Pd  Pd15  1  0.000000  0.579204  0.740999  1
