# generated using pymatgen
data_Co4B4MoW3
_symmetry_space_group_name_H-M   'P 1'
_cell_length_a   3.26134500
_cell_length_b   5.74571368
_cell_length_c   6.62903820
_cell_angle_alpha   89.93776996
_cell_angle_beta   90.00000000
_cell_angle_gamma   90.00000000
_symmetry_Int_Tables_number   1
_chemical_formula_structural   Co4B4MoW3
_chemical_formula_sum   'Co4 B4 Mo1 W3'
_cell_volume   124.21984653
_cell_formula_units_Z   1
loop_
 _symmetry_equiv_pos_site_id
 _symmetry_equiv_pos_as_xyz
  1  'x, y, z'
loop_
 _atom_site_type_symbol
 _atom_site_label
 _atom_site_symmetry_multiplicity
 _atom_site_fract_x
 _atom_site_fract_y
 _atom_site_fract_z
 _atom_site_occupancy
  Co  Co0  1  0.750000  0.857196  0.558494  1
  Co  Co1  1  0.250000  0.143021  0.442700  1
  Co  Co2  1  0.750000  0.357026  0.941758  1
  Co  Co3  1  0.250000  0.642886  0.057634  1
  B  B4  1  0.250000  0.769225  0.374616  1
  B  B5  1  0.750000  0.229983  0.624895  1
  B  B6  1  0.250000  0.270855  0.125861  1
  B  B7  1  0.750000  0.729960  0.874243  1
  Mo  Mo8  1  0.750000  0.972424  0.174727  1
  W  W9  1  0.250000  0.527353  0.674621  1
  W  W10  1  0.750000  0.472444  0.324871  1
  W  W11  1  0.250000  0.027627  0.825580  1
