# generated using pymatgen
data_Sm2HoEr7Pt8
_symmetry_space_group_name_H-M   'P 1'
_cell_length_a   7.46544901
_cell_length_b   7.54198957
_cell_length_c   14.74929300
_cell_angle_alpha   90.01107470
_cell_angle_beta   90.02853148
_cell_angle_gamma   89.97865900
_symmetry_Int_Tables_number   1
_chemical_formula_structural   Sm2HoEr7Pt8
_chemical_formula_sum   'Sm4 Ho2 Er14 Pt16'
_cell_volume   830.44901104
_cell_formula_units_Z   2
loop_
 _symmetry_equiv_pos_site_id
 _symmetry_equiv_pos_as_xyz
  1  'x, y, z'
loop_
 _atom_site_type_symbol
 _atom_site_label
 _atom_site_symmetry_multiplicity
 _atom_site_fract_x
 _atom_site_fract_y
 _atom_site_fract_z
 _atom_site_occupancy
  Sm  Sm0  1  0.501315  0.322274  0.092592  1
  Sm  Sm1  1  0.000995  0.177778  0.407477  1
  Sm  Sm2  1  0.501269  0.322462  0.407391  1
  Sm  Sm3  1  0.001184  0.177232  0.092308  1
  Ho  Ho4  1  0.500009  0.680110  0.906680  1
  Ho  Ho5  1  0.999986  0.819759  0.593391  1
  Er  Er6  1  0.654811  0.167344  0.623072  1
  Er  Er7  1  0.154964  0.332761  0.876918  1
  Er  Er8  1  0.345969  0.831599  0.122316  1
  Er  Er9  1  0.846110  0.668104  0.377640  1
  Er  Er10  1  0.346349  0.831632  0.377795  1
  Er  Er11  1  0.846384  0.668496  0.122211  1
  Er  Er12  1  0.655162  0.167310  0.877034  1
  Er  Er13  1  0.155015  0.333080  0.623016  1
  Er  Er14  1  0.500220  0.680318  0.593577  1
  Er  Er15  1  0.000206  0.819746  0.906481  1
  Er  Er16  1  0.817288  0.511140  0.750070  1
  Er  Er17  1  0.317294  0.989106  0.750043  1
  Er  Er18  1  0.182251  0.490036  0.249924  1
  Er  Er19  1  0.681826  0.009837  0.249992  1
  Pt  Pt20  1  0.682803  0.963177  0.459713  1
  Pt  Pt21  1  0.182997  0.536861  0.040218  1
  Pt  Pt22  1  0.314785  0.030351  0.957177  1
  Pt  Pt23  1  0.814668  0.469805  0.543023  1
  Pt  Pt24  1  0.315348  0.030127  0.543254  1
  Pt  Pt25  1  0.815745  0.469680  0.957025  1
  Pt  Pt26  1  0.682972  0.962965  0.040030  1
  Pt  Pt27  1  0.183441  0.536846  0.459652  1
  Pt  Pt28  1  0.451477  0.386641  0.750043  1
  Pt  Pt29  1  0.951455  0.113253  0.750237  1
  Pt  Pt30  1  0.548981  0.616321  0.249793  1
  Pt  Pt31  1  0.048472  0.883983  0.249933  1
  Pt  Pt32  1  0.679380  0.856213  0.750119  1
  Pt  Pt33  1  0.179257  0.644238  0.750475  1
  Pt  Pt34  1  0.319407  0.141517  0.249718  1
  Pt  Pt35  1  0.820207  0.357899  0.249664  1
