# generated using pymatgen
data_Tb5Dy(ThSb10)2
_symmetry_space_group_name_H-M   'P 1'
_cell_length_a   4.20707000
_cell_length_b   13.25771312
_cell_length_c   14.97289306
_cell_angle_alpha   77.43907060
_cell_angle_beta   90.00000000
_cell_angle_gamma   90.00000000
_symmetry_Int_Tables_number   1
_chemical_formula_structural   Tb5Dy(ThSb10)2
_chemical_formula_sum   'Tb5 Dy1 Th2 Sb20'
_cell_volume   815.14139209
_cell_formula_units_Z   1
loop_
 _symmetry_equiv_pos_site_id
 _symmetry_equiv_pos_as_xyz
  1  'x, y, z'
loop_
 _atom_site_type_symbol
 _atom_site_label
 _atom_site_symmetry_multiplicity
 _atom_site_fract_x
 _atom_site_fract_y
 _atom_site_fract_z
 _atom_site_occupancy
  Tb  Tb0  1  0.250000  0.664586  0.856979  1
  Tb  Tb1  1  0.750000  0.335436  0.142975  1
  Tb  Tb2  1  0.250000  0.670787  0.573731  1
  Tb  Tb3  1  0.750000  0.329205  0.426290  1
  Tb  Tb4  1  0.250000  0.954671  0.361879  1
  Dy  Dy5  1  0.750000  0.045318  0.638001  1
  Th  Th6  1  0.250000  0.389235  0.773199  1
  Th  Th7  1  0.750000  0.610718  0.226740  1
  Sb  Sb8  1  0.250000  0.136239  0.776017  1
  Sb  Sb9  1  0.750000  0.863720  0.223919  1
  Sb  Sb10  1  0.250000  0.141924  0.482121  1
  Sb  Sb11  1  0.750000  0.858015  0.518138  1
  Sb  Sb12  1  0.250000  0.149619  0.173938  1
  Sb  Sb13  1  0.750000  0.850445  0.826072  1
  Sb  Sb14  1  0.250000  0.420497  0.980197  1
  Sb  Sb15  1  0.750000  0.579532  0.019797  1
  Sb  Sb16  1  0.750000  0.028366  0.909152  1
  Sb  Sb17  1  0.250000  0.971495  0.090819  1
  Sb  Sb18  1  0.750000  0.140752  0.321713  1
  Sb  Sb19  1  0.250000  0.859467  0.678300  1
  Sb  Sb20  1  0.750000  0.272675  0.938898  1
  Sb  Sb21  1  0.250000  0.727363  0.061115  1
  Sb  Sb22  1  0.750000  0.281184  0.654985  1
  Sb  Sb23  1  0.250000  0.718684  0.345019  1
  Sb  Sb24  1  0.750000  0.578133  0.733941  1
  Sb  Sb25  1  0.250000  0.421854  0.266066  1
  Sb  Sb26  1  0.750000  0.573894  0.450009  1
  Sb  Sb27  1  0.250000  0.426184  0.549988  1
