# generated using pymatgen
data_TbHo3Al18(IrPd)3
_symmetry_space_group_name_H-M   'P 1'
_cell_length_a   7.59886262
_cell_length_b   7.60050878
_cell_length_c   9.44164501
_cell_angle_alpha   89.97566618
_cell_angle_beta   89.97911324
_cell_angle_gamma   119.64555834
_symmetry_Int_Tables_number   1
_chemical_formula_structural   TbHo3Al18(IrPd)3
_chemical_formula_sum   'Tb1 Ho3 Al18 Ir3 Pd3'
_cell_volume   473.92486041
_cell_formula_units_Z   1
loop_
 _symmetry_equiv_pos_site_id
 _symmetry_equiv_pos_as_xyz
  1  'x, y, z'
loop_
 _atom_site_type_symbol
 _atom_site_label
 _atom_site_symmetry_multiplicity
 _atom_site_fract_x
 _atom_site_fract_y
 _atom_site_fract_z
 _atom_site_occupancy
  Tb  Tb0  1  0.995672  0.670267  0.250397  1
  Ho  Ho1  1  0.004543  0.329423  0.749552  1
  Ho  Ho2  1  0.670480  0.995422  0.250452  1
  Ho  Ho3  1  0.329539  0.004413  0.749506  1
  Al  Al4  1  0.126985  0.128017  0.250396  1
  Al  Al5  1  0.872281  0.873117  0.749608  1
  Al  Al6  1  0.000373  0.331370  0.076336  1
  Al  Al7  1  0.999665  0.668594  0.922273  1
  Al  Al8  1  0.997107  0.664873  0.575724  1
  Al  Al9  1  0.335466  0.003241  0.424891  1
  Al  Al10  1  0.996177  0.330583  0.424968  1
  Al  Al11  1  0.669041  0.003797  0.575300  1
  Al  Al12  1  0.668256  0.999649  0.923407  1
  Al  Al13  1  0.331807  0.000731  0.077138  1
  Al  Al14  1  0.332820  0.329654  0.553314  1
  Al  Al15  1  0.670078  0.667178  0.447030  1
  Al  Al16  1  0.668924  0.669182  0.056836  1
  Al  Al17  1  0.330863  0.330826  0.942757  1
  Al  Al18  1  0.340372  0.547133  0.250642  1
  Al  Al19  1  0.659026  0.451749  0.747649  1
  Al  Al20  1  0.547773  0.340537  0.252380  1
  Al  Al21  1  0.452685  0.659870  0.749356  1
  Ir  Ir22  1  0.671891  0.327855  0.500182  1
  Ir  Ir23  1  0.000106  0.000214  0.999773  1
  Ir  Ir24  1  0.000497  0.999831  0.500242  1
  Pd  Pd25  1  0.672265  0.327565  0.999890  1
  Pd  Pd26  1  0.327642  0.672463  0.999895  1
  Pd  Pd27  1  0.327671  0.672443  0.500106  1
