# generated using pymatgen
data_Tm4ReB12Ir
_symmetry_space_group_name_H-M   'P 1'
_cell_length_a   3.63232000
_cell_length_b   9.08661973
_cell_length_c   11.46801794
_cell_angle_alpha   90.29830909
_cell_angle_beta   90.00000000
_cell_angle_gamma   90.00000000
_symmetry_Int_Tables_number   1
_chemical_formula_structural   Tm4ReB12Ir
_chemical_formula_sum   'Tm8 Re2 B24 Ir2'
_cell_volume   378.50265704
_cell_formula_units_Z   2
loop_
 _symmetry_equiv_pos_site_id
 _symmetry_equiv_pos_as_xyz
  1  'x, y, z'
loop_
 _atom_site_type_symbol
 _atom_site_label
 _atom_site_symmetry_multiplicity
 _atom_site_fract_x
 _atom_site_fract_y
 _atom_site_fract_z
 _atom_site_occupancy
  Tm  Tm0  1  0.000000  0.316207  0.409710  1
  Tm  Tm1  1  0.000000  0.683793  0.590290  1
  Tm  Tm2  1  0.000000  0.826396  0.082053  1
  Tm  Tm3  1  0.000000  0.173604  0.917947  1
  Tm  Tm4  1  0.000000  0.946317  0.372439  1
  Tm  Tm5  1  0.000000  0.053683  0.627561  1
  Tm  Tm6  1  0.000000  0.441723  0.125628  1
  Tm  Tm7  1  0.000000  0.558277  0.874372  1
  Re  Re8  1  0.000000  0.138108  0.179755  1
  Re  Re9  1  0.000000  0.861892  0.820245  1
  B  B10  1  0.500000  0.553960  0.434516  1
  B  B11  1  0.500000  0.446040  0.565484  1
  B  B12  1  0.500000  0.053035  0.066736  1
  B  B13  1  0.500000  0.946965  0.933264  1
  B  B14  1  0.500000  0.749905  0.421542  1
  B  B15  1  0.500000  0.250095  0.578458  1
  B  B16  1  0.500000  0.248568  0.080230  1
  B  B17  1  0.500000  0.751432  0.919770  1
  B  B18  1  0.500000  0.791731  0.265543  1
  B  B19  1  0.500000  0.208269  0.734457  1
  B  B20  1  0.500000  0.293049  0.234734  1
  B  B21  1  0.500000  0.706951  0.765266  1
  B  B22  1  0.500000  0.631685  0.183469  1
  B  B23  1  0.500000  0.368315  0.816531  1
  B  B24  1  0.500000  0.131537  0.315249  1
  B  B25  1  0.500000  0.868463  0.684751  1
  B  B26  1  0.500000  0.981957  0.213130  1
  B  B27  1  0.500000  0.018043  0.786870  1
  B  B28  1  0.500000  0.481734  0.287278  1
  B  B29  1  0.500000  0.518266  0.712722  1
  B  B30  1  0.500000  0.605952  0.029721  1
  B  B31  1  0.500000  0.394048  0.970279  1
  B  B32  1  0.500000  0.106592  0.471121  1
  B  B33  1  0.500000  0.893408  0.528879  1
  Ir  Ir34  1  0.000000  0.636697  0.322178  1
  Ir  Ir35  1  0.000000  0.363303  0.677822  1
