# generated using pymatgen
data_Ca15Yb5(Bi2Sb)4
_symmetry_space_group_name_H-M   'P 1'
_cell_length_a   8.39054708
_cell_length_b   9.75667604
_cell_length_c   12.71338507
_cell_angle_alpha   90.00114253
_cell_angle_beta   90.01157954
_cell_angle_gamma   89.98927396
_symmetry_Int_Tables_number   1
_chemical_formula_structural   Ca15Yb5(Bi2Sb)4
_chemical_formula_sum   'Ca15 Yb5 Bi8 Sb4'
_cell_volume   1040.76660424
_cell_formula_units_Z   1
loop_
 _symmetry_equiv_pos_site_id
 _symmetry_equiv_pos_as_xyz
  1  'x, y, z'
loop_
 _atom_site_type_symbol
 _atom_site_label
 _atom_site_symmetry_multiplicity
 _atom_site_fract_x
 _atom_site_fract_y
 _atom_site_fract_z
 _atom_site_occupancy
  Ca  Ca0  1  0.462609  0.750023  0.004316  1
  Ca  Ca1  1  0.962534  0.249992  0.495689  1
  Ca  Ca2  1  0.537513  0.249939  0.995680  1
  Ca  Ca3  1  0.037515  0.750008  0.504316  1
  Ca  Ca4  1  0.652261  0.750030  0.292837  1
  Ca  Ca5  1  0.152241  0.249997  0.207111  1
  Ca  Ca6  1  0.347767  0.249989  0.707108  1
  Ca  Ca7  1  0.847742  0.750017  0.792936  1
  Ca  Ca8  1  0.308805  0.457880  0.424728  1
  Ca  Ca9  1  0.808774  0.542094  0.075259  1
  Ca  Ca10  1  0.691165  0.957932  0.575276  1
  Ca  Ca11  1  0.191165  0.042109  0.924753  1
  Ca  Ca12  1  0.691181  0.542057  0.575263  1
  Ca  Ca13  1  0.191232  0.457906  0.924730  1
  Ca  Ca14  1  0.308790  0.042120  0.424736  1
  Yb  Yb15  1  0.318211  0.750005  0.727942  1
  Yb  Yb16  1  0.818177  0.250005  0.772064  1
  Yb  Yb17  1  0.681817  0.249966  0.272039  1
  Yb  Yb18  1  0.181816  0.749993  0.227937  1
  Yb  Yb19  1  0.808734  0.957983  0.075385  1
  Bi  Bi20  1  0.436895  0.012234  0.171659  1
  Bi  Bi21  1  0.936563  0.987715  0.328101  1
  Bi  Bi22  1  0.563360  0.512245  0.828293  1
  Bi  Bi23  1  0.063303  0.487757  0.671678  1
  Bi  Bi24  1  0.563442  0.987734  0.828420  1
  Bi  Bi25  1  0.063248  0.012232  0.671689  1
  Bi  Bi26  1  0.436618  0.487729  0.171693  1
  Bi  Bi27  1  0.936676  0.512278  0.328307  1
  Sb  Sb28  1  0.078923  0.750137  0.984077  1
  Sb  Sb29  1  0.579061  0.250004  0.515955  1
  Sb  Sb30  1  0.920890  0.249889  0.015983  1
  Sb  Sb31  1  0.420971  0.750001  0.484040  1
