# generated using pymatgen
data_Dy5Er10Tm(InRh)4
_symmetry_space_group_name_H-M   'P 1'
_cell_length_a   9.60570258
_cell_length_b   9.60597279
_cell_length_c   9.60597206
_cell_angle_alpha   60.01771336
_cell_angle_beta   59.96556033
_cell_angle_gamma   59.96556190
_symmetry_Int_Tables_number   1
_chemical_formula_structural   Dy5Er10Tm(InRh)4
_chemical_formula_sum   'Dy5 Er10 Tm1 In4 Rh4'
_cell_volume   626.51083672
_cell_formula_units_Z   1
loop_
 _symmetry_equiv_pos_site_id
 _symmetry_equiv_pos_as_xyz
  1  'x, y, z'
loop_
 _atom_site_type_symbol
 _atom_site_label
 _atom_site_symmetry_multiplicity
 _atom_site_fract_x
 _atom_site_fract_y
 _atom_site_fract_z
 _atom_site_occupancy
  Dy  Dy0  1  0.062094  0.062387  0.437749  1
  Dy  Dy1  1  0.438169  0.061811  0.438119  1
  Dy  Dy2  1  0.062094  0.437749  0.062387  1
  Dy  Dy3  1  0.049204  0.650318  0.650318  1
  Dy  Dy4  1  0.438169  0.438119  0.061811  1
  Er  Er5  1  0.650542  0.048673  0.650294  1
  Er  Er6  1  0.188883  0.811249  0.188560  1
  Er  Er7  1  0.188883  0.188560  0.811249  1
  Er  Er8  1  0.810766  0.810939  0.189247  1
  Er  Er9  1  0.439371  0.060653  0.060653  1
  Er  Er10  1  0.811078  0.188842  0.188842  1
  Er  Er11  1  0.060638  0.439136  0.439136  1
  Er  Er12  1  0.810766  0.189247  0.810939  1
  Er  Er13  1  0.188919  0.811326  0.811326  1
  Er  Er14  1  0.650542  0.650294  0.048673  1
  Tm  Tm15  1  0.650437  0.650652  0.650652  1
  In  In16  1  0.416972  0.417314  0.417314  1
  In  In17  1  0.748582  0.417506  0.417506  1
  In  In18  1  0.418030  0.748547  0.416280  1
  In  In19  1  0.418030  0.416280  0.748547  1
  Rh  Rh20  1  0.856894  0.857412  0.426765  1
  Rh  Rh21  1  0.856353  0.858670  0.858670  1
  Rh  Rh22  1  0.427690  0.857552  0.857552  1
  Rh  Rh23  1  0.856894  0.426765  0.857412  1
