# generated using pymatgen
data_Lu3ThAl4(Ga7Ir3)2
_symmetry_space_group_name_H-M   'P 1'
_cell_length_a   7.57755066
_cell_length_b   7.59468782
_cell_length_c   9.45149100
_cell_angle_alpha   89.99997892
_cell_angle_beta   90.00000608
_cell_angle_gamma   119.69299215
_symmetry_Int_Tables_number   1
_chemical_formula_structural   Lu3ThAl4(Ga7Ir3)2
_chemical_formula_sum   'Lu3 Th1 Al4 Ga14 Ir6'
_cell_volume   472.50344146
_cell_formula_units_Z   1
loop_
 _symmetry_equiv_pos_site_id
 _symmetry_equiv_pos_as_xyz
  1  'x, y, z'
loop_
 _atom_site_type_symbol
 _atom_site_label
 _atom_site_symmetry_multiplicity
 _atom_site_fract_x
 _atom_site_fract_y
 _atom_site_fract_z
 _atom_site_occupancy
  Lu  Lu0  1  0.997896  0.329534  0.749998  1
  Lu  Lu1  1  0.673156  0.000664  0.250002  1
  Lu  Lu2  1  0.328815  0.998450  0.749999  1
  Th  Th3  1  0.999771  0.670361  0.249999  1
  Al  Al4  1  0.329808  0.329833  0.557042  1
  Al  Al5  1  0.664175  0.668770  0.450730  1
  Al  Al6  1  0.664175  0.668769  0.049270  1
  Al  Al7  1  0.329807  0.329833  0.942958  1
  Ga  Ga8  1  0.129649  0.132566  0.250000  1
  Ga  Ga9  1  0.875829  0.878606  0.750001  1
  Ga  Ga10  1  0.999210  0.329015  0.077609  1
  Ga  Ga11  1  0.000033  0.664083  0.911582  1
  Ga  Ga12  1  0.000033  0.664084  0.588415  1
  Ga  Ga13  1  0.342864  0.005223  0.421788  1
  Ga  Ga14  1  0.999208  0.329014  0.422391  1
  Ga  Ga15  1  0.664233  0.001418  0.582478  1
  Ga  Ga16  1  0.664232  0.001417  0.917523  1
  Ga  Ga17  1  0.342864  0.005223  0.078211  1
  Ga  Ga18  1  0.354670  0.554448  0.250000  1
  Ga  Ga19  1  0.648088  0.445378  0.750000  1
  Ga  Ga20  1  0.545949  0.344676  0.250000  1
  Ga  Ga21  1  0.446331  0.650995  0.750000  1
  Ir  Ir22  1  0.671679  0.332497  0.000198  1
  Ir  Ir23  1  0.327508  0.668715  0.000314  1
  Ir  Ir24  1  0.327508  0.668714  0.499686  1
  Ir  Ir25  1  0.671679  0.332498  0.499802  1
  Ir  Ir26  1  0.000417  0.997610  0.001059  1
  Ir  Ir27  1  0.000417  0.997611  0.498942  1
