# generated using pymatgen
data_PrNd3PtRh3O14
_symmetry_space_group_name_H-M   'P 1'
_cell_length_a   7.41562557
_cell_length_b   7.40206187
_cell_length_c   7.41562500
_cell_angle_alpha   59.93936352
_cell_angle_beta   59.99999806
_cell_angle_gamma   59.93936158
_symmetry_Int_Tables_number   1
_chemical_formula_structural   PrNd3PtRh3O14
_chemical_formula_sum   'Pr1 Nd3 Pt1 Rh3 O14'
_cell_volume   287.56405895
_cell_formula_units_Z   1
loop_
 _symmetry_equiv_pos_site_id
 _symmetry_equiv_pos_as_xyz
  1  'x, y, z'
loop_
 _atom_site_type_symbol
 _atom_site_label
 _atom_site_symmetry_multiplicity
 _atom_site_fract_x
 _atom_site_fract_y
 _atom_site_fract_z
 _atom_site_occupancy
  Pr  Pr0  1  0.625000  0.125000  0.625000  1
  Nd  Nd1  1  0.625000  0.625000  0.125000  1
  Nd  Nd2  1  0.125000  0.625000  0.625000  1
  Nd  Nd3  1  0.625000  0.625000  0.625000  1
  Pt  Pt4  1  0.125000  0.625000  0.125000  1
  Rh  Rh5  1  0.125000  0.125000  0.625000  1
  Rh  Rh6  1  0.625000  0.125000  0.125000  1
  Rh  Rh7  1  0.125000  0.125000  0.125000  1
  O  O8  1  0.499164  0.502508  0.499164  1
  O  O9  1  0.750836  0.747492  0.750836  1
  O  O10  1  0.456039  0.044165  0.456039  1
  O  O11  1  0.209059  0.790804  0.209059  1
  O  O12  1  0.458923  0.459196  0.040941  1
  O  O13  1  0.040941  0.459196  0.458923  1
  O  O14  1  0.456039  0.044165  0.043755  1
  O  O15  1  0.043755  0.044165  0.456039  1
  O  O16  1  0.040941  0.459196  0.040941  1
  O  O17  1  0.793961  0.205835  0.206245  1
  O  O18  1  0.209059  0.790804  0.791077  1
  O  O19  1  0.793961  0.205835  0.793961  1
  O  O20  1  0.206245  0.205835  0.793961  1
  O  O21  1  0.791077  0.790804  0.209059  1
