# generated using pymatgen
data_Tb2YEr3FeBi2
_symmetry_space_group_name_H-M   'P 1'
_cell_length_a   8.30496983
_cell_length_b   8.30496968
_cell_length_c   4.19585800
_cell_angle_alpha   90.00000000
_cell_angle_beta   90.00000000
_cell_angle_gamma   119.79087461
_symmetry_Int_Tables_number   1
_chemical_formula_structural   Tb2YEr3FeBi2
_chemical_formula_sum   'Tb2 Y1 Er3 Fe1 Bi2'
_cell_volume   251.15328042
_cell_formula_units_Z   1
loop_
 _symmetry_equiv_pos_site_id
 _symmetry_equiv_pos_as_xyz
  1  'x, y, z'
loop_
 _atom_site_type_symbol
 _atom_site_label
 _atom_site_symmetry_multiplicity
 _atom_site_fract_x
 _atom_site_fract_y
 _atom_site_fract_z
 _atom_site_occupancy
  Tb  Tb0  1  0.606923  0.999887  0.000000  1
  Tb  Tb1  1  0.999887  0.606923  0.000000  1
  Y  Y2  1  0.393407  0.393407  0.000000  1
  Er  Er3  1  0.228737  0.999807  0.500000  1
  Er  Er4  1  0.999807  0.228737  0.500000  1
  Er  Er5  1  0.771560  0.771560  0.500000  1
  Fe  Fe6  1  0.999984  0.999984  0.000000  1
  Bi  Bi7  1  0.333459  0.666236  0.500000  1
  Bi  Bi8  1  0.666236  0.333459  0.500000  1
