# generated using pymatgen
data_Li4PPt3
_symmetry_space_group_name_H-M   'P 1'
_cell_length_a   6.79846578
_cell_length_b   6.79846540
_cell_length_c   6.79846539
_cell_angle_alpha   61.45069499
_cell_angle_beta   61.45069890
_cell_angle_gamma   61.45069752
_symmetry_Int_Tables_number   1
_chemical_formula_structural   Li4PPt3
_chemical_formula_sum   'Li8 P2 Pt6'
_cell_volume   229.42438988
_cell_formula_units_Z   2
loop_
 _symmetry_equiv_pos_site_id
 _symmetry_equiv_pos_as_xyz
  1  'x, y, z'
loop_
 _atom_site_type_symbol
 _atom_site_label
 _atom_site_symmetry_multiplicity
 _atom_site_fract_x
 _atom_site_fract_y
 _atom_site_fract_z
 _atom_site_occupancy
  Li  Li0  1  0.276173  0.276173  0.276173  1
  Li  Li1  1  0.723827  0.723827  0.723827  1
  Li  Li2  1  0.558219  0.843263  0.346249  1
  Li  Li3  1  0.346249  0.558219  0.843263  1
  Li  Li4  1  0.843263  0.346249  0.558219  1
  Li  Li5  1  0.653751  0.156737  0.441781  1
  Li  Li6  1  0.156737  0.441781  0.653751  1
  Li  Li7  1  0.441781  0.653751  0.156737  1
  P  P8  1  0.895298  0.895298  0.895298  1
  P  P9  1  0.104702  0.104702  0.104702  1
  Pt  Pt10  1  0.898427  0.500000  0.101573  1
  Pt  Pt11  1  0.101573  0.898427  0.500000  1
  Pt  Pt12  1  0.500000  0.101573  0.898427  1
  Pt  Pt13  1  0.254965  0.000000  0.745035  1
  Pt  Pt14  1  0.745035  0.254965  0.000000  1
  Pt  Pt15  1  0.000000  0.745035  0.254965  1
