# generated using pymatgen
data_Rb12Li8Ti(SnBi4)3
_symmetry_space_group_name_H-M   'P 1'
_cell_length_a   14.24068705
_cell_length_b   14.24068731
_cell_length_c   14.23457971
_cell_angle_alpha   151.00681926
_cell_angle_beta   104.28130773
_cell_angle_gamma   83.05713884
_symmetry_Int_Tables_number   1
_chemical_formula_structural   Rb12Li8Ti(SnBi4)3
_chemical_formula_sum   'Rb12 Li8 Ti1 Sn3 Bi12'
_cell_volume   1328.01926112
_cell_formula_units_Z   1
loop_
 _symmetry_equiv_pos_site_id
 _symmetry_equiv_pos_as_xyz
  1  'x, y, z'
loop_
 _atom_site_type_symbol
 _atom_site_label
 _atom_site_symmetry_multiplicity
 _atom_site_fract_x
 _atom_site_fract_y
 _atom_site_fract_z
 _atom_site_occupancy
  Rb  Rb0  1  0.588085  0.937846  0.185464  1
  Rb  Rb1  1  0.076813  0.749222  0.825860  1
  Rb  Rb2  1  0.911595  0.105148  0.351899  1
  Rb  Rb3  1  0.411512  0.042061  0.792732  1
  Rb  Rb4  1  0.749330  0.618781  0.707268  1
  Rb  Rb5  1  0.252380  0.402620  0.314536  1
  Rb  Rb6  1  0.081764  0.893985  0.647724  1
  Rb  Rb7  1  0.423362  0.250953  0.674140  1
  Rb  Rb8  1  0.746261  0.434040  0.852276  1
  Rb  Rb9  1  0.253249  0.559696  0.148101  1
  Rb  Rb10  1  0.923400  0.240404  0.157487  1
  Rb  Rb11  1  0.582917  0.765913  0.342513  1
  Li  Li12  1  0.001451  0.251451  0.750000  1
  Li  Li13  1  0.665306  0.915306  0.750000  1
  Li  Li14  1  0.997951  0.747951  0.250000  1
  Li  Li15  1  0.499263  0.249263  0.250000  1
  Li  Li16  1  0.499544  0.749544  0.750000  1
  Li  Li17  1  0.161414  0.411414  0.750000  1
  Li  Li18  1  0.338519  0.088519  0.250000  1
  Li  Li19  1  0.835974  0.585974  0.250000  1
  Ti  Ti20  1  0.665755  0.415755  0.250000  1
  Sn  Sn21  1  0.165439  0.915439  0.250000  1
  Sn  Sn22  1  0.832500  0.082500  0.750000  1
  Sn  Sn23  1  0.334155  0.584155  0.750000  1
  Bi  Bi24  1  0.346869  0.749426  0.096937  1
  Bi  Bi25  1  0.498023  0.555370  0.372585  1
  Bi  Bi26  1  0.984262  0.603055  0.919181  1
  Bi  Bi27  1  0.513185  0.429961  0.612695  1
  Bi  Bi28  1  0.317267  0.900489  0.887305  1
  Bi  Bi29  1  0.682786  0.125439  0.127415  1
  Bi  Bi30  1  0.013886  0.397951  0.079579  1
  Bi  Bi31  1  0.653892  0.261502  0.924343  1
  Bi  Bi32  1  0.818372  0.934306  0.420421  1
  Bi  Bi33  1  0.152489  0.249932  0.403063  1
  Bi  Bi34  1  0.183875  0.065082  0.580819  1
  Bi  Bi35  1  0.837159  0.729548  0.575657  1
