# generated using pymatgen
data_GdH5Ru
_symmetry_space_group_name_H-M   'P 1'
_cell_length_a   4.41646400
_cell_length_b   4.75280400
_cell_length_c   11.74601900
_cell_angle_alpha   90.00000000
_cell_angle_beta   90.00000000
_cell_angle_gamma   90.00000000
_symmetry_Int_Tables_number   1
_chemical_formula_structural   GdH5Ru
_chemical_formula_sum   'Gd4 H20 Ru4'
_cell_volume   246.55584271
_cell_formula_units_Z   4
loop_
 _symmetry_equiv_pos_site_id
 _symmetry_equiv_pos_as_xyz
  1  'x, y, z'
loop_
 _atom_site_type_symbol
 _atom_site_label
 _atom_site_symmetry_multiplicity
 _atom_site_fract_x
 _atom_site_fract_y
 _atom_site_fract_z
 _atom_site_occupancy
  Gd  Gd0  1  0.272307  0.163337  0.649430  1
  Gd  Gd1  1  0.772307  0.336663  0.350570  1
  Gd  Gd2  1  0.227693  0.836663  0.149430  1
  Gd  Gd3  1  0.727693  0.663337  0.850570  1
  H  H4  1  0.534712  0.392239  0.515911  1
  H  H5  1  0.034712  0.107761  0.484089  1
  H  H6  1  0.965288  0.607761  0.015911  1
  H  H7  1  0.465288  0.892239  0.984089  1
  H  H8  1  0.156745  0.931795  0.819233  1
  H  H9  1  0.656745  0.568205  0.180767  1
  H  H10  1  0.343255  0.068205  0.319233  1
  H  H11  1  0.843255  0.431795  0.680767  1
  H  H12  1  0.202320  0.441023  0.828076  1
  H  H13  1  0.702320  0.058977  0.171924  1
  H  H14  1  0.297680  0.558977  0.328076  1
  H  H15  1  0.797680  0.941023  0.671924  1
  H  H16  1  0.619710  0.158139  0.825362  1
  H  H17  1  0.119710  0.341861  0.174638  1
  H  H18  1  0.880290  0.841861  0.325362  1
  H  H19  1  0.380290  0.658139  0.674638  1
  H  H20  1  0.985972  0.083606  0.997314  1
  H  H21  1  0.485972  0.416394  0.002686  1
  H  H22  1  0.514028  0.916394  0.497314  1
  H  H23  1  0.014028  0.583606  0.502686  1
  Ru  Ru24  1  0.318569  0.160312  0.910176  1
  Ru  Ru25  1  0.818569  0.339688  0.089824  1
  Ru  Ru26  1  0.181431  0.839688  0.410176  1
  Ru  Ru27  1  0.681431  0.660312  0.589824  1
