# generated using pymatgen
data_Nd2Co12GeP6
_symmetry_space_group_name_H-M   'P 1'
_cell_length_a   9.16634300
_cell_length_b   9.16634147
_cell_length_c   3.61175300
_cell_angle_alpha   90.00000000
_cell_angle_beta   90.00000000
_cell_angle_gamma   119.99999469
_symmetry_Int_Tables_number   1
_chemical_formula_structural   Nd2Co12GeP6
_chemical_formula_sum   'Nd2 Co12 Ge1 P6'
_cell_volume   262.80936286
_cell_formula_units_Z   1
loop_
 _symmetry_equiv_pos_site_id
 _symmetry_equiv_pos_as_xyz
  1  'x, y, z'
loop_
 _atom_site_type_symbol
 _atom_site_label
 _atom_site_symmetry_multiplicity
 _atom_site_fract_x
 _atom_site_fract_y
 _atom_site_fract_z
 _atom_site_occupancy
  Nd  Nd0  1  0.000000  0.000000  0.000000  1
  Nd  Nd1  1  0.333333  0.666667  0.500000  1
  Co  Co2  1  0.100258  0.392430  0.000000  1
  Co  Co3  1  0.607570  0.707826  0.000000  1
  Co  Co4  1  0.292174  0.899742  0.000000  1
  Co  Co5  1  0.052440  0.768554  0.500000  1
  Co  Co6  1  0.231446  0.283885  0.500000  1
  Co  Co7  1  0.716115  0.947560  0.500000  1
  Co  Co8  1  0.825101  0.617901  0.000000  1
  Co  Co9  1  0.382099  0.207201  0.000000  1
  Co  Co10  1  0.792799  0.174899  0.000000  1
  Co  Co11  1  0.910961  0.442966  0.500000  1
  Co  Co12  1  0.557034  0.467995  0.500000  1
  Co  Co13  1  0.532005  0.089039  0.500000  1
  Ge  Ge14  1  0.666667  0.333333  0.000000  1
  P  P15  1  0.772436  0.731312  0.500000  1
  P  P16  1  0.268688  0.041124  0.500000  1
  P  P17  1  0.958876  0.227564  0.500000  1
  P  P18  1  0.068157  0.627245  0.000000  1
  P  P19  1  0.372755  0.440912  0.000000  1
  P  P20  1  0.559088  0.931843  0.000000  1
