# generated using pymatgen
data_Y8GePd23Pt
_symmetry_space_group_name_H-M   'P 1'
_cell_length_a   8.35449500
_cell_length_b   8.37987000
_cell_length_c   8.37987000
_cell_angle_alpha   90.00000000
_cell_angle_beta   90.00000000
_cell_angle_gamma   90.00000000
_symmetry_Int_Tables_number   1
_chemical_formula_structural   Y8GePd23Pt
_chemical_formula_sum   'Y8 Ge1 Pd23 Pt1'
_cell_volume   586.67119605
_cell_formula_units_Z   1
loop_
 _symmetry_equiv_pos_site_id
 _symmetry_equiv_pos_as_xyz
  1  'x, y, z'
loop_
 _atom_site_type_symbol
 _atom_site_label
 _atom_site_symmetry_multiplicity
 _atom_site_fract_x
 _atom_site_fract_y
 _atom_site_fract_z
 _atom_site_occupancy
  Y  Y0  1  0.253095  0.253528  0.253528  1
  Y  Y1  1  0.746902  0.746872  0.746872  1
  Y  Y2  1  0.746902  0.746872  0.253128  1
  Y  Y3  1  0.746902  0.253128  0.746872  1
  Y  Y4  1  0.253095  0.253528  0.746472  1
  Y  Y5  1  0.253095  0.746472  0.253528  1
  Y  Y6  1  0.253095  0.746472  0.746472  1
  Y  Y7  1  0.746902  0.253128  0.253128  1
  Ge  Ge8  1  0.000117  0.000000  0.000000  1
  Pd  Pd9  1  0.259862  0.500000  0.000000  1
  Pd  Pd10  1  0.740132  0.500000  0.000000  1
  Pd  Pd11  1  0.000012  0.259673  0.500000  1
  Pd  Pd12  1  0.500116  0.259620  0.000000  1
  Pd  Pd13  1  0.000012  0.740327  0.500000  1
  Pd  Pd14  1  0.500116  0.740380  0.000000  1
  Pd  Pd15  1  0.500116  0.000000  0.259620  1
  Pd  Pd16  1  0.259862  0.000000  0.500000  1
  Pd  Pd17  1  0.500116  0.000000  0.740380  1
  Pd  Pd18  1  0.740132  0.000000  0.500000  1
  Pd  Pd19  1  0.000012  0.500000  0.259673  1
  Pd  Pd20  1  0.000012  0.500000  0.740327  1
  Pd  Pd21  1  0.746956  0.500000  0.500000  1
  Pd  Pd22  1  0.500015  0.252955  0.500000  1
  Pd  Pd23  1  0.500015  0.747045  0.500000  1
  Pd  Pd24  1  0.500015  0.500000  0.252955  1
  Pd  Pd25  1  0.500015  0.500000  0.747045  1
  Pd  Pd26  1  0.289595  0.000000  0.000000  1
  Pd  Pd27  1  0.710560  0.000000  0.000000  1
  Pd  Pd28  1  0.999840  0.289389  0.000000  1
  Pd  Pd29  1  0.999840  0.710611  0.000000  1
  Pd  Pd30  1  0.999840  0.000000  0.289389  1
  Pd  Pd31  1  0.999840  0.000000  0.710611  1
  Pt  Pt32  1  0.252865  0.500000  0.500000  1
