# generated using pymatgen
data_NdEu(Al3Pt)3
_symmetry_space_group_name_H-M   'P 1'
_cell_length_a   7.67681650
_cell_length_b   7.67813486
_cell_length_c   9.59960800
_cell_angle_alpha   90.00000000
_cell_angle_beta   90.00000000
_cell_angle_gamma   119.65580518
_symmetry_Int_Tables_number   1
_chemical_formula_structural   NdEu(Al3Pt)3
_chemical_formula_sum   'Nd2 Eu2 Al18 Pt6'
_cell_volume   491.71887613
_cell_formula_units_Z   2
loop_
 _symmetry_equiv_pos_site_id
 _symmetry_equiv_pos_as_xyz
  1  'x, y, z'
loop_
 _atom_site_type_symbol
 _atom_site_label
 _atom_site_symmetry_multiplicity
 _atom_site_fract_x
 _atom_site_fract_y
 _atom_site_fract_z
 _atom_site_occupancy
  Nd  Nd0  1  0.667413  0.994166  0.250000  1
  Nd  Nd1  1  0.005742  0.332320  0.750000  1
  Eu  Eu2  1  0.995922  0.669242  0.250000  1
  Eu  Eu3  1  0.330326  0.004212  0.750000  1
  Al  Al4  1  0.664106  0.998281  0.924882  1
  Al  Al5  1  0.131425  0.132202  0.250000  1
  Al  Al6  1  0.001262  0.335752  0.424836  1
  Al  Al7  1  0.334174  0.333194  0.555269  1
  Al  Al8  1  0.340434  0.544552  0.250000  1
  Al  Al9  1  0.455180  0.658995  0.750000  1
  Al  Al10  1  0.867732  0.868265  0.750000  1
  Al  Al11  1  0.667076  0.665820  0.056264  1
  Al  Al12  1  0.667076  0.665820  0.443736  1
  Al  Al13  1  0.999698  0.667139  0.573515  1
  Al  Al14  1  0.999698  0.667139  0.926485  1
  Al  Al15  1  0.333080  0.000589  0.426278  1
  Al  Al16  1  0.661210  0.454387  0.750000  1
  Al  Al17  1  0.546170  0.338890  0.250000  1
  Al  Al18  1  0.334174  0.333194  0.944731  1
  Al  Al19  1  0.333080  0.000589  0.073722  1
  Al  Al20  1  0.664106  0.998281  0.575118  1
  Al  Al21  1  0.001262  0.335752  0.075164  1
  Pt  Pt22  1  0.329743  0.670473  0.500010  1
  Pt  Pt23  1  0.329743  0.670473  0.999990  1
  Pt  Pt24  1  0.670897  0.329572  0.500258  1
  Pt  Pt25  1  0.999187  0.000565  0.999983  1
  Pt  Pt26  1  0.999187  0.000565  0.500017  1
  Pt  Pt27  1  0.670897  0.329572  0.999742  1
