# generated using pymatgen
data_V11Si3TcAs
_symmetry_space_group_name_H-M   'P 1'
_cell_length_a   4.73936900
_cell_length_b   4.71223600
_cell_length_c   9.42003400
_cell_angle_alpha   90.00000000
_cell_angle_beta   90.00000000
_cell_angle_gamma   90.00000000
_symmetry_Int_Tables_number   1
_chemical_formula_structural   V11Si3TcAs
_chemical_formula_sum   'V11 Si3 Tc1 As1'
_cell_volume   210.37785689
_cell_formula_units_Z   1
loop_
 _symmetry_equiv_pos_site_id
 _symmetry_equiv_pos_as_xyz
  1  'x, y, z'
loop_
 _atom_site_type_symbol
 _atom_site_label
 _atom_site_symmetry_multiplicity
 _atom_site_fract_x
 _atom_site_fract_y
 _atom_site_fract_z
 _atom_site_occupancy
  V  V0  1  0.999764  0.500000  0.129296  1
  V  V1  1  0.999855  0.500000  0.624581  1
  V  V2  1  0.499950  0.249531  0.747708  1
  V  V3  1  0.499950  0.249531  0.252292  1
  V  V4  1  0.754673  0.000000  0.000000  1
  V  V5  1  0.999764  0.500000  0.870704  1
  V  V6  1  0.999855  0.500000  0.375419  1
  V  V7  1  0.499950  0.750469  0.747708  1
  V  V8  1  0.499950  0.750469  0.252292  1
  V  V9  1  0.246554  0.000000  0.000000  1
  V  V10  1  0.249300  0.000000  0.500000  1
  Si  Si11  1  0.495772  0.500000  0.500000  1
  Si  Si12  1  0.003096  0.000000  0.751593  1
  Si  Si13  1  0.003096  0.000000  0.248407  1
  Tc  Tc14  1  0.749999  0.000000  0.500000  1
  As  As15  1  0.498472  0.500000  0.000000  1
