# generated using pymatgen
data_Li2V5Fe3(SnO8)2
_symmetry_space_group_name_H-M   'P 1'
_cell_length_a   6.03530111
_cell_length_b   6.10079929
_cell_length_c   9.88824170
_cell_angle_alpha   89.91639802
_cell_angle_beta   90.03970032
_cell_angle_gamma   120.25775367
_symmetry_Int_Tables_number   1
_chemical_formula_structural   Li2V5Fe3(SnO8)2
_chemical_formula_sum   'Li2 V5 Fe3 Sn2 O16'
_cell_volume   314.48581527
_cell_formula_units_Z   1
loop_
 _symmetry_equiv_pos_site_id
 _symmetry_equiv_pos_as_xyz
  1  'x, y, z'
loop_
 _atom_site_type_symbol
 _atom_site_label
 _atom_site_symmetry_multiplicity
 _atom_site_fract_x
 _atom_site_fract_y
 _atom_site_fract_z
 _atom_site_occupancy
  Li  Li0  1  0.995170  0.997656  0.837562  1
  Li  Li1  1  0.997443  0.996689  0.334290  1
  V  V2  1  0.832206  0.664442  0.615653  1
  V  V3  1  0.832195  0.167907  0.615713  1
  V  V4  1  0.167789  0.336532  0.117037  1
  V  V5  1  0.333175  0.167023  0.616529  1
  V  V6  1  0.170017  0.832640  0.115621  1
  Fe  Fe7  1  0.668392  0.833307  0.118423  1
  Fe  Fe8  1  0.656972  0.327581  0.933036  1
  Fe  Fe9  1  0.344039  0.672777  0.429901  1
  Sn  Sn10  1  0.668839  0.335343  0.335553  1
  Sn  Sn11  1  0.333095  0.666642  0.837088  1
  O  O12  1  0.667224  0.333578  0.720377  1
  O  O13  1  0.349590  0.676762  0.221251  1
  O  O14  1  0.159164  0.321165  0.734657  1
  O  O15  1  0.160227  0.839617  0.734363  1
  O  O16  1  0.836743  0.677152  0.233407  1
  O  O17  1  0.676339  0.837457  0.731458  1
  O  O18  1  0.846871  0.170088  0.231823  1
  O  O19  1  0.322952  0.159066  0.230031  1
  O  O20  1  0.489197  0.963072  0.986569  1
  O  O21  1  0.473080  0.508546  0.986713  1
  O  O22  1  0.515288  0.037315  0.486770  1
  O  O23  1  0.035332  0.524385  0.990567  1
  O  O24  1  0.514080  0.477786  0.487390  1
  O  O25  1  0.967766  0.483995  0.488046  1
  O  O26  1  0.989546  0.992568  0.022085  1
  O  O27  1  0.997270  0.998909  0.518071  1
