# generated using pymatgen
data_TaMn2Nb3(B2Ru5)2
_symmetry_space_group_name_H-M   'P 1'
_cell_length_a   9.31958883
_cell_length_b   9.31958883
_cell_length_c   2.99515200
_cell_angle_alpha   90.00000000
_cell_angle_beta   90.00000000
_cell_angle_gamma   90.08932881
_symmetry_Int_Tables_number   1
_chemical_formula_structural   TaMn2Nb3(B2Ru5)2
_chemical_formula_sum   'Ta1 Mn2 Nb3 B4 Ru10'
_cell_volume   260.14282005
_cell_formula_units_Z   1
loop_
 _symmetry_equiv_pos_site_id
 _symmetry_equiv_pos_as_xyz
  1  'x, y, z'
loop_
 _atom_site_type_symbol
 _atom_site_label
 _atom_site_symmetry_multiplicity
 _atom_site_fract_x
 _atom_site_fract_y
 _atom_site_fract_z
 _atom_site_occupancy
  Ta  Ta0  1  0.677302  0.177302  0.000000  1
  Mn  Mn1  1  0.499870  0.500026  0.000000  1
  Mn  Mn2  1  0.000026  0.999870  0.000000  1
  Nb  Nb3  1  0.822731  0.677241  0.000000  1
  Nb  Nb4  1  0.177241  0.322731  0.000000  1
  Nb  Nb5  1  0.323013  0.823013  0.000000  1
  B  B6  1  0.623946  0.875895  0.000000  1
  B  B7  1  0.375895  0.123946  0.000000  1
  B  B8  1  0.124054  0.624054  0.000000  1
  B  B9  1  0.876064  0.376064  0.000000  1
  Ru  Ru10  1  0.570500  0.714433  0.500000  1
  Ru  Ru11  1  0.430207  0.285510  0.500000  1
  Ru  Ru12  1  0.070297  0.785629  0.500000  1
  Ru  Ru13  1  0.928606  0.214074  0.500000  1
  Ru  Ru14  1  0.285629  0.570297  0.500000  1
  Ru  Ru15  1  0.714074  0.428606  0.500000  1
  Ru  Ru16  1  0.214433  0.070500  0.500000  1
  Ru  Ru17  1  0.785510  0.930207  0.500000  1
  Ru  Ru18  1  0.500645  0.000645  0.500000  1
  Ru  Ru19  1  0.999957  0.499957  0.500000  1
