# generated using pymatgen
data_Pr16Mg2AgHg(IrPt)2
_symmetry_space_group_name_H-M   'P 1'
_cell_length_a   10.05800617
_cell_length_b   10.05800523
_cell_length_c   10.05709800
_cell_angle_alpha   60.00298373
_cell_angle_beta   60.00298682
_cell_angle_gamma   60.34994143
_symmetry_Int_Tables_number   1
_chemical_formula_structural   Pr16Mg2AgHg(IrPt)2
_chemical_formula_sum   'Pr16 Mg2 Ag1 Hg1 Ir2 Pt2'
_cell_volume   721.33426014
_cell_formula_units_Z   1
loop_
 _symmetry_equiv_pos_site_id
 _symmetry_equiv_pos_as_xyz
  1  'x, y, z'
loop_
 _atom_site_type_symbol
 _atom_site_label
 _atom_site_symmetry_multiplicity
 _atom_site_fract_x
 _atom_site_fract_y
 _atom_site_fract_z
 _atom_site_occupancy
  Pr  Pr0  1  0.349361  0.349361  0.344313  1
  Pr  Pr1  1  0.349075  0.349075  0.956805  1
  Pr  Pr2  1  0.355349  0.947082  0.348730  1
  Pr  Pr3  1  0.947082  0.355349  0.348730  1
  Pr  Pr4  1  0.806688  0.188366  0.190750  1
  Pr  Pr5  1  0.189349  0.806265  0.813130  1
  Pr  Pr6  1  0.188366  0.806688  0.190750  1
  Pr  Pr7  1  0.806265  0.189349  0.813130  1
  Pr  Pr8  1  0.189982  0.189982  0.809852  1
  Pr  Pr9  1  0.806452  0.806452  0.193254  1
  Pr  Pr10  1  0.937048  0.562274  0.563091  1
  Pr  Pr11  1  0.562751  0.935979  0.938749  1
  Pr  Pr12  1  0.562274  0.937048  0.563091  1
  Pr  Pr13  1  0.935979  0.562751  0.938749  1
  Pr  Pr14  1  0.561684  0.561684  0.940357  1
  Pr  Pr15  1  0.936979  0.936979  0.563603  1
  Mg  Mg16  1  0.580033  0.274487  0.571822  1
  Mg  Mg17  1  0.274487  0.580033  0.571822  1
  Ag  Ag18  1  0.580943  0.580943  0.251984  1
  Hg  Hg19  1  0.582172  0.582172  0.585008  1
  Ir  Ir20  1  0.140873  0.572873  0.143199  1
  Ir  Ir21  1  0.572873  0.140873  0.143199  1
  Pt  Pt22  1  0.141848  0.141848  0.144533  1
  Pt  Pt23  1  0.142086  0.142086  0.571345  1
