# generated using pymatgen
data_Sm3GdPd3RuO14
_symmetry_space_group_name_H-M   'P 1'
_cell_length_a   7.31350241
_cell_length_b   7.35964128
_cell_length_c   7.31350200
_cell_angle_alpha   60.20716867
_cell_angle_beta   60.00000187
_cell_angle_gamma   60.20717065
_symmetry_Int_Tables_number   1
_chemical_formula_structural   Sm3GdPd3RuO14
_chemical_formula_sum   'Sm3 Gd1 Pd3 Ru1 O14'
_cell_volume   279.21922090
_cell_formula_units_Z   1
loop_
 _symmetry_equiv_pos_site_id
 _symmetry_equiv_pos_as_xyz
  1  'x, y, z'
loop_
 _atom_site_type_symbol
 _atom_site_label
 _atom_site_symmetry_multiplicity
 _atom_site_fract_x
 _atom_site_fract_y
 _atom_site_fract_z
 _atom_site_occupancy
  Sm  Sm0  1  0.625000  0.625000  0.625000  1
  Sm  Sm1  1  0.125000  0.625000  0.625000  1
  Sm  Sm2  1  0.625000  0.625000  0.125000  1
  Gd  Gd3  1  0.625000  0.125000  0.625000  1
  Pd  Pd4  1  0.125000  0.125000  0.125000  1
  Pd  Pd5  1  0.625000  0.125000  0.125000  1
  Pd  Pd6  1  0.125000  0.125000  0.625000  1
  Ru  Ru7  1  0.125000  0.625000  0.125000  1
  O  O8  1  0.501359  0.495924  0.501359  1
  O  O9  1  0.748641  0.754076  0.748641  1
  O  O10  1  0.037437  0.034514  0.464024  1
  O  O11  1  0.794898  0.787952  0.208575  1
  O  O12  1  0.464024  0.034514  0.464024  1
  O  O13  1  0.464024  0.034514  0.037437  1
  O  O14  1  0.041425  0.462048  0.455102  1
  O  O15  1  0.041425  0.462048  0.041425  1
  O  O16  1  0.455102  0.462048  0.041425  1
  O  O17  1  0.208575  0.787952  0.794898  1
  O  O18  1  0.785976  0.215486  0.212563  1
  O  O19  1  0.212563  0.215486  0.785976  1
  O  O20  1  0.208575  0.787952  0.208575  1
  O  O21  1  0.785976  0.215486  0.785976  1
