# generated using pymatgen
data_Dy5Si7Ge2P3Ir19
_symmetry_space_group_name_H-M   'P 1'
_cell_length_a   12.87032861
_cell_length_b   12.86221360
_cell_length_c   3.95606600
_cell_angle_alpha   90.00000000
_cell_angle_beta   90.00000000
_cell_angle_gamma   119.76289607
_symmetry_Int_Tables_number   1
_chemical_formula_structural   Dy5Si7Ge2P3Ir19
_chemical_formula_sum   'Dy5 Si7 Ge2 P3 Ir19'
_cell_volume   568.50224829
_cell_formula_units_Z   1
loop_
 _symmetry_equiv_pos_site_id
 _symmetry_equiv_pos_as_xyz
  1  'x, y, z'
loop_
 _atom_site_type_symbol
 _atom_site_label
 _atom_site_symmetry_multiplicity
 _atom_site_fract_x
 _atom_site_fract_y
 _atom_site_fract_z
 _atom_site_occupancy
  Dy  Dy0  1  0.330373  0.663220  0.500000  1
  Dy  Dy1  1  0.666264  0.333328  0.500000  1
  Dy  Dy2  1  0.998944  0.813922  0.000000  1
  Dy  Dy3  1  0.185545  0.185629  0.000000  1
  Dy  Dy4  1  0.815314  0.000880  0.000000  1
  Si  Si5  1  0.998522  0.632401  0.500000  1
  Si  Si6  1  0.365897  0.365660  0.500000  1
  Si  Si7  1  0.635309  0.002248  0.500000  1
  Si  Si8  1  0.165481  0.479163  0.000000  1
  Si  Si9  1  0.480414  0.166670  0.000000  1
  Si  Si10  1  0.685949  0.519099  0.000000  1
  Si  Si11  1  0.832696  0.314132  0.000000  1
  Ge  Ge12  1  0.516402  0.683491  0.000000  1
  Ge  Ge13  1  0.316016  0.831764  0.000000  1
  P  P14  1  0.999641  0.178635  0.500000  1
  P  P15  1  0.822878  0.821743  0.500000  1
  P  P16  1  0.178476  0.000936  0.500000  1
  Ir  Ir17  1  0.521686  0.879649  0.000000  1
  Ir  Ir18  1  0.123683  0.637060  0.000000  1
  Ir  Ir19  1  0.354744  0.479552  0.000000  1
  Ir  Ir20  1  0.487976  0.358956  0.000000  1
  Ir  Ir21  1  0.871690  0.512231  0.000000  1
  Ir  Ir22  1  0.641685  0.129994  0.000000  1
  Ir  Ir23  1  0.998544  0.446488  0.500000  1
  Ir  Ir24  1  0.553421  0.548865  0.500000  1
  Ir  Ir25  1  0.451173  0.006128  0.500000  1
  Ir  Ir26  1  0.999104  0.278092  0.000000  1
  Ir  Ir27  1  0.725547  0.722826  0.000000  1
  Ir  Ir28  1  0.277129  0.002330  0.000000  1
  Ir  Ir29  1  0.634521  0.812815  0.500000  1
  Ir  Ir30  1  0.187152  0.819805  0.500000  1
  Ir  Ir31  1  0.177409  0.371237  0.500000  1
  Ir  Ir32  1  0.372904  0.180547  0.500000  1
  Ir  Ir33  1  0.806978  0.626498  0.500000  1
  Ir  Ir34  1  0.820566  0.193561  0.500000  1
  Ir  Ir35  1  0.999967  0.000445  0.500000  1
