# generated using pymatgen
data_Hf3Co4Si4W
_symmetry_space_group_name_H-M   'P 1'
_cell_length_a   3.76030600
_cell_length_b   6.30632326
_cell_length_c   7.09659459
_cell_angle_alpha   89.57330457
_cell_angle_beta   90.00000000
_cell_angle_gamma   90.00000000
_symmetry_Int_Tables_number   1
_chemical_formula_structural   Hf3Co4Si4W
_chemical_formula_sum   'Hf3 Co4 Si4 W1'
_cell_volume   168.28188539
_cell_formula_units_Z   1
loop_
 _symmetry_equiv_pos_site_id
 _symmetry_equiv_pos_as_xyz
  1  'x, y, z'
loop_
 _atom_site_type_symbol
 _atom_site_label
 _atom_site_symmetry_multiplicity
 _atom_site_fract_x
 _atom_site_fract_y
 _atom_site_fract_z
 _atom_site_occupancy
  Hf  Hf0  1  0.250000  0.513308  0.192964  1
  Hf  Hf1  1  0.750000  0.985954  0.683434  1
  Hf  Hf2  1  0.750000  0.480625  0.810866  1
  Co  Co3  1  0.250000  0.144973  0.938496  1
  Co  Co4  1  0.250000  0.647763  0.565975  1
  Co  Co5  1  0.750000  0.852451  0.064240  1
  Co  Co6  1  0.750000  0.360728  0.431552  1
  Si  Si7  1  0.250000  0.276350  0.599453  1
  Si  Si8  1  0.250000  0.778391  0.890329  1
  Si  Si9  1  0.750000  0.734474  0.383139  1
  Si  Si10  1  0.750000  0.208743  0.122400  1
  W  W11  1  0.250000  0.016239  0.317152  1
