# generated using pymatgen
data_Ho9Th(Ga2Ru3)2
_symmetry_space_group_name_H-M   'P 1'
_cell_length_a   8.29225539
_cell_length_b   8.30446989
_cell_length_c   8.29225300
_cell_angle_alpha   109.35612417
_cell_angle_beta   109.61272528
_cell_angle_gamma   109.38555188
_symmetry_Int_Tables_number   1
_chemical_formula_structural   Ho9Th(Ga2Ru3)2
_chemical_formula_sum   'Ho9 Th1 Ga4 Ru6'
_cell_volume   439.89648989
_cell_formula_units_Z   1
loop_
 _symmetry_equiv_pos_site_id
 _symmetry_equiv_pos_as_xyz
  1  'x, y, z'
loop_
 _atom_site_type_symbol
 _atom_site_label
 _atom_site_symmetry_multiplicity
 _atom_site_fract_x
 _atom_site_fract_y
 _atom_site_fract_z
 _atom_site_occupancy
  Ho  Ho0  1  0.000655  0.218957  0.998060  1
  Ho  Ho1  1  0.749410  0.432104  0.183382  1
  Ho  Ho2  1  0.431694  0.682816  0.251713  1
  Ho  Ho3  1  0.251277  0.067895  0.317305  1
  Ho  Ho4  1  0.215995  0.499215  0.498385  1
  Ho  Ho5  1  0.817873  0.250000  0.567873  1
  Ho  Ho6  1  0.499170  0.000786  0.716781  1
  Ho  Ho7  1  0.068897  0.817185  0.748879  1
  Ho  Ho8  1  0.279104  0.281043  0.781699  1
  Th  Th9  1  0.691042  0.750000  0.941041  1
  Ga  Ga10  1  0.004732  0.588450  0.001279  1
  Ga  Ga11  1  0.496746  0.002214  0.091271  1
  Ga  Ga12  1  0.912829  0.911550  0.416283  1
  Ga  Ga13  1  0.589057  0.497786  0.494533  1
  Ru  Ru14  1  0.372348  0.250000  0.122348  1
  Ru  Ru15  1  0.869112  0.114174  0.238160  1
  Ru  Ru16  1  0.124952  0.750000  0.374951  1
  Ru  Ru17  1  0.749000  0.877162  0.629284  1
  Ru  Ru18  1  0.623988  0.385827  0.754938  1
  Ru  Ru19  1  0.252123  0.622838  0.871840  1
