# generated using pymatgen
data_LaPr9Sn6AuI
_symmetry_space_group_name_H-M   'P 1'
_cell_length_a   9.69912069
_cell_length_b   9.68448167
_cell_length_c   6.89244603
_cell_angle_alpha   89.98910545
_cell_angle_beta   90.00544338
_cell_angle_gamma   119.95008456
_symmetry_Int_Tables_number   1
_chemical_formula_structural   LaPr9Sn6AuI
_chemical_formula_sum   'La1 Pr9 Sn6 Au1 I1'
_cell_volume   560.95879977
_cell_formula_units_Z   1
loop_
 _symmetry_equiv_pos_site_id
 _symmetry_equiv_pos_as_xyz
  1  'x, y, z'
loop_
 _atom_site_type_symbol
 _atom_site_label
 _atom_site_symmetry_multiplicity
 _atom_site_fract_x
 _atom_site_fract_y
 _atom_site_fract_z
 _atom_site_occupancy
  La  La0  1  0.000000  0.729926  0.759613  1
  Pr  Pr1  1  0.729535  0.729976  0.240491  1
  Pr  Pr2  1  0.333802  0.666499  0.498745  1
  Pr  Pr3  1  0.270303  0.269939  0.759344  1
  Pr  Pr4  1  0.000000  0.270734  0.240602  1
  Pr  Pr5  1  0.666198  0.332696  0.498745  1
  Pr  Pr6  1  0.270465  0.000440  0.240491  1
  Pr  Pr7  1  0.729697  0.999636  0.759344  1
  Pr  Pr8  1  0.333811  0.666617  0.001067  1
  Pr  Pr9  1  0.666189  0.332804  0.001067  1
  Sn  Sn10  1  0.384471  0.384640  0.249990  1
  Sn  Sn11  1  0.613195  0.615018  0.750087  1
  Sn  Sn12  1  0.386805  0.001823  0.750087  1
  Sn  Sn13  1  0.000000  0.615766  0.250695  1
  Sn  Sn14  1  0.615529  0.000169  0.249990  1
  Sn  Sn15  1  0.000000  0.381781  0.749975  1
  Au  Au16  1  0.000000  0.000707  0.000689  1
  I  I17  1  0.000000  0.000827  0.498978  1
