# generated using pymatgen
data_Ba3LiCu2N3
_symmetry_space_group_name_H-M   'P 1'
_cell_length_a   5.59167700
_cell_length_b   9.62496700
_cell_length_c   13.74504400
_cell_angle_alpha   90.00000000
_cell_angle_beta   90.00000000
_cell_angle_gamma   90.00000000
_symmetry_Int_Tables_number   1
_chemical_formula_structural   Ba3LiCu2N3
_chemical_formula_sum   'Ba12 Li4 Cu8 N12'
_cell_volume   739.75423528
_cell_formula_units_Z   4
loop_
 _symmetry_equiv_pos_site_id
 _symmetry_equiv_pos_as_xyz
  1  'x, y, z'
loop_
 _atom_site_type_symbol
 _atom_site_label
 _atom_site_symmetry_multiplicity
 _atom_site_fract_x
 _atom_site_fract_y
 _atom_site_fract_z
 _atom_site_occupancy
  Ba  Ba0  1  0.486461  0.487676  0.753077  1
  Ba  Ba1  1  0.986461  0.012324  0.246923  1
  Ba  Ba2  1  0.013539  0.987676  0.746923  1
  Ba  Ba3  1  0.513539  0.512324  0.253077  1
  Ba  Ba4  1  0.995067  0.336146  0.414758  1
  Ba  Ba5  1  0.495067  0.163854  0.585242  1
  Ba  Ba6  1  0.504933  0.836146  0.085242  1
  Ba  Ba7  1  0.004933  0.663854  0.914758  1
  Ba  Ba8  1  0.033914  0.663047  0.591272  1
  Ba  Ba9  1  0.533914  0.836953  0.408728  1
  Ba  Ba10  1  0.466086  0.163047  0.908728  1
  Ba  Ba11  1  0.966086  0.336953  0.091272  1
  Li  Li12  1  0.455831  0.169878  0.151078  1
  Li  Li13  1  0.955831  0.330122  0.848922  1
  Li  Li14  1  0.044169  0.669878  0.348922  1
  Li  Li15  1  0.544169  0.830122  0.651078  1
  Cu  Cu16  1  0.526388  0.835630  0.836134  1
  Cu  Cu17  1  0.026388  0.664370  0.163866  1
  Cu  Cu18  1  0.973612  0.335630  0.663866  1
  Cu  Cu19  1  0.473612  0.164370  0.336134  1
  Cu  Cu20  1  0.983172  0.003838  0.996235  1
  Cu  Cu21  1  0.483172  0.496162  0.003765  1
  Cu  Cu22  1  0.516828  0.503838  0.503765  1
  Cu  Cu23  1  0.016828  0.996162  0.496235  1
  N  N24  1  0.316980  0.758292  0.747542  1
  N  N25  1  0.816980  0.741708  0.252458  1
  N  N26  1  0.183020  0.258292  0.752458  1
  N  N27  1  0.683020  0.241708  0.247542  1
  N  N28  1  0.245041  0.085629  0.419534  1
  N  N29  1  0.745041  0.414371  0.580466  1
  N  N30  1  0.254959  0.585629  0.080466  1
  N  N31  1  0.754959  0.914371  0.919534  1
  N  N32  1  0.782180  0.913808  0.572898  1
  N  N33  1  0.282180  0.586192  0.427102  1
  N  N34  1  0.717820  0.413808  0.927102  1
  N  N35  1  0.217820  0.086192  0.072898  1
