# generated using pymatgen
data_YbHo2(SiPd)3
_symmetry_space_group_name_H-M   'P 1'
_cell_length_a   4.33138000
_cell_length_b   7.42618500
_cell_length_c   21.05342300
_cell_angle_alpha   90.00000000
_cell_angle_beta   90.00000000
_cell_angle_gamma   90.00000000
_symmetry_Int_Tables_number   1
_chemical_formula_structural   YbHo2(SiPd)3
_chemical_formula_sum   'Yb4 Ho8 Si12 Pd12'
_cell_volume   677.19659730
_cell_formula_units_Z   4
loop_
 _symmetry_equiv_pos_site_id
 _symmetry_equiv_pos_as_xyz
  1  'x, y, z'
loop_
 _atom_site_type_symbol
 _atom_site_label
 _atom_site_symmetry_multiplicity
 _atom_site_fract_x
 _atom_site_fract_y
 _atom_site_fract_z
 _atom_site_occupancy
  Yb  Yb0  1  0.250000  0.704484  0.332429  1
  Yb  Yb1  1  0.750000  0.295516  0.667571  1
  Yb  Yb2  1  0.750000  0.204484  0.167571  1
  Yb  Yb3  1  0.250000  0.795516  0.832429  1
  Ho  Ho4  1  0.250000  0.795077  0.166260  1
  Ho  Ho5  1  0.750000  0.204923  0.833740  1
  Ho  Ho6  1  0.750000  0.295077  0.333740  1
  Ho  Ho7  1  0.250000  0.704923  0.666260  1
  Ho  Ho8  1  0.250000  0.706238  0.000491  1
  Ho  Ho9  1  0.750000  0.293762  0.999509  1
  Ho  Ho10  1  0.750000  0.206238  0.499509  1
  Ho  Ho11  1  0.250000  0.793762  0.500491  1
  Si  Si12  1  0.250000  0.086645  0.065371  1
  Si  Si13  1  0.750000  0.913355  0.934629  1
  Si  Si14  1  0.750000  0.586645  0.434629  1
  Si  Si15  1  0.250000  0.413355  0.565371  1
  Si  Si16  1  0.250000  0.087575  0.274040  1
  Si  Si17  1  0.750000  0.912425  0.725960  1
  Si  Si18  1  0.750000  0.587575  0.225960  1
  Si  Si19  1  0.250000  0.412425  0.774040  1
  Si  Si20  1  0.250000  0.089934  0.395509  1
  Si  Si21  1  0.750000  0.910066  0.604491  1
  Si  Si22  1  0.750000  0.589934  0.104491  1
  Si  Si23  1  0.250000  0.410066  0.895509  1
  Pd  Pd24  1  0.250000  0.415892  0.237040  1
  Pd  Pd25  1  0.750000  0.584108  0.762960  1
  Pd  Pd26  1  0.750000  0.915892  0.262960  1
  Pd  Pd27  1  0.250000  0.084108  0.737040  1
  Pd  Pd28  1  0.250000  0.418242  0.436531  1
  Pd  Pd29  1  0.750000  0.581758  0.563469  1
  Pd  Pd30  1  0.750000  0.918242  0.063469  1
  Pd  Pd31  1  0.250000  0.081758  0.936531  1
  Pd  Pd32  1  0.250000  0.417583  0.092774  1
  Pd  Pd33  1  0.750000  0.582417  0.907226  1
  Pd  Pd34  1  0.750000  0.917583  0.407226  1
  Pd  Pd35  1  0.250000  0.082417  0.592774  1
