# generated using pymatgen
data_Y5Er3Cd2OsPt
_symmetry_space_group_name_H-M   'P 1'
_cell_length_a   9.62613446
_cell_length_b   9.64539890
_cell_length_c   9.71416627
_cell_angle_alpha   59.63090961
_cell_angle_beta   59.82749848
_cell_angle_gamma   59.65181505
_symmetry_Int_Tables_number   1
_chemical_formula_structural   Y5Er3Cd2OsPt
_chemical_formula_sum   'Y10 Er6 Cd4 Os2 Pt2'
_cell_volume   633.46675529
_cell_formula_units_Z   2
loop_
 _symmetry_equiv_pos_site_id
 _symmetry_equiv_pos_as_xyz
  1  'x, y, z'
loop_
 _atom_site_type_symbol
 _atom_site_label
 _atom_site_symmetry_multiplicity
 _atom_site_fract_x
 _atom_site_fract_y
 _atom_site_fract_z
 _atom_site_occupancy
  Y  Y0  1  0.187655  0.814292  0.191518  1
  Y  Y1  1  0.814291  0.187652  0.806534  1
  Y  Y2  1  0.188314  0.188309  0.811685  1
  Y  Y3  1  0.808093  0.808085  0.191909  1
  Y  Y4  1  0.938445  0.556837  0.565967  1
  Y  Y5  1  0.556849  0.938443  0.938737  1
  Y  Y6  1  0.555736  0.939048  0.565802  1
  Y  Y7  1  0.939040  0.555748  0.939400  1
  Y  Y8  1  0.562381  0.562389  0.937611  1
  Y  Y9  1  0.940672  0.940667  0.559330  1
  Er  Er10  1  0.349473  0.349543  0.351549  1
  Er  Er11  1  0.349538  0.349453  0.949463  1
  Er  Er12  1  0.345950  0.956389  0.348838  1
  Er  Er13  1  0.956392  0.345954  0.348841  1
  Er  Er14  1  0.813980  0.188421  0.191287  1
  Er  Er15  1  0.188395  0.813983  0.806302  1
  Cd  Cd16  1  0.579905  0.579920  0.580870  1
  Cd  Cd17  1  0.579909  0.579916  0.259314  1
  Cd  Cd18  1  0.580720  0.256287  0.581518  1
  Cd  Cd19  1  0.256295  0.580717  0.581493  1
  Os  Os20  1  0.142567  0.146178  0.139228  1
  Os  Os21  1  0.146181  0.142558  0.572007  1
  Pt  Pt22  1  0.146920  0.572304  0.138745  1
  Pt  Pt23  1  0.572301  0.146910  0.142052  1
