# generated using pymatgen
data_K2NpS4
_symmetry_space_group_name_H-M   'P 1'
_cell_length_a   6.97800100
_cell_length_b   9.81170300
_cell_length_c   24.14146900
_cell_angle_alpha   90.00000000
_cell_angle_beta   90.00000000
_cell_angle_gamma   90.00000000
_symmetry_Int_Tables_number   1
_chemical_formula_structural   K2NpS4
_chemical_formula_sum   'K16 Np8 S32'
_cell_volume   1652.87158723
_cell_formula_units_Z   8
loop_
 _symmetry_equiv_pos_site_id
 _symmetry_equiv_pos_as_xyz
  1  'x, y, z'
loop_
 _atom_site_type_symbol
 _atom_site_label
 _atom_site_symmetry_multiplicity
 _atom_site_fract_x
 _atom_site_fract_y
 _atom_site_fract_z
 _atom_site_occupancy
  K  K0  1  0.068681  0.072072  0.198432  1
  K  K1  1  0.568681  0.427928  0.198432  1
  K  K2  1  0.205105  0.857374  0.969010  1
  K  K3  1  0.205105  0.357374  0.530990  1
  K  K4  1  0.794895  0.642626  0.469010  1
  K  K5  1  0.568681  0.927928  0.301568  1
  K  K6  1  0.431319  0.072072  0.698432  1
  K  K7  1  0.431319  0.572072  0.801568  1
  K  K8  1  0.705105  0.142626  0.530990  1
  K  K9  1  0.931319  0.427928  0.698432  1
  K  K10  1  0.931319  0.927928  0.801568  1
  K  K11  1  0.068681  0.572072  0.301568  1
  K  K12  1  0.294895  0.357374  0.030990  1
  K  K13  1  0.705105  0.642626  0.969010  1
  K  K14  1  0.294895  0.857374  0.469010  1
  K  K15  1  0.794895  0.142626  0.030990  1
  Np  Np16  1  0.557889  0.833553  0.131235  1
  Np  Np17  1  0.442111  0.166447  0.868765  1
  Np  Np18  1  0.057889  0.666447  0.131235  1
  Np  Np19  1  0.942111  0.333553  0.868765  1
  Np  Np20  1  0.442111  0.666447  0.631235  1
  Np  Np21  1  0.942111  0.833553  0.631235  1
  Np  Np22  1  0.557889  0.333553  0.368765  1
  Np  Np23  1  0.057889  0.166447  0.368765  1
  S  S24  1  0.431759  0.899324  0.840764  1
  S  S25  1  0.431759  0.399324  0.659236  1
  S  S26  1  0.864062  0.335003  0.435301  1
  S  S27  1  0.611725  0.936012  0.909161  1
  S  S28  1  0.708456  0.228152  0.795108  1
  S  S29  1  0.888275  0.936012  0.409161  1
  S  S30  1  0.888275  0.436012  0.090839  1
  S  S31  1  0.208456  0.771848  0.704892  1
  S  S32  1  0.708456  0.728152  0.704892  1
  S  S33  1  0.864062  0.835003  0.064699  1
  S  S34  1  0.931759  0.100676  0.659236  1
  S  S35  1  0.388275  0.063988  0.090839  1
  S  S36  1  0.568241  0.100676  0.159236  1
  S  S37  1  0.135938  0.664997  0.564699  1
  S  S38  1  0.208456  0.271848  0.795108  1
  S  S39  1  0.791544  0.228152  0.295108  1
  S  S40  1  0.068241  0.899324  0.340764  1
  S  S41  1  0.111725  0.563988  0.909161  1
  S  S42  1  0.364062  0.664997  0.064699  1
  S  S43  1  0.635938  0.335003  0.935301  1
  S  S44  1  0.611725  0.436012  0.590839  1
  S  S45  1  0.388275  0.563988  0.409161  1
  S  S46  1  0.364062  0.164997  0.435301  1
  S  S47  1  0.791544  0.728152  0.204892  1
  S  S48  1  0.931759  0.600676  0.840764  1
  S  S49  1  0.291544  0.771848  0.204892  1
  S  S50  1  0.568241  0.600676  0.340764  1
  S  S51  1  0.291544  0.271848  0.295108  1
  S  S52  1  0.068241  0.399324  0.159236  1
  S  S53  1  0.635938  0.835003  0.564699  1
  S  S54  1  0.135938  0.164997  0.935301  1
  S  S55  1  0.111725  0.063988  0.590839  1
