# generated using pymatgen
data_Tb4ReTcC4
_symmetry_space_group_name_H-M   'P 1'
_cell_length_a   5.14317700
_cell_length_b   6.60488200
_cell_length_c   9.93834200
_cell_angle_alpha   90.00000000
_cell_angle_beta   90.00000000
_cell_angle_gamma   90.00000000
_symmetry_Int_Tables_number   1
_chemical_formula_structural   Tb4ReTcC4
_chemical_formula_sum   'Tb8 Re2 Tc2 C8'
_cell_volume   337.60624488
_cell_formula_units_Z   2
loop_
 _symmetry_equiv_pos_site_id
 _symmetry_equiv_pos_as_xyz
  1  'x, y, z'
loop_
 _atom_site_type_symbol
 _atom_site_label
 _atom_site_symmetry_multiplicity
 _atom_site_fract_x
 _atom_site_fract_y
 _atom_site_fract_z
 _atom_site_occupancy
  Tb  Tb0  1  0.750000  0.820136  0.055607  1
  Tb  Tb1  1  0.250000  0.679864  0.555607  1
  Tb  Tb2  1  0.750000  0.318907  0.443030  1
  Tb  Tb3  1  0.250000  0.181093  0.943030  1
  Tb  Tb4  1  0.750000  0.468547  0.783639  1
  Tb  Tb5  1  0.250000  0.031453  0.283639  1
  Tb  Tb6  1  0.750000  0.969304  0.715488  1
  Tb  Tb7  1  0.250000  0.530696  0.215488  1
  Re  Re8  1  0.750000  0.778120  0.364624  1
  Re  Re9  1  0.250000  0.721880  0.864624  1
  Tc  Tc10  1  0.750000  0.277657  0.135114  1
  Tc  Tc11  1  0.250000  0.222343  0.635114  1
  C  C12  1  0.750000  0.178809  0.953539  1
  C  C13  1  0.250000  0.820395  0.047674  1
  C  C14  1  0.750000  0.679605  0.547674  1
  C  C15  1  0.250000  0.321191  0.453539  1
  C  C16  1  0.750000  0.043172  0.259206  1
  C  C17  1  0.250000  0.456828  0.759206  1
  C  C18  1  0.750000  0.545199  0.242079  1
  C  C19  1  0.250000  0.954801  0.742079  1
