# generated using pymatgen
data_KTl2F7
_symmetry_space_group_name_H-M   'P 1'
_cell_length_a   8.55931200
_cell_length_b   6.93529059
_cell_length_c   11.29360700
_cell_angle_alpha   89.97633911
_cell_angle_beta   90.00000000
_cell_angle_gamma   90.00000000
_symmetry_Int_Tables_number   1
_chemical_formula_structural   KTl2F7
_chemical_formula_sum   'K4 Tl8 F28'
_cell_volume   670.40331654
_cell_formula_units_Z   4
loop_
 _symmetry_equiv_pos_site_id
 _symmetry_equiv_pos_as_xyz
  1  'x, y, z'
loop_
 _atom_site_type_symbol
 _atom_site_label
 _atom_site_symmetry_multiplicity
 _atom_site_fract_x
 _atom_site_fract_y
 _atom_site_fract_z
 _atom_site_occupancy
  K  K0  1  0.750000  0.751015  0.251823  1
  K  K1  1  0.250000  0.248985  0.748177  1
  K  K2  1  0.750000  0.244039  0.749513  1
  K  K3  1  0.250000  0.755961  0.250487  1
  Tl  Tl4  1  0.504426  0.250078  0.058659  1
  Tl  Tl5  1  0.004426  0.749922  0.941341  1
  Tl  Tl6  1  0.495574  0.749922  0.941341  1
  Tl  Tl7  1  0.995574  0.250078  0.058659  1
  Tl  Tl8  1  0.995030  0.250218  0.440776  1
  Tl  Tl9  1  0.495030  0.749782  0.559224  1
  Tl  Tl10  1  0.004970  0.749782  0.559224  1
  Tl  Tl11  1  0.504970  0.250218  0.440776  1
  F  F12  1  0.530224  0.937763  0.106810  1
  F  F13  1  0.030224  0.062237  0.893190  1
  F  F14  1  0.469776  0.062237  0.893190  1
  F  F15  1  0.969776  0.937763  0.106810  1
  F  F16  1  0.532528  0.562511  0.106328  1
  F  F17  1  0.032528  0.437489  0.893672  1
  F  F18  1  0.467472  0.437489  0.893672  1
  F  F19  1  0.967472  0.562511  0.106328  1
  F  F20  1  0.520045  0.937548  0.391443  1
  F  F21  1  0.020045  0.062452  0.608557  1
  F  F22  1  0.479955  0.062452  0.608557  1
  F  F23  1  0.979955  0.937548  0.391443  1
  F  F24  1  0.750000  0.249442  0.991260  1
  F  F25  1  0.250000  0.750558  0.008740  1
  F  F26  1  0.750000  0.750801  0.895842  1
  F  F27  1  0.250000  0.249199  0.104158  1
  F  F28  1  0.750000  0.249731  0.501837  1
  F  F29  1  0.250000  0.750269  0.498163  1
  F  F30  1  0.750000  0.750986  0.590102  1
  F  F31  1  0.250000  0.249014  0.409898  1
  F  F32  1  0.933391  0.250323  0.249777  1
  F  F33  1  0.433391  0.749677  0.750223  1
  F  F34  1  0.066609  0.749677  0.750223  1
  F  F35  1  0.566609  0.250323  0.249777  1
  F  F36  1  0.979001  0.562772  0.391506  1
  F  F37  1  0.479001  0.437228  0.608494  1
  F  F38  1  0.020999  0.437228  0.608494  1
  F  F39  1  0.520999  0.562772  0.391506  1
