# generated using pymatgen
data_Tb16In4PdRu3
_symmetry_space_group_name_H-M   'P 1'
_cell_length_a   9.71582078
_cell_length_b   9.72627439
_cell_length_c   9.72651779
_cell_angle_alpha   59.84517584
_cell_angle_beta   59.82398282
_cell_angle_gamma   59.82531129
_symmetry_Int_Tables_number   1
_chemical_formula_structural   Tb16In4PdRu3
_chemical_formula_sum   'Tb16 In4 Pd1 Ru3'
_cell_volume   647.44694650
_cell_formula_units_Z   1
loop_
 _symmetry_equiv_pos_site_id
 _symmetry_equiv_pos_as_xyz
  1  'x, y, z'
loop_
 _atom_site_type_symbol
 _atom_site_label
 _atom_site_symmetry_multiplicity
 _atom_site_fract_x
 _atom_site_fract_y
 _atom_site_fract_z
 _atom_site_occupancy
  Tb  Tb0  1  0.809719  0.809447  0.191330  1
  Tb  Tb1  1  0.809710  0.191332  0.809456  1
  Tb  Tb2  1  0.184528  0.198499  0.810611  1
  Tb  Tb3  1  0.654911  0.047253  0.647813  1
  Tb  Tb4  1  0.059968  0.057953  0.440817  1
  Tb  Tb5  1  0.441888  0.434062  0.062215  1
  Tb  Tb6  1  0.655803  0.648741  0.648757  1
  Tb  Tb7  1  0.811701  0.191150  0.191144  1
  Tb  Tb8  1  0.185587  0.809484  0.809504  1
  Tb  Tb9  1  0.043200  0.651807  0.651811  1
  Tb  Tb10  1  0.442519  0.060851  0.060874  1
  Tb  Tb11  1  0.441929  0.062172  0.434077  1
  Tb  Tb12  1  0.059971  0.440809  0.057953  1
  Tb  Tb13  1  0.654923  0.647829  0.047188  1
  Tb  Tb14  1  0.184522  0.810595  0.198509  1
  Tb  Tb15  1  0.062335  0.439102  0.439122  1
  In  In16  1  0.418090  0.418289  0.418301  1
  In  In17  1  0.418043  0.418395  0.745929  1
  In  In18  1  0.418007  0.745900  0.418394  1
  In  In19  1  0.748499  0.417246  0.417168  1
  Pd  Pd20  1  0.423882  0.857938  0.857902  1
  Ru  Ru21  1  0.856916  0.421542  0.858556  1
  Ru  Ru22  1  0.856471  0.861031  0.861000  1
  Ru  Ru23  1  0.856878  0.858575  0.421570  1
