# generated using pymatgen
data_Th5Np(Co3Sb4)2
_symmetry_space_group_name_H-M   'P 1'
_cell_length_a   8.24307892
_cell_length_b   8.24307876
_cell_length_c   8.24307876
_cell_angle_alpha   109.66454329
_cell_angle_beta   109.08525557
_cell_angle_gamma   109.66454899
_symmetry_Int_Tables_number   1
_chemical_formula_structural   Th5Np(Co3Sb4)2
_chemical_formula_sum   'Th5 Np1 Co6 Sb8'
_cell_volume   431.15329354
_cell_formula_units_Z   1
loop_
 _symmetry_equiv_pos_site_id
 _symmetry_equiv_pos_as_xyz
  1  'x, y, z'
loop_
 _atom_site_type_symbol
 _atom_site_label
 _atom_site_symmetry_multiplicity
 _atom_site_fract_x
 _atom_site_fract_y
 _atom_site_fract_z
 _atom_site_occupancy
  Th  Th0  1  0.753207  0.877422  0.127208  1
  Th  Th1  1  0.249786  0.622578  0.375785  1
  Th  Th2  1  0.624215  0.374000  0.246793  1
  Th  Th3  1  0.872792  0.126000  0.750214  1
  Th  Th4  1  0.125000  0.750000  0.875000  1
  Np  Np5  1  0.375000  0.250000  0.625000  1
  Co  Co6  1  0.152761  0.917227  0.293546  1
  Co  Co7  1  0.625000  0.750000  0.375000  1
  Co  Co8  1  0.875000  0.250000  0.125000  1
  Co  Co9  1  0.264465  0.140785  0.847239  1
  Co  Co10  1  0.706454  0.359215  0.623680  1
  Co  Co11  1  0.376320  0.582773  0.735535  1
  Sb  Sb12  1  0.997473  0.336288  0.500924  1
  Sb  Sb13  1  0.838815  0.503451  0.002527  1
  Sb  Sb14  1  0.499076  0.996549  0.835364  1
  Sb  Sb15  1  0.663254  0.661786  0.661071  1
  Sb  Sb16  1  0.164636  0.163712  0.161185  1
  Sb  Sb17  1  0.338929  0.502183  0.000715  1
  Sb  Sb18  1  0.498532  0.997817  0.336746  1
  Sb  Sb19  1  0.999285  0.838214  0.501468  1
