# generated using pymatgen
data_Ce3Zn3Cu2Ir
_symmetry_space_group_name_H-M   'P 1'
_cell_length_a   7.20689100
_cell_length_b   7.20689152
_cell_length_c   3.95335200
_cell_angle_alpha   90.00000000
_cell_angle_beta   90.00000000
_cell_angle_gamma   120.00000220
_symmetry_Int_Tables_number   1
_chemical_formula_structural   Ce3Zn3Cu2Ir
_chemical_formula_sum   'Ce3 Zn3 Cu2 Ir1'
_cell_volume   177.82468401
_cell_formula_units_Z   1
loop_
 _symmetry_equiv_pos_site_id
 _symmetry_equiv_pos_as_xyz
  1  'x, y, z'
loop_
 _atom_site_type_symbol
 _atom_site_label
 _atom_site_symmetry_multiplicity
 _atom_site_fract_x
 _atom_site_fract_y
 _atom_site_fract_z
 _atom_site_occupancy
  Ce  Ce0  1  0.992157  0.412369  0.000000  1
  Ce  Ce1  1  0.587631  0.579787  0.000000  1
  Ce  Ce2  1  0.420213  0.007843  0.000000  1
  Zn  Zn3  1  0.003901  0.763820  0.500000  1
  Zn  Zn4  1  0.236180  0.240080  0.500000  1
  Zn  Zn5  1  0.759920  0.996099  0.500000  1
  Cu  Cu6  1  0.000000  0.000000  0.000000  1
  Cu  Cu7  1  0.333333  0.666667  0.500000  1
  Ir  Ir8  1  0.666667  0.333333  0.500000  1
