# generated using pymatgen
data_Ba2Na(PdO2)3
_symmetry_space_group_name_H-M   'P 1'
_cell_length_a   9.49826157
_cell_length_b   8.71013330
_cell_length_c   7.27888602
_cell_angle_alpha   72.25153102
_cell_angle_beta   60.86496439
_cell_angle_gamma   46.88737482
_symmetry_Int_Tables_number   1
_chemical_formula_structural   Ba2Na(PdO2)3
_chemical_formula_sum   'Ba4 Na2 Pd6 O12'
_cell_volume   383.61689110
_cell_formula_units_Z   2
loop_
 _symmetry_equiv_pos_site_id
 _symmetry_equiv_pos_as_xyz
  1  'x, y, z'
loop_
 _atom_site_type_symbol
 _atom_site_label
 _atom_site_symmetry_multiplicity
 _atom_site_fract_x
 _atom_site_fract_y
 _atom_site_fract_z
 _atom_site_occupancy
  Ba  Ba0  1  0.250001  0.250054  0.249975  1
  Ba  Ba1  1  0.749999  0.749946  0.750025  1
  Ba  Ba2  1  0.770218  0.229753  0.770071  1
  Ba  Ba3  1  0.229782  0.770247  0.229929  1
  Na  Na4  1  0.322657  0.322802  0.677261  1
  Na  Na5  1  0.677343  0.677198  0.322739  1
  Pd  Pd6  1  0.303231  0.985428  0.696805  1
  Pd  Pd7  1  0.014381  0.696989  0.985475  1
  Pd  Pd8  1  0.985619  0.303011  0.014525  1
  Pd  Pd9  1  0.696769  0.014572  0.303195  1
  Pd  Pd10  1  0.658075  0.341914  0.341982  1
  Pd  Pd11  1  0.341925  0.658086  0.658018  1
  O  O12  1  0.667996  0.531593  0.096500  1
  O  O13  1  0.703782  0.096525  0.531883  1
  O  O14  1  0.096356  0.704242  0.667802  1
  O  O15  1  0.531779  0.667744  0.703958  1
  O  O16  1  0.332004  0.468407  0.903500  1
  O  O17  1  0.296218  0.903475  0.468117  1
  O  O18  1  0.302860  0.064697  0.935128  1
  O  O19  1  0.468221  0.332256  0.296042  1
  O  O20  1  0.064910  0.302741  0.697251  1
  O  O21  1  0.935090  0.697259  0.302749  1
  O  O22  1  0.697140  0.935303  0.064872  1
  O  O23  1  0.903644  0.295758  0.332198  1
