# generated using pymatgen
data_HfZrBi2F14
_symmetry_space_group_name_H-M   'P 1'
_cell_length_a   5.87525818
_cell_length_b   6.25744323
_cell_length_c   8.48994684
_cell_angle_alpha   101.88542544
_cell_angle_beta   90.00002631
_cell_angle_gamma   89.96960321
_symmetry_Int_Tables_number   1
_chemical_formula_structural   HfZrBi2F14
_chemical_formula_sum   'Hf1 Zr1 Bi2 F14'
_cell_volume   305.43363794
_cell_formula_units_Z   1
loop_
 _symmetry_equiv_pos_site_id
 _symmetry_equiv_pos_as_xyz
  1  'x, y, z'
loop_
 _atom_site_type_symbol
 _atom_site_label
 _atom_site_symmetry_multiplicity
 _atom_site_fract_x
 _atom_site_fract_y
 _atom_site_fract_z
 _atom_site_occupancy
  Hf  Hf0  1  0.207911  0.190020  0.777259  1
  Zr  Zr1  1  0.709017  0.808299  0.223017  1
  Bi  Bi2  1  0.695019  0.659681  0.682738  1
  Bi  Bi3  1  0.196080  0.340714  0.318213  1
  F  F4  1  0.885658  0.447678  0.474800  1
  F  F5  1  0.386338  0.556361  0.524472  1
  F  F6  1  0.433112  0.942270  0.765114  1
  F  F7  1  0.931612  0.064114  0.233796  1
  F  F8  1  0.963976  0.960100  0.756397  1
  F  F9  1  0.456967  0.037535  0.244027  1
  F  F10  1  0.988876  0.436301  0.786436  1
  F  F11  1  0.495823  0.551449  0.212422  1
  F  F12  1  0.701289  0.761358  0.980723  1
  F  F13  1  0.201859  0.237271  0.015789  1
  F  F14  1  0.712010  0.856617  0.471052  1
  F  F15  1  0.211357  0.146380  0.533034  1
  F  F16  1  0.481530  0.387987  0.783437  1
  F  F17  1  0.994288  0.615863  0.217272  1
