# generated using pymatgen
data_Sr5Pu2O12
_symmetry_space_group_name_H-M   'P 1'
_cell_length_a   8.10107017
_cell_length_b   8.09731913
_cell_length_c   10.81705900
_cell_angle_alpha   111.97368765
_cell_angle_beta   111.98542885
_cell_angle_gamma   90.00826676
_symmetry_Int_Tables_number   1
_chemical_formula_structural   Sr5Pu2O12
_chemical_formula_sum   'Sr10 Pu4 O24'
_cell_volume   602.00099805
_cell_formula_units_Z   2
loop_
 _symmetry_equiv_pos_site_id
 _symmetry_equiv_pos_as_xyz
  1  'x, y, z'
loop_
 _atom_site_type_symbol
 _atom_site_label
 _atom_site_symmetry_multiplicity
 _atom_site_fract_x
 _atom_site_fract_y
 _atom_site_fract_z
 _atom_site_occupancy
  Sr  Sr0  1  0.500142  0.500356  0.000102  1
  Sr  Sr1  1  0.999982  0.999989  0.999974  1
  Sr  Sr2  1  0.445339  0.341340  0.288316  1
  Sr  Sr3  1  0.946862  0.445418  0.288360  1
  Sr  Sr4  1  0.341562  0.842928  0.288405  1
  Sr  Sr5  1  0.842970  0.946798  0.288427  1
  Sr  Sr6  1  0.157142  0.053324  0.711606  1
  Sr  Sr7  1  0.658389  0.157138  0.711594  1
  Sr  Sr8  1  0.053153  0.554515  0.711635  1
  Sr  Sr9  1  0.554595  0.658685  0.711653  1
  Pu  Pu10  1  0.499977  0.999929  0.999941  1
  Pu  Pu11  1  0.999952  0.499975  0.999947  1
  Pu  Pu12  1  0.242592  0.242372  0.484875  1
  Pu  Pu13  1  0.757448  0.757679  0.515170  1
  O  O14  1  0.285225  0.116797  0.999797  1
  O  O15  1  0.882932  0.285331  0.999919  1
  O  O16  1  0.117048  0.714667  0.000090  1
  O  O17  1  0.714795  0.883128  0.000222  1
  O  O18  1  0.652624  0.237277  0.159095  1
  O  O19  1  0.236845  0.506388  0.159315  1
  O  O20  1  0.922234  0.652791  0.159185  1
  O  O21  1  0.506488  0.922591  0.159482  1
  O  O22  1  0.130141  0.130211  0.260031  1
  O  O23  1  0.644303  0.644542  0.288437  1
  O  O24  1  0.475337  0.184666  0.475384  1
  O  O25  1  0.000405  0.290630  0.475468  1
  O  O26  1  0.290818  0.475336  0.475577  1
  O  O27  1  0.184723  0.000004  0.475262  1
  O  O28  1  0.815261  0.000062  0.524766  1
  O  O29  1  0.709230  0.524691  0.524459  1
  O  O30  1  0.999672  0.709430  0.524587  1
  O  O31  1  0.524669  0.815321  0.524626  1
  O  O32  1  0.355687  0.355381  0.711543  1
  O  O33  1  0.869838  0.869803  0.739963  1
  O  O34  1  0.493549  0.077245  0.840437  1
  O  O35  1  0.077690  0.347131  0.840759  1
  O  O36  1  0.763016  0.493655  0.840675  1
  O  O37  1  0.347375  0.762483  0.840923  1
