# generated using pymatgen
data_Zr4Co4Si3Ge
_symmetry_space_group_name_H-M   'P 1'
_cell_length_a   3.88257300
_cell_length_b   6.50514772
_cell_length_c   7.16908338
_cell_angle_alpha   90.16455736
_cell_angle_beta   90.00000000
_cell_angle_gamma   90.00000000
_symmetry_Int_Tables_number   1
_chemical_formula_structural   Zr4Co4Si3Ge
_chemical_formula_sum   'Zr4 Co4 Si3 Ge1'
_cell_volume   181.06671950
_cell_formula_units_Z   1
loop_
 _symmetry_equiv_pos_site_id
 _symmetry_equiv_pos_as_xyz
  1  'x, y, z'
loop_
 _atom_site_type_symbol
 _atom_site_label
 _atom_site_symmetry_multiplicity
 _atom_site_fract_x
 _atom_site_fract_y
 _atom_site_fract_z
 _atom_site_occupancy
  Zr  Zr0  1  0.250000  0.005053  0.304053  1
  Zr  Zr1  1  0.250000  0.506656  0.192495  1
  Zr  Zr2  1  0.750000  0.988842  0.695799  1
  Zr  Zr3  1  0.750000  0.495659  0.807062  1
  Co  Co4  1  0.250000  0.141867  0.937674  1
  Co  Co5  1  0.250000  0.651223  0.569267  1
  Co  Co6  1  0.750000  0.856137  0.069035  1
  Co  Co7  1  0.750000  0.358574  0.422832  1
  Si  Si8  1  0.250000  0.782592  0.897273  1
  Si  Si9  1  0.750000  0.717300  0.394832  1
  Si  Si10  1  0.750000  0.217206  0.103834  1
  Ge  Ge11  1  0.250000  0.278891  0.605843  1
