# generated using pymatgen
data_Li12Tb3Gd(BO3)8
_symmetry_space_group_name_H-M   'P 1'
_cell_length_a   6.46242773
_cell_length_b   8.74737120
_cell_length_c   9.94529449
_cell_angle_alpha   114.79781637
_cell_angle_beta   89.93598289
_cell_angle_gamma   89.97773333
_symmetry_Int_Tables_number   1
_chemical_formula_structural   Li12Tb3Gd(BO3)8
_chemical_formula_sum   'Li12 Tb3 Gd1 B8 O24'
_cell_volume   510.36101220
_cell_formula_units_Z   1
loop_
 _symmetry_equiv_pos_site_id
 _symmetry_equiv_pos_as_xyz
  1  'x, y, z'
loop_
 _atom_site_type_symbol
 _atom_site_label
 _atom_site_symmetry_multiplicity
 _atom_site_fract_x
 _atom_site_fract_y
 _atom_site_fract_z
 _atom_site_occupancy
  Li  Li0  1  0.438481  0.038295  0.333721  1
  Li  Li1  1  0.744287  0.126483  0.521751  1
  Li  Li2  1  0.755939  0.626637  0.021369  1
  Li  Li3  1  0.243964  0.373345  0.977997  1
  Li  Li4  1  0.219197  0.295130  0.458962  1
  Li  Li5  1  0.938396  0.461476  0.166094  1
  Li  Li6  1  0.561605  0.961847  0.666500  1
  Li  Li7  1  0.780838  0.704661  0.541348  1
  Li  Li8  1  0.255547  0.873853  0.478443  1
  Li  Li9  1  0.719659  0.204204  0.040976  1
  Li  Li10  1  0.280560  0.795534  0.958860  1
  Li  Li11  1  0.061471  0.538424  0.833677  1
  Tb  Tb12  1  0.026603  0.982563  0.800367  1
  Tb  Tb13  1  0.526746  0.517551  0.700105  1
  Tb  Tb14  1  0.973399  0.017541  0.199565  1
  Gd  Gd15  1  0.472741  0.482449  0.300085  1
  B  B16  1  0.337353  0.218346  0.677932  1
  B  B17  1  0.326585  0.159098  0.106948  1
  B  B18  1  0.663761  0.782918  0.322264  1
  B  B19  1  0.161658  0.718752  0.177461  1
  B  B20  1  0.828235  0.339265  0.392604  1
  B  B21  1  0.672918  0.839506  0.892195  1
  B  B22  1  0.837329  0.281585  0.822035  1
  B  B23  1  0.172175  0.660731  0.608709  1
  O  O24  1  0.288771  0.070672  0.689772  1
  O  O25  1  0.560323  0.785424  0.447761  1
  O  O26  1  0.210950  0.023782  0.012952  1
  O  O27  1  0.711170  0.930522  0.310201  1
  O  O28  1  0.180165  0.700312  0.759628  1
  O  O29  1  0.788871  0.429344  0.810284  1
  O  O30  1  0.441056  0.216135  0.552695  1
  O  O31  1  0.292179  0.378452  0.787512  1
  O  O32  1  0.058657  0.717133  0.052406  1
  O  O33  1  0.940867  0.283786  0.947243  1
  O  O34  1  0.714173  0.475471  0.487851  1
  O  O35  1  0.787928  0.975337  0.986487  1
  O  O36  1  0.563976  0.734787  0.938168  1
  O  O37  1  0.208932  0.570456  0.188559  1
  O  O38  1  0.207728  0.878257  0.287282  1
  O  O39  1  0.064260  0.765184  0.561925  1
  O  O40  1  0.680744  0.800876  0.741319  1
  O  O41  1  0.435561  0.263023  0.060122  1
  O  O42  1  0.820492  0.300701  0.241576  1
  O  O43  1  0.709804  0.623187  0.212627  1
  O  O44  1  0.792211  0.121626  0.712663  1
  O  O45  1  0.286740  0.523910  0.515080  1
  O  O46  1  0.936548  0.233989  0.438087  1
  O  O47  1  0.318450  0.197441  0.257832  1
