# generated using pymatgen
data_Er3HfAl16(GaIr3)2
_symmetry_space_group_name_H-M   'P 1'
_cell_length_a   7.51484424
_cell_length_b   7.50945838
_cell_length_c   9.41865800
_cell_angle_alpha   90.00000000
_cell_angle_beta   90.00000000
_cell_angle_gamma   119.56506558
_symmetry_Int_Tables_number   1
_chemical_formula_structural   Er3HfAl16(GaIr3)2
_chemical_formula_sum   'Er3 Hf1 Al16 Ga2 Ir6'
_cell_volume   462.31182185
_cell_formula_units_Z   1
loop_
 _symmetry_equiv_pos_site_id
 _symmetry_equiv_pos_as_xyz
  1  'x, y, z'
loop_
 _atom_site_type_symbol
 _atom_site_label
 _atom_site_symmetry_multiplicity
 _atom_site_fract_x
 _atom_site_fract_y
 _atom_site_fract_z
 _atom_site_occupancy
  Er  Er0  1  0.002556  0.323235  0.750000  1
  Er  Er1  1  0.671990  0.998306  0.250000  1
  Er  Er2  1  0.329529  0.010006  0.750000  1
  Hf  Hf3  1  0.998155  0.672957  0.250000  1
  Al  Al4  1  0.126487  0.124088  0.250000  1
  Al  Al5  1  0.000397  0.338078  0.079179  1
  Al  Al6  1  0.999417  0.664986  0.930255  1
  Al  Al7  1  0.999417  0.664986  0.569745  1
  Al  Al8  1  0.333012  0.998066  0.421113  1
  Al  Al9  1  0.000397  0.338078  0.420821  1
  Al  Al10  1  0.663882  0.996731  0.573855  1
  Al  Al11  1  0.663882  0.996731  0.926145  1
  Al  Al12  1  0.333012  0.998066  0.078887  1
  Al  Al13  1  0.334139  0.334783  0.548038  1
  Al  Al14  1  0.669590  0.667459  0.437669  1
  Al  Al15  1  0.669590  0.667459  0.062331  1
  Al  Al16  1  0.334139  0.334783  0.951962  1
  Al  Al17  1  0.335235  0.550053  0.250000  1
  Al  Al18  1  0.554964  0.343217  0.250000  1
  Al  Al19  1  0.447917  0.658255  0.750000  1
  Ga  Ga20  1  0.868938  0.866501  0.750000  1
  Ga  Ga21  1  0.659853  0.453741  0.750000  1
  Ir  Ir22  1  0.673078  0.327896  0.002986  1
  Ir  Ir23  1  0.328778  0.672458  0.001490  1
  Ir  Ir24  1  0.328778  0.672458  0.498510  1
  Ir  Ir25  1  0.673078  0.327896  0.497014  1
  Ir  Ir26  1  0.999896  0.999363  0.003369  1
  Ir  Ir27  1  0.999896  0.999363  0.496631  1
