# generated using pymatgen
data_La14Yb6Si15Ge
_symmetry_space_group_name_H-M   'P 1'
_cell_length_a   7.95936699
_cell_length_b   7.96333157
_cell_length_c   15.18821400
_cell_angle_alpha   89.95689505
_cell_angle_beta   89.73366765
_cell_angle_gamma   89.70935575
_symmetry_Int_Tables_number   1
_chemical_formula_structural   La14Yb6Si15Ge
_chemical_formula_sum   'La14 Yb6 Si15 Ge1'
_cell_volume   962.65271759
_cell_formula_units_Z   1
loop_
 _symmetry_equiv_pos_site_id
 _symmetry_equiv_pos_as_xyz
  1  'x, y, z'
loop_
 _atom_site_type_symbol
 _atom_site_label
 _atom_site_symmetry_multiplicity
 _atom_site_fract_x
 _atom_site_fract_y
 _atom_site_fract_z
 _atom_site_occupancy
  La  La0  1  0.507699  0.121286  0.200033  1
  La  La1  1  0.878600  0.491961  0.300840  1
  La  La2  1  0.122940  0.508545  0.800832  1
  La  La3  1  0.622373  0.990355  0.948742  1
  La  La4  1  0.006126  0.381112  0.548875  1
  La  La5  1  0.989792  0.622868  0.051174  1
  La  La6  1  0.128816  0.983726  0.876471  1
  La  La7  1  0.514109  0.623552  0.126696  1
  La  La8  1  0.486168  0.377851  0.626703  1
  La  La9  1  0.622940  0.516311  0.873949  1
  La  La10  1  0.375052  0.484350  0.373208  1
  La  La11  1  0.875456  0.014027  0.375613  1
  La  La12  1  0.987037  0.125226  0.124183  1
  La  La13  1  0.014970  0.871386  0.622706  1
  Yb  Yb14  1  0.308129  0.307453  0.000161  1
  Yb  Yb15  1  0.194584  0.810979  0.252344  1
  Yb  Yb16  1  0.805776  0.188574  0.749713  1
  Yb  Yb17  1  0.685047  0.697301  0.500402  1
  Yb  Yb18  1  0.378919  0.012687  0.451455  1
  Yb  Yb19  1  0.490830  0.879183  0.699006  1
  Si  Si20  1  0.331727  0.699340  0.953331  1
  Si  Si21  1  0.666103  0.300083  0.449954  1
  Si  Si22  1  0.700973  0.330167  0.048941  1
  Si  Si23  1  0.296834  0.664039  0.548277  1
  Si  Si24  1  0.797977  0.833687  0.199587  1
  Si  Si25  1  0.166130  0.202428  0.300278  1
  Si  Si26  1  0.836141  0.797170  0.800637  1
  Si  Si27  1  0.288882  0.919231  0.060636  1
  Si  Si28  1  0.583155  0.785517  0.308494  1
  Si  Si29  1  0.421183  0.214945  0.810370  1
  Si  Si30  1  0.792603  0.577889  0.690586  1
  Si  Si31  1  0.210067  0.419802  0.190665  1
  Si  Si32  1  0.720796  0.086028  0.558409  1
  Si  Si33  1  0.919799  0.288553  0.940004  1
  Si  Si34  1  0.075015  0.706646  0.439478  1
  Ge  Ge35  1  0.197249  0.165747  0.697246  1
