# generated using pymatgen
data_Cs6LaLuBr12
_symmetry_space_group_name_H-M   'P 1'
_cell_length_a   10.04882798
_cell_length_b   10.06426764
_cell_length_c   8.34395700
_cell_angle_alpha   90.00000000
_cell_angle_beta   90.00000000
_cell_angle_gamma   90.23814369
_symmetry_Int_Tables_number   1
_chemical_formula_structural   Cs6LaLuBr12
_chemical_formula_sum   'Cs6 La1 Lu1 Br12'
_cell_volume   843.85124468
_cell_formula_units_Z   1
loop_
 _symmetry_equiv_pos_site_id
 _symmetry_equiv_pos_as_xyz
  1  'x, y, z'
loop_
 _atom_site_type_symbol
 _atom_site_label
 _atom_site_symmetry_multiplicity
 _atom_site_fract_x
 _atom_site_fract_y
 _atom_site_fract_z
 _atom_site_occupancy
  Cs  Cs0  1  0.000000  0.000000  0.500000  1
  Cs  Cs1  1  0.000000  0.000000  0.000000  1
  Cs  Cs2  1  0.236971  0.586378  0.500000  1
  Cs  Cs3  1  0.763029  0.413622  0.500000  1
  Cs  Cs4  1  0.414810  0.231211  0.000000  1
  Cs  Cs5  1  0.585190  0.768789  0.000000  1
  La  La6  1  0.000000  0.500000  0.000000  1
  Lu  Lu7  1  0.500000  0.000000  0.500000  1
  Br  Br8  1  0.688089  0.056981  0.735836  1
  Br  Br9  1  0.311911  0.943019  0.735836  1
  Br  Br10  1  0.939123  0.699878  0.249533  1
  Br  Br11  1  0.060877  0.300122  0.249533  1
  Br  Br12  1  0.311911  0.943019  0.264164  1
  Br  Br13  1  0.688089  0.056981  0.264164  1
  Br  Br14  1  0.060877  0.300122  0.750467  1
  Br  Br15  1  0.939123  0.699878  0.750467  1
  Br  Br16  1  0.568632  0.734705  0.500000  1
  Br  Br17  1  0.431368  0.265295  0.500000  1
  Br  Br18  1  0.282969  0.571481  0.000000  1
  Br  Br19  1  0.717031  0.428519  0.000000  1
