# generated using pymatgen
data_La4Nd6Bi3Pb5
_symmetry_space_group_name_H-M   'P 1'
_cell_length_a   8.55563300
_cell_length_b   8.59823497
_cell_length_c   16.16222900
_cell_angle_alpha   90.07801158
_cell_angle_beta   90.00000000
_cell_angle_gamma   90.00000000
_symmetry_Int_Tables_number   1
_chemical_formula_structural   La4Nd6Bi3Pb5
_chemical_formula_sum   'La8 Nd12 Bi6 Pb10'
_cell_volume   1188.94649109
_cell_formula_units_Z   2
loop_
 _symmetry_equiv_pos_site_id
 _symmetry_equiv_pos_as_xyz
  1  'x, y, z'
loop_
 _atom_site_type_symbol
 _atom_site_label
 _atom_site_symmetry_multiplicity
 _atom_site_fract_x
 _atom_site_fract_y
 _atom_site_fract_z
 _atom_site_occupancy
  La  La0  1  0.470532  0.675977  0.600130  1
  La  La1  1  0.970532  0.824023  0.899870  1
  La  La2  1  0.527491  0.321428  0.100505  1
  La  La3  1  0.027491  0.178572  0.399495  1
  La  La4  1  0.524569  0.323295  0.400204  1
  La  La5  1  0.024569  0.176705  0.099796  1
  La  La6  1  0.474073  0.679493  0.900359  1
  La  La7  1  0.974073  0.820507  0.599641  1
  Nd  Nd8  1  0.632189  0.158991  0.622194  1
  Nd  Nd9  1  0.132189  0.341009  0.877806  1
  Nd  Nd10  1  0.370981  0.842188  0.122216  1
  Nd  Nd11  1  0.870981  0.657812  0.377784  1
  Nd  Nd12  1  0.366771  0.838974  0.378224  1
  Nd  Nd13  1  0.866771  0.661026  0.121776  1
  Nd  Nd14  1  0.633164  0.156660  0.878358  1
  Nd  Nd15  1  0.133164  0.343340  0.621642  1
  Nd  Nd16  1  0.801322  0.502375  0.750348  1
  Nd  Nd17  1  0.301322  0.997625  0.749652  1
  Nd  Nd18  1  0.198235  0.498108  0.251432  1
  Nd  Nd19  1  0.698235  0.001892  0.248568  1
  Bi  Bi20  1  0.714342  0.964691  0.455415  1
  Bi  Bi21  1  0.214342  0.535309  0.044585  1
  Bi  Bi22  1  0.286880  0.035100  0.955507  1
  Bi  Bi23  1  0.786880  0.464900  0.544493  1
  Bi  Bi24  1  0.286284  0.035336  0.544594  1
  Bi  Bi25  1  0.786284  0.464664  0.955406  1
  Pb  Pb26  1  0.713299  0.964658  0.044193  1
  Pb  Pb27  1  0.213299  0.535342  0.455807  1
  Pb  Pb28  1  0.437314  0.374805  0.750747  1
  Pb  Pb29  1  0.937314  0.125195  0.749253  1
  Pb  Pb30  1  0.563731  0.624758  0.250106  1
  Pb  Pb31  1  0.063731  0.875242  0.249894  1
  Pb  Pb32  1  0.665190  0.852542  0.749358  1
  Pb  Pb33  1  0.165190  0.647458  0.750642  1
  Pb  Pb34  1  0.333635  0.146529  0.250051  1
  Pb  Pb35  1  0.833635  0.353471  0.249949  1
