# generated using pymatgen
data_Tb3Nd2YIrI10
_symmetry_space_group_name_H-M   'P 1'
_cell_length_a   7.82643711
_cell_length_b   9.86319873
_cell_length_c   9.88204034
_cell_angle_alpha   106.92080753
_cell_angle_beta   96.47908232
_cell_angle_gamma   104.95904805
_symmetry_Int_Tables_number   1
_chemical_formula_structural   Tb3Nd2YIrI10
_chemical_formula_sum   'Tb3 Nd2 Y1 Ir1 I10'
_cell_volume   690.33988657
_cell_formula_units_Z   1
loop_
 _symmetry_equiv_pos_site_id
 _symmetry_equiv_pos_as_xyz
  1  'x, y, z'
loop_
 _atom_site_type_symbol
 _atom_site_label
 _atom_site_symmetry_multiplicity
 _atom_site_fract_x
 _atom_site_fract_y
 _atom_site_fract_z
 _atom_site_occupancy
  Tb  Tb0  1  0.969673  0.286658  0.086135  1
  Tb  Tb1  1  0.030062  0.713270  0.913883  1
  Tb  Tb2  1  0.348591  0.125452  0.165884  1
  Nd  Nd3  1  0.116352  0.043396  0.761623  1
  Nd  Nd4  1  0.883388  0.956653  0.238320  1
  Y  Y5  1  0.651253  0.874348  0.834038  1
  Ir  Ir6  1  0.000059  0.000060  0.000067  1
  I  I7  1  0.348853  0.448300  0.270777  1
  I  I8  1  0.651113  0.552016  0.729292  1
  I  I9  1  0.264897  0.089300  0.458350  1
  I  I10  1  0.735022  0.910660  0.541825  1
  I  I11  1  0.084318  0.377009  0.823888  1
  I  I12  1  0.915653  0.623011  0.176104  1
  I  I13  1  0.449950  0.817066  0.088796  1
  I  I14  1  0.550208  0.182704  0.910918  1
  I  I15  1  0.776445  0.260303  0.343333  1
  I  I16  1  0.224163  0.739796  0.656768  1
