# generated using pymatgen
data_TbBiHRh
_symmetry_space_group_name_H-M   'P 1'
_cell_length_a   4.58076200
_cell_length_b   7.22016300
_cell_length_c   8.33823100
_cell_angle_alpha   90.00000000
_cell_angle_beta   90.00000000
_cell_angle_gamma   90.00000000
_symmetry_Int_Tables_number   1
_chemical_formula_structural   TbBiHRh
_chemical_formula_sum   'Tb4 Bi4 H4 Rh4'
_cell_volume   275.77738722
_cell_formula_units_Z   4
loop_
 _symmetry_equiv_pos_site_id
 _symmetry_equiv_pos_as_xyz
  1  'x, y, z'
loop_
 _atom_site_type_symbol
 _atom_site_label
 _atom_site_symmetry_multiplicity
 _atom_site_fract_x
 _atom_site_fract_y
 _atom_site_fract_z
 _atom_site_occupancy
  Tb  Tb0  1  0.750000  0.012692  0.691200  1
  Tb  Tb1  1  0.250000  0.987308  0.308800  1
  Tb  Tb2  1  0.250000  0.487308  0.191200  1
  Tb  Tb3  1  0.750000  0.512692  0.808800  1
  Bi  Bi4  1  0.750000  0.667218  0.414723  1
  Bi  Bi5  1  0.250000  0.332782  0.585277  1
  Bi  Bi6  1  0.250000  0.832782  0.914723  1
  Bi  Bi7  1  0.750000  0.167218  0.085277  1
  H  H8  1  0.250000  0.458139  0.920168  1
  H  H9  1  0.750000  0.541861  0.079832  1
  H  H10  1  0.750000  0.041861  0.420168  1
  H  H11  1  0.250000  0.958139  0.579832  1
  Rh  Rh12  1  0.750000  0.774759  0.093186  1
  Rh  Rh13  1  0.250000  0.225241  0.906814  1
  Rh  Rh14  1  0.250000  0.725241  0.593186  1
  Rh  Rh15  1  0.750000  0.274759  0.406814  1
