# generated using pymatgen
data_Th2Si6(Pd6Pt)3
_symmetry_space_group_name_H-M   'P 1'
_cell_length_a   8.71423053
_cell_length_b   8.71423030
_cell_length_c   8.71423011
_cell_angle_alpha   60.10474511
_cell_angle_beta   60.10473787
_cell_angle_gamma   60.10473927
_symmetry_Int_Tables_number   1
_chemical_formula_structural   Th2Si6(Pd6Pt)3
_chemical_formula_sum   'Th2 Si6 Pd18 Pt3'
_cell_volume   469.03098496
_cell_formula_units_Z   1
loop_
 _symmetry_equiv_pos_site_id
 _symmetry_equiv_pos_as_xyz
  1  'x, y, z'
loop_
 _atom_site_type_symbol
 _atom_site_label
 _atom_site_symmetry_multiplicity
 _atom_site_fract_x
 _atom_site_fract_y
 _atom_site_fract_z
 _atom_site_occupancy
  Th  Th0  1  0.749834  0.749834  0.749834  1
  Th  Th1  1  0.249701  0.249701  0.249701  1
  Si  Si2  1  0.736847  0.736847  0.262458  1
  Si  Si3  1  0.264261  0.736120  0.264261  1
  Si  Si4  1  0.736120  0.264261  0.264261  1
  Si  Si5  1  0.264261  0.264261  0.736120  1
  Si  Si6  1  0.736847  0.262458  0.736847  1
  Si  Si7  1  0.262458  0.736847  0.736847  1
  Pd  Pd8  1  0.999741  0.999741  0.999741  1
  Pd  Pd9  1  0.615410  0.615410  0.615410  1
  Pd  Pd10  1  0.384616  0.384616  0.849492  1
  Pd  Pd11  1  0.384616  0.849492  0.384616  1
  Pd  Pd12  1  0.849492  0.384616  0.384616  1
  Pd  Pd13  1  0.382920  0.382920  0.382920  1
  Pd  Pd14  1  0.000055  0.000055  0.344456  1
  Pd  Pd15  1  0.654542  0.000232  0.344338  1
  Pd  Pd16  1  0.000232  0.654542  0.344338  1
  Pd  Pd17  1  0.654542  0.344338  0.000232  1
  Pd  Pd18  1  0.000055  0.344456  0.000055  1
  Pd  Pd19  1  0.000232  0.344338  0.654542  1
  Pd  Pd20  1  0.344338  0.654542  0.000232  1
  Pd  Pd21  1  0.344338  0.000232  0.654542  1
  Pd  Pd22  1  0.344456  0.000055  0.000055  1
  Pd  Pd23  1  0.000191  0.000191  0.654426  1
  Pd  Pd24  1  0.000191  0.654426  0.000191  1
  Pd  Pd25  1  0.654426  0.000191  0.000191  1
  Pt  Pt26  1  0.614353  0.614353  0.156574  1
  Pt  Pt27  1  0.614353  0.156574  0.614353  1
  Pt  Pt28  1  0.156574  0.614353  0.614353  1
