# generated using pymatgen
data_Rb2Ti7BCl18
_symmetry_space_group_name_H-M   'P 1'
_cell_length_a   10.18035867
_cell_length_b   10.11197980
_cell_length_c   10.12012100
_cell_angle_alpha   55.67192198
_cell_angle_beta   55.47596919
_cell_angle_gamma   55.44229343
_symmetry_Int_Tables_number   1
_chemical_formula_structural   Rb2Ti7BCl18
_chemical_formula_sum   'Rb2 Ti7 B1 Cl18'
_cell_volume   660.21368664
_cell_formula_units_Z   1
loop_
 _symmetry_equiv_pos_site_id
 _symmetry_equiv_pos_as_xyz
  1  'x, y, z'
loop_
 _atom_site_type_symbol
 _atom_site_label
 _atom_site_symmetry_multiplicity
 _atom_site_fract_x
 _atom_site_fract_y
 _atom_site_fract_z
 _atom_site_occupancy
  Rb  Rb0  1  0.774561  0.774685  0.775892  1
  Rb  Rb1  1  0.225439  0.225315  0.224108  1
  Ti  Ti2  1  0.160695  0.896805  0.795998  1
  Ti  Ti3  1  0.839305  0.103195  0.204002  1
  Ti  Ti4  1  0.101448  0.203054  0.840709  1
  Ti  Ti5  1  0.202542  0.840401  0.102304  1
  Ti  Ti6  1  0.898552  0.796946  0.159291  1
  Ti  Ti7  1  0.797458  0.159599  0.897696  1
  Ti  Ti8  1  0.500000  0.500000  0.500000  1
  B  B9  1  0.000000  0.000000  0.000000  1
  Cl  Cl10  1  0.225787  0.459041  0.648016  1
  Cl  Cl11  1  0.774213  0.540959  0.351984  1
  Cl  Cl12  1  0.337673  0.049941  0.936620  1
  Cl  Cl13  1  0.662327  0.950059  0.063380  1
  Cl  Cl14  1  0.935108  0.340309  0.050285  1
  Cl  Cl15  1  0.714314  0.885032  0.403819  1
  Cl  Cl16  1  0.350294  0.776791  0.539663  1
  Cl  Cl17  1  0.596720  0.286314  0.115952  1
  Cl  Cl18  1  0.285686  0.114968  0.596181  1
  Cl  Cl19  1  0.115309  0.596135  0.285629  1
  Cl  Cl20  1  0.952103  0.062882  0.659961  1
  Cl  Cl21  1  0.403280  0.713686  0.884048  1
  Cl  Cl22  1  0.884691  0.403865  0.714371  1
  Cl  Cl23  1  0.064892  0.659691  0.949715  1
  Cl  Cl24  1  0.458973  0.649869  0.223080  1
  Cl  Cl25  1  0.649706  0.223209  0.460337  1
  Cl  Cl26  1  0.541027  0.350131  0.776920  1
  Cl  Cl27  1  0.047897  0.937118  0.340039  1
