# generated using pymatgen
data_Li3Eu8Si12Ag
_symmetry_space_group_name_H-M   'P 1'
_cell_length_a   11.35093548
_cell_length_b   9.63012435
_cell_length_c   8.49318068
_cell_angle_alpha   77.27591573
_cell_angle_beta   55.78960187
_cell_angle_gamma   46.87474575
_symmetry_Int_Tables_number   1
_chemical_formula_structural   Li3Eu8Si12Ag
_chemical_formula_sum   'Li3 Eu8 Si12 Ag1'
_cell_volume   539.25789135
_cell_formula_units_Z   1
loop_
 _symmetry_equiv_pos_site_id
 _symmetry_equiv_pos_as_xyz
  1  'x, y, z'
loop_
 _atom_site_type_symbol
 _atom_site_label
 _atom_site_symmetry_multiplicity
 _atom_site_fract_x
 _atom_site_fract_y
 _atom_site_fract_z
 _atom_site_occupancy
  Li  Li0  1  0.832953  0.167047  0.832953  1
  Li  Li1  1  0.167022  0.832978  0.167022  1
  Li  Li2  1  0.417104  0.082896  0.417104  1
  Eu  Eu3  1  0.376724  0.376882  0.623369  1
  Eu  Eu4  1  0.623369  0.623024  0.376724  1
  Eu  Eu5  1  0.874099  0.874116  0.625832  1
  Eu  Eu6  1  0.625832  0.625954  0.874099  1
  Eu  Eu7  1  0.876761  0.876296  0.123561  1
  Eu  Eu8  1  0.123561  0.123382  0.876761  1
  Eu  Eu9  1  0.374693  0.374943  0.125194  1
  Eu  Eu10  1  0.125194  0.125170  0.374693  1
  Si  Si11  1  0.662363  0.337637  0.662363  1
  Si  Si12  1  0.337561  0.662439  0.337561  1
  Si  Si13  1  0.586997  0.913003  0.586997  1
  Si  Si14  1  0.910746  0.589254  0.910746  1
  Si  Si15  1  0.336141  0.659065  0.825837  1
  Si  Si16  1  0.179451  0.826157  0.658672  1
  Si  Si17  1  0.825837  0.178956  0.336141  1
  Si  Si18  1  0.658672  0.335719  0.179451  1
  Si  Si19  1  0.913665  0.594146  0.425814  1
  Si  Si20  1  0.071048  0.421609  0.591443  1
  Si  Si21  1  0.425814  0.066376  0.913665  1
  Si  Si22  1  0.591443  0.915901  0.071048  1
  Ag  Ag23  1  0.082950  0.417050  0.082950  1
