# generated using pymatgen
data_PrNd2Y2(In2Pd)2
_symmetry_space_group_name_H-M   'P 1'
_cell_length_a   3.72844200
_cell_length_b   8.32276200
_cell_length_c   18.53131500
_cell_angle_alpha   90.00000000
_cell_angle_beta   90.00000000
_cell_angle_gamma   90.00000000
_symmetry_Int_Tables_number   1
_chemical_formula_structural   PrNd2Y2(In2Pd)2
_chemical_formula_sum   'Pr2 Nd4 Y4 In8 Pd4'
_cell_volume   575.04403858
_cell_formula_units_Z   2
loop_
 _symmetry_equiv_pos_site_id
 _symmetry_equiv_pos_as_xyz
  1  'x, y, z'
loop_
 _atom_site_type_symbol
 _atom_site_label
 _atom_site_symmetry_multiplicity
 _atom_site_fract_x
 _atom_site_fract_y
 _atom_site_fract_z
 _atom_site_occupancy
  Pr  Pr0  1  0.500000  0.000000  0.000000  1
  Pr  Pr1  1  0.500000  0.500000  0.500000  1
  Nd  Nd2  1  0.500000  0.237692  0.785437  1
  Nd  Nd3  1  0.500000  0.762308  0.214563  1
  Nd  Nd4  1  0.500000  0.262308  0.285437  1
  Nd  Nd5  1  0.500000  0.737692  0.714563  1
  Y  Y6  1  0.500000  0.121027  0.585061  1
  Y  Y7  1  0.500000  0.878973  0.414939  1
  Y  Y8  1  0.500000  0.378973  0.085061  1
  Y  Y9  1  0.500000  0.621027  0.914939  1
  In  In10  1  0.000000  0.087710  0.153066  1
  In  In11  1  0.000000  0.912290  0.846934  1
  In  In12  1  0.000000  0.412290  0.653066  1
  In  In13  1  0.000000  0.587710  0.346934  1
  In  In14  1  0.000000  0.193647  0.436877  1
  In  In15  1  0.000000  0.806353  0.563123  1
  In  In16  1  0.000000  0.306353  0.936877  1
  In  In17  1  0.000000  0.693647  0.063123  1
  Pd  Pd18  1  0.000000  0.024572  0.694373  1
  Pd  Pd19  1  0.000000  0.975428  0.305627  1
  Pd  Pd20  1  0.000000  0.475428  0.194373  1
  Pd  Pd21  1  0.000000  0.524572  0.805627  1
