# generated using pymatgen
data_Er2Th(InNi)3
_symmetry_space_group_name_H-M   'P 1'
_cell_length_a   7.37779729
_cell_length_b   7.37779684
_cell_length_c   3.87668100
_cell_angle_alpha   90.00000000
_cell_angle_beta   90.00000000
_cell_angle_gamma   118.89777256
_symmetry_Int_Tables_number   1
_chemical_formula_structural   Er2Th(InNi)3
_chemical_formula_sum   'Er2 Th1 In3 Ni3'
_cell_volume   184.74017472
_cell_formula_units_Z   1
loop_
 _symmetry_equiv_pos_site_id
 _symmetry_equiv_pos_as_xyz
  1  'x, y, z'
loop_
 _atom_site_type_symbol
 _atom_site_label
 _atom_site_symmetry_multiplicity
 _atom_site_fract_x
 _atom_site_fract_y
 _atom_site_fract_z
 _atom_site_occupancy
  Er  Er0  1  0.411067  0.000526  0.500000  1
  Er  Er1  1  0.000526  0.411067  0.500000  1
  Th  Th2  1  0.583982  0.583982  0.500000  1
  In  In3  1  0.749611  0.011991  0.000000  1
  In  In4  1  0.011991  0.749611  0.000000  1
  In  In5  1  0.240272  0.240272  0.000000  1
  Ni  Ni6  1  0.343232  0.665656  0.000000  1
  Ni  Ni7  1  0.665656  0.343232  0.000000  1
  Ni  Ni8  1  0.993664  0.993664  0.500000  1
