# generated using pymatgen
data_SrMo2(P2O7)2
_symmetry_space_group_name_H-M   'P 1'
_cell_length_a   5.07659197
_cell_length_b   7.25430401
_cell_length_c   8.32648454
_cell_angle_alpha   90.64667545
_cell_angle_beta   93.46017033
_cell_angle_gamma   104.85996617
_symmetry_Int_Tables_number   1
_chemical_formula_structural   SrMo2(P2O7)2
_chemical_formula_sum   'Sr1 Mo2 P4 O14'
_cell_volume   295.73101126
_cell_formula_units_Z   1
loop_
 _symmetry_equiv_pos_site_id
 _symmetry_equiv_pos_as_xyz
  1  'x, y, z'
loop_
 _atom_site_type_symbol
 _atom_site_label
 _atom_site_symmetry_multiplicity
 _atom_site_fract_x
 _atom_site_fract_y
 _atom_site_fract_z
 _atom_site_occupancy
  Sr  Sr0  1  0.595449  0.002750  0.989270  1
  Mo  Mo1  1  0.500614  0.999812  0.501202  1
  Mo  Mo2  1  0.999921  0.502379  0.002006  1
  P  P3  1  0.494441  0.386983  0.249231  1
  P  P4  1  0.503471  0.609249  0.754616  1
  P  P5  1  0.873917  0.773332  0.293081  1
  P  P6  1  0.128411  0.224737  0.709574  1
  O  O7  1  0.667409  0.898350  0.290199  1
  O  O8  1  0.342432  0.106306  0.717054  1
  O  O9  1  0.900643  0.159963  0.582021  1
  O  O10  1  0.107085  0.831690  0.418069  1
  O  O11  1  0.246440  0.458893  0.202541  1
  O  O12  1  0.751074  0.535946  0.798620  1
  O  O13  1  0.029308  0.235590  0.883006  1
  O  O14  1  0.953533  0.764281  0.115399  1
  O  O15  1  0.276791  0.440773  0.660355  1
  O  O16  1  0.719267  0.559306  0.342439  1
  O  O17  1  0.635466  0.330833  0.101390  1
  O  O18  1  0.366945  0.664485  0.904520  1
  O  O19  1  0.574946  0.781230  0.649845  1
  O  O20  1  0.427338  0.223315  0.361863  1
