# generated using pymatgen
data_YbReB3
_symmetry_space_group_name_H-M   'P 1'
_cell_length_a   3.09815900
_cell_length_b   5.40734597
_cell_length_c   6.75079213
_cell_angle_alpha   76.28394104
_cell_angle_beta   90.00000000
_cell_angle_gamma   90.00000000
_symmetry_Int_Tables_number   1
_chemical_formula_structural   YbReB3
_chemical_formula_sum   'Yb2 Re2 B6'
_cell_volume   109.86963116
_cell_formula_units_Z   2
loop_
 _symmetry_equiv_pos_site_id
 _symmetry_equiv_pos_as_xyz
  1  'x, y, z'
loop_
 _atom_site_type_symbol
 _atom_site_label
 _atom_site_symmetry_multiplicity
 _atom_site_fract_x
 _atom_site_fract_y
 _atom_site_fract_z
 _atom_site_occupancy
  Yb  Yb0  1  0.250000  0.337367  0.703360  1
  Yb  Yb1  1  0.750000  0.662633  0.296640  1
  Re  Re2  1  0.250000  0.181620  0.218860  1
  Re  Re3  1  0.750000  0.818380  0.781140  1
  B  B4  1  0.250000  0.922527  0.529318  1
  B  B5  1  0.750000  0.077473  0.470682  1
  B  B6  1  0.250000  0.908884  0.008273  1
  B  B7  1  0.750000  0.091116  0.991727  1
  B  B8  1  0.250000  0.585400  0.010691  1
  B  B9  1  0.750000  0.414600  0.989309  1
