# generated using pymatgen
data_Dy8Ti3Si16Mo2W7
_symmetry_space_group_name_H-M   'P 1'
_cell_length_a   6.90075308
_cell_length_b   6.89947597
_cell_length_c   12.80989528
_cell_angle_alpha   90.00504582
_cell_angle_beta   89.96178004
_cell_angle_gamma   89.85366101
_symmetry_Int_Tables_number   1
_chemical_formula_structural   Dy8Ti3Si16Mo2W7
_chemical_formula_sum   'Dy8 Ti3 Si16 Mo2 W7'
_cell_volume   609.89722722
_cell_formula_units_Z   1
loop_
 _symmetry_equiv_pos_site_id
 _symmetry_equiv_pos_as_xyz
  1  'x, y, z'
loop_
 _atom_site_type_symbol
 _atom_site_label
 _atom_site_symmetry_multiplicity
 _atom_site_fract_x
 _atom_site_fract_y
 _atom_site_fract_z
 _atom_site_occupancy
  Dy  Dy0  1  0.997909  0.661172  0.031395  1
  Dy  Dy1  1  0.000847  0.339608  0.531264  1
  Dy  Dy2  1  0.661065  0.998119  0.968685  1
  Dy  Dy3  1  0.161975  0.503076  0.780677  1
  Dy  Dy4  1  0.837937  0.501135  0.282726  1
  Dy  Dy5  1  0.503112  0.161865  0.219229  1
  Dy  Dy6  1  0.500552  0.838018  0.717503  1
  Dy  Dy7  1  0.339953  0.000333  0.468917  1
  Ti  Ti8  1  0.829669  0.168085  0.748428  1
  Ti  Ti9  1  0.168421  0.829784  0.251212  1
  Ti  Ti10  1  0.331296  0.331188  0.999978  1
  Si  Si11  1  0.036002  0.711785  0.437770  1
  Si  Si12  1  0.959127  0.290212  0.935965  1
  Si  Si13  1  0.711424  0.036481  0.561959  1
  Si  Si14  1  0.208660  0.460463  0.186303  1
  Si  Si15  1  0.790612  0.540129  0.685879  1
  Si  Si16  1  0.460667  0.208468  0.813749  1
  Si  Si17  1  0.540662  0.789726  0.314635  1
  Si  Si18  1  0.290329  0.959342  0.063971  1
  Si  Si19  1  0.799640  0.871356  0.183332  1
  Si  Si20  1  0.301758  0.626046  0.566190  1
  Si  Si21  1  0.701220  0.371745  0.066385  1
  Si  Si22  1  0.625636  0.302561  0.434054  1
  Si  Si23  1  0.371732  0.701169  0.933436  1
  Si  Si24  1  0.127232  0.202722  0.315458  1
  Si  Si25  1  0.202940  0.127504  0.683988  1
  Si  Si26  1  0.871474  0.799810  0.816739  1
  Mo  Mo27  1  0.333691  0.505660  0.374692  1
  Mo  Mo28  1  0.842068  0.997649  0.373155  1
  W  W29  1  0.006113  0.159980  0.125589  1
  W  W30  1  0.996983  0.841291  0.626607  1
  W  W31  1  0.505888  0.334969  0.625065  1
  W  W32  1  0.160592  0.006312  0.874420  1
  W  W33  1  0.668634  0.667586  0.500933  1
  W  W34  1  0.493912  0.660398  0.124722  1
  W  W35  1  0.660270  0.494255  0.874992  1
