# generated using pymatgen
data_Ho2Al2IrPt
_symmetry_space_group_name_H-M   'P 1'
_cell_length_a   4.35541600
_cell_length_b   6.79344300
_cell_length_c   7.85104500
_cell_angle_alpha   90.00000000
_cell_angle_beta   90.00000000
_cell_angle_gamma   90.00000000
_symmetry_Int_Tables_number   1
_chemical_formula_structural   Ho2Al2IrPt
_chemical_formula_sum   'Ho4 Al4 Ir2 Pt2'
_cell_volume   232.29884189
_cell_formula_units_Z   2
loop_
 _symmetry_equiv_pos_site_id
 _symmetry_equiv_pos_as_xyz
  1  'x, y, z'
loop_
 _atom_site_type_symbol
 _atom_site_label
 _atom_site_symmetry_multiplicity
 _atom_site_fract_x
 _atom_site_fract_y
 _atom_site_fract_z
 _atom_site_occupancy
  Ho  Ho0  1  0.250000  0.032417  0.679059  1
  Ho  Ho1  1  0.250000  0.532417  0.820941  1
  Ho  Ho2  1  0.750000  0.972671  0.317800  1
  Ho  Ho3  1  0.750000  0.472671  0.182200  1
  Al  Al4  1  0.250000  0.141310  0.064600  1
  Al  Al5  1  0.250000  0.641310  0.435400  1
  Al  Al6  1  0.750000  0.855911  0.939917  1
  Al  Al7  1  0.750000  0.355911  0.560083  1
  Ir  Ir8  1  0.250000  0.267818  0.382338  1
  Ir  Ir9  1  0.250000  0.767818  0.117662  1
  Pt  Pt10  1  0.750000  0.729873  0.620035  1
  Pt  Pt11  1  0.750000  0.229873  0.879965  1
