# generated using pymatgen
data_Rb5Au4
_symmetry_space_group_name_H-M   'P 1'
_cell_length_a   6.84813573
_cell_length_b   6.84813612
_cell_length_c   12.09881758
_cell_angle_alpha   68.68534887
_cell_angle_beta   68.68534629
_cell_angle_gamma   43.98572187
_symmetry_Int_Tables_number   1
_chemical_formula_structural   Rb5Au4
_chemical_formula_sum   'Rb5 Au4'
_cell_volume   362.50581149
_cell_formula_units_Z   1
loop_
 _symmetry_equiv_pos_site_id
 _symmetry_equiv_pos_as_xyz
  1  'x, y, z'
loop_
 _atom_site_type_symbol
 _atom_site_label
 _atom_site_symmetry_multiplicity
 _atom_site_fract_x
 _atom_site_fract_y
 _atom_site_fract_z
 _atom_site_occupancy
  Rb  Rb0  1  0.751405  0.751405  0.676928  1
  Rb  Rb1  1  0.257822  0.257822  0.319737  1
  Rb  Rb2  1  0.397931  0.397931  0.897883  1
  Rb  Rb3  1  0.606919  0.606919  0.097414  1
  Rb  Rb4  1  0.508437  0.508437  0.495131  1
  Au  Au5  1  0.061225  0.061225  0.667398  1
  Au  Au6  1  0.947719  0.947719  0.327306  1
  Au  Au7  1  0.105233  0.105233  0.887691  1
  Au  Au8  1  0.898609  0.898609  0.109412  1
