# generated using pymatgen
data_Nd3Ni2Sn3Ir
_symmetry_space_group_name_H-M   'P 1'
_cell_length_a   7.49291100
_cell_length_b   7.49291001
_cell_length_c   4.04311800
_cell_angle_alpha   90.00000000
_cell_angle_beta   90.00000000
_cell_angle_gamma   119.99999112
_symmetry_Int_Tables_number   1
_chemical_formula_structural   Nd3Ni2Sn3Ir
_chemical_formula_sum   'Nd3 Ni2 Sn3 Ir1'
_cell_volume   196.58400476
_cell_formula_units_Z   1
loop_
 _symmetry_equiv_pos_site_id
 _symmetry_equiv_pos_as_xyz
  1  'x, y, z'
loop_
 _atom_site_type_symbol
 _atom_site_label
 _atom_site_symmetry_multiplicity
 _atom_site_fract_x
 _atom_site_fract_y
 _atom_site_fract_z
 _atom_site_occupancy
  Nd  Nd0  1  0.590055  0.003104  0.000000  1
  Nd  Nd1  1  0.996896  0.586950  0.000000  1
  Nd  Nd2  1  0.413050  0.409945  0.000000  1
  Ni  Ni3  1  0.333333  0.666667  0.500000  1
  Ni  Ni4  1  0.000000  0.000000  0.000000  1
  Sn  Sn5  1  0.246825  0.995173  0.500000  1
  Sn  Sn6  1  0.004827  0.251652  0.500000  1
  Sn  Sn7  1  0.748348  0.753175  0.500000  1
  Ir  Ir8  1  0.666667  0.333333  0.500000  1
