# generated using pymatgen
data_DyHo2Pa3(Ni3Bi4)2
_symmetry_space_group_name_H-M   'P 1'
_cell_length_a   8.34236148
_cell_length_b   8.37029741
_cell_length_c   8.34235998
_cell_angle_alpha   109.39333066
_cell_angle_beta   109.32023354
_cell_angle_gamma   109.56449603
_symmetry_Int_Tables_number   1
_chemical_formula_structural   DyHo2Pa3(Ni3Bi4)2
_chemical_formula_sum   'Dy1 Ho2 Pa3 Ni6 Bi8'
_cell_volume   449.17961603
_cell_formula_units_Z   1
loop_
 _symmetry_equiv_pos_site_id
 _symmetry_equiv_pos_as_xyz
  1  'x, y, z'
loop_
 _atom_site_type_symbol
 _atom_site_label
 _atom_site_symmetry_multiplicity
 _atom_site_fract_x
 _atom_site_fract_y
 _atom_site_fract_z
 _atom_site_occupancy
  Dy  Dy0  1  0.626267  0.750000  0.376267  1
  Ho  Ho1  1  0.251275  0.125170  0.876101  1
  Ho  Ho2  1  0.750931  0.374830  0.626103  1
  Pa  Pa3  1  0.124779  0.877920  0.249486  1
  Pa  Pa4  1  0.371566  0.622080  0.746860  1
  Pa  Pa5  1  0.872886  0.250000  0.122886  1
  Ni  Ni6  1  0.636336  0.364592  0.242528  1
  Ni  Ni7  1  0.877936  0.135408  0.771744  1
  Ni  Ni8  1  0.368987  0.250000  0.618987  1
  Ni  Ni9  1  0.128318  0.750000  0.878318  1
  Ni  Ni10  1  0.237765  0.616492  0.373676  1
  Ni  Ni11  1  0.757184  0.883508  0.121271  1
  Bi  Bi12  1  0.339450  0.335964  0.331906  1
  Bi  Bi13  1  0.168812  0.501721  0.000677  1
  Bi  Bi14  1  0.995944  0.164036  0.503487  1
  Bi  Bi15  1  0.833417  0.831022  0.829210  1
  Bi  Bi16  1  0.498955  0.998279  0.167092  1
  Bi  Bi17  1  0.662872  0.500248  0.998379  1
  Bi  Bi18  1  0.498130  0.999752  0.662624  1
  Bi  Bi19  1  0.998188  0.668978  0.502396  1
