# generated using pymatgen
data_Mn25W4
_symmetry_space_group_name_H-M   'P 1'
_cell_length_a   7.59505861
_cell_length_b   7.59505777
_cell_length_c   7.59505800
_cell_angle_alpha   109.47122124
_cell_angle_beta   109.47121901
_cell_angle_gamma   109.47121695
_symmetry_Int_Tables_number   1
_chemical_formula_structural   Mn25W4
_chemical_formula_sum   'Mn25 W4'
_cell_volume   337.26512906
_cell_formula_units_Z   1
loop_
 _symmetry_equiv_pos_site_id
 _symmetry_equiv_pos_as_xyz
  1  'x, y, z'
loop_
 _atom_site_type_symbol
 _atom_site_label
 _atom_site_symmetry_multiplicity
 _atom_site_fract_x
 _atom_site_fract_y
 _atom_site_fract_z
 _atom_site_occupancy
  Mn  Mn0  1  0.325504  0.325433  0.713788  1
  Mn  Mn1  1  0.388358  0.674621  0.000112  1
  Mn  Mn2  1  0.674461  0.388284  0.999911  1
  Mn  Mn3  1  0.611623  0.286095  0.611708  1
  Mn  Mn4  1  0.388356  0.000037  0.674449  1
  Mn  Mn5  1  0.999927  0.388056  0.674354  1
  Mn  Mn6  1  0.286356  0.611947  0.611857  1
  Mn  Mn7  1  0.713628  0.325539  0.325603  1
  Mn  Mn8  1  0.325605  0.713910  0.325558  1
  Mn  Mn9  1  0.674454  0.999971  0.388346  1
  Mn  Mn10  1  0.000049  0.674471  0.388089  1
  Mn  Mn11  1  0.611701  0.611781  0.286235  1
  Mn  Mn12  1  0.805658  0.805570  0.179542  1
  Mn  Mn13  1  0.374012  0.194437  0.000089  1
  Mn  Mn14  1  0.194372  0.373898  0.999933  1
  Mn  Mn15  1  0.625837  0.820488  0.626057  1
  Mn  Mn16  1  0.374137  0.000242  0.194673  1
  Mn  Mn17  1  0.000122  0.374270  0.194902  1
  Mn  Mn18  1  0.820632  0.625704  0.625873  1
  Mn  Mn19  1  0.179365  0.805181  0.805054  1
  Mn  Mn20  1  0.805532  0.179486  0.805303  1
  Mn  Mn21  1  0.194417  0.999755  0.373918  1
  Mn  Mn22  1  0.999815  0.194776  0.374140  1
  Mn  Mn23  1  0.626066  0.626115  0.820474  1
  Mn  Mn24  1  0.000019  0.999957  0.000025  1
  W  W25  1  0.999965  0.999940  0.634195  1
  W  W26  1  0.634253  0.000069  0.999983  1
  W  W27  1  0.000009  0.634190  0.999991  1
  W  W28  1  0.365765  0.365778  0.365841  1
