# generated using pymatgen
data_Nd2P7Ru12
_symmetry_space_group_name_H-M   'P 1'
_cell_length_a   9.47165000
_cell_length_b   9.47164942
_cell_length_c   3.98513700
_cell_angle_alpha   90.00000000
_cell_angle_beta   90.00000000
_cell_angle_gamma   119.99999411
_symmetry_Int_Tables_number   1
_chemical_formula_structural   Nd2P7Ru12
_chemical_formula_sum   'Nd2 P7 Ru12'
_cell_volume   309.61726489
_cell_formula_units_Z   1
loop_
 _symmetry_equiv_pos_site_id
 _symmetry_equiv_pos_as_xyz
  1  'x, y, z'
loop_
 _atom_site_type_symbol
 _atom_site_label
 _atom_site_symmetry_multiplicity
 _atom_site_fract_x
 _atom_site_fract_y
 _atom_site_fract_z
 _atom_site_occupancy
  Nd  Nd0  1  0.000000  0.000000  0.000000  1
  Nd  Nd1  1  0.333333  0.666667  0.500000  1
  P  P2  1  0.779041  0.729244  0.500000  1
  P  P3  1  0.270756  0.049797  0.500000  1
  P  P4  1  0.950203  0.220959  0.500000  1
  P  P5  1  0.666667  0.333333  0.000000  1
  P  P6  1  0.089486  0.645688  0.000000  1
  P  P7  1  0.354312  0.443798  0.000000  1
  P  P8  1  0.556202  0.910514  0.000000  1
  Ru  Ru9  1  0.088321  0.398332  0.000000  1
  Ru  Ru10  1  0.601668  0.689987  0.000000  1
  Ru  Ru11  1  0.310013  0.911679  0.000000  1
  Ru  Ru12  1  0.057953  0.774228  0.500000  1
  Ru  Ru13  1  0.225772  0.283724  0.500000  1
  Ru  Ru14  1  0.716276  0.942047  0.500000  1
  Ru  Ru15  1  0.828870  0.603260  0.000000  1
  Ru  Ru16  1  0.396740  0.225611  0.000000  1
  Ru  Ru17  1  0.774389  0.171130  0.000000  1
  Ru  Ru18  1  0.873326  0.419227  0.500000  1
  Ru  Ru19  1  0.580773  0.454098  0.500000  1
  Ru  Ru20  1  0.545902  0.126674  0.500000  1
