# generated using pymatgen
data_Sr10MgNbRu3O20
_symmetry_space_group_name_H-M   'P 1'
_cell_length_a   8.95899628
_cell_length_b   8.95899574
_cell_length_c   8.95980573
_cell_angle_alpha   120.57039131
_cell_angle_beta   120.62513720
_cell_angle_gamma   88.96245925
_symmetry_Int_Tables_number   1
_chemical_formula_structural   Sr10MgNbRu3O20
_chemical_formula_sum   'Sr10 Mg1 Nb1 Ru3 O20'
_cell_volume   503.85266672
_cell_formula_units_Z   1
loop_
 _symmetry_equiv_pos_site_id
 _symmetry_equiv_pos_as_xyz
  1  'x, y, z'
loop_
 _atom_site_type_symbol
 _atom_site_label
 _atom_site_symmetry_multiplicity
 _atom_site_fract_x
 _atom_site_fract_y
 _atom_site_fract_z
 _atom_site_occupancy
  Sr  Sr0  1  0.763638  0.148539  0.204747  1
  Sr  Sr1  1  0.352733  0.357567  0.000919  1
  Sr  Sr2  1  0.950257  0.564169  0.803161  1
  Sr  Sr3  1  0.566914  0.752385  0.611182  1
  Sr  Sr4  1  0.141310  0.949851  0.381854  1
  Sr  Sr5  1  0.643352  0.648186  0.000919  1
  Sr  Sr6  1  0.238991  0.852904  0.803161  1
  Sr  Sr7  1  0.858798  0.044268  0.611182  1
  Sr  Sr8  1  0.432003  0.240544  0.381854  1
  Sr  Sr9  1  0.056208  0.441110  0.204747  1
  Mg  Mg10  1  0.000508  0.000501  0.001009  1
  Nb  Nb11  1  0.600929  0.198924  0.799855  1
  Ru  Ru12  1  0.195533  0.402493  0.598025  1
  Ru  Ru13  1  0.802341  0.601365  0.403707  1
  Ru  Ru14  1  0.400742  0.797092  0.197833  1
  O  O15  1  0.560184  0.959956  0.201226  1
  O  O16  1  0.169310  0.169230  0.002322  1
  O  O17  1  0.759002  0.359357  0.798377  1
  O  O18  1  0.360352  0.560559  0.598100  1
  O  O19  1  0.959796  0.760831  0.398626  1
  O  O20  1  0.833092  0.833013  0.002322  1
  O  O21  1  0.439020  0.039375  0.798377  1
  O  O22  1  0.037540  0.237746  0.598100  1
  O  O23  1  0.637796  0.438830  0.398626  1
  O  O24  1  0.241269  0.641041  0.201226  1
  O  O25  1  0.698488  0.398649  0.097137  1
  O  O26  1  0.300792  0.602031  0.902822  1
  O  O27  1  0.899002  0.796566  0.695568  1
  O  O28  1  0.498544  0.997097  0.495640  1
  O  O29  1  0.101957  0.206390  0.308347  1
  O  O30  1  0.997810  0.501506  0.499316  1
  O  O31  1  0.602371  0.700283  0.302655  1
  O  O32  1  0.206892  0.896723  0.103615  1
  O  O33  1  0.796437  0.101031  0.897468  1
  O  O34  1  0.396090  0.299887  0.695976  1
