# generated using pymatgen
data_Tb7Dy3Th6(MgRu)4
_symmetry_space_group_name_H-M   'P 1'
_cell_length_a   9.73872283
_cell_length_b   9.85133158
_cell_length_c   9.85604206
_cell_angle_alpha   59.22959037
_cell_angle_beta   60.36109203
_cell_angle_gamma   60.36263515
_symmetry_Int_Tables_number   1
_chemical_formula_structural   Tb7Dy3Th6(MgRu)4
_chemical_formula_sum   'Tb7 Dy3 Th6 Mg4 Ru4'
_cell_volume   668.21918936
_cell_formula_units_Z   1
loop_
 _symmetry_equiv_pos_site_id
 _symmetry_equiv_pos_as_xyz
  1  'x, y, z'
loop_
 _atom_site_type_symbol
 _atom_site_label
 _atom_site_symmetry_multiplicity
 _atom_site_fract_x
 _atom_site_fract_y
 _atom_site_fract_z
 _atom_site_occupancy
  Tb  Tb0  1  0.061229  0.061229  0.438771  1
  Tb  Tb1  1  0.184754  0.815446  0.816382  1
  Tb  Tb2  1  0.815446  0.184754  0.183418  1
  Tb  Tb3  1  0.811788  0.188671  0.812986  1
  Tb  Tb4  1  0.188671  0.811788  0.186555  1
  Tb  Tb5  1  0.812311  0.812311  0.187689  1
  Tb  Tb6  1  0.187667  0.187667  0.812333  1
  Dy  Dy7  1  0.439103  0.060844  0.439239  1
  Dy  Dy8  1  0.060844  0.439103  0.060814  1
  Dy  Dy9  1  0.439385  0.439385  0.060615  1
  Th  Th10  1  0.590723  0.599525  0.598938  1
  Th  Th11  1  0.599525  0.590723  0.210817  1
  Th  Th12  1  0.599369  0.209977  0.591473  1
  Th  Th13  1  0.209977  0.599369  0.599183  1
  Th  Th14  1  0.065792  0.434400  0.433973  1
  Th  Th15  1  0.434400  0.065792  0.065835  1
  Mg  Mg16  1  0.831908  0.828662  0.829547  1
  Mg  Mg17  1  0.828662  0.831908  0.509883  1
  Mg  Mg18  1  0.828511  0.509759  0.832372  1
  Mg  Mg19  1  0.509759  0.828511  0.829358  1
  Ru  Ru20  1  0.378068  0.398710  0.399353  1
  Ru  Ru21  1  0.398710  0.378068  0.823868  1
  Ru  Ru22  1  0.399485  0.823915  0.377255  1
  Ru  Ru23  1  0.823915  0.399485  0.399345  1
