# generated using pymatgen
data_Tm2(LuPb)3
_symmetry_space_group_name_H-M   'P 1'
_cell_length_a   6.48203400
_cell_length_b   8.90523983
_cell_length_c   8.90826257
_cell_angle_alpha   119.98877736
_cell_angle_beta   90.00149695
_cell_angle_gamma   89.99699995
_symmetry_Int_Tables_number   1
_chemical_formula_structural   Tm2(LuPb)3
_chemical_formula_sum   'Tm4 Lu6 Pb6'
_cell_volume   445.37892979
_cell_formula_units_Z   2
loop_
 _symmetry_equiv_pos_site_id
 _symmetry_equiv_pos_as_xyz
  1  'x, y, z'
loop_
 _atom_site_type_symbol
 _atom_site_label
 _atom_site_symmetry_multiplicity
 _atom_site_fract_x
 _atom_site_fract_y
 _atom_site_fract_z
 _atom_site_occupancy
  Tm  Tm0  1  0.750020  0.236620  0.000000  1
  Tm  Tm1  1  0.750006  0.763286  0.763173  1
  Tm  Tm2  1  0.750006  0.000115  0.236827  1
  Tm  Tm3  1  0.249992  0.763464  0.000000  1
  Lu  Lu4  1  0.249999  0.236585  0.236511  1
  Lu  Lu5  1  0.249999  0.000073  0.763489  1
  Lu  Lu6  1  0.499939  0.333272  0.666650  1
  Lu  Lu7  1  0.499939  0.666622  0.333350  1
  Lu  Lu8  1  0.000050  0.666669  0.333339  1
  Lu  Lu9  1  0.000050  0.333331  0.666661  1
  Pb  Pb10  1  0.749987  0.604977  0.000000  1
  Pb  Pb11  1  0.750002  0.395074  0.395110  1
  Pb  Pb12  1  0.750002  0.999965  0.604890  1
  Pb  Pb13  1  0.249989  0.394539  0.000000  1
  Pb  Pb14  1  0.250010  0.605142  0.604876  1
  Pb  Pb15  1  0.250010  0.000265  0.395124  1
