# generated using pymatgen
data_Y9Tm(ZnIn3)2
_symmetry_space_group_name_H-M   'P 1'
_cell_length_a   9.19450000
_cell_length_b   9.19450037
_cell_length_c   6.72983600
_cell_angle_alpha   90.00000000
_cell_angle_beta   90.00000000
_cell_angle_gamma   119.99999868
_symmetry_Int_Tables_number   1
_chemical_formula_structural   Y9Tm(ZnIn3)2
_chemical_formula_sum   'Y9 Tm1 Zn2 In6'
_cell_volume   492.70999247
_cell_formula_units_Z   1
loop_
 _symmetry_equiv_pos_site_id
 _symmetry_equiv_pos_as_xyz
  1  'x, y, z'
loop_
 _atom_site_type_symbol
 _atom_site_label
 _atom_site_symmetry_multiplicity
 _atom_site_fract_x
 _atom_site_fract_y
 _atom_site_fract_z
 _atom_site_occupancy
  Y  Y0  1  0.333333  0.666667  0.500000  1
  Y  Y1  1  0.666667  0.333333  0.500000  1
  Y  Y2  1  0.666667  0.333333  0.000000  1
  Y  Y3  1  0.275489  0.999649  0.750351  1
  Y  Y4  1  0.724161  0.999649  0.249649  1
  Y  Y5  1  0.000351  0.275839  0.750351  1
  Y  Y6  1  0.000351  0.724511  0.249649  1
  Y  Y7  1  0.724161  0.724511  0.750351  1
  Y  Y8  1  0.275489  0.275839  0.249649  1
  Tm  Tm9  1  0.333333  0.666667  0.000000  1
  Zn  Zn10  1  0.000000  0.000000  0.500000  1
  Zn  Zn11  1  0.000000  0.000000  0.000000  1
  In  In12  1  0.621526  0.999623  0.750290  1
  In  In13  1  0.378098  0.999623  0.249710  1
  In  In14  1  0.000377  0.621902  0.750290  1
  In  In15  1  0.000377  0.378474  0.249710  1
  In  In16  1  0.378098  0.378474  0.750290  1
  In  In17  1  0.621526  0.621902  0.249710  1
