# generated using pymatgen
data_Er3ThAgRh
_symmetry_space_group_name_H-M   'P 1'
_cell_length_a   9.57675292
_cell_length_b   9.57675305
_cell_length_c   9.57675400
_cell_angle_alpha   59.99999672
_cell_angle_beta   59.99999626
_cell_angle_gamma   59.99999996
_symmetry_Int_Tables_number   1
_chemical_formula_structural   Er3ThAgRh
_chemical_formula_sum   'Er12 Th4 Ag4 Rh4'
_cell_volume   621.06904248
_cell_formula_units_Z   4
loop_
 _symmetry_equiv_pos_site_id
 _symmetry_equiv_pos_as_xyz
  1  'x, y, z'
loop_
 _atom_site_type_symbol
 _atom_site_label
 _atom_site_symmetry_multiplicity
 _atom_site_fract_x
 _atom_site_fract_y
 _atom_site_fract_z
 _atom_site_occupancy
  Er  Er0  1  0.812511  0.187489  0.187489  1
  Er  Er1  1  0.187489  0.812511  0.812511  1
  Er  Er2  1  0.187489  0.812511  0.187489  1
  Er  Er3  1  0.812511  0.187489  0.812511  1
  Er  Er4  1  0.187489  0.187489  0.812511  1
  Er  Er5  1  0.812511  0.812511  0.187489  1
  Er  Er6  1  0.933088  0.566912  0.566912  1
  Er  Er7  1  0.566912  0.933088  0.933088  1
  Er  Er8  1  0.566912  0.933088  0.566912  1
  Er  Er9  1  0.933088  0.566912  0.933088  1
  Er  Er10  1  0.566912  0.566912  0.933088  1
  Er  Er11  1  0.933088  0.933088  0.566912  1
  Th  Th12  1  0.352894  0.352894  0.352894  1
  Th  Th13  1  0.352894  0.352894  0.941316  1
  Th  Th14  1  0.352894  0.941316  0.352894  1
  Th  Th15  1  0.941316  0.352894  0.352894  1
  Ag  Ag16  1  0.582859  0.582859  0.582859  1
  Ag  Ag17  1  0.582859  0.582859  0.251420  1
  Ag  Ag18  1  0.582859  0.251420  0.582859  1
  Ag  Ag19  1  0.251420  0.582859  0.582859  1
  Rh  Rh20  1  0.143636  0.143636  0.143636  1
  Rh  Rh21  1  0.143636  0.143636  0.569091  1
  Rh  Rh22  1  0.143636  0.569091  0.143636  1
  Rh  Rh23  1  0.569091  0.143636  0.143636  1
