# generated using pymatgen
data_Ta2Os2RuPt3
_symmetry_space_group_name_H-M   'P 1'
_cell_length_a   3.94292900
_cell_length_b   4.01722100
_cell_length_c   7.77240100
_cell_angle_alpha   90.00000000
_cell_angle_beta   90.00000000
_cell_angle_gamma   90.00000000
_symmetry_Int_Tables_number   1
_chemical_formula_structural   Ta2Os2RuPt3
_chemical_formula_sum   'Ta2 Os2 Ru1 Pt3'
_cell_volume   123.11185641
_cell_formula_units_Z   1
loop_
 _symmetry_equiv_pos_site_id
 _symmetry_equiv_pos_as_xyz
  1  'x, y, z'
loop_
 _atom_site_type_symbol
 _atom_site_label
 _atom_site_symmetry_multiplicity
 _atom_site_fract_x
 _atom_site_fract_y
 _atom_site_fract_z
 _atom_site_occupancy
  Ta  Ta0  1  0.000000  0.000000  0.244377  1
  Ta  Ta1  1  0.000000  0.000000  0.755623  1
  Os  Os2  1  0.000000  0.500000  0.000000  1
  Os  Os3  1  0.500000  0.000000  0.000000  1
  Ru  Ru4  1  0.500000  0.000000  0.500000  1
  Pt  Pt5  1  0.500000  0.500000  0.249663  1
  Pt  Pt6  1  0.500000  0.500000  0.750337  1
  Pt  Pt7  1  0.000000  0.500000  0.500000  1
