# generated using pymatgen
data_YTh2Tl5
_symmetry_space_group_name_H-M   'P 1'
_cell_length_a   6.67880672
_cell_length_b   6.67880562
_cell_length_c   10.43540600
_cell_angle_alpha   90.00000000
_cell_angle_beta   90.00000000
_cell_angle_gamma   78.16689899
_symmetry_Int_Tables_number   1
_chemical_formula_structural   YTh2Tl5
_chemical_formula_sum   'Y2 Th4 Tl10'
_cell_volume   455.59442198
_cell_formula_units_Z   2
loop_
 _symmetry_equiv_pos_site_id
 _symmetry_equiv_pos_as_xyz
  1  'x, y, z'
loop_
 _atom_site_type_symbol
 _atom_site_label
 _atom_site_symmetry_multiplicity
 _atom_site_fract_x
 _atom_site_fract_y
 _atom_site_fract_z
 _atom_site_occupancy
  Y  Y0  1  0.382400  0.617600  0.250000  1
  Y  Y1  1  0.617600  0.382400  0.750000  1
  Th  Th2  1  0.207234  0.207234  0.000000  1
  Th  Th3  1  0.792767  0.792767  0.000000  1
  Th  Th4  1  0.207234  0.207234  0.500000  1
  Th  Th5  1  0.792767  0.792767  0.500000  1
  Tl  Tl6  1  0.694959  0.305040  0.040222  1
  Tl  Tl7  1  0.996807  0.003192  0.250000  1
  Tl  Tl8  1  0.501769  0.060100  0.250000  1
  Tl  Tl9  1  0.939900  0.498231  0.250000  1
  Tl  Tl10  1  0.694959  0.305040  0.459778  1
  Tl  Tl11  1  0.305040  0.694959  0.540223  1
  Tl  Tl12  1  0.060100  0.501769  0.750000  1
  Tl  Tl13  1  0.498231  0.939900  0.750000  1
  Tl  Tl14  1  0.003192  0.996807  0.750000  1
  Tl  Tl15  1  0.305040  0.694959  0.959777  1
