# generated using pymatgen
data_K4VGaF10
_symmetry_space_group_name_H-M   'P 1'
_cell_length_a   7.21680417
_cell_length_b   7.21680521
_cell_length_c   7.45108502
_cell_angle_alpha   64.77208045
_cell_angle_beta   64.77207714
_cell_angle_gamma   47.61001488
_symmetry_Int_Tables_number   1
_chemical_formula_structural   K4VGaF10
_chemical_formula_sum   'K4 V1 Ga1 F10'
_cell_volume   253.61713804
_cell_formula_units_Z   1
loop_
 _symmetry_equiv_pos_site_id
 _symmetry_equiv_pos_as_xyz
  1  'x, y, z'
loop_
 _atom_site_type_symbol
 _atom_site_label
 _atom_site_symmetry_multiplicity
 _atom_site_fract_x
 _atom_site_fract_y
 _atom_site_fract_z
 _atom_site_occupancy
  K  K0  1  0.475831  0.475831  0.248028  1
  K  K1  1  0.525865  0.525865  0.750798  1
  K  K2  1  0.166190  0.166190  0.225929  1
  K  K3  1  0.832821  0.832821  0.774526  1
  V  V4  1  0.189990  0.189990  0.714250  1
  Ga  Ga5  1  0.810535  0.810535  0.283095  1
  F  F6  1  0.994945  0.505349  0.498858  1
  F  F7  1  0.505349  0.994945  0.498858  1
  F  F8  1  0.056545  0.056545  0.667539  1
  F  F9  1  0.940156  0.940156  0.328202  1
  F  F10  1  0.345375  0.345375  0.687145  1
  F  F11  1  0.659136  0.659136  0.310305  1
  F  F12  1  0.897766  0.378800  0.919006  1
  F  F13  1  0.378800  0.897766  0.919006  1
  F  F14  1  0.097396  0.623300  0.087227  1
  F  F15  1  0.623300  0.097396  0.087227  1
