# generated using pymatgen
data_ScNb5(SiOs)6
_symmetry_space_group_name_H-M   'P 1'
_cell_length_a   7.51120807
_cell_length_b   7.53284969
_cell_length_c   7.51120755
_cell_angle_alpha   128.46818551
_cell_angle_beta   121.58443017
_cell_angle_gamma   81.53515189
_symmetry_Int_Tables_number   1
_chemical_formula_structural   ScNb5(SiOs)6
_chemical_formula_sum   'Sc1 Nb5 Si6 Os6'
_cell_volume   273.10418355
_cell_formula_units_Z   1
loop_
 _symmetry_equiv_pos_site_id
 _symmetry_equiv_pos_as_xyz
  1  'x, y, z'
loop_
 _atom_site_type_symbol
 _atom_site_label
 _atom_site_symmetry_multiplicity
 _atom_site_fract_x
 _atom_site_fract_y
 _atom_site_fract_z
 _atom_site_occupancy
  Sc  Sc0  1  0.752779  0.584226  0.331447  1
  Nb  Nb1  1  0.451407  0.404413  0.453005  1
  Nb  Nb2  1  0.550911  0.012591  0.961682  1
  Nb  Nb3  1  0.029667  0.998128  0.468461  1
  Nb  Nb4  1  0.965460  0.433539  0.968079  1
  Nb  Nb5  1  0.247837  0.586690  0.838855  1
  Si  Si6  1  0.219062  0.955489  0.236428  1
  Si  Si7  1  0.773340  0.040031  0.766690  1
  Si  Si8  1  0.173912  0.670507  0.507630  1
  Si  Si9  1  0.833353  0.337947  0.503397  1
  Si  Si10  1  0.662876  0.670507  0.996594  1
  Si  Si11  1  0.334551  0.337947  0.004594  1
  Os  Os12  1  0.022649  0.252178  0.272613  1
  Os  Os13  1  0.479566  0.252178  0.729529  1
  Os  Os14  1  0.407411  0.755100  0.410177  1
  Os  Os15  1  0.596710  0.005714  0.352129  1
  Os  Os16  1  0.844923  0.755100  0.847690  1
  Os  Os17  1  0.153585  0.005714  0.909004  1
