# generated using pymatgen
data_SmHo4(MnB3)2
_symmetry_space_group_name_H-M   'P 1'
_cell_length_a   8.27453204
_cell_length_b   8.27453218
_cell_length_c   8.27453020
_cell_angle_alpha   38.22149857
_cell_angle_beta   38.22149700
_cell_angle_gamma   38.22149053
_symmetry_Int_Tables_number   1
_chemical_formula_structural   SmHo4(MnB3)2
_chemical_formula_sum   'Sm1 Ho4 Mn2 B6'
_cell_volume   194.74971779
_cell_formula_units_Z   1
loop_
 _symmetry_equiv_pos_site_id
 _symmetry_equiv_pos_as_xyz
  1  'x, y, z'
loop_
 _atom_site_type_symbol
 _atom_site_label
 _atom_site_symmetry_multiplicity
 _atom_site_fract_x
 _atom_site_fract_y
 _atom_site_fract_z
 _atom_site_occupancy
  Sm  Sm0  1  0.000000  0.000000  0.000000  1
  Ho  Ho1  1  0.582682  0.582682  0.582682  1
  Ho  Ho2  1  0.417318  0.417318  0.417318  1
  Ho  Ho3  1  0.750037  0.750037  0.750037  1
  Ho  Ho4  1  0.249963  0.249963  0.249963  1
  Mn  Mn5  1  0.885082  0.885082  0.885082  1
  Mn  Mn6  1  0.114918  0.114918  0.114918  1
  B  B7  1  0.500000  0.833502  0.166498  1
  B  B8  1  0.166498  0.500000  0.833502  1
  B  B9  1  0.833502  0.166498  0.500000  1
  B  B10  1  0.500000  0.166498  0.833502  1
  B  B11  1  0.833502  0.500000  0.166498  1
  B  B12  1  0.166498  0.833502  0.500000  1
