# generated using pymatgen
data_La3Pr13AlCd3Ir4
_symmetry_space_group_name_H-M   'P 1'
_cell_length_a   10.02275318
_cell_length_b   10.03374761
_cell_length_c   10.03335664
_cell_angle_alpha   60.11636953
_cell_angle_beta   59.99586879
_cell_angle_gamma   59.99991180
_symmetry_Int_Tables_number   1
_chemical_formula_structural   La3Pr13AlCd3Ir4
_chemical_formula_sum   'La3 Pr13 Al1 Cd3 Ir4'
_cell_volume   714.08198326
_cell_formula_units_Z   1
loop_
 _symmetry_equiv_pos_site_id
 _symmetry_equiv_pos_as_xyz
  1  'x, y, z'
loop_
 _atom_site_type_symbol
 _atom_site_label
 _atom_site_symmetry_multiplicity
 _atom_site_fract_x
 _atom_site_fract_y
 _atom_site_fract_z
 _atom_site_occupancy
  La  La0  1  0.346438  0.346727  0.346756  1
  La  La1  1  0.348340  0.349191  0.956398  1
  La  La2  1  0.348340  0.956420  0.349188  1
  Pr  Pr3  1  0.951113  0.350462  0.350434  1
  Pr  Pr4  1  0.810816  0.189154  0.189172  1
  Pr  Pr5  1  0.191043  0.807208  0.807214  1
  Pr  Pr6  1  0.189385  0.810084  0.189468  1
  Pr  Pr7  1  0.807626  0.191648  0.806760  1
  Pr  Pr8  1  0.189397  0.189435  0.810106  1
  Pr  Pr9  1  0.807616  0.806794  0.191675  1
  Pr  Pr10  1  0.937200  0.562095  0.562064  1
  Pr  Pr11  1  0.561318  0.938227  0.938251  1
  Pr  Pr12  1  0.562791  0.936895  0.562425  1
  Pr  Pr13  1  0.938400  0.560999  0.938787  1
  Pr  Pr14  1  0.562764  0.562346  0.936897  1
  Pr  Pr15  1  0.938525  0.938822  0.560928  1
  Al  Al16  1  0.580453  0.579379  0.579398  1
  Cd  Cd17  1  0.580353  0.579505  0.263766  1
  Cd  Cd18  1  0.580351  0.263766  0.579511  1
  Cd  Cd19  1  0.263737  0.579835  0.579824  1
  Ir  Ir20  1  0.142683  0.141778  0.141770  1
  Ir  Ir21  1  0.143381  0.142200  0.574581  1
  Ir  Ir22  1  0.143381  0.574583  0.142222  1
  Ir  Ir23  1  0.574545  0.142447  0.142407  1
