# generated using pymatgen
data_Sc3In4CoAg
_symmetry_space_group_name_H-M   'P 1'
_cell_length_a   7.86619300
_cell_length_b   7.86619414
_cell_length_c   3.49955300
_cell_angle_alpha   90.00000000
_cell_angle_beta   90.00000000
_cell_angle_gamma   119.99999940
_symmetry_Int_Tables_number   1
_chemical_formula_structural   Sc3In4CoAg
_chemical_formula_sum   'Sc3 In4 Co1 Ag1'
_cell_volume   187.53074036
_cell_formula_units_Z   1
loop_
 _symmetry_equiv_pos_site_id
 _symmetry_equiv_pos_as_xyz
  1  'x, y, z'
loop_
 _atom_site_type_symbol
 _atom_site_label
 _atom_site_symmetry_multiplicity
 _atom_site_fract_x
 _atom_site_fract_y
 _atom_site_fract_z
 _atom_site_occupancy
  Sc  Sc0  1  0.278746  0.237085  0.500000  1
  Sc  Sc1  1  0.762915  0.041660  0.500000  1
  Sc  Sc2  1  0.958340  0.721254  0.500000  1
  In  In3  1  0.056685  0.384922  0.000000  1
  In  In4  1  0.615078  0.671762  0.000000  1
  In  In5  1  0.328238  0.943315  0.000000  1
  In  In6  1  0.666667  0.333333  0.000000  1
  Co  Co7  1  0.000000  0.000000  0.000000  1
  Ag  Ag8  1  0.333333  0.666667  0.500000  1
