# generated using pymatgen
data_SrAg2F8
_symmetry_space_group_name_H-M   'P 1'
_cell_length_a   6.94820858
_cell_length_b   6.94820810
_cell_length_c   6.94820833
_cell_angle_alpha   130.53438415
_cell_angle_beta   130.53437847
_cell_angle_gamma   72.55390310
_symmetry_Int_Tables_number   1
_chemical_formula_structural   SrAg2F8
_chemical_formula_sum   'Sr1 Ag2 F8'
_cell_volume   189.34770051
_cell_formula_units_Z   1
loop_
 _symmetry_equiv_pos_site_id
 _symmetry_equiv_pos_as_xyz
  1  'x, y, z'
loop_
 _atom_site_type_symbol
 _atom_site_label
 _atom_site_symmetry_multiplicity
 _atom_site_fract_x
 _atom_site_fract_y
 _atom_site_fract_z
 _atom_site_occupancy
  Sr  Sr0  1  0.000000  0.000000  0.000000  1
  Ag  Ag1  1  0.750000  0.250000  0.500000  1
  Ag  Ag2  1  0.250000  0.750000  0.500000  1
  F  F3  1  0.706482  0.193522  0.156731  1
  F  F4  1  0.450249  0.963210  0.156731  1
  F  F5  1  0.806479  0.293518  0.843269  1
  F  F6  1  0.293518  0.450249  0.487039  1
  F  F7  1  0.036790  0.549751  0.843269  1
  F  F8  1  0.549751  0.706482  0.512961  1
  F  F9  1  0.193522  0.036790  0.487039  1
  F  F10  1  0.963210  0.806479  0.512961  1
