# generated using pymatgen
data_HfSc2SiP2Ru3
_symmetry_space_group_name_H-M   'P 1'
_cell_length_a   6.58960000
_cell_length_b   6.57928970
_cell_length_c   3.66831900
_cell_angle_alpha   90.00000000
_cell_angle_beta   90.00000000
_cell_angle_gamma   120.05186235
_symmetry_Int_Tables_number   1
_chemical_formula_structural   HfSc2SiP2Ru3
_chemical_formula_sum   'Hf1 Sc2 Si1 P2 Ru3'
_cell_volume   137.66026149
_cell_formula_units_Z   1
loop_
 _symmetry_equiv_pos_site_id
 _symmetry_equiv_pos_as_xyz
  1  'x, y, z'
loop_
 _atom_site_type_symbol
 _atom_site_label
 _atom_site_symmetry_multiplicity
 _atom_site_fract_x
 _atom_site_fract_y
 _atom_site_fract_z
 _atom_site_occupancy
  Hf  Hf0  1  0.414568  0.000000  0.500000  1
  Sc  Sc1  1  0.999082  0.414372  0.500000  1
  Sc  Sc2  1  0.584710  0.585628  0.500000  1
  Si  Si3  1  0.998445  0.000000  0.500000  1
  P  P4  1  0.332832  0.665053  0.000000  1
  P  P5  1  0.667780  0.334947  0.000000  1
  Ru  Ru6  1  0.002887  0.753514  0.000000  1
  Ru  Ru7  1  0.249373  0.246486  0.000000  1
  Ru  Ru8  1  0.750322  0.000000  0.000000  1
