# generated using pymatgen
data_Th8In4Ga7Au
_symmetry_space_group_name_H-M   'P 1'
_cell_length_a   7.51190480
_cell_length_b   7.51190398
_cell_length_c   8.95633902
_cell_angle_alpha   89.99733978
_cell_angle_beta   89.99733717
_cell_angle_gamma   89.51991146
_symmetry_Int_Tables_number   1
_chemical_formula_structural   Th8In4Ga7Au
_chemical_formula_sum   'Th8 In4 Ga7 Au1'
_cell_volume   505.37689197
_cell_formula_units_Z   1
loop_
 _symmetry_equiv_pos_site_id
 _symmetry_equiv_pos_as_xyz
  1  'x, y, z'
loop_
 _atom_site_type_symbol
 _atom_site_label
 _atom_site_symmetry_multiplicity
 _atom_site_fract_x
 _atom_site_fract_y
 _atom_site_fract_z
 _atom_site_occupancy
  Th  Th0  1  0.825096  0.174758  0.499275  1
  Th  Th1  1  0.174758  0.825096  0.499275  1
  Th  Th2  1  0.325683  0.325683  0.000136  1
  Th  Th3  1  0.674388  0.674388  0.998081  1
  Th  Th4  1  0.674401  0.674401  0.502033  1
  Th  Th5  1  0.325554  0.325554  0.500018  1
  Th  Th6  1  0.174721  0.824786  0.000816  1
  Th  Th7  1  0.824786  0.174721  0.000816  1
  In  In8  1  0.500219  0.000259  0.250225  1
  In  In9  1  0.000361  0.499179  0.749267  1
  In  In10  1  0.499179  0.000361  0.749267  1
  In  In11  1  0.000259  0.500219  0.250225  1
  Ga  Ga12  1  0.623991  0.380864  0.250192  1
  Ga  Ga13  1  0.380864  0.623991  0.250192  1
  Ga  Ga14  1  0.122168  0.122168  0.750267  1
  Ga  Ga15  1  0.878291  0.878291  0.750046  1
  Ga  Ga16  1  0.376145  0.622091  0.749990  1
  Ga  Ga17  1  0.622091  0.376145  0.749990  1
  Ga  Ga18  1  0.873453  0.873453  0.250100  1
  Au  Au19  1  0.123594  0.123594  0.249788  1
