# generated using pymatgen
data_Nd5Ho3Si12IrRh3
_symmetry_space_group_name_H-M   'P 1'
_cell_length_a   8.23076600
_cell_length_b   8.23076561
_cell_length_c   8.17939900
_cell_angle_alpha   90.00000000
_cell_angle_beta   90.00000000
_cell_angle_gamma   120.00000156
_symmetry_Int_Tables_number   1
_chemical_formula_structural   Nd5Ho3Si12IrRh3
_chemical_formula_sum   'Nd5 Ho3 Si12 Ir1 Rh3'
_cell_volume   479.87984317
_cell_formula_units_Z   1
loop_
 _symmetry_equiv_pos_site_id
 _symmetry_equiv_pos_as_xyz
  1  'x, y, z'
loop_
 _atom_site_type_symbol
 _atom_site_label
 _atom_site_symmetry_multiplicity
 _atom_site_fract_x
 _atom_site_fract_y
 _atom_site_fract_z
 _atom_site_occupancy
  Nd  Nd0  1  0.000000  0.000000  0.249167  1
  Nd  Nd1  1  0.000000  0.000000  0.750182  1
  Nd  Nd2  1  0.504743  0.495257  0.250133  1
  Nd  Nd3  1  0.504743  0.009485  0.250133  1
  Nd  Nd4  1  0.990515  0.495257  0.250133  1
  Ho  Ho5  1  0.491909  0.508091  0.749911  1
  Ho  Ho6  1  0.491909  0.983816  0.749911  1
  Ho  Ho7  1  0.016184  0.508091  0.749911  1
  Si  Si8  1  0.166622  0.833378  0.506418  1
  Si  Si9  1  0.166622  0.333243  0.506418  1
  Si  Si10  1  0.666757  0.833378  0.506418  1
  Si  Si11  1  0.831375  0.168625  0.504349  1
  Si  Si12  1  0.831375  0.662750  0.504349  1
  Si  Si13  1  0.337250  0.168625  0.504349  1
  Si  Si14  1  0.831559  0.168441  0.995732  1
  Si  Si15  1  0.831559  0.663119  0.995732  1
  Si  Si16  1  0.336881  0.168441  0.995732  1
  Si  Si17  1  0.166740  0.833260  0.992836  1
  Si  Si18  1  0.166740  0.333480  0.992836  1
  Si  Si19  1  0.666520  0.833260  0.992836  1
  Ir  Ir20  1  0.333333  0.666667  0.491343  1
  Rh  Rh21  1  0.666667  0.333333  0.545028  1
  Rh  Rh22  1  0.666667  0.333333  0.954402  1
  Rh  Rh23  1  0.333333  0.666667  0.011743  1
