# generated using pymatgen
data_Y6Ho4(SnBi)3
_symmetry_space_group_name_H-M   'P 1'
_cell_length_a   9.06795968
_cell_length_b   9.08793419
_cell_length_c   6.48979200
_cell_angle_alpha   90.00000000
_cell_angle_beta   90.00000000
_cell_angle_gamma   120.01152371
_symmetry_Int_Tables_number   1
_chemical_formula_structural   Y6Ho4(SnBi)3
_chemical_formula_sum   'Y6 Ho4 Sn3 Bi3'
_cell_volume   463.11166592
_cell_formula_units_Z   1
loop_
 _symmetry_equiv_pos_site_id
 _symmetry_equiv_pos_as_xyz
  1  'x, y, z'
loop_
 _atom_site_type_symbol
 _atom_site_label
 _atom_site_symmetry_multiplicity
 _atom_site_fract_x
 _atom_site_fract_y
 _atom_site_fract_z
 _atom_site_occupancy
  Y  Y0  1  0.758496  0.752909  0.250000  1
  Y  Y1  1  0.005452  0.246396  0.250000  1
  Y  Y2  1  0.764402  0.005852  0.750000  1
  Y  Y3  1  0.236736  0.999743  0.250000  1
  Y  Y4  1  0.999849  0.755314  0.750000  1
  Y  Y5  1  0.238868  0.244370  0.750000  1
  Ho  Ho6  1  0.325312  0.658579  0.498572  1
  Ho  Ho7  1  0.671913  0.338317  0.498633  1
  Ho  Ho8  1  0.325312  0.658579  0.001428  1
  Ho  Ho9  1  0.671913  0.338317  0.001367  1
  Sn  Sn10  1  0.997630  0.392859  0.750000  1
  Sn  Sn11  1  0.393363  0.390464  0.250000  1
  Sn  Sn12  1  0.001383  0.608169  0.250000  1
  Bi  Bi13  1  0.608711  0.611446  0.750000  1
  Bi  Bi14  1  0.391595  0.000082  0.750000  1
  Bi  Bi15  1  0.609064  0.998606  0.250000  1
