# generated using pymatgen
data_Er12Si12Os3Ru
_symmetry_space_group_name_H-M   'P 1'
_cell_length_a   4.16709000
_cell_length_b   10.67348556
_cell_length_c   12.24301826
_cell_angle_alpha   90.03027698
_cell_angle_beta   90.00000000
_cell_angle_gamma   90.00000000
_symmetry_Int_Tables_number   1
_chemical_formula_structural   Er12Si12Os3Ru
_chemical_formula_sum   'Er12 Si12 Os3 Ru1'
_cell_volume   544.53723733
_cell_formula_units_Z   1
loop_
 _symmetry_equiv_pos_site_id
 _symmetry_equiv_pos_as_xyz
  1  'x, y, z'
loop_
 _atom_site_type_symbol
 _atom_site_label
 _atom_site_symmetry_multiplicity
 _atom_site_fract_x
 _atom_site_fract_y
 _atom_site_fract_z
 _atom_site_occupancy
  Er  Er0  1  0.250000  0.879911  0.020605  1
  Er  Er1  1  0.250000  0.620100  0.520162  1
  Er  Er2  1  0.750000  0.120440  0.979999  1
  Er  Er3  1  0.750000  0.379928  0.479793  1
  Er  Er4  1  0.250000  0.921234  0.604799  1
  Er  Er5  1  0.250000  0.578523  0.105488  1
  Er  Er6  1  0.750000  0.078803  0.394438  1
  Er  Er7  1  0.750000  0.421145  0.894760  1
  Er  Er8  1  0.250000  0.661798  0.799870  1
  Er  Er9  1  0.250000  0.838852  0.299512  1
  Er  Er10  1  0.750000  0.338791  0.200401  1
  Er  Er11  1  0.750000  0.160936  0.700138  1
  Si  Si12  1  0.250000  0.012260  0.821598  1
  Si  Si13  1  0.250000  0.489171  0.321222  1
  Si  Si14  1  0.750000  0.989026  0.178524  1
  Si  Si15  1  0.750000  0.510848  0.678928  1
  Si  Si16  1  0.250000  0.249630  0.841436  1
  Si  Si17  1  0.250000  0.250594  0.341783  1
  Si  Si18  1  0.750000  0.750069  0.158524  1
  Si  Si19  1  0.750000  0.749479  0.657534  1
  Si  Si20  1  0.250000  0.201276  0.544204  1
  Si  Si21  1  0.250000  0.299034  0.044254  1
  Si  Si22  1  0.750000  0.798607  0.455407  1
  Si  Si23  1  0.750000  0.699357  0.957248  1
  Os  Os24  1  0.250000  0.389657  0.680146  1
  Os  Os25  1  0.250000  0.110475  0.180384  1
  Os  Os26  1  0.750000  0.610503  0.319717  1
  Ru  Ru27  1  0.750000  0.889554  0.819127  1
