# generated using pymatgen
data_YbSc2(Co3P2)3
_symmetry_space_group_name_H-M   'P 1'
_cell_length_a   3.64031800
_cell_length_b   10.41346300
_cell_length_c   11.95188800
_cell_angle_alpha   90.00000000
_cell_angle_beta   90.00000000
_cell_angle_gamma   90.00000000
_symmetry_Int_Tables_number   1
_chemical_formula_structural   YbSc2(Co3P2)3
_chemical_formula_sum   'Yb2 Sc4 Co18 P12'
_cell_volume   453.07595668
_cell_formula_units_Z   2
loop_
 _symmetry_equiv_pos_site_id
 _symmetry_equiv_pos_as_xyz
  1  'x, y, z'
loop_
 _atom_site_type_symbol
 _atom_site_label
 _atom_site_symmetry_multiplicity
 _atom_site_fract_x
 _atom_site_fract_y
 _atom_site_fract_z
 _atom_site_occupancy
  Yb  Yb0  1  0.750000  0.250000  0.474386  1
  Yb  Yb1  1  0.250000  0.750000  0.525614  1
  Sc  Sc2  1  0.250000  0.932232  0.795806  1
  Sc  Sc3  1  0.250000  0.567768  0.795806  1
  Sc  Sc4  1  0.750000  0.067768  0.204194  1
  Sc  Sc5  1  0.750000  0.432232  0.204194  1
  Co  Co6  1  0.250000  0.250000  0.841751  1
  Co  Co7  1  0.750000  0.750000  0.158249  1
  Co  Co8  1  0.250000  0.250000  0.296347  1
  Co  Co9  1  0.750000  0.750000  0.703653  1
  Co  Co10  1  0.750000  0.250000  0.016104  1
  Co  Co11  1  0.250000  0.750000  0.983896  1
  Co  Co12  1  0.250000  0.417161  0.007000  1
  Co  Co13  1  0.250000  0.082839  0.007000  1
  Co  Co14  1  0.750000  0.582839  0.993000  1
  Co  Co15  1  0.750000  0.917161  0.993000  1
  Co  Co16  1  0.250000  0.453014  0.570272  1
  Co  Co17  1  0.250000  0.046986  0.570272  1
  Co  Co18  1  0.750000  0.546986  0.429728  1
  Co  Co19  1  0.750000  0.953014  0.429728  1
  Co  Co20  1  0.250000  0.871857  0.289129  1
  Co  Co21  1  0.250000  0.628143  0.289129  1
  Co  Co22  1  0.750000  0.128143  0.710871  1
  Co  Co23  1  0.750000  0.371857  0.710871  1
  P  P24  1  0.250000  0.250000  0.120031  1
  P  P25  1  0.750000  0.750000  0.879969  1
  P  P26  1  0.250000  0.250000  0.655689  1
  P  P27  1  0.750000  0.750000  0.344311  1
  P  P28  1  0.250000  0.439836  0.380043  1
  P  P29  1  0.250000  0.060164  0.380043  1
  P  P30  1  0.750000  0.560164  0.619957  1
  P  P31  1  0.750000  0.939836  0.619957  1
  P  P32  1  0.250000  0.904271  0.107900  1
  P  P33  1  0.250000  0.595729  0.107900  1
  P  P34  1  0.750000  0.095729  0.892100  1
  P  P35  1  0.750000  0.404271  0.892100  1
