# generated using pymatgen
data_Ag6PbNO11
_symmetry_space_group_name_H-M   'P 1'
_cell_length_a   7.09326059
_cell_length_b   7.09326110
_cell_length_c   7.09326017
_cell_angle_alpha   62.04188370
_cell_angle_beta   62.04188427
_cell_angle_gamma   62.04187260
_symmetry_Int_Tables_number   1
_chemical_formula_structural   Ag6PbNO11
_chemical_formula_sum   'Ag6 Pb1 N1 O11'
_cell_volume   263.88361274
_cell_formula_units_Z   1
loop_
 _symmetry_equiv_pos_site_id
 _symmetry_equiv_pos_as_xyz
  1  'x, y, z'
loop_
 _atom_site_type_symbol
 _atom_site_label
 _atom_site_symmetry_multiplicity
 _atom_site_fract_x
 _atom_site_fract_y
 _atom_site_fract_z
 _atom_site_occupancy
  Ag  Ag0  1  0.498082  0.000991  0.000991  1
  Ag  Ag1  1  0.500250  0.500250  0.000305  1
  Ag  Ag2  1  0.500250  0.000305  0.500250  1
  Ag  Ag3  1  0.000991  0.000991  0.498082  1
  Ag  Ag4  1  0.000305  0.500250  0.500250  1
  Ag  Ag5  1  0.000991  0.498082  0.000991  1
  Pb  Pb6  1  0.998958  0.998958  0.998958  1
  N  N7  1  0.500072  0.500072  0.500072  1
  O  O8  1  0.581607  0.144769  0.144769  1
  O  O9  1  0.144769  0.581607  0.144769  1
  O  O10  1  0.136477  0.136477  0.136477  1
  O  O11  1  0.144769  0.144769  0.581607  1
  O  O12  1  0.600067  0.600067  0.300096  1
  O  O13  1  0.600067  0.300096  0.600067  1
  O  O14  1  0.300096  0.600067  0.600067  1
  O  O15  1  0.856455  0.856455  0.415923  1
  O  O16  1  0.856455  0.415923  0.856455  1
  O  O17  1  0.863416  0.863416  0.863416  1
  O  O18  1  0.415923  0.856455  0.856455  1
