# generated using pymatgen
data_CsYHo9(C2I9)2
_symmetry_space_group_name_H-M   'P 1'
_cell_length_a   11.47373759
_cell_length_b   11.47960292
_cell_length_c   11.47752991
_cell_angle_alpha   113.24111029
_cell_angle_beta   86.66234005
_cell_angle_gamma   120.11670033
_symmetry_Int_Tables_number   1
_chemical_formula_structural   CsYHo9(C2I9)2
_chemical_formula_sum   'Cs1 Y1 Ho9 C4 I18'
_cell_volume   1182.83175192
_cell_formula_units_Z   1
loop_
 _symmetry_equiv_pos_site_id
 _symmetry_equiv_pos_as_xyz
  1  'x, y, z'
loop_
 _atom_site_type_symbol
 _atom_site_label
 _atom_site_symmetry_multiplicity
 _atom_site_fract_x
 _atom_site_fract_y
 _atom_site_fract_z
 _atom_site_occupancy
  Cs  Cs0  1  0.499942  0.999956  0.500048  1
  Y  Y1  1  0.895712  0.055239  0.999393  1
  Ho  Ho2  1  0.681673  0.726624  0.713986  1
  Ho  Ho3  1  0.276018  0.350967  0.015459  1
  Ho  Ho4  1  0.093291  0.386843  0.289396  1
  Ho  Ho5  1  0.964721  0.037729  0.322673  1
  Ho  Ho6  1  0.906740  0.612284  0.709988  1
  Ho  Ho7  1  0.102664  0.945483  0.000534  1
  Ho  Ho8  1  0.035573  0.962190  0.677378  1
  Ho  Ho9  1  0.319205  0.273840  0.286551  1
  Ho  Ho10  1  0.724224  0.648875  0.984496  1
  C  C11  1  0.152349  0.219265  0.120325  1
  C  C12  1  0.848827  0.780149  0.879678  1
  C  C13  1  0.925115  0.856633  0.803402  1
  C  C14  1  0.076086  0.142848  0.196651  1
  I  I15  1  0.452195  0.531433  0.832619  1
  I  I16  1  0.380757  0.040603  0.156987  1
  I  I17  1  0.779617  0.855719  0.502923  1
  I  I18  1  0.839610  0.310291  0.154372  1
  I  I19  1  0.548177  0.468892  0.167394  1
  I  I20  1  0.220473  0.144242  0.497331  1
  I  I21  1  0.315873  0.096933  0.829903  1
  I  I22  1  0.683206  0.902038  0.171290  1
  I  I23  1  0.973300  0.756972  0.169203  1
  I  I24  1  0.934364  0.297260  0.499532  1
  I  I25  1  0.027973  0.244138  0.829653  1
  I  I26  1  0.065715  0.702858  0.500320  1
  I  I27  1  0.259611  0.618635  0.181892  1
  I  I28  1  0.740086  0.380906  0.817988  1
  I  I29  1  0.644253  0.438142  0.503009  1
  I  I30  1  0.160209  0.691921  0.847200  1
  I  I31  1  0.617070  0.958207  0.841520  1
  I  I32  1  0.355368  0.561887  0.496905  1
