# generated using pymatgen
data_Dy2Y5FeBr12
_symmetry_space_group_name_H-M   'P 1'
_cell_length_a   9.11903402
_cell_length_b   9.24045766
_cell_length_c   9.22643600
_cell_angle_alpha   107.02670654
_cell_angle_beta   106.84784673
_cell_angle_gamma   106.81677174
_symmetry_Int_Tables_number   1
_chemical_formula_structural   Dy2Y5FeBr12
_chemical_formula_sum   'Dy2 Y5 Fe1 Br12'
_cell_volume   649.28026852
_cell_formula_units_Z   1
loop_
 _symmetry_equiv_pos_site_id
 _symmetry_equiv_pos_as_xyz
  1  'x, y, z'
loop_
 _atom_site_type_symbol
 _atom_site_label
 _atom_site_symmetry_multiplicity
 _atom_site_fract_x
 _atom_site_fract_y
 _atom_site_fract_z
 _atom_site_occupancy
  Dy  Dy0  1  0.019344  0.303012  0.099247  1
  Dy  Dy1  1  0.499320  0.500680  0.499921  1
  Y  Y2  1  0.901137  0.978164  0.694107  1
  Y  Y3  1  0.705469  0.904918  0.979122  1
  Y  Y4  1  0.980593  0.694162  0.900128  1
  Y  Y5  1  0.099153  0.020502  0.305754  1
  Y  Y6  1  0.294913  0.095428  0.021255  1
  Fe  Fe7  1  0.000152  0.999379  0.999827  1
  Br  Br8  1  0.834080  0.613905  0.534918  1
  Br  Br9  1  0.535276  0.832614  0.614465  1
  Br  Br10  1  0.614672  0.538602  0.832918  1
  Br  Br11  1  0.164627  0.385577  0.463412  1
  Br  Br12  1  0.464953  0.169016  0.385972  1
  Br  Br13  1  0.383789  0.461449  0.166673  1
  Br  Br14  1  0.928341  0.322249  0.779901  1
  Br  Br15  1  0.776914  0.928236  0.320879  1
  Br  Br16  1  0.324961  0.780955  0.931184  1
  Br  Br17  1  0.071493  0.677211  0.221062  1
  Br  Br18  1  0.223815  0.073683  0.679967  1
  Br  Br19  1  0.676997  0.220256  0.069288  1
