# generated using pymatgen
data_TbY7(ScGa5)4
_symmetry_space_group_name_H-M   'P 1'
_cell_length_a   6.02040806
_cell_length_b   9.48468204
_cell_length_c   11.43393707
_cell_angle_alpha   90.00079399
_cell_angle_beta   89.98690799
_cell_angle_gamma   89.98987917
_symmetry_Int_Tables_number   1
_chemical_formula_structural   TbY7(ScGa5)4
_chemical_formula_sum   'Tb1 Y7 Sc4 Ga20'
_cell_volume   652.89671668
_cell_formula_units_Z   1
loop_
 _symmetry_equiv_pos_site_id
 _symmetry_equiv_pos_as_xyz
  1  'x, y, z'
loop_
 _atom_site_type_symbol
 _atom_site_label
 _atom_site_symmetry_multiplicity
 _atom_site_fract_x
 _atom_site_fract_y
 _atom_site_fract_z
 _atom_site_occupancy
  Tb  Tb0  1  0.891100  0.508759  0.351941  1
  Y  Y1  1  0.608865  0.991142  0.851836  1
  Y  Y2  1  0.108963  0.008809  0.648173  1
  Y  Y3  1  0.391078  0.491179  0.148073  1
  Y  Y4  1  0.108922  0.491197  0.648241  1
  Y  Y5  1  0.391095  0.008820  0.148126  1
  Y  Y6  1  0.891066  0.991219  0.351870  1
  Y  Y7  1  0.608880  0.508802  0.851845  1
  Sc  Sc8  1  0.849924  0.749996  0.073822  1
  Sc  Sc9  1  0.650033  0.750026  0.573917  1
  Sc  Sc10  1  0.150034  0.249997  0.926091  1
  Sc  Sc11  1  0.350074  0.250064  0.426127  1
  Ga  Ga12  1  0.878938  0.051216  0.089167  1
  Ga  Ga13  1  0.621066  0.448771  0.589094  1
  Ga  Ga14  1  0.121029  0.551261  0.910861  1
  Ga  Ga15  1  0.378964  0.948803  0.410868  1
  Ga  Ga16  1  0.121051  0.948754  0.910873  1
  Ga  Ga17  1  0.379098  0.551265  0.410854  1
  Ga  Ga18  1  0.878939  0.448762  0.089121  1
  Ga  Ga19  1  0.621041  0.051210  0.589145  1
  Ga  Ga20  1  0.162053  0.749992  0.248943  1
  Ga  Ga21  1  0.337838  0.749982  0.748959  1
  Ga  Ga22  1  0.837875  0.249975  0.751075  1
  Ga  Ga23  1  0.662135  0.249992  0.250991  1
  Ga  Ga24  1  0.380463  0.749988  0.001357  1
  Ga  Ga25  1  0.119515  0.750002  0.501294  1
  Ga  Ga26  1  0.619578  0.249989  0.998601  1
  Ga  Ga27  1  0.880409  0.249947  0.498739  1
  Ga  Ga28  1  0.602842  0.750031  0.294601  1
  Ga  Ga29  1  0.897181  0.749997  0.794598  1
  Ga  Ga30  1  0.397192  0.250005  0.705395  1
  Ga  Ga31  1  0.102760  0.250045  0.205402  1
