# generated using pymatgen
data_Nb12Al8CuOs3C4
_symmetry_space_group_name_H-M   'P 1'
_cell_length_a   8.32218730
_cell_length_b   8.32218684
_cell_length_c   8.32218695
_cell_angle_alpha   60.30608256
_cell_angle_beta   60.30608302
_cell_angle_gamma   60.30607854
_symmetry_Int_Tables_number   1
_chemical_formula_structural   Nb12Al8CuOs3C4
_chemical_formula_sum   'Nb12 Al8 Cu1 Os3 C4'
_cell_volume   410.38834707
_cell_formula_units_Z   1
loop_
 _symmetry_equiv_pos_site_id
 _symmetry_equiv_pos_as_xyz
  1  'x, y, z'
loop_
 _atom_site_type_symbol
 _atom_site_label
 _atom_site_symmetry_multiplicity
 _atom_site_fract_x
 _atom_site_fract_y
 _atom_site_fract_z
 _atom_site_occupancy
  Nb  Nb0  1  0.557794  0.941156  0.557794  1
  Nb  Nb1  1  0.308844  0.692206  0.692206  1
  Nb  Nb2  1  0.681164  0.311707  0.311707  1
  Nb  Nb3  1  0.311707  0.681164  0.311707  1
  Nb  Nb4  1  0.692206  0.692206  0.308844  1
  Nb  Nb5  1  0.311707  0.311707  0.681164  1
  Nb  Nb6  1  0.557794  0.557794  0.941156  1
  Nb  Nb7  1  0.941156  0.557794  0.557794  1
  Nb  Nb8  1  0.568836  0.938293  0.938293  1
  Nb  Nb9  1  0.938293  0.938293  0.568836  1
  Nb  Nb10  1  0.692206  0.308844  0.692206  1
  Nb  Nb11  1  0.938293  0.568836  0.938293  1
  Al  Al12  1  0.918343  0.918343  0.918343  1
  Al  Al13  1  0.996881  0.332421  0.332421  1
  Al  Al14  1  0.332421  0.996881  0.332421  1
  Al  Al15  1  0.332421  0.332421  0.996881  1
  Al  Al16  1  0.917579  0.253119  0.917579  1
  Al  Al17  1  0.917579  0.917579  0.253119  1
  Al  Al18  1  0.253119  0.917579  0.917579  1
  Al  Al19  1  0.331657  0.331657  0.331657  1
  Cu  Cu20  1  0.125000  0.125000  0.125000  1
  Os  Os21  1  0.625000  0.125000  0.125000  1
  Os  Os22  1  0.125000  0.625000  0.125000  1
  Os  Os23  1  0.125000  0.125000  0.625000  1
  C  C24  1  0.625000  0.625000  0.625000  1
  C  C25  1  0.125000  0.625000  0.625000  1
  C  C26  1  0.625000  0.125000  0.625000  1
  C  C27  1  0.625000  0.625000  0.125000  1
