# generated using pymatgen
data_Tm5TlPb2
_symmetry_space_group_name_H-M   'P 1'
_cell_length_a   6.56459200
_cell_length_b   8.92789325
_cell_length_c   8.92683951
_cell_angle_alpha   120.00390135
_cell_angle_beta   90.00009878
_cell_angle_gamma   89.99980144
_symmetry_Int_Tables_number   1
_chemical_formula_structural   Tm5TlPb2
_chemical_formula_sum   'Tm10 Tl2 Pb4'
_cell_volume   453.07282314
_cell_formula_units_Z   2
loop_
 _symmetry_equiv_pos_site_id
 _symmetry_equiv_pos_as_xyz
  1  'x, y, z'
loop_
 _atom_site_type_symbol
 _atom_site_label
 _atom_site_symmetry_multiplicity
 _atom_site_fract_x
 _atom_site_fract_y
 _atom_site_fract_z
 _atom_site_occupancy
  Tm  Tm0  1  0.496169  0.333081  0.663333  1
  Tm  Tm1  1  0.496169  0.669748  0.336667  1
  Tm  Tm2  1  0.003828  0.669747  0.336668  1
  Tm  Tm3  1  0.003828  0.333079  0.663332  1
  Tm  Tm4  1  0.750000  0.235002  0.000000  1
  Tm  Tm5  1  0.750001  0.764873  0.764715  1
  Tm  Tm6  1  0.750001  0.000159  0.235285  1
  Tm  Tm7  1  0.250001  0.766369  0.000000  1
  Tm  Tm8  1  0.250002  0.234110  0.238555  1
  Tm  Tm9  1  0.250002  0.995555  0.761445  1
  Tl  Tl10  1  0.250002  0.601862  0.602418  1
  Tl  Tl11  1  0.250002  0.999443  0.397582  1
  Pb  Pb12  1  0.750003  0.601937  0.000000  1
  Pb  Pb13  1  0.749997  0.398772  0.396929  1
  Pb  Pb14  1  0.749997  0.001843  0.603071  1
  Pb  Pb15  1  0.249999  0.394419  0.000000  1
