# generated using pymatgen
data_Ca4NbCr2SbO12
_symmetry_space_group_name_H-M   'P 1'
_cell_length_a   5.46792735
_cell_length_b   5.59940385
_cell_length_c   7.80071033
_cell_angle_alpha   90.17531854
_cell_angle_beta   89.80133563
_cell_angle_gamma   90.07802010
_symmetry_Int_Tables_number   1
_chemical_formula_structural   Ca4NbCr2SbO12
_chemical_formula_sum   'Ca4 Nb1 Cr2 Sb1 O12'
_cell_volume   238.83261755
_cell_formula_units_Z   1
loop_
 _symmetry_equiv_pos_site_id
 _symmetry_equiv_pos_as_xyz
  1  'x, y, z'
loop_
 _atom_site_type_symbol
 _atom_site_label
 _atom_site_symmetry_multiplicity
 _atom_site_fract_x
 _atom_site_fract_y
 _atom_site_fract_z
 _atom_site_occupancy
  Ca  Ca0  1  0.986523  0.950375  0.250287  1
  Ca  Ca1  1  0.509913  0.451293  0.252430  1
  Ca  Ca2  1  0.490027  0.548610  0.747536  1
  Ca  Ca3  1  0.013491  0.049713  0.749708  1
  Nb  Nb4  1  0.000028  0.500010  0.500017  1
  Cr  Cr5  1  0.999933  0.500160  0.000000  1
  Cr  Cr6  1  0.500044  0.000012  0.500048  1
  Sb  Sb7  1  0.499979  0.000019  0.999998  1
  O  O8  1  0.795483  0.202680  0.049788  1
  O  O9  1  0.699635  0.707176  0.051445  1
  O  O10  1  0.085545  0.526033  0.249703  1
  O  O11  1  0.404791  0.030162  0.247962  1
  O  O12  1  0.795850  0.206864  0.454715  1
  O  O13  1  0.704493  0.705358  0.457307  1
  O  O14  1  0.295584  0.294534  0.542677  1
  O  O15  1  0.204361  0.793043  0.545283  1
  O  O16  1  0.595318  0.969645  0.752255  1
  O  O17  1  0.914366  0.473968  0.750236  1
  O  O18  1  0.300066  0.292900  0.948496  1
  O  O19  1  0.204569  0.797429  0.950093  1
