# generated using pymatgen
data_HoSc2Ga5Pd
_symmetry_space_group_name_H-M   'P 1'
_cell_length_a   6.74077000
_cell_length_b   6.73575756
_cell_length_c   4.18835600
_cell_angle_alpha   90.00000000
_cell_angle_beta   90.00000000
_cell_angle_gamma   119.97541061
_symmetry_Int_Tables_number   1
_chemical_formula_structural   HoSc2Ga5Pd
_chemical_formula_sum   'Ho1 Sc2 Ga5 Pd1'
_cell_volume   164.73190927
_cell_formula_units_Z   1
loop_
 _symmetry_equiv_pos_site_id
 _symmetry_equiv_pos_as_xyz
  1  'x, y, z'
loop_
 _atom_site_type_symbol
 _atom_site_label
 _atom_site_symmetry_multiplicity
 _atom_site_fract_x
 _atom_site_fract_y
 _atom_site_fract_z
 _atom_site_occupancy
  Ho  Ho0  1  0.000000  0.579239  0.000000  1
  Sc  Sc1  1  0.580651  0.998103  0.000000  1
  Sc  Sc2  1  0.419349  0.417452  0.000000  1
  Ga  Ga3  1  0.246214  0.001108  0.500000  1
  Ga  Ga4  1  0.000000  0.243662  0.500000  1
  Ga  Ga5  1  0.658762  0.327985  0.500000  1
  Ga  Ga6  1  0.341237  0.669221  0.500000  1
  Ga  Ga7  1  0.753786  0.754895  0.500000  1
  Pd  Pd8  1  0.000000  0.008338  0.000000  1
