# generated using pymatgen
data_HoErZr6F30
_symmetry_space_group_name_H-M   'P 1'
_cell_length_a   8.20370369
_cell_length_b   8.20370235
_cell_length_c   8.19605000
_cell_angle_alpha   79.77521493
_cell_angle_beta   79.77521444
_cell_angle_gamma   100.17682026
_symmetry_Int_Tables_number   1
_chemical_formula_structural   HoErZr6F30
_chemical_formula_sum   'Ho1 Er1 Zr6 F30'
_cell_volume   521.72962311
_cell_formula_units_Z   1
loop_
 _symmetry_equiv_pos_site_id
 _symmetry_equiv_pos_as_xyz
  1  'x, y, z'
loop_
 _atom_site_type_symbol
 _atom_site_label
 _atom_site_symmetry_multiplicity
 _atom_site_fract_x
 _atom_site_fract_y
 _atom_site_fract_z
 _atom_site_occupancy
  Ho  Ho0  1  0.677477  0.322523  0.750000  1
  Er  Er1  1  0.322479  0.677521  0.250000  1
  Zr  Zr2  1  0.251186  0.748814  0.750000  1
  Zr  Zr3  1  0.748848  0.251152  0.250000  1
  Zr  Zr4  1  0.822670  0.751407  0.325186  1
  Zr  Zr5  1  0.248593  0.177330  0.174814  1
  Zr  Zr6  1  0.177408  0.248778  0.674297  1
  Zr  Zr7  1  0.751222  0.822592  0.825703  1
  F  F8  1  0.150630  0.183165  0.946776  1
  F  F9  1  0.686687  0.563595  0.847928  1
  F  F10  1  0.041068  0.656363  0.316232  1
  F  F11  1  0.656025  0.040287  0.816604  1
  F  F12  1  0.563199  0.686858  0.347330  1
  F  F13  1  0.183184  0.150688  0.446761  1
  F  F14  1  0.849312  0.816816  0.053239  1
  F  F15  1  0.313142  0.436801  0.152670  1
  F  F16  1  0.959713  0.343975  0.683396  1
  F  F17  1  0.343637  0.958932  0.183768  1
  F  F18  1  0.436405  0.313313  0.652072  1
  F  F19  1  0.816835  0.849370  0.553224  1
  F  F20  1  0.966843  0.033157  0.750000  1
  F  F21  1  0.544136  0.752329  0.029517  1
  F  F22  1  0.247671  0.455864  0.470483  1
  F  F23  1  0.455285  0.247478  0.971152  1
  F  F24  1  0.752522  0.544715  0.528848  1
  F  F25  1  0.033147  0.966853  0.250000  1
  F  F26  1  0.220913  0.724682  0.004195  1
  F  F27  1  0.223350  0.491932  0.780193  1
  F  F28  1  0.993268  0.724141  0.777275  1
  F  F29  1  0.724157  0.993197  0.277216  1
  F  F30  1  0.491881  0.223295  0.280221  1
  F  F31  1  0.724800  0.220445  0.504106  1
  F  F32  1  0.779555  0.275200  0.995894  1
  F  F33  1  0.776705  0.508119  0.219779  1
  F  F34  1  0.006803  0.275843  0.222784  1
  F  F35  1  0.275859  0.006732  0.722725  1
  F  F36  1  0.508068  0.776650  0.719807  1
  F  F37  1  0.275318  0.779087  0.495805  1
