# generated using pymatgen
data_La6Al24Os7Pt
_symmetry_space_group_name_H-M   'P 1'
_cell_length_a   8.97688100
_cell_length_b   8.97414067
_cell_length_c   9.73533407
_cell_angle_alpha   90.13937161
_cell_angle_beta   90.00000000
_cell_angle_gamma   120.01010537
_symmetry_Int_Tables_number   1
_chemical_formula_structural   La6Al24Os7Pt
_chemical_formula_sum   'La6 Al24 Os7 Pt1'
_cell_volume   679.13151708
_cell_formula_units_Z   1
loop_
 _symmetry_equiv_pos_site_id
 _symmetry_equiv_pos_as_xyz
  1  'x, y, z'
loop_
 _atom_site_type_symbol
 _atom_site_label
 _atom_site_symmetry_multiplicity
 _atom_site_fract_x
 _atom_site_fract_y
 _atom_site_fract_z
 _atom_site_occupancy
  La  La0  1  0.192718  0.385435  0.252502  1
  La  La1  1  0.807282  0.614565  0.747498  1
  La  La2  1  0.617228  0.806867  0.251106  1
  La  La3  1  0.382772  0.193133  0.748894  1
  La  La4  1  0.189638  0.806867  0.251106  1
  La  La5  1  0.810362  0.193133  0.748894  1
  Al  Al6  1  0.331222  0.662444  0.006749  1
  Al  Al7  1  0.668778  0.337556  0.993251  1
  Al  Al8  1  0.666243  0.332486  0.505154  1
  Al  Al9  1  0.333757  0.667514  0.494846  1
  Al  Al10  1  0.163274  0.326548  0.574956  1
  Al  Al11  1  0.836726  0.673452  0.425044  1
  Al  Al12  1  0.674232  0.837576  0.574458  1
  Al  Al13  1  0.837025  0.674050  0.074557  1
  Al  Al14  1  0.325768  0.162424  0.425542  1
  Al  Al15  1  0.162975  0.325950  0.925443  1
  Al  Al16  1  0.163345  0.837576  0.574458  1
  Al  Al17  1  0.324355  0.167399  0.075901  1
  Al  Al18  1  0.836655  0.162424  0.425542  1
  Al  Al19  1  0.675645  0.832601  0.924099  1
  Al  Al20  1  0.843043  0.167399  0.075901  1
  Al  Al21  1  0.156957  0.832601  0.924099  1
  Al  Al22  1  0.562961  0.125922  0.252341  1
  Al  Al23  1  0.437039  0.874078  0.747659  1
  Al  Al24  1  0.874270  0.437326  0.249286  1
  Al  Al25  1  0.125730  0.562674  0.750714  1
  Al  Al26  1  0.563057  0.437326  0.249286  1
  Al  Al27  1  0.436943  0.562674  0.750714  1
  Al  Al28  1  0.000383  0.000764  0.250142  1
  Al  Al29  1  0.999617  0.999236  0.749858  1
  Os  Os30  1  0.000000  0.500000  0.000000  1
  Os  Os31  1  0.500000  0.000000  0.500000  1
  Os  Os32  1  0.500000  0.500000  0.000000  1
  Os  Os33  1  0.000000  0.500000  0.500000  1
  Os  Os34  1  0.500000  0.500000  0.500000  1
  Os  Os35  1  0.000000  0.000000  0.000000  1
  Os  Os36  1  0.000000  0.000000  0.500000  1
  Pt  Pt37  1  0.500000  0.000000  0.000000  1
