# generated using pymatgen
data_Cs6U3Sb2(PS4)8
_symmetry_space_group_name_H-M   'P 1'
_cell_length_a   15.16971782
_cell_length_b   15.17343403
_cell_length_c   18.18561691
_cell_angle_alpha   65.34318148
_cell_angle_beta   65.26465156
_cell_angle_gamma   59.99189927
_symmetry_Int_Tables_number   1
_chemical_formula_structural   Cs6U3Sb2(PS4)8
_chemical_formula_sum   'Cs12 U6 Sb4 P16 S64'
_cell_volume   3175.10858263
_cell_formula_units_Z   2
loop_
 _symmetry_equiv_pos_site_id
 _symmetry_equiv_pos_as_xyz
  1  'x, y, z'
loop_
 _atom_site_type_symbol
 _atom_site_label
 _atom_site_symmetry_multiplicity
 _atom_site_fract_x
 _atom_site_fract_y
 _atom_site_fract_z
 _atom_site_occupancy
  Cs  Cs0  1  0.864429  0.238164  0.589613  1
  Cs  Cs1  1  0.237846  0.307830  0.589759  1
  Cs  Cs2  1  0.307948  0.864609  0.589612  1
  Cs  Cs3  1  0.364429  0.807794  0.089613  1
  Cs  Cs4  1  0.807948  0.737831  0.089612  1
  Cs  Cs5  1  0.737846  0.364565  0.089759  1
  Cs  Cs6  1  0.135581  0.761866  0.410351  1
  Cs  Cs7  1  0.762192  0.692130  0.410244  1
  Cs  Cs8  1  0.692086  0.135376  0.410427  1
  Cs  Cs9  1  0.635581  0.192203  0.910351  1
  Cs  Cs10  1  0.192086  0.262110  0.910427  1
  Cs  Cs11  1  0.262192  0.635433  0.910244  1
  U  U12  1  0.081142  0.250084  0.250017  1
  U  U13  1  0.249936  0.418981  0.250070  1
  U  U14  1  0.418997  0.081124  0.249938  1
  U  U15  1  0.581142  0.918756  0.750017  1
  U  U16  1  0.918998  0.749940  0.749938  1
  U  U17  1  0.749936  0.581012  0.750070  1
  Sb  Sb18  1  0.459977  0.459474  0.620938  1
  Sb  Sb19  1  0.959977  0.959611  0.120938  1
  Sb  Sb20  1  0.540003  0.540564  0.379073  1
  Sb  Sb21  1  0.040003  0.040360  0.879073  1
  P  P22  1  0.193861  0.194174  0.417857  1
  P  P23  1  0.693861  0.694109  0.917857  1
  P  P24  1  0.806168  0.805796  0.582149  1
  P  P25  1  0.306168  0.305887  0.082149  1
  P  P26  1  0.540564  0.187019  0.666786  1
  P  P27  1  0.187330  0.605521  0.666658  1
  P  P28  1  0.605750  0.540431  0.666748  1
  P  P29  1  0.040564  0.105632  0.166786  1
  P  P30  1  0.105750  0.687071  0.166748  1
  P  P31  1  0.687330  0.040490  0.166658  1
  P  P32  1  0.459442  0.812971  0.333227  1
  P  P33  1  0.812668  0.394458  0.333352  1
  P  P34  1  0.394289  0.459540  0.333228  1
  P  P35  1  0.959442  0.894361  0.833227  1
  P  P36  1  0.894289  0.312944  0.833228  1
  P  P37  1  0.312668  0.959522  0.833352  1
  S  S38  1  0.088034  0.337130  0.362474  1
  S  S39  1  0.336958  0.212367  0.362297  1
  S  S40  1  0.212148  0.088402  0.362413  1
  S  S41  1  0.588034  0.712362  0.862474  1
  S  S42  1  0.712148  0.837037  0.862413  1
  S  S43  1  0.836958  0.588378  0.862297  1
  S  S44  1  0.911939  0.662869  0.637511  1
  S  S45  1  0.663027  0.787659  0.637736  1
  S  S46  1  0.787767  0.911654  0.637605  1
  S  S47  1  0.411939  0.287681  0.137511  1
  S  S48  1  0.287767  0.162974  0.137605  1
  S  S49  1  0.163027  0.411578  0.137736  1
  S  S50  1  0.898152  0.233689  0.368705  1
  S  S51  1  0.233351  0.499376  0.368669  1
  S  S52  1  0.499428  0.898527  0.368522  1
  S  S53  1  0.398152  0.999454  0.868705  1
  S  S54  1  0.999428  0.733523  0.868522  1
  S  S55  1  0.733351  0.398604  0.868669  1
  S  S56  1  0.101811  0.766339  0.631275  1
  S  S57  1  0.766648  0.500603  0.631320  1
  S  S58  1  0.500518  0.101495  0.631498  1
  S  S59  1  0.601811  0.000575  0.131275  1
  S  S60  1  0.000518  0.266489  0.131498  1
  S  S61  1  0.266648  0.601429  0.131320  1
  S  S62  1  0.403303  0.303143  0.717671  1
  S  S63  1  0.303198  0.575848  0.717594  1
  S  S64  1  0.576064  0.403229  0.717567  1
  S  S65  1  0.903303  0.075885  0.217671  1
  S  S66  1  0.076064  0.803141  0.217567  1
  S  S67  1  0.803198  0.903359  0.217594  1
  S  S68  1  0.596700  0.696839  0.282364  1
  S  S69  1  0.696808  0.424165  0.282387  1
  S  S70  1  0.423950  0.596757  0.282430  1
  S  S71  1  0.096700  0.924096  0.782364  1
  S  S72  1  0.923950  0.196863  0.782430  1
  S  S73  1  0.196808  0.096641  0.782386  1
  S  S74  1  0.627936  0.262306  0.568770  1
  S  S75  1  0.262898  0.540713  0.568741  1
  S  S76  1  0.541065  0.627640  0.568887  1
  S  S77  1  0.127936  0.040988  0.068770  1
  S  S78  1  0.041065  0.762408  0.068887  1
  S  S79  1  0.762898  0.127648  0.068741  1
  S  S80  1  0.372074  0.737670  0.431244  1
  S  S81  1  0.737092  0.459284  0.431256  1
  S  S82  1  0.458947  0.372323  0.431099  1
  S  S83  1  0.872074  0.959012  0.931244  1
  S  S84  1  0.958947  0.237630  0.931099  1
  S  S85  1  0.237092  0.872367  0.931256  1
  S  S86  1  0.610936  0.078964  0.761476  1
  S  S87  1  0.078904  0.548597  0.761413  1
  S  S88  1  0.548487  0.610927  0.761576  1
  S  S89  1  0.110936  0.048624  0.261476  1
  S  S90  1  0.048487  0.579010  0.261576  1
  S  S91  1  0.578904  0.111087  0.261412  1
  S  S92  1  0.389018  0.921008  0.238517  1
  S  S93  1  0.921140  0.451265  0.238599  1
  S  S94  1  0.451495  0.389070  0.238422  1
  S  S95  1  0.889018  0.951458  0.738517  1
  S  S96  1  0.951495  0.421012  0.738422  1
  S  S97  1  0.421140  0.888996  0.738599  1
  S  S98  1  0.152442  0.152848  0.541953  1
  S  S99  1  0.652442  0.652756  0.041953  1
  S  S100  1  0.847517  0.847149  0.458063  1
  S  S101  1  0.347517  0.347271  0.958063  1
