# generated using pymatgen
data_TmSc4P12IrRu18
_symmetry_space_group_name_H-M   'P 1'
_cell_length_a   12.44624400
_cell_length_b   12.44624395
_cell_length_c   3.94650700
_cell_angle_alpha   90.00000000
_cell_angle_beta   90.00000000
_cell_angle_gamma   119.99999483
_symmetry_Int_Tables_number   1
_chemical_formula_structural   TmSc4P12IrRu18
_chemical_formula_sum   'Tm1 Sc4 P12 Ir1 Ru18'
_cell_volume   529.44414685
_cell_formula_units_Z   1
loop_
 _symmetry_equiv_pos_site_id
 _symmetry_equiv_pos_as_xyz
  1  'x, y, z'
loop_
 _atom_site_type_symbol
 _atom_site_label
 _atom_site_symmetry_multiplicity
 _atom_site_fract_x
 _atom_site_fract_y
 _atom_site_fract_z
 _atom_site_occupancy
  Tm  Tm0  1  0.666667  0.333333  0.500000  1
  Sc  Sc1  1  0.333333  0.666667  0.500000  1
  Sc  Sc2  1  0.185934  0.186036  0.000000  1
  Sc  Sc3  1  0.813964  0.999897  0.000000  1
  Sc  Sc4  1  0.000103  0.814066  0.000000  1
  P  P5  1  0.307056  0.828487  0.000000  1
  P  P6  1  0.171513  0.478569  0.000000  1
  P  P7  1  0.521431  0.692944  0.000000  1
  P  P8  1  0.829709  0.307040  0.000000  1
  P  P9  1  0.477331  0.170291  0.000000  1
  P  P10  1  0.692960  0.522669  0.000000  1
  P  P11  1  0.371636  0.371844  0.500000  1
  P  P12  1  0.628156  0.999792  0.500000  1
  P  P13  1  0.000208  0.628364  0.500000  1
  P  P14  1  0.816976  0.817556  0.500000  1
  P  P15  1  0.182444  0.999420  0.500000  1
  P  P16  1  0.000580  0.183024  0.500000  1
  Ir  Ir17  1  0.000000  0.000000  0.500000  1
  Ru  Ru18  1  0.190159  0.814447  0.500000  1
  Ru  Ru19  1  0.185553  0.375713  0.500000  1
  Ru  Ru20  1  0.624287  0.809841  0.500000  1
  Ru  Ru21  1  0.815247  0.189186  0.500000  1
  Ru  Ru22  1  0.373939  0.184753  0.500000  1
  Ru  Ru23  1  0.810814  0.626061  0.500000  1
  Ru  Ru24  1  0.128227  0.634850  0.000000  1
  Ru  Ru25  1  0.365150  0.493376  0.000000  1
  Ru  Ru26  1  0.506624  0.871773  0.000000  1
  Ru  Ru27  1  0.634853  0.125972  0.000000  1
  Ru  Ru28  1  0.491118  0.365147  0.000000  1
  Ru  Ru29  1  0.874028  0.508882  0.000000  1
  Ru  Ru30  1  0.555432  0.555418  0.500000  1
  Ru  Ru31  1  0.444582  0.000014  0.500000  1
  Ru  Ru32  1  0.999986  0.444568  0.500000  1
  Ru  Ru33  1  0.720727  0.721165  0.000000  1
  Ru  Ru34  1  0.278835  0.999561  0.000000  1
  Ru  Ru35  1  0.000439  0.279273  0.000000  1
