# generated using pymatgen
data_YHoMg(P3Pd10)2
_symmetry_space_group_name_H-M   'P 1'
_cell_length_a   8.64033422
_cell_length_b   8.64031602
_cell_length_c   8.64033400
_cell_angle_alpha   59.99993116
_cell_angle_beta   60.00000086
_cell_angle_gamma   59.99992867
_symmetry_Int_Tables_number   1
_chemical_formula_structural   YHoMg(P3Pd10)2
_chemical_formula_sum   'Y1 Ho1 Mg1 P6 Pd20'
_cell_volume   456.11593486
_cell_formula_units_Z   1
loop_
 _symmetry_equiv_pos_site_id
 _symmetry_equiv_pos_as_xyz
  1  'x, y, z'
loop_
 _atom_site_type_symbol
 _atom_site_label
 _atom_site_symmetry_multiplicity
 _atom_site_fract_x
 _atom_site_fract_y
 _atom_site_fract_z
 _atom_site_occupancy
  Y  Y0  1  0.250000  0.249999  0.250000  1
  Ho  Ho1  1  0.750000  0.750001  0.750000  1
  Mg  Mg2  1  0.000000  0.999999  0.000000  1
  P  P3  1  0.737068  0.262940  0.262923  1
  P  P4  1  0.262934  0.737060  0.737073  1
  P  P5  1  0.262934  0.737060  0.262934  1
  P  P6  1  0.737068  0.262940  0.737068  1
  P  P7  1  0.262923  0.262940  0.737068  1
  P  P8  1  0.737073  0.737060  0.262934  1
  Pd  Pd9  1  0.384619  0.384625  0.384619  1
  Pd  Pd10  1  0.615642  0.615641  0.615642  1
  Pd  Pd11  1  0.384619  0.384625  0.846137  1
  Pd  Pd12  1  0.384621  0.846136  0.384621  1
  Pd  Pd13  1  0.615642  0.615641  0.153074  1
  Pd  Pd14  1  0.615644  0.153068  0.615644  1
  Pd  Pd15  1  0.846137  0.384625  0.384619  1
  Pd  Pd16  1  0.153074  0.615641  0.615642  1
  Pd  Pd17  1  0.344131  0.999918  0.999920  1
  Pd  Pd18  1  0.656031  0.999918  0.999920  1
  Pd  Pd19  1  0.999918  0.344137  0.656026  1
  Pd  Pd20  1  0.999919  0.656027  0.344135  1
  Pd  Pd21  1  0.999918  0.344137  0.999918  1
  Pd  Pd22  1  0.656031  0.999918  0.344131  1
  Pd  Pd23  1  0.999919  0.656027  0.999919  1
  Pd  Pd24  1  0.344131  0.999918  0.656031  1
  Pd  Pd25  1  0.999920  0.999918  0.344131  1
  Pd  Pd26  1  0.999920  0.999918  0.656031  1
  Pd  Pd27  1  0.656026  0.344137  0.999918  1
  Pd  Pd28  1  0.344135  0.656027  0.999919  1
