# generated using pymatgen
data_Sc4Fe3Os5
_symmetry_space_group_name_H-M   'P 1'
_cell_length_a   5.08880944
_cell_length_b   5.08017336
_cell_length_c   8.49016000
_cell_angle_alpha   90.00000000
_cell_angle_beta   90.00000000
_cell_angle_gamma   119.94388845
_symmetry_Int_Tables_number   1
_chemical_formula_structural   Sc4Fe3Os5
_chemical_formula_sum   'Sc4 Fe3 Os5'
_cell_volume   190.18948717
_cell_formula_units_Z   1
loop_
 _symmetry_equiv_pos_site_id
 _symmetry_equiv_pos_as_xyz
  1  'x, y, z'
loop_
 _atom_site_type_symbol
 _atom_site_label
 _atom_site_symmetry_multiplicity
 _atom_site_fract_x
 _atom_site_fract_y
 _atom_site_fract_z
 _atom_site_occupancy
  Sc  Sc0  1  0.331154  0.665578  0.436082  1
  Sc  Sc1  1  0.661874  0.330936  0.565611  1
  Sc  Sc2  1  0.661874  0.330936  0.934389  1
  Sc  Sc3  1  0.331154  0.665578  0.063918  1
  Fe  Fe4  1  0.175523  0.345535  0.750000  1
  Fe  Fe5  1  0.175523  0.829986  0.750000  1
  Fe  Fe6  1  0.340967  0.170484  0.250000  1
  Os  Os7  1  0.831935  0.658762  0.250000  1
  Os  Os8  1  0.654899  0.827449  0.750000  1
  Os  Os9  1  0.001581  0.000790  0.994197  1
  Os  Os10  1  0.831935  0.173173  0.250000  1
  Os  Os11  1  0.001581  0.000790  0.505803  1
