# generated using pymatgen
data_LiTbHgPt3
_symmetry_space_group_name_H-M   'P 1'
_cell_length_a   5.19178198
_cell_length_b   5.46751408
_cell_length_c   5.46751500
_cell_angle_alpha   60.00000049
_cell_angle_beta   58.22703863
_cell_angle_gamma   58.22701504
_symmetry_Int_Tables_number   1
_chemical_formula_structural   LiTbHgPt3
_chemical_formula_sum   'Li1 Tb1 Hg1 Pt3'
_cell_volume   106.71058942
_cell_formula_units_Z   1
loop_
 _symmetry_equiv_pos_site_id
 _symmetry_equiv_pos_as_xyz
  1  'x, y, z'
loop_
 _atom_site_type_symbol
 _atom_site_label
 _atom_site_symmetry_multiplicity
 _atom_site_fract_x
 _atom_site_fract_y
 _atom_site_fract_z
 _atom_site_occupancy
  Li  Li0  1  0.881343  0.372885  0.372885  1
  Tb  Tb1  1  0.738045  0.753985  0.753985  1
  Hg  Hg2  1  0.993816  0.002061  0.002061  1
  Pt  Pt3  1  0.378931  0.873884  0.373591  1
  Pt  Pt4  1  0.378931  0.373591  0.373591  1
  Pt  Pt5  1  0.378931  0.373591  0.873884  1
