# generated using pymatgen
data_Ho4Re3(TcB4)3
_symmetry_space_group_name_H-M   'P 1'
_cell_length_a   6.19052785
_cell_length_b   6.19769424
_cell_length_c   7.49672229
_cell_angle_alpha   90.65810243
_cell_angle_beta   90.72422189
_cell_angle_gamma   113.45189365
_symmetry_Int_Tables_number   1
_chemical_formula_structural   Ho4Re3(TcB4)3
_chemical_formula_sum   'Ho4 Re3 Tc3 B12'
_cell_volume   263.80335040
_cell_formula_units_Z   1
loop_
 _symmetry_equiv_pos_site_id
 _symmetry_equiv_pos_as_xyz
  1  'x, y, z'
loop_
 _atom_site_type_symbol
 _atom_site_label
 _atom_site_symmetry_multiplicity
 _atom_site_fract_x
 _atom_site_fract_y
 _atom_site_fract_z
 _atom_site_occupancy
  Ho  Ho0  1  0.102590  0.446294  0.321882  1
  Ho  Ho1  1  0.559758  0.898294  0.177828  1
  Ho  Ho2  1  0.897871  0.555546  0.678434  1
  Ho  Ho3  1  0.443263  0.102059  0.822381  1
  Re  Re4  1  0.192309  0.009388  0.410173  1
  Re  Re5  1  0.009212  0.193915  0.910857  1
  Re  Re6  1  0.806727  0.990476  0.589080  1
  Tc  Tc7  1  0.588808  0.411427  0.250292  1
  Tc  Tc8  1  0.411617  0.588620  0.750387  1
  Tc  Tc9  1  0.990410  0.805197  0.088236  1
  B  B10  1  0.246023  0.152064  0.130181  1
  B  B11  1  0.847555  0.748350  0.371474  1
  B  B12  1  0.750449  0.848446  0.869455  1
  B  B13  1  0.152568  0.249382  0.629722  1
  B  B14  1  0.585523  0.158417  0.481478  1
  B  B15  1  0.841634  0.414655  0.018645  1
  B  B16  1  0.413608  0.841461  0.517643  1
  B  B17  1  0.159232  0.585641  0.981122  1
  B  B18  1  0.443073  0.350337  0.535032  1
  B  B19  1  0.650040  0.556898  0.965177  1
  B  B20  1  0.556668  0.649388  0.465122  1
  B  B21  1  0.351064  0.443744  0.035399  1
