# generated using pymatgen
data_K10EuSn12
_symmetry_space_group_name_H-M   'P 1'
_cell_length_a   10.57629742
_cell_length_b   10.57629814
_cell_length_c   10.57629800
_cell_angle_alpha   109.47121653
_cell_angle_beta   109.47121792
_cell_angle_gamma   109.47121926
_symmetry_Int_Tables_number   1
_chemical_formula_structural   K10EuSn12
_chemical_formula_sum   'K10 Eu1 Sn12'
_cell_volume   910.70804357
_cell_formula_units_Z   1
loop_
 _symmetry_equiv_pos_site_id
 _symmetry_equiv_pos_as_xyz
  1  'x, y, z'
loop_
 _atom_site_type_symbol
 _atom_site_label
 _atom_site_symmetry_multiplicity
 _atom_site_fract_x
 _atom_site_fract_y
 _atom_site_fract_z
 _atom_site_occupancy
  K  K0  1  0.500000  0.250000  0.750000  1
  K  K1  1  0.750000  0.250000  0.500000  1
  K  K2  1  0.250000  0.750000  0.500000  1
  K  K3  1  0.500000  0.750000  0.250000  1
  K  K4  1  0.601843  0.000000  0.000000  1
  K  K5  1  0.398157  0.398157  0.398157  1
  K  K6  1  0.000000  0.601843  0.000000  1
  K  K7  1  0.000000  0.000000  0.601843  1
  K  K8  1  0.750000  0.500000  0.250000  1
  K  K9  1  0.250000  0.500000  0.750000  1
  Eu  Eu10  1  0.000000  0.000000  0.000000  1
  Sn  Sn11  1  0.000000  0.176445  0.347346  1
  Sn  Sn12  1  0.823555  0.170902  0.823555  1
  Sn  Sn13  1  0.652654  0.652654  0.829098  1
  Sn  Sn14  1  0.347346  0.176445  0.000000  1
  Sn  Sn15  1  0.176445  0.347346  0.000000  1
  Sn  Sn16  1  0.347346  0.000000  0.176445  1
  Sn  Sn17  1  0.652654  0.829098  0.652654  1
  Sn  Sn18  1  0.829098  0.652654  0.652654  1
  Sn  Sn19  1  0.000000  0.347346  0.176445  1
  Sn  Sn20  1  0.823555  0.823555  0.170902  1
  Sn  Sn21  1  0.170902  0.823555  0.823555  1
  Sn  Sn22  1  0.176445  0.000000  0.347346  1
