# generated using pymatgen
data_Y2HoScCoP6Rh7
_symmetry_space_group_name_H-M   'P 1'
_cell_length_a   3.86622800
_cell_length_b   11.14108700
_cell_length_c   12.79446600
_cell_angle_alpha   90.00000000
_cell_angle_beta   90.00000000
_cell_angle_gamma   90.00000000
_symmetry_Int_Tables_number   1
_chemical_formula_structural   Y2HoScCoP6Rh7
_chemical_formula_sum   'Y4 Ho2 Sc2 Co2 P12 Rh14'
_cell_volume   551.10860471
_cell_formula_units_Z   2
loop_
 _symmetry_equiv_pos_site_id
 _symmetry_equiv_pos_as_xyz
  1  'x, y, z'
loop_
 _atom_site_type_symbol
 _atom_site_label
 _atom_site_symmetry_multiplicity
 _atom_site_fract_x
 _atom_site_fract_y
 _atom_site_fract_z
 _atom_site_occupancy
  Y  Y0  1  0.000000  0.500000  0.522006  1
  Y  Y1  1  0.500000  0.000000  0.477812  1
  Y  Y2  1  0.000000  0.679485  0.799245  1
  Y  Y3  1  0.000000  0.320515  0.799245  1
  Ho  Ho4  1  0.500000  0.820742  0.200741  1
  Ho  Ho5  1  0.500000  0.179258  0.200741  1
  Sc  Sc6  1  0.500000  0.500000  0.156853  1
  Sc  Sc7  1  0.000000  0.000000  0.843218  1
  Co  Co8  1  0.000000  0.500000  0.987529  1
  Co  Co9  1  0.500000  0.000000  0.013210  1
  P  P10  1  0.500000  0.500000  0.884179  1
  P  P11  1  0.000000  0.000000  0.116324  1
  P  P12  1  0.500000  0.500000  0.357574  1
  P  P13  1  0.000000  0.000000  0.642302  1
  P  P14  1  0.500000  0.313355  0.617948  1
  P  P15  1  0.500000  0.686645  0.617948  1
  P  P16  1  0.000000  0.186467  0.381305  1
  P  P17  1  0.000000  0.813533  0.381305  1
  P  P18  1  0.500000  0.846484  0.892958  1
  P  P19  1  0.500000  0.153516  0.892958  1
  P  P20  1  0.000000  0.654095  0.107484  1
  P  P21  1  0.000000  0.345905  0.107484  1
  Rh  Rh22  1  0.500000  0.500000  0.703203  1
  Rh  Rh23  1  0.000000  0.000000  0.296233  1
  Rh  Rh24  1  0.500000  0.333688  0.992358  1
  Rh  Rh25  1  0.500000  0.666312  0.992358  1
  Rh  Rh26  1  0.000000  0.165989  0.008532  1
  Rh  Rh27  1  0.000000  0.834011  0.008532  1
  Rh  Rh28  1  0.500000  0.291955  0.431287  1
  Rh  Rh29  1  0.500000  0.708045  0.431287  1
  Rh  Rh30  1  0.000000  0.207731  0.568217  1
  Rh  Rh31  1  0.000000  0.792269  0.568217  1
  Rh  Rh32  1  0.500000  0.874536  0.708744  1
  Rh  Rh33  1  0.500000  0.125464  0.708744  1
  Rh  Rh34  1  0.000000  0.625740  0.290957  1
  Rh  Rh35  1  0.000000  0.374260  0.290957  1
