# generated using pymatgen
data_Tm12InGa(CoTc)2
_symmetry_space_group_name_H-M   'P 1'
_cell_length_a   8.31093655
_cell_length_b   8.31000985
_cell_length_c   8.31093720
_cell_angle_alpha   112.65449371
_cell_angle_beta   111.71714204
_cell_angle_gamma   104.17429226
_symmetry_Int_Tables_number   1
_chemical_formula_structural   Tm12InGa(CoTc)2
_chemical_formula_sum   'Tm12 In1 Ga1 Co2 Tc2'
_cell_volume   439.00030590
_cell_formula_units_Z   1
loop_
 _symmetry_equiv_pos_site_id
 _symmetry_equiv_pos_as_xyz
  1  'x, y, z'
loop_
 _atom_site_type_symbol
 _atom_site_label
 _atom_site_symmetry_multiplicity
 _atom_site_fract_x
 _atom_site_fract_y
 _atom_site_fract_z
 _atom_site_occupancy
  Tm  Tm0  1  0.437967  0.241845  0.196143  1
  Tm  Tm1  1  0.562033  0.758155  0.803857  1
  Tm  Tm2  1  0.045700  0.241845  0.803877  1
  Tm  Tm3  1  0.954300  0.758155  0.196123  1
  Tm  Tm4  1  0.181443  0.283517  0.465237  1
  Tm  Tm5  1  0.818557  0.716483  0.534763  1
  Tm  Tm6  1  0.181720  0.716483  0.897926  1
  Tm  Tm7  1  0.818280  0.283517  0.102074  1
  Tm  Tm8  1  0.327323  0.646798  0.319476  1
  Tm  Tm9  1  0.672677  0.353202  0.680524  1
  Tm  Tm10  1  0.327948  0.008291  0.680343  1
  Tm  Tm11  1  0.672052  0.991709  0.319657  1
  In  In12  1  0.500000  0.500000  0.000000  1
  Ga  Ga13  1  0.000000  0.000000  0.000000  1
  Co  Co14  1  0.112393  0.612455  0.500063  1
  Co  Co15  1  0.887607  0.387545  0.499937  1
  Tc  Tc16  1  0.321040  0.000000  0.321040  1
  Tc  Tc17  1  0.678960  0.000000  0.678960  1
