# generated using pymatgen
data_Tb2Dy2TlSe3
_symmetry_space_group_name_H-M   'P 1'
_cell_length_a   7.22061813
_cell_length_b   7.22061716
_cell_length_c   7.22061700
_cell_angle_alpha   131.75429084
_cell_angle_beta   131.75429463
_cell_angle_gamma   70.61737958
_symmetry_Int_Tables_number   1
_chemical_formula_structural   Tb2Dy2TlSe3
_chemical_formula_sum   'Tb2 Dy2 Tl1 Se3'
_cell_volume   205.25672114
_cell_formula_units_Z   1
loop_
 _symmetry_equiv_pos_site_id
 _symmetry_equiv_pos_as_xyz
  1  'x, y, z'
loop_
 _atom_site_type_symbol
 _atom_site_label
 _atom_site_symmetry_multiplicity
 _atom_site_fract_x
 _atom_site_fract_y
 _atom_site_fract_z
 _atom_site_occupancy
  Tb  Tb0  1  0.254359  0.254359  0.000000  1
  Tb  Tb1  1  0.745642  0.745642  0.000000  1
  Dy  Dy2  1  0.500000  0.000000  0.500000  1
  Dy  Dy3  1  0.000000  0.500000  0.500000  1
  Tl  Tl4  1  0.000000  0.000000  0.000000  1
  Se  Se5  1  0.500000  0.500000  0.000000  1
  Se  Se6  1  0.750000  0.250000  0.500000  1
  Se  Se7  1  0.250000  0.750000  0.500000  1
