# generated using pymatgen
data_Nd19SmSi15Br
_symmetry_space_group_name_H-M   'P 1'
_cell_length_a   7.83593227
_cell_length_b   7.92379843
_cell_length_c   15.19374628
_cell_angle_alpha   89.59138007
_cell_angle_beta   85.12054016
_cell_angle_gamma   89.85641011
_symmetry_Int_Tables_number   1
_chemical_formula_structural   Nd19SmSi15Br
_chemical_formula_sum   'Nd19 Sm1 Si15 Br1'
_cell_volume   939.94041373
_cell_formula_units_Z   1
loop_
 _symmetry_equiv_pos_site_id
 _symmetry_equiv_pos_as_xyz
  1  'x, y, z'
loop_
 _atom_site_type_symbol
 _atom_site_label
 _atom_site_symmetry_multiplicity
 _atom_site_fract_x
 _atom_site_fract_y
 _atom_site_fract_z
 _atom_site_occupancy
  Nd  Nd0  1  0.864615  0.330573  0.621132  1
  Nd  Nd1  1  0.463054  0.690155  0.894821  1
  Nd  Nd2  1  0.963067  0.810972  0.896167  1
  Nd  Nd3  1  0.180835  0.676983  0.120862  1
  Nd  Nd4  1  0.680679  0.817818  0.120738  1
  Nd  Nd5  1  0.320693  0.180284  0.880226  1
  Nd  Nd6  1  0.146284  0.666985  0.383243  1
  Nd  Nd7  1  0.036849  0.186379  0.103883  1
  Nd  Nd8  1  0.362963  0.168426  0.616816  1
  Nd  Nd9  1  0.836773  0.491917  0.244098  1
  Nd  Nd10  1  0.334153  0.004158  0.252151  1
  Nd  Nd11  1  0.484770  0.309453  0.394841  1
  Nd  Nd12  1  0.820755  0.322476  0.879080  1
  Nd  Nd13  1  0.013025  0.833093  0.606336  1
  Nd  Nd14  1  0.492936  0.691442  0.607176  1
  Nd  Nd15  1  0.998314  0.170099  0.396411  1
  Nd  Nd16  1  0.635473  0.842364  0.382566  1
  Nd  Nd17  1  0.664460  0.996006  0.746488  1
  Nd  Nd18  1  0.536933  0.308937  0.103714  1
  Sm  Sm19  1  0.164513  0.509858  0.745439  1
  Si  Si20  1  0.455649  0.600989  0.252409  1
  Si  Si21  1  0.224948  0.375145  0.249556  1
  Si  Si22  1  0.543914  0.399881  0.751280  1
  Si  Si23  1  0.636535  0.024766  0.957028  1
  Si  Si24  1  0.045145  0.107581  0.752790  1
  Si  Si25  1  0.774047  0.623813  0.751160  1
  Si  Si26  1  0.725081  0.121073  0.249239  1
  Si  Si27  1  0.291926  0.969346  0.455141  1
  Si  Si28  1  0.953886  0.894126  0.250136  1
  Si  Si29  1  0.366843  0.973288  0.042899  1
  Si  Si30  1  0.715528  0.030937  0.542793  1
  Si  Si31  1  0.136471  0.475057  0.956430  1
  Si  Si32  1  0.209662  0.472941  0.545589  1
  Si  Si33  1  0.866889  0.522743  0.042835  1
  Si  Si34  1  0.272735  0.879399  0.752608  1
  Br  Br35  1  0.779594  0.520537  0.451918  1
