# generated using pymatgen
data_Sm3Mg3SiHg2
_symmetry_space_group_name_H-M   'P 1'
_cell_length_a   7.58169400
_cell_length_b   7.58169297
_cell_length_c   4.43084400
_cell_angle_alpha   90.00000000
_cell_angle_beta   90.00000000
_cell_angle_gamma   119.99999575
_symmetry_Int_Tables_number   1
_chemical_formula_structural   Sm3Mg3SiHg2
_chemical_formula_sum   'Sm3 Mg3 Si1 Hg2'
_cell_volume   220.57158073
_cell_formula_units_Z   1
loop_
 _symmetry_equiv_pos_site_id
 _symmetry_equiv_pos_as_xyz
  1  'x, y, z'
loop_
 _atom_site_type_symbol
 _atom_site_label
 _atom_site_symmetry_multiplicity
 _atom_site_fract_x
 _atom_site_fract_y
 _atom_site_fract_z
 _atom_site_occupancy
  Sm  Sm0  1  0.580817  0.008880  0.000000  1
  Sm  Sm1  1  0.991120  0.571935  0.000000  1
  Sm  Sm2  1  0.428065  0.419183  0.000000  1
  Mg  Mg3  1  0.249522  0.001676  0.500000  1
  Mg  Mg4  1  0.998324  0.247845  0.500000  1
  Mg  Mg5  1  0.752155  0.750478  0.500000  1
  Si  Si6  1  0.666667  0.333333  0.500000  1
  Hg  Hg7  1  0.333333  0.666667  0.500000  1
  Hg  Hg8  1  0.000000  0.000000  0.000000  1
