# generated using pymatgen
data_Sr20(MgAg3)3
_symmetry_space_group_name_H-M   'P 1'
_cell_length_a   8.66838100
_cell_length_b   8.66838100
_cell_length_c   16.11033600
_cell_angle_alpha   90.00000000
_cell_angle_beta   90.00000000
_cell_angle_gamma   90.00000000
_symmetry_Int_Tables_number   1
_chemical_formula_structural   Sr20(MgAg3)3
_chemical_formula_sum   'Sr20 Mg3 Ag9'
_cell_volume   1210.54400510
_cell_formula_units_Z   1
loop_
 _symmetry_equiv_pos_site_id
 _symmetry_equiv_pos_as_xyz
  1  'x, y, z'
loop_
 _atom_site_type_symbol
 _atom_site_label
 _atom_site_symmetry_multiplicity
 _atom_site_fract_x
 _atom_site_fract_y
 _atom_site_fract_z
 _atom_site_occupancy
  Sr  Sr0  1  0.672223  0.160979  0.107625  1
  Sr  Sr1  1  0.167288  0.665583  0.611339  1
  Sr  Sr2  1  0.327777  0.839021  0.107625  1
  Sr  Sr3  1  0.832712  0.334417  0.611339  1
  Sr  Sr4  1  0.839021  0.672223  0.107625  1
  Sr  Sr5  1  0.334417  0.167288  0.611339  1
  Sr  Sr6  1  0.160979  0.327777  0.107625  1
  Sr  Sr7  1  0.665583  0.832712  0.611339  1
  Sr  Sr8  1  0.839021  0.327777  0.892375  1
  Sr  Sr9  1  0.334417  0.832712  0.388661  1
  Sr  Sr10  1  0.160979  0.672223  0.892375  1
  Sr  Sr11  1  0.665583  0.167288  0.388661  1
  Sr  Sr12  1  0.672223  0.839021  0.892375  1
  Sr  Sr13  1  0.167288  0.334417  0.388661  1
  Sr  Sr14  1  0.327777  0.160979  0.892375  1
  Sr  Sr15  1  0.832712  0.665583  0.388661  1
  Sr  Sr16  1  0.500000  0.500000  0.753936  1
  Sr  Sr17  1  0.000000  0.000000  0.250407  1
  Sr  Sr18  1  0.000000  0.000000  0.749593  1
  Sr  Sr19  1  0.500000  0.500000  0.246064  1
  Mg  Mg20  1  0.500000  0.500000  0.500000  1
  Mg  Mg21  1  0.500000  0.500000  0.000000  1
  Mg  Mg22  1  0.000000  0.000000  0.500000  1
  Ag  Ag23  1  0.623814  0.124009  0.751470  1
  Ag  Ag24  1  0.124009  0.623814  0.248530  1
  Ag  Ag25  1  0.875991  0.376186  0.248530  1
  Ag  Ag26  1  0.376186  0.875991  0.751470  1
  Ag  Ag27  1  0.875991  0.623814  0.751470  1
  Ag  Ag28  1  0.376186  0.124009  0.248530  1
  Ag  Ag29  1  0.124009  0.376186  0.751470  1
  Ag  Ag30  1  0.623814  0.875991  0.248530  1
  Ag  Ag31  1  0.000000  0.000000  0.000000  1
