# generated using pymatgen
data_HoPa2(GaPd)3
_symmetry_space_group_name_H-M   'P 1'
_cell_length_a   7.17608886
_cell_length_b   7.18760311
_cell_length_c   4.02362000
_cell_angle_alpha   90.00000000
_cell_angle_beta   90.00000000
_cell_angle_gamma   120.05308007
_symmetry_Int_Tables_number   1
_chemical_formula_structural   HoPa2(GaPd)3
_chemical_formula_sum   'Ho1 Pa2 Ga3 Pd3'
_cell_volume   179.63334041
_cell_formula_units_Z   1
loop_
 _symmetry_equiv_pos_site_id
 _symmetry_equiv_pos_as_xyz
  1  'x, y, z'
loop_
 _atom_site_type_symbol
 _atom_site_label
 _atom_site_symmetry_multiplicity
 _atom_site_fract_x
 _atom_site_fract_y
 _atom_site_fract_z
 _atom_site_occupancy
  Ho  Ho0  1  0.000000  0.590104  0.000000  1
  Pa  Pa1  1  0.416457  0.414721  0.000000  1
  Pa  Pa2  1  0.583543  0.998264  0.000000  1
  Ga  Ga3  1  0.757358  0.750894  0.500000  1
  Ga  Ga4  1  0.242642  0.993536  0.500000  1
  Ga  Ga5  1  0.000000  0.252831  0.500000  1
  Pd  Pd6  1  0.000000  0.006391  0.000000  1
  Pd  Pd7  1  0.655867  0.324562  0.500000  1
  Pd  Pd8  1  0.344133  0.668696  0.500000  1
