# generated using pymatgen
data_Ti2MnIr5
_symmetry_space_group_name_H-M   'P 1'
_cell_length_a   3.94807700
_cell_length_b   5.43353100
_cell_length_c   10.81324600
_cell_angle_alpha   90.00000000
_cell_angle_beta   90.00000000
_cell_angle_gamma   90.00000000
_symmetry_Int_Tables_number   1
_chemical_formula_structural   Ti2MnIr5
_chemical_formula_sum   'Ti4 Mn2 Ir10'
_cell_volume   231.96573989
_cell_formula_units_Z   2
loop_
 _symmetry_equiv_pos_site_id
 _symmetry_equiv_pos_as_xyz
  1  'x, y, z'
loop_
 _atom_site_type_symbol
 _atom_site_label
 _atom_site_symmetry_multiplicity
 _atom_site_fract_x
 _atom_site_fract_y
 _atom_site_fract_z
 _atom_site_occupancy
  Ti  Ti0  1  0.500000  0.291863  0.135249  1
  Ti  Ti1  1  0.500000  0.708137  0.864751  1
  Ti  Ti2  1  0.500000  0.791863  0.364751  1
  Ti  Ti3  1  0.500000  0.208137  0.635249  1
  Mn  Mn4  1  0.000000  0.000000  0.000000  1
  Mn  Mn5  1  0.000000  0.500000  0.500000  1
  Ir  Ir6  1  0.000000  0.000000  0.500000  1
  Ir  Ir7  1  0.000000  0.500000  0.000000  1
  Ir  Ir8  1  0.000000  0.035873  0.248040  1
  Ir  Ir9  1  0.000000  0.964127  0.751960  1
  Ir  Ir10  1  0.000000  0.535873  0.251960  1
  Ir  Ir11  1  0.000000  0.464127  0.748040  1
  Ir  Ir12  1  0.500000  0.283782  0.383795  1
  Ir  Ir13  1  0.500000  0.716218  0.616205  1
  Ir  Ir14  1  0.500000  0.783782  0.116205  1
  Ir  Ir15  1  0.500000  0.216218  0.883795  1
