# generated using pymatgen
data_Er6Sc4Si5Pb
_symmetry_space_group_name_H-M   'P 1'
_cell_length_a   8.31884600
_cell_length_b   8.33500819
_cell_length_c   6.06164700
_cell_angle_alpha   90.00000000
_cell_angle_beta   90.00000000
_cell_angle_gamma   119.93586876
_symmetry_Int_Tables_number   1
_chemical_formula_structural   Er6Sc4Si5Pb
_chemical_formula_sum   'Er6 Sc4 Si5 Pb1'
_cell_volume   364.22577807
_cell_formula_units_Z   1
loop_
 _symmetry_equiv_pos_site_id
 _symmetry_equiv_pos_as_xyz
  1  'x, y, z'
loop_
 _atom_site_type_symbol
 _atom_site_label
 _atom_site_symmetry_multiplicity
 _atom_site_fract_x
 _atom_site_fract_y
 _atom_site_fract_z
 _atom_site_occupancy
  Er  Er0  1  0.987131  0.745354  0.750000  1
  Er  Er1  1  0.998270  0.244990  0.250000  1
  Er  Er2  1  0.753281  0.755010  0.250000  1
  Er  Er3  1  0.766560  0.000000  0.750000  1
  Er  Er4  1  0.241777  0.254646  0.750000  1
  Er  Er5  1  0.240583  0.000000  0.250000  1
  Sc  Sc6  1  0.331161  0.655387  0.495740  1
  Sc  Sc7  1  0.675777  0.344613  0.004260  1
  Sc  Sc8  1  0.675777  0.344613  0.495740  1
  Sc  Sc9  1  0.331161  0.655387  0.004260  1
  Si  Si10  1  0.397425  0.395871  0.250000  1
  Si  Si11  1  0.001555  0.604129  0.250000  1
  Si  Si12  1  0.997567  0.397948  0.750000  1
  Si  Si13  1  0.599618  0.602052  0.750000  1
  Si  Si14  1  0.602246  0.000000  0.250000  1
  Pb  Pb15  1  0.400114  0.000000  0.750000  1
