# generated using pymatgen
data_Rb2SbHPd
_symmetry_space_group_name_H-M   'P 1'
_cell_length_a   9.61040744
_cell_length_b   9.61040609
_cell_length_c   5.67067000
_cell_angle_alpha   90.00000000
_cell_angle_beta   90.00000000
_cell_angle_gamma   143.23086027
_symmetry_Int_Tables_number   1
_chemical_formula_structural   Rb2SbHPd
_chemical_formula_sum   'Rb4 Sb2 H2 Pd2'
_cell_volume   313.50825972
_cell_formula_units_Z   2
loop_
 _symmetry_equiv_pos_site_id
 _symmetry_equiv_pos_as_xyz
  1  'x, y, z'
loop_
 _atom_site_type_symbol
 _atom_site_label
 _atom_site_symmetry_multiplicity
 _atom_site_fract_x
 _atom_site_fract_y
 _atom_site_fract_z
 _atom_site_occupancy
  Rb  Rb0  1  0.569431  0.421348  0.750000  1
  Rb  Rb1  1  0.421348  0.569431  0.250000  1
  Rb  Rb2  1  0.253874  0.762272  0.750000  1
  Rb  Rb3  1  0.762272  0.253874  0.250000  1
  Sb  Sb4  1  0.132415  0.884558  0.250000  1
  Sb  Sb5  1  0.884558  0.132415  0.750000  1
  H  H6  1  0.047395  0.933717  0.750000  1
  H  H7  1  0.933717  0.047395  0.250000  1
  Pd  Pd8  1  0.997495  0.997495  0.000000  1
  Pd  Pd9  1  0.997495  0.997495  0.500000  1
