# generated using pymatgen
data_Dy16Er4Si13As3
_symmetry_space_group_name_H-M   'P 1'
_cell_length_a   7.56078130
_cell_length_b   7.62723075
_cell_length_c   14.56025452
_cell_angle_alpha   89.87609189
_cell_angle_beta   89.14292764
_cell_angle_gamma   90.01889949
_symmetry_Int_Tables_number   1
_chemical_formula_structural   Dy16Er4Si13As3
_chemical_formula_sum   'Dy16 Er4 Si13 As3'
_cell_volume   839.56223020
_cell_formula_units_Z   1
loop_
 _symmetry_equiv_pos_site_id
 _symmetry_equiv_pos_as_xyz
  1  'x, y, z'
loop_
 _atom_site_type_symbol
 _atom_site_label
 _atom_site_symmetry_multiplicity
 _atom_site_fract_x
 _atom_site_fract_y
 _atom_site_fract_z
 _atom_site_occupancy
  Dy  Dy0  1  0.037895  0.824780  0.106359  1
  Dy  Dy1  1  0.524332  0.673856  0.397539  1
  Dy  Dy2  1  0.461381  0.325489  0.893625  1
  Dy  Dy3  1  0.975238  0.180264  0.601930  1
  Dy  Dy4  1  0.970345  0.177562  0.894158  1
  Dy  Dy5  1  0.479272  0.322942  0.600882  1
  Dy  Dy6  1  0.529051  0.677912  0.105488  1
  Dy  Dy7  1  0.019315  0.816620  0.398140  1
  Dy  Dy8  1  0.614006  0.837317  0.882408  1
  Dy  Dy9  1  0.121606  0.664119  0.619029  1
  Dy  Dy10  1  0.887010  0.336783  0.116933  1
  Dy  Dy11  1  0.377842  0.164252  0.382183  1
  Dy  Dy12  1  0.383112  0.164851  0.116929  1
  Dy  Dy13  1  0.877683  0.334587  0.380720  1
  Dy  Dy14  1  0.116709  0.665150  0.882708  1
  Dy  Dy15  1  0.623988  0.835099  0.618315  1
  Er  Er16  1  0.711573  0.998250  0.254164  1
  Er  Er17  1  0.212769  0.500371  0.250772  1
  Er  Er18  1  0.786864  0.498475  0.746547  1
  Er  Er19  1  0.288557  0.001723  0.751931  1
  Si  Si20  1  0.823587  0.628517  0.249529  1
  Si  Si21  1  0.324372  0.871082  0.250748  1
  Si  Si22  1  0.675225  0.129857  0.749671  1
  Si  Si23  1  0.174320  0.371242  0.749176  1
  Si  Si24  1  0.087729  0.110682  0.249413  1
  Si  Si25  1  0.587657  0.387780  0.248045  1
  Si  Si26  1  0.413213  0.612634  0.750279  1
  Si  Si27  1  0.912707  0.889423  0.750701  1
  Si  Si28  1  0.214817  0.466169  0.457148  1
  Si  Si29  1  0.224868  0.474990  0.045852  1
  Si  Si30  1  0.718486  0.031917  0.456103  1
  Si  Si31  1  0.275481  0.974895  0.953956  1
  Si  Si32  1  0.787086  0.533186  0.543651  1
  As  As33  1  0.772468  0.523993  0.953528  1
  As  As34  1  0.282068  0.969236  0.545335  1
  As  As35  1  0.727370  0.023995  0.046106  1
