# generated using pymatgen
data_Tb4Mn15Co(P3W)4
_symmetry_space_group_name_H-M   'P 1'
_cell_length_a   3.67441500
_cell_length_b   10.74287792
_cell_length_c   12.31136862
_cell_angle_alpha   90.24006271
_cell_angle_beta   90.00000000
_cell_angle_gamma   90.00000000
_symmetry_Int_Tables_number   1
_chemical_formula_structural   Tb4Mn15Co(P3W)4
_chemical_formula_sum   'Tb4 Mn15 Co1 P12 W4'
_cell_volume   485.97213575
_cell_formula_units_Z   1
loop_
 _symmetry_equiv_pos_site_id
 _symmetry_equiv_pos_as_xyz
  1  'x, y, z'
loop_
 _atom_site_type_symbol
 _atom_site_label
 _atom_site_symmetry_multiplicity
 _atom_site_fract_x
 _atom_site_fract_y
 _atom_site_fract_z
 _atom_site_occupancy
  Tb  Tb0  1  0.250000  0.587701  0.706442  1
  Tb  Tb1  1  0.250000  0.912565  0.207626  1
  Tb  Tb2  1  0.750000  0.413353  0.293800  1
  Tb  Tb3  1  0.750000  0.085439  0.790832  1
  Mn  Mn4  1  0.250000  0.409488  0.494188  1
  Mn  Mn5  1  0.250000  0.090478  0.993723  1
  Mn  Mn6  1  0.750000  0.591466  0.506467  1
  Mn  Mn7  1  0.750000  0.909757  0.006416  1
  Mn  Mn8  1  0.250000  0.212082  0.180288  1
  Mn  Mn9  1  0.250000  0.286065  0.680102  1
  Mn  Mn10  1  0.750000  0.788043  0.818777  1
  Mn  Mn11  1  0.750000  0.713130  0.320059  1
  Mn  Mn12  1  0.250000  0.882220  0.695315  1
  Mn  Mn13  1  0.250000  0.617179  0.193808  1
  Mn  Mn14  1  0.750000  0.116698  0.306586  1
  Mn  Mn15  1  0.750000  0.383154  0.806774  1
  Mn  Mn16  1  0.250000  0.465455  0.934440  1
  Mn  Mn17  1  0.250000  0.034148  0.433655  1
  Mn  Mn18  1  0.750000  0.534213  0.065258  1
  Co  Co19  1  0.750000  0.963725  0.565071  1
  P  P20  1  0.250000  0.415155  0.117281  1
  P  P21  1  0.250000  0.080261  0.613457  1
  P  P22  1  0.750000  0.585520  0.882621  1
  P  P23  1  0.750000  0.918185  0.385685  1
  P  P24  1  0.250000  0.263748  0.870935  1
  P  P25  1  0.250000  0.234798  0.371060  1
  P  P26  1  0.750000  0.735202  0.128507  1
  P  P27  1  0.750000  0.767275  0.628381  1
  P  P28  1  0.250000  0.591604  0.384406  1
  P  P29  1  0.250000  0.910695  0.883893  1
  P  P30  1  0.750000  0.409558  0.616685  1
  P  P31  1  0.750000  0.089438  0.117165  1
  W  W32  1  0.250000  0.709593  0.983103  1
  W  W33  1  0.250000  0.792995  0.483978  1
  W  W34  1  0.750000  0.289924  0.016784  1
  W  W35  1  0.750000  0.209689  0.516433  1
