# generated using pymatgen
data_Ho2Pa2Ge6Ir6Rh
_symmetry_space_group_name_H-M   'P 1'
_cell_length_a   7.28753001
_cell_length_b   7.28753047
_cell_length_c   7.31344605
_cell_angle_alpha   109.43597826
_cell_angle_beta   109.43597756
_cell_angle_gamma   109.39791225
_symmetry_Int_Tables_number   1
_chemical_formula_structural   Ho2Pa2Ge6Ir6Rh
_chemical_formula_sum   'Ho2 Pa2 Ge6 Ir6 Rh1'
_cell_volume   299.52231191
_cell_formula_units_Z   1
loop_
 _symmetry_equiv_pos_site_id
 _symmetry_equiv_pos_as_xyz
  1  'x, y, z'
loop_
 _atom_site_type_symbol
 _atom_site_label
 _atom_site_symmetry_multiplicity
 _atom_site_fract_x
 _atom_site_fract_y
 _atom_site_fract_z
 _atom_site_occupancy
  Ho  Ho0  1  0.000000  0.500000  0.000000  1
  Ho  Ho1  1  0.500000  0.000000  0.000000  1
  Pa  Pa2  1  0.000000  0.000000  0.500000  1
  Pa  Pa3  1  0.500000  0.500000  0.500000  1
  Ge  Ge4  1  0.683437  0.683437  0.000000  1
  Ge  Ge5  1  0.317274  0.995038  0.312312  1
  Ge  Ge6  1  0.995038  0.317274  0.312312  1
  Ge  Ge7  1  0.316563  0.316563  0.000000  1
  Ge  Ge8  1  0.682726  0.004962  0.687688  1
  Ge  Ge9  1  0.004962  0.682726  0.687688  1
  Ir  Ir10  1  0.750000  0.250000  0.500000  1
  Ir  Ir11  1  0.749590  0.503862  0.253452  1
  Ir  Ir12  1  0.496138  0.250410  0.746548  1
  Ir  Ir13  1  0.250410  0.496138  0.746548  1
  Ir  Ir14  1  0.250000  0.750000  0.500000  1
  Ir  Ir15  1  0.503862  0.749590  0.253452  1
  Rh  Rh16  1  0.000000  0.000000  0.000000  1
