# generated using pymatgen
data_Yb2Ho2Al13Si5Ir6
_symmetry_space_group_name_H-M   'P 1'
_cell_length_a   7.49249477
_cell_length_b   7.46272187
_cell_length_c   9.37485800
_cell_angle_alpha   89.98256459
_cell_angle_beta   90.04829218
_cell_angle_gamma   119.92298836
_symmetry_Int_Tables_number   1
_chemical_formula_structural   Yb2Ho2Al13Si5Ir6
_chemical_formula_sum   'Yb2 Ho2 Al13 Si5 Ir6'
_cell_volume   454.31322055
_cell_formula_units_Z   1
loop_
 _symmetry_equiv_pos_site_id
 _symmetry_equiv_pos_as_xyz
  1  'x, y, z'
loop_
 _atom_site_type_symbol
 _atom_site_label
 _atom_site_symmetry_multiplicity
 _atom_site_fract_x
 _atom_site_fract_y
 _atom_site_fract_z
 _atom_site_occupancy
  Yb  Yb0  1  0.675012  0.007473  0.252303  1
  Yb  Yb1  1  0.319894  0.991479  0.745483  1
  Ho  Ho2  1  0.000299  0.663110  0.252932  1
  Ho  Ho3  1  0.005282  0.340431  0.749387  1
  Al  Al4  1  0.129246  0.127345  0.250281  1
  Al  Al5  1  0.871396  0.872706  0.750780  1
  Al  Al6  1  0.664787  0.996814  0.578084  1
  Al  Al7  1  0.661698  0.997647  0.923938  1
  Al  Al8  1  0.339261  0.002930  0.071483  1
  Al  Al9  1  0.336976  0.334796  0.558975  1
  Al  Al10  1  0.664192  0.669181  0.439538  1
  Al  Al11  1  0.663831  0.669032  0.059265  1
  Al  Al12  1  0.336749  0.331812  0.940866  1
  Al  Al13  1  0.337275  0.546491  0.250229  1
  Al  Al14  1  0.660899  0.450073  0.750641  1
  Al  Al15  1  0.546795  0.344454  0.249991  1
  Al  Al16  1  0.452940  0.657257  0.749494  1
  Si  Si17  1  0.000740  0.326207  0.068259  1
  Si  Si18  1  0.998400  0.672342  0.932633  1
  Si  Si19  1  0.991581  0.666313  0.571901  1
  Si  Si20  1  0.339895  0.005863  0.422996  1
  Si  Si21  1  0.002254  0.327096  0.429661  1
  Ir  Ir22  1  0.689674  0.338591  0.003081  1
  Ir  Ir23  1  0.309993  0.660754  0.999003  1
  Ir  Ir24  1  0.310726  0.670316  0.499872  1
  Ir  Ir25  1  0.682362  0.331742  0.497828  1
  Ir  Ir26  1  0.000874  0.999641  0.001141  1
  Ir  Ir27  1  0.006968  0.998110  0.499957  1
