# generated using pymatgen
data_Ho2InAuO7
_symmetry_space_group_name_H-M   'P 1'
_cell_length_a   6.39023168
_cell_length_b   6.45338629
_cell_length_c   7.38822300
_cell_angle_alpha   90.00000000
_cell_angle_beta   90.00000000
_cell_angle_gamma   109.39166195
_symmetry_Int_Tables_number   1
_chemical_formula_structural   Ho2InAuO7
_chemical_formula_sum   'Ho4 In2 Au2 O14'
_cell_volume   287.39601207
_cell_formula_units_Z   2
loop_
 _symmetry_equiv_pos_site_id
 _symmetry_equiv_pos_as_xyz
  1  'x, y, z'
loop_
 _atom_site_type_symbol
 _atom_site_label
 _atom_site_symmetry_multiplicity
 _atom_site_fract_x
 _atom_site_fract_y
 _atom_site_fract_z
 _atom_site_occupancy
  Ho  Ho0  1  0.530670  0.999557  0.751304  1
  Ho  Ho1  1  0.469330  0.000443  0.251304  1
  Ho  Ho2  1  0.503094  0.503251  0.499826  1
  Ho  Ho3  1  0.496906  0.496749  0.999826  1
  In  In4  1  0.003779  0.478152  0.748618  1
  In  In5  1  0.996221  0.521848  0.248618  1
  Au  Au6  1  0.999580  0.999459  0.499998  1
  Au  Au7  1  0.000420  0.000541  0.999998  1
  O  O8  1  0.647029  0.366394  0.749910  1
  O  O9  1  0.352971  0.633606  0.249910  1
  O  O10  1  0.922988  0.082025  0.750039  1
  O  O11  1  0.077012  0.917975  0.250039  1
  O  O12  1  0.919420  0.665914  0.522077  1
  O  O13  1  0.080580  0.334086  0.022077  1
  O  O14  1  0.336110  0.091251  0.976451  1
  O  O15  1  0.663890  0.908749  0.476451  1
  O  O16  1  0.359531  0.628766  0.749885  1
  O  O17  1  0.640469  0.371234  0.249885  1
  O  O18  1  0.920920  0.667048  0.976301  1
  O  O19  1  0.079080  0.332952  0.476301  1
  O  O20  1  0.334542  0.088709  0.525591  1
  O  O21  1  0.665458  0.911291  0.025591  1
