# generated using pymatgen
data_YbHo3CoOs7
_symmetry_space_group_name_H-M   'P 1'
_cell_length_a   5.27546147
_cell_length_b   5.27670794
_cell_length_c   8.84338762
_cell_angle_alpha   90.04474240
_cell_angle_beta   90.04290416
_cell_angle_gamma   59.22485850
_symmetry_Int_Tables_number   1
_chemical_formula_structural   YbHo3CoOs7
_chemical_formula_sum   'Yb1 Ho3 Co1 Os7'
_cell_volume   211.50817664
_cell_formula_units_Z   1
loop_
 _symmetry_equiv_pos_site_id
 _symmetry_equiv_pos_as_xyz
  1  'x, y, z'
loop_
 _atom_site_type_symbol
 _atom_site_label
 _atom_site_symmetry_multiplicity
 _atom_site_fract_x
 _atom_site_fract_y
 _atom_site_fract_z
 _atom_site_occupancy
  Yb  Yb0  1  0.330183  0.330591  0.560708  1
  Ho  Ho1  1  0.665112  0.665500  0.437936  1
  Ho  Ho2  1  0.666035  0.666257  0.067528  1
  Ho  Ho3  1  0.331494  0.331757  0.932382  1
  Co  Co4  1  0.176487  0.176126  0.248239  1
  Os  Os5  1  0.992184  0.993529  0.497389  1
  Os  Os6  1  0.994073  0.995194  0.004049  1
  Os  Os7  1  0.828174  0.344588  0.750622  1
  Os  Os8  1  0.345646  0.827527  0.750671  1
  Os  Os9  1  0.833145  0.833003  0.749937  1
  Os  Os10  1  0.177716  0.658958  0.250235  1
  Os  Os11  1  0.659755  0.176969  0.250299  1
