# generated using pymatgen
data_Lu2AlSi13Ir6
_symmetry_space_group_name_H-M   'P 1'
_cell_length_a   8.00127745
_cell_length_b   8.00127763
_cell_length_c   8.00127596
_cell_angle_alpha   57.04592456
_cell_angle_beta   57.04592138
_cell_angle_gamma   57.04592225
_symmetry_Int_Tables_number   1
_chemical_formula_structural   Lu2AlSi13Ir6
_chemical_formula_sum   'Lu2 Al1 Si13 Ir6'
_cell_volume   337.54588943
_cell_formula_units_Z   1
loop_
 _symmetry_equiv_pos_site_id
 _symmetry_equiv_pos_as_xyz
  1  'x, y, z'
loop_
 _atom_site_type_symbol
 _atom_site_label
 _atom_site_symmetry_multiplicity
 _atom_site_fract_x
 _atom_site_fract_y
 _atom_site_fract_z
 _atom_site_occupancy
  Lu  Lu0  1  0.999497  0.999497  0.999497  1
  Lu  Lu1  1  0.500503  0.500503  0.500503  1
  Al  Al2  1  0.750000  0.750000  0.750000  1
  Si  Si3  1  0.250000  0.250000  0.250000  1
  Si  Si4  1  0.850232  0.064768  0.671230  1
  Si  Si5  1  0.671230  0.850232  0.064768  1
  Si  Si6  1  0.064768  0.671230  0.850232  1
  Si  Si7  1  0.649768  0.828770  0.435232  1
  Si  Si8  1  0.435232  0.649768  0.828770  1
  Si  Si9  1  0.828770  0.435232  0.649768  1
  Si  Si10  1  0.169952  0.562140  0.355982  1
  Si  Si11  1  0.562140  0.355982  0.169952  1
  Si  Si12  1  0.355982  0.169952  0.562140  1
  Si  Si13  1  0.937860  0.330048  0.144018  1
  Si  Si14  1  0.330048  0.144018  0.937860  1
  Si  Si15  1  0.144018  0.937860  0.330048  1
  Ir  Ir16  1  0.082051  0.417949  0.750000  1
  Ir  Ir17  1  0.250000  0.926971  0.573029  1
  Ir  Ir18  1  0.573029  0.250000  0.926971  1
  Ir  Ir19  1  0.926971  0.573029  0.250000  1
  Ir  Ir20  1  0.417949  0.750000  0.082051  1
  Ir  Ir21  1  0.750000  0.082051  0.417949  1
