# generated using pymatgen
data_TbHoTm2SiBr6
_symmetry_space_group_name_H-M   'P 1'
_cell_length_a   4.02727000
_cell_length_b   13.17502981
_cell_length_c   13.90860360
_cell_angle_alpha   90.33741169
_cell_angle_beta   90.00000000
_cell_angle_gamma   90.00000000
_symmetry_Int_Tables_number   1
_chemical_formula_structural   TbHoTm2SiBr6
_chemical_formula_sum   'Tb2 Ho2 Tm4 Si2 Br12'
_cell_volume   737.96939765
_cell_formula_units_Z   2
loop_
 _symmetry_equiv_pos_site_id
 _symmetry_equiv_pos_as_xyz
  1  'x, y, z'
loop_
 _atom_site_type_symbol
 _atom_site_label
 _atom_site_symmetry_multiplicity
 _atom_site_fract_x
 _atom_site_fract_y
 _atom_site_fract_z
 _atom_site_occupancy
  Tb  Tb0  1  0.000000  0.619060  0.920637  1
  Tb  Tb1  1  0.000000  0.380940  0.079363  1
  Ho  Ho2  1  0.000000  0.117183  0.578286  1
  Ho  Ho3  1  0.000000  0.882817  0.421714  1
  Tm  Tm4  1  0.500000  0.117075  0.342631  1
  Tm  Tm5  1  0.500000  0.882925  0.657369  1
  Tm  Tm6  1  0.500000  0.618044  0.158494  1
  Tm  Tm7  1  0.500000  0.381956  0.841506  1
  Si  Si8  1  0.500000  0.000000  0.500000  1
  Si  Si9  1  0.500000  0.500000  0.000000  1
  Br  Br10  1  0.500000  0.240905  0.166528  1
  Br  Br11  1  0.500000  0.759095  0.833472  1
  Br  Br12  1  0.500000  0.746285  0.336177  1
  Br  Br13  1  0.500000  0.253715  0.663823  1
  Br  Br14  1  0.000000  0.253758  0.411485  1
  Br  Br15  1  0.000000  0.746242  0.588515  1
  Br  Br16  1  0.000000  0.755193  0.092716  1
  Br  Br17  1  0.000000  0.244807  0.907284  1
  Br  Br18  1  0.000000  0.002547  0.244187  1
  Br  Br19  1  0.000000  0.997453  0.755813  1
  Br  Br20  1  0.000000  0.506519  0.258639  1
  Br  Br21  1  0.000000  0.493481  0.741361  1
