# generated using pymatgen
data_Th3Hg(Pd3Pt)3
_symmetry_space_group_name_H-M   'P 1'
_cell_length_a   5.90627100
_cell_length_b   5.90627012
_cell_length_c   9.71549800
_cell_angle_alpha   90.00000000
_cell_angle_beta   90.00000000
_cell_angle_gamma   119.99999933
_symmetry_Int_Tables_number   1
_chemical_formula_structural   Th3Hg(Pd3Pt)3
_chemical_formula_sum   'Th3 Hg1 Pd9 Pt3'
_cell_volume   293.50964466
_cell_formula_units_Z   1
loop_
 _symmetry_equiv_pos_site_id
 _symmetry_equiv_pos_as_xyz
  1  'x, y, z'
loop_
 _atom_site_type_symbol
 _atom_site_label
 _atom_site_symmetry_multiplicity
 _atom_site_fract_x
 _atom_site_fract_y
 _atom_site_fract_z
 _atom_site_occupancy
  Th  Th0  1  0.000000  0.000000  0.494372  1
  Th  Th1  1  0.000000  0.000000  0.005628  1
  Th  Th2  1  0.666667  0.333333  0.750000  1
  Hg  Hg3  1  0.333333  0.666667  0.250000  1
  Pd  Pd4  1  0.499741  0.500259  0.497792  1
  Pd  Pd5  1  0.499741  0.999481  0.497792  1
  Pd  Pd6  1  0.000519  0.500259  0.497792  1
  Pd  Pd7  1  0.499741  0.500259  0.002208  1
  Pd  Pd8  1  0.499741  0.999481  0.002208  1
  Pd  Pd9  1  0.000519  0.500259  0.002208  1
  Pd  Pd10  1  0.824725  0.649450  0.250000  1
  Pd  Pd11  1  0.350550  0.175275  0.250000  1
  Pd  Pd12  1  0.824725  0.175275  0.250000  1
  Pt  Pt13  1  0.172195  0.344390  0.750000  1
  Pt  Pt14  1  0.655610  0.827805  0.750000  1
  Pt  Pt15  1  0.172195  0.827805  0.750000  1
