# generated using pymatgen
data_Er5Co16(MoP4)3
_symmetry_space_group_name_H-M   'P 1'
_cell_length_a   12.03681300
_cell_length_b   12.03681339
_cell_length_c   3.69236200
_cell_angle_alpha   90.00000000
_cell_angle_beta   90.00000000
_cell_angle_gamma   120.00000168
_symmetry_Int_Tables_number   1
_chemical_formula_structural   Er5Co16(MoP4)3
_chemical_formula_sum   'Er5 Co16 Mo3 P12'
_cell_volume   463.29534673
_cell_formula_units_Z   1
loop_
 _symmetry_equiv_pos_site_id
 _symmetry_equiv_pos_as_xyz
  1  'x, y, z'
loop_
 _atom_site_type_symbol
 _atom_site_label
 _atom_site_symmetry_multiplicity
 _atom_site_fract_x
 _atom_site_fract_y
 _atom_site_fract_z
 _atom_site_occupancy
  Er  Er0  1  0.666667  0.333333  0.000000  1
  Er  Er1  1  0.333333  0.666667  0.000000  1
  Er  Er2  1  0.814876  0.814876  0.500000  1
  Er  Er3  1  0.185124  0.000000  0.500000  1
  Er  Er4  1  0.000000  0.185124  0.500000  1
  Co  Co5  1  0.872705  0.355157  0.500000  1
  Co  Co6  1  0.644843  0.517548  0.500000  1
  Co  Co7  1  0.482452  0.127295  0.500000  1
  Co  Co8  1  0.355157  0.872705  0.500000  1
  Co  Co9  1  0.517548  0.644843  0.500000  1
  Co  Co10  1  0.127295  0.482452  0.500000  1
  Co  Co11  1  0.802532  0.177439  0.000000  1
  Co  Co12  1  0.822561  0.625092  0.000000  1
  Co  Co13  1  0.374908  0.197468  0.000000  1
  Co  Co14  1  0.177439  0.802532  0.000000  1
  Co  Co15  1  0.625092  0.822561  0.000000  1
  Co  Co16  1  0.197468  0.374908  0.000000  1
  Co  Co17  1  0.279967  0.279967  0.500000  1
  Co  Co18  1  0.720033  0.000000  0.500000  1
  Co  Co19  1  0.000000  0.720033  0.500000  1
  Co  Co20  1  0.000000  0.000000  0.000000  1
  Mo  Mo21  1  0.446115  0.446115  0.000000  1
  Mo  Mo22  1  0.553885  0.000000  0.000000  1
  Mo  Mo23  1  0.000000  0.553885  0.000000  1
  P  P24  1  0.686171  0.166086  0.500000  1
  P  P25  1  0.833914  0.520085  0.500000  1
  P  P26  1  0.479915  0.313829  0.500000  1
  P  P27  1  0.166086  0.686171  0.500000  1
  P  P28  1  0.520085  0.833914  0.500000  1
  P  P29  1  0.313829  0.479915  0.500000  1
  P  P30  1  0.177837  0.177837  0.000000  1
  P  P31  1  0.822163  0.000000  0.000000  1
  P  P32  1  0.000000  0.822163  0.000000  1
  P  P33  1  0.639662  0.639662  0.000000  1
  P  P34  1  0.360338  0.000000  0.000000  1
  P  P35  1  0.000000  0.360338  0.000000  1
