# generated using pymatgen
data_Zr4ScSb3Au
_symmetry_space_group_name_H-M   'P 1'
_cell_length_a   8.78401750
_cell_length_b   8.78401842
_cell_length_c   5.91615100
_cell_angle_alpha   90.00000000
_cell_angle_beta   90.00000000
_cell_angle_gamma   120.89930242
_symmetry_Int_Tables_number   1
_chemical_formula_structural   Zr4ScSb3Au
_chemical_formula_sum   'Zr8 Sc2 Sb6 Au2'
_cell_volume   391.69586287
_cell_formula_units_Z   2
loop_
 _symmetry_equiv_pos_site_id
 _symmetry_equiv_pos_as_xyz
  1  'x, y, z'
loop_
 _atom_site_type_symbol
 _atom_site_label
 _atom_site_symmetry_multiplicity
 _atom_site_fract_x
 _atom_site_fract_y
 _atom_site_fract_z
 _atom_site_occupancy
  Zr  Zr0  1  0.720992  0.000251  0.750000  1
  Zr  Zr1  1  0.999749  0.279008  0.250000  1
  Zr  Zr2  1  0.332953  0.667047  0.500000  1
  Zr  Zr3  1  0.667047  0.332953  0.500000  1
  Zr  Zr4  1  0.000251  0.720992  0.750000  1
  Zr  Zr5  1  0.332953  0.667047  0.000000  1
  Zr  Zr6  1  0.279008  0.999749  0.250000  1
  Zr  Zr7  1  0.667047  0.332953  0.000000  1
  Sc  Sc8  1  0.276945  0.276945  0.750000  1
  Sc  Sc9  1  0.723055  0.723055  0.250000  1
  Sb  Sb10  1  0.618111  0.618111  0.750000  1
  Sb  Sb11  1  0.381958  0.000797  0.750000  1
  Sb  Sb12  1  0.618042  0.999203  0.250000  1
  Sb  Sb13  1  0.381889  0.381889  0.250000  1
  Sb  Sb14  1  0.000797  0.381958  0.750000  1
  Sb  Sb15  1  0.999203  0.618042  0.250000  1
  Au  Au16  1  0.000000  0.000000  0.500000  1
  Au  Au17  1  0.000000  0.000000  0.000000  1
