# generated using pymatgen
data_Tb17Dy2ErPb16
_symmetry_space_group_name_H-M   'P 1'
_cell_length_a   8.24404301
_cell_length_b   8.33166201
_cell_length_c   15.73171700
_cell_angle_alpha   90.00000000
_cell_angle_beta   90.00000000
_cell_angle_gamma   90.03095358
_symmetry_Int_Tables_number   1
_chemical_formula_structural   Tb17Dy2ErPb16
_chemical_formula_sum   'Tb17 Dy2 Er1 Pb16'
_cell_volume   1080.55768023
_cell_formula_units_Z   1
loop_
 _symmetry_equiv_pos_site_id
 _symmetry_equiv_pos_as_xyz
  1  'x, y, z'
loop_
 _atom_site_type_symbol
 _atom_site_label
 _atom_site_symmetry_multiplicity
 _atom_site_fract_x
 _atom_site_fract_y
 _atom_site_fract_z
 _atom_site_occupancy
  Tb  Tb0  1  0.377662  0.840898  0.879584  1
  Tb  Tb1  1  0.877079  0.659499  0.620392  1
  Tb  Tb2  1  0.622690  0.159228  0.379557  1
  Tb  Tb3  1  0.122670  0.340771  0.120570  1
  Tb  Tb4  1  0.622690  0.159228  0.120443  1
  Tb  Tb5  1  0.122670  0.340771  0.379430  1
  Tb  Tb6  1  0.377662  0.840898  0.620416  1
  Tb  Tb7  1  0.877079  0.659499  0.879608  1
  Tb  Tb8  1  0.534640  0.323103  0.899894  1
  Tb  Tb9  1  0.034290  0.176454  0.600126  1
  Tb  Tb10  1  0.465475  0.676681  0.399782  1
  Tb  Tb11  1  0.965523  0.823321  0.100112  1
  Tb  Tb12  1  0.465475  0.676681  0.100218  1
  Tb  Tb13  1  0.965523  0.823321  0.399888  1
  Tb  Tb14  1  0.534640  0.323103  0.600106  1
  Tb  Tb15  1  0.034290  0.176454  0.899874  1
  Tb  Tb16  1  0.208952  0.503561  0.750000  1
  Dy  Dy17  1  0.791001  0.496221  0.250000  1
  Dy  Dy18  1  0.291029  0.003646  0.250000  1
  Er  Er19  1  0.709260  0.996141  0.750000  1
  Pb  Pb20  1  0.280913  0.032898  0.042928  1
  Pb  Pb21  1  0.780936  0.467211  0.457068  1
  Pb  Pb22  1  0.719040  0.967199  0.543127  1
  Pb  Pb23  1  0.219102  0.532991  0.957304  1
  Pb  Pb24  1  0.719040  0.967199  0.956873  1
  Pb  Pb25  1  0.219102  0.532991  0.542696  1
  Pb  Pb26  1  0.280913  0.032898  0.457072  1
  Pb  Pb27  1  0.780936  0.467211  0.042932  1
  Pb  Pb28  1  0.573552  0.626488  0.750000  1
  Pb  Pb29  1  0.072407  0.874623  0.750000  1
  Pb  Pb30  1  0.427003  0.373963  0.250000  1
  Pb  Pb31  1  0.927023  0.125987  0.250000  1
  Pb  Pb32  1  0.346298  0.151806  0.750000  1
  Pb  Pb33  1  0.845607  0.346761  0.750000  1
  Pb  Pb34  1  0.653977  0.847579  0.250000  1
  Pb  Pb35  1  0.153848  0.652719  0.250000  1
