# generated using pymatgen
data_Dy4Ho8IrOs3
_symmetry_space_group_name_H-M   'P 1'
_cell_length_a   6.35310300
_cell_length_b   7.35477654
_cell_length_c   9.03059500
_cell_angle_alpha   90.00000000
_cell_angle_beta   90.00000000
_cell_angle_gamma   90.05721697
_symmetry_Int_Tables_number   1
_chemical_formula_structural   Dy4Ho8IrOs3
_chemical_formula_sum   'Dy4 Ho8 Ir1 Os3'
_cell_volume   421.96023706
_cell_formula_units_Z   1
loop_
 _symmetry_equiv_pos_site_id
 _symmetry_equiv_pos_as_xyz
  1  'x, y, z'
loop_
 _atom_site_type_symbol
 _atom_site_label
 _atom_site_symmetry_multiplicity
 _atom_site_fract_x
 _atom_site_fract_y
 _atom_site_fract_z
 _atom_site_occupancy
  Dy  Dy0  1  0.870438  0.538066  0.250000  1
  Dy  Dy1  1  0.629691  0.039540  0.250000  1
  Dy  Dy2  1  0.129992  0.461434  0.750000  1
  Dy  Dy3  1  0.369214  0.961224  0.750000  1
  Ho  Ho4  1  0.332670  0.674207  0.062306  1
  Ho  Ho5  1  0.169528  0.176905  0.438009  1
  Ho  Ho6  1  0.669096  0.324496  0.563097  1
  Ho  Ho7  1  0.828532  0.824128  0.935115  1
  Ho  Ho8  1  0.669096  0.324496  0.936903  1
  Ho  Ho9  1  0.828532  0.824128  0.564885  1
  Ho  Ho10  1  0.332670  0.674207  0.437694  1
  Ho  Ho11  1  0.169528  0.176905  0.061991  1
  Ir  Ir12  1  0.040637  0.884039  0.250000  1
  Os  Os13  1  0.460114  0.383770  0.250000  1
  Os  Os14  1  0.961580  0.115794  0.750000  1
  Os  Os15  1  0.538683  0.616660  0.750000  1
