# generated using pymatgen
data_Tb3Er5Hf12Si15Sn
_symmetry_space_group_name_H-M   'P 1'
_cell_length_a   7.29834537
_cell_length_b   7.32296945
_cell_length_c   13.40725056
_cell_angle_alpha   89.72126365
_cell_angle_beta   90.03166337
_cell_angle_gamma   89.84736809
_symmetry_Int_Tables_number   1
_chemical_formula_structural   Tb3Er5Hf12Si15Sn
_chemical_formula_sum   'Tb3 Er5 Hf12 Si15 Sn1'
_cell_volume   716.54688069
_cell_formula_units_Z   1
loop_
 _symmetry_equiv_pos_site_id
 _symmetry_equiv_pos_as_xyz
  1  'x, y, z'
loop_
 _atom_site_type_symbol
 _atom_site_label
 _atom_site_symmetry_multiplicity
 _atom_site_fract_x
 _atom_site_fract_y
 _atom_site_fract_z
 _atom_site_occupancy
  Tb  Tb0  1  0.497853  0.154177  0.538904  1
  Tb  Tb1  1  0.343977  0.995285  0.785097  1
  Tb  Tb2  1  0.662094  0.998072  0.282990  1
  Er  Er3  1  0.989182  0.346005  0.212006  1
  Er  Er4  1  0.003750  0.655197  0.716185  1
  Er  Er5  1  0.147744  0.506265  0.470754  1
  Er  Er6  1  0.505189  0.842364  0.032752  1
  Er  Er7  1  0.845199  0.503401  0.964108  1
  Hf  Hf8  1  0.174003  0.175115  0.999110  1
  Hf  Hf9  1  0.826488  0.826149  0.501327  1
  Hf  Hf10  1  0.325924  0.680996  0.247966  1
  Hf  Hf11  1  0.675454  0.325723  0.750547  1
  Hf  Hf12  1  0.142017  0.987225  0.373660  1
  Hf  Hf13  1  0.852122  0.003080  0.874230  1
  Hf  Hf14  1  0.503483  0.649758  0.624802  1
  Hf  Hf15  1  0.351433  0.495816  0.875894  1
  Hf  Hf16  1  0.496498  0.352464  0.118465  1
  Hf  Hf17  1  0.660283  0.514416  0.379485  1
  Hf  Hf18  1  0.994757  0.148992  0.626916  1
  Hf  Hf19  1  0.002005  0.849380  0.123655  1
  Si  Si20  1  0.639159  0.704185  0.817664  1
  Si  Si21  1  0.203724  0.862364  0.568472  1
  Si  Si22  1  0.138038  0.793870  0.932238  1
  Si  Si23  1  0.795779  0.138002  0.065851  1
  Si  Si24  1  0.862628  0.205488  0.433257  1
  Si  Si25  1  0.294384  0.364221  0.683247  1
  Si  Si26  1  0.703445  0.636580  0.181497  1
  Si  Si27  1  0.295058  0.042062  0.180227  1
  Si  Si28  1  0.706259  0.948697  0.686536  1
  Si  Si29  1  0.449468  0.796569  0.435630  1
  Si  Si30  1  0.202764  0.548534  0.064448  1
  Si  Si31  1  0.549548  0.202949  0.934051  1
  Si  Si32  1  0.795658  0.451699  0.566887  1
  Si  Si33  1  0.048116  0.296744  0.814701  1
  Si  Si34  1  0.953753  0.700658  0.312988  1
  Sn  Sn35  1  0.362766  0.297500  0.323456  1
