# generated using pymatgen
data_Tb3CdIn3AgIr
_symmetry_space_group_name_H-M   'P 1'
_cell_length_a   7.93451000
_cell_length_b   7.93451167
_cell_length_c   3.85358200
_cell_angle_alpha   90.00000000
_cell_angle_beta   90.00000000
_cell_angle_gamma   120.00000971
_symmetry_Int_Tables_number   1
_chemical_formula_structural   Tb3CdIn3AgIr
_chemical_formula_sum   'Tb3 Cd1 In3 Ag1 Ir1'
_cell_volume   210.10457488
_cell_formula_units_Z   1
loop_
 _symmetry_equiv_pos_site_id
 _symmetry_equiv_pos_as_xyz
  1  'x, y, z'
loop_
 _atom_site_type_symbol
 _atom_site_label
 _atom_site_symmetry_multiplicity
 _atom_site_fract_x
 _atom_site_fract_y
 _atom_site_fract_z
 _atom_site_occupancy
  Tb  Tb0  1  0.422237  0.387597  0.000000  1
  Tb  Tb1  1  0.612403  0.034639  0.000000  1
  Tb  Tb2  1  0.965361  0.577763  0.000000  1
  Cd  Cd3  1  0.333333  0.666667  0.500000  1
  In  In4  1  0.002207  0.266547  0.500000  1
  In  In5  1  0.733453  0.735659  0.500000  1
  In  In6  1  0.264341  0.997793  0.500000  1
  Ag  Ag7  1  0.000000  0.000000  0.000000  1
  Ir  Ir8  1  0.666667  0.333333  0.500000  1
