# generated using pymatgen
data_TbDy5Bi2(AuO5)4
_symmetry_space_group_name_H-M   'P 1'
_cell_length_a   8.54214264
_cell_length_b   8.54214280
_cell_length_c   5.73195332
_cell_angle_alpha   88.84374224
_cell_angle_beta   91.15626129
_cell_angle_gamma   89.99426602
_symmetry_Int_Tables_number   1
_chemical_formula_structural   TbDy5Bi2(AuO5)4
_chemical_formula_sum   'Tb1 Dy5 Bi2 Au4 O20'
_cell_volume   418.07996466
_cell_formula_units_Z   1
loop_
 _symmetry_equiv_pos_site_id
 _symmetry_equiv_pos_as_xyz
  1  'x, y, z'
loop_
 _atom_site_type_symbol
 _atom_site_label
 _atom_site_symmetry_multiplicity
 _atom_site_fract_x
 _atom_site_fract_y
 _atom_site_fract_z
 _atom_site_occupancy
  Tb  Tb0  1  0.848381  0.848381  0.250000  1
  Dy  Dy1  1  0.353538  0.654962  0.247473  1
  Dy  Dy2  1  0.845020  0.146572  0.747412  1
  Dy  Dy3  1  0.651458  0.651458  0.750000  1
  Dy  Dy4  1  0.654962  0.353538  0.252527  1
  Dy  Dy5  1  0.146572  0.845020  0.752588  1
  Bi  Bi6  1  0.358256  0.358256  0.750000  1
  Bi  Bi7  1  0.141872  0.141872  0.250000  1
  Au  Au8  1  0.495785  0.999392  0.407499  1
  Au  Au9  1  0.500548  0.004187  0.907387  1
  Au  Au10  1  0.999392  0.495785  0.092501  1
  Au  Au11  1  0.004187  0.500548  0.592613  1
  O  O12  1  0.107058  0.289603  0.600158  1
  O  O13  1  0.910592  0.278458  0.112650  1
  O  O14  1  0.909362  0.716936  0.610766  1
  O  O15  1  0.716936  0.909362  0.889234  1
  O  O16  1  0.221524  0.589403  0.612604  1
  O  O17  1  0.406215  0.788418  0.894232  1
  O  O18  1  0.392973  0.210431  0.399786  1
  O  O19  1  0.782595  0.590172  0.109400  1
  O  O20  1  0.278458  0.910592  0.387350  1
  O  O21  1  0.589403  0.221524  0.887396  1
  O  O22  1  0.492613  0.499181  0.998180  1
  O  O23  1  0.499181  0.492613  0.501820  1
  O  O24  1  0.788418  0.406215  0.605768  1
  O  O25  1  0.094105  0.711448  0.105573  1
  O  O26  1  0.289603  0.107058  0.899842  1
  O  O27  1  0.590172  0.782595  0.390600  1
  O  O28  1  0.210431  0.392973  0.100214  1
  O  O29  1  0.007743  0.001201  0.001231  1
  O  O30  1  0.001201  0.007743  0.498769  1
  O  O31  1  0.711448  0.094105  0.394427  1
