# generated using pymatgen
data_Tb3Ga3GePt2
_symmetry_space_group_name_H-M   'P 1'
_cell_length_a   7.21640400
_cell_length_b   7.21640434
_cell_length_c   4.03805900
_cell_angle_alpha   90.00000000
_cell_angle_beta   90.00000000
_cell_angle_gamma   120.00000762
_symmetry_Int_Tables_number   1
_chemical_formula_structural   Tb3Ga3GePt2
_chemical_formula_sum   'Tb3 Ga3 Ge1 Pt2'
_cell_volume   182.11468035
_cell_formula_units_Z   1
loop_
 _symmetry_equiv_pos_site_id
 _symmetry_equiv_pos_as_xyz
  1  'x, y, z'
loop_
 _atom_site_type_symbol
 _atom_site_label
 _atom_site_symmetry_multiplicity
 _atom_site_fract_x
 _atom_site_fract_y
 _atom_site_fract_z
 _atom_site_occupancy
  Tb  Tb0  1  0.406303  0.995878  0.000000  1
  Tb  Tb1  1  0.004122  0.410426  0.000000  1
  Tb  Tb2  1  0.589574  0.593697  0.000000  1
  Ga  Ga3  1  0.238767  0.253132  0.500000  1
  Ga  Ga4  1  0.014364  0.761233  0.500000  1
  Ga  Ga5  1  0.746868  0.985636  0.500000  1
  Ge  Ge6  1  0.666667  0.333333  0.500000  1
  Pt  Pt7  1  0.000000  0.000000  0.000000  1
  Pt  Pt8  1  0.333333  0.666667  0.500000  1
