# generated using pymatgen
data_Ho3Er5(CdRu)2
_symmetry_space_group_name_H-M   'P 1'
_cell_length_a   9.54330754
_cell_length_b   9.54460151
_cell_length_c   9.54405528
_cell_angle_alpha   60.04261661
_cell_angle_beta   60.12940015
_cell_angle_gamma   60.05324140
_symmetry_Int_Tables_number   1
_chemical_formula_structural   Ho3Er5(CdRu)2
_chemical_formula_sum   'Ho6 Er10 Cd4 Ru4'
_cell_volume   615.76136536
_cell_formula_units_Z   2
loop_
 _symmetry_equiv_pos_site_id
 _symmetry_equiv_pos_as_xyz
  1  'x, y, z'
loop_
 _atom_site_type_symbol
 _atom_site_label
 _atom_site_symmetry_multiplicity
 _atom_site_fract_x
 _atom_site_fract_y
 _atom_site_fract_z
 _atom_site_occupancy
  Ho  Ho0  1  0.189022  0.812040  0.812012  1
  Ho  Ho1  1  0.810492  0.190124  0.190315  1
  Ho  Ho2  1  0.811998  0.188795  0.811962  1
  Ho  Ho3  1  0.190342  0.810578  0.190024  1
  Ho  Ho4  1  0.812127  0.812035  0.188657  1
  Ho  Ho5  1  0.189878  0.190463  0.810600  1
  Er  Er6  1  0.598521  0.598545  0.598399  1
  Er  Er7  1  0.595415  0.595207  0.211600  1
  Er  Er8  1  0.595162  0.211345  0.595444  1
  Er  Er9  1  0.211517  0.595415  0.595309  1
  Er  Er10  1  0.060615  0.438266  0.438217  1
  Er  Er11  1  0.438904  0.061061  0.061011  1
  Er  Er12  1  0.438189  0.060734  0.438184  1
  Er  Er13  1  0.061018  0.438867  0.061219  1
  Er  Er14  1  0.438254  0.438282  0.060660  1
  Er  Er15  1  0.061095  0.060944  0.438902  1
  Cd  Cd16  1  0.830404  0.830061  0.830062  1
  Cd  Cd17  1  0.830417  0.830293  0.508265  1
  Cd  Cd18  1  0.830049  0.508279  0.830518  1
  Cd  Cd19  1  0.508346  0.830596  0.830135  1
  Ru  Ru20  1  0.388280  0.388426  0.388544  1
  Ru  Ru21  1  0.390290  0.390340  0.829415  1
  Ru  Ru22  1  0.390399  0.829186  0.390205  1
  Ru  Ru23  1  0.829267  0.390120  0.390340  1
