# generated using pymatgen
data_Th3MgAlGaPt3
_symmetry_space_group_name_H-M   'P 1'
_cell_length_a   7.35342641
_cell_length_b   7.40288160
_cell_length_c   4.18134300
_cell_angle_alpha   90.00000000
_cell_angle_beta   90.00000000
_cell_angle_gamma   119.43058556
_symmetry_Int_Tables_number   1
_chemical_formula_structural   Th3MgAlGaPt3
_chemical_formula_sum   'Th3 Mg1 Al1 Ga1 Pt3'
_cell_volume   198.24415265
_cell_formula_units_Z   1
loop_
 _symmetry_equiv_pos_site_id
 _symmetry_equiv_pos_as_xyz
  1  'x, y, z'
loop_
 _atom_site_type_symbol
 _atom_site_label
 _atom_site_symmetry_multiplicity
 _atom_site_fract_x
 _atom_site_fract_y
 _atom_site_fract_z
 _atom_site_occupancy
  Th  Th0  1  0.408664  0.410469  0.500000  1
  Th  Th1  1  0.584556  0.002845  0.500000  1
  Th  Th2  1  0.001427  0.578559  0.500000  1
  Mg  Mg3  1  0.764987  0.764270  0.000000  1
  Al  Al4  1  0.233351  0.997969  0.000000  1
  Ga  Ga5  1  0.999107  0.238298  0.000000  1
  Pt  Pt6  1  0.659267  0.330096  0.000000  1
  Pt  Pt7  1  0.334101  0.676910  0.000000  1
  Pt  Pt8  1  0.014540  0.000585  0.500000  1
