# generated using pymatgen
data_Sc4Si8Os5Ru
_symmetry_space_group_name_H-M   'P 1'
_cell_length_a   9.97412098
_cell_length_b   9.97412011
_cell_length_c   13.46391400
_cell_angle_alpha   53.65509776
_cell_angle_beta   53.65510237
_cell_angle_gamma   30.97657070
_symmetry_Int_Tables_number   1
_chemical_formula_structural   Sc4Si8Os5Ru
_chemical_formula_sum   'Sc8 Si16 Os10 Ru2'
_cell_volume   543.61385576
_cell_formula_units_Z   2
loop_
 _symmetry_equiv_pos_site_id
 _symmetry_equiv_pos_as_xyz
  1  'x, y, z'
loop_
 _atom_site_type_symbol
 _atom_site_label
 _atom_site_symmetry_multiplicity
 _atom_site_fract_x
 _atom_site_fract_y
 _atom_site_fract_z
 _atom_site_occupancy
  Sc  Sc0  1  0.037023  0.292061  0.638222  1
  Sc  Sc1  1  0.707939  0.962977  0.861778  1
  Sc  Sc2  1  0.962279  0.708473  0.361913  1
  Sc  Sc3  1  0.291527  0.037721  0.138087  1
  Sc  Sc4  1  0.297607  0.555725  0.645294  1
  Sc  Sc5  1  0.444275  0.702393  0.854706  1
  Sc  Sc6  1  0.701882  0.443904  0.355328  1
  Sc  Sc7  1  0.556096  0.298118  0.144672  1
  Si  Si8  1  0.978130  0.249570  0.892061  1
  Si  Si9  1  0.750430  0.021870  0.607939  1
  Si  Si10  1  0.022962  0.749942  0.107600  1
  Si  Si11  1  0.250058  0.977038  0.392400  1
  Si  Si12  1  0.142435  0.385864  0.899557  1
  Si  Si13  1  0.614136  0.857565  0.600443  1
  Si  Si14  1  0.855725  0.614165  0.100514  1
  Si  Si15  1  0.385835  0.144275  0.399486  1
  Si  Si16  1  0.081464  0.574293  0.566438  1
  Si  Si17  1  0.425707  0.918536  0.933562  1
  Si  Si18  1  0.919616  0.424957  0.433208  1
  Si  Si19  1  0.575043  0.080384  0.066792  1
  Si  Si20  1  0.617514  0.382486  0.750000  1
  Si  Si21  1  0.381449  0.618551  0.250000  1
  Si  Si22  1  0.129185  0.870815  0.750000  1
  Si  Si23  1  0.871841  0.128159  0.250000  1
  Os  Os24  1  0.895586  0.141392  0.586570  1
  Os  Os25  1  0.858608  0.104414  0.913430  1
  Os  Os26  1  0.104482  0.858325  0.413534  1
  Os  Os27  1  0.141675  0.895518  0.086466  1
  Os  Os28  1  0.831176  0.646907  0.784022  1
  Os  Os29  1  0.353093  0.168824  0.715978  1
  Os  Os30  1  0.168601  0.353295  0.216206  1
  Os  Os31  1  0.646705  0.831399  0.283794  1
  Os  Os32  1  0.246566  0.507064  0.930623  1
  Os  Os33  1  0.492936  0.753434  0.569377  1
  Ru  Ru34  1  0.752189  0.491777  0.070036  1
  Ru  Ru35  1  0.508223  0.247811  0.429964  1
