# generated using pymatgen
data_Ca3(AsPd)4
_symmetry_space_group_name_H-M   'P 1'
_cell_length_a   4.13479300
_cell_length_b   4.36116000
_cell_length_c   12.66463200
_cell_angle_alpha   90.00000000
_cell_angle_beta   90.00000000
_cell_angle_gamma   90.00000000
_symmetry_Int_Tables_number   1
_chemical_formula_structural   Ca3(AsPd)4
_chemical_formula_sum   'Ca3 As4 Pd4'
_cell_volume   228.37489852
_cell_formula_units_Z   1
loop_
 _symmetry_equiv_pos_site_id
 _symmetry_equiv_pos_as_xyz
  1  'x, y, z'
loop_
 _atom_site_type_symbol
 _atom_site_label
 _atom_site_symmetry_multiplicity
 _atom_site_fract_x
 _atom_site_fract_y
 _atom_site_fract_z
 _atom_site_occupancy
  Ca  Ca0  1  0.500000  0.500000  0.299691  1
  Ca  Ca1  1  0.500000  0.500000  0.700309  1
  Ca  Ca2  1  0.500000  0.000000  0.000000  1
  As  As3  1  0.000000  0.000000  0.381788  1
  As  As4  1  0.000000  0.500000  0.098940  1
  As  As5  1  0.000000  0.000000  0.618212  1
  As  As6  1  0.000000  0.500000  0.901060  1
  Pd  Pd7  1  0.000000  0.000000  0.812084  1
  Pd  Pd8  1  0.000000  0.000000  0.187916  1
  Pd  Pd9  1  0.500000  0.000000  0.500000  1
  Pd  Pd10  1  0.000000  0.500000  0.500000  1
