# generated using pymatgen
data_Ta2TiAl2IrN
_symmetry_space_group_name_H-M   'P 1'
_cell_length_a   8.24032263
_cell_length_b   8.24707123
_cell_length_c   8.23295201
_cell_angle_alpha   60.05450240
_cell_angle_beta   60.02533403
_cell_angle_gamma   59.94208343
_symmetry_Int_Tables_number   1
_chemical_formula_structural   Ta2TiAl2IrN
_chemical_formula_sum   'Ta8 Ti4 Al8 Ir4 N4'
_cell_volume   395.69046294
_cell_formula_units_Z   4
loop_
 _symmetry_equiv_pos_site_id
 _symmetry_equiv_pos_as_xyz
  1  'x, y, z'
loop_
 _atom_site_type_symbol
 _atom_site_label
 _atom_site_symmetry_multiplicity
 _atom_site_fract_x
 _atom_site_fract_y
 _atom_site_fract_z
 _atom_site_occupancy
  Ta  Ta0  1  0.812530  0.817077  0.185183  1
  Ta  Ta1  1  0.063713  0.435166  0.437371  1
  Ta  Ta2  1  0.436903  0.063785  0.064757  1
  Ta  Ta3  1  0.064435  0.063535  0.436021  1
  Ta  Ta4  1  0.063725  0.435166  0.063746  1
  Ta  Ta5  1  0.436895  0.063779  0.434559  1
  Ta  Ta6  1  0.184894  0.816082  0.185812  1
  Ta  Ta7  1  0.184870  0.816093  0.813219  1
  Ti  Ti8  1  0.814379  0.182893  0.186083  1
  Ti  Ti9  1  0.814380  0.182877  0.816641  1
  Ti  Ti10  1  0.437243  0.432428  0.065155  1
  Ti  Ti11  1  0.185669  0.184455  0.814936  1
  Al  Al12  1  0.416503  0.750635  0.416429  1
  Al  Al13  1  0.832848  0.835742  0.498020  1
  Al  Al14  1  0.498445  0.834901  0.833329  1
  Al  Al15  1  0.832844  0.835768  0.833392  1
  Al  Al16  1  0.749673  0.415802  0.417273  1
  Al  Al17  1  0.417610  0.416141  0.414662  1
  Al  Al18  1  0.417624  0.416128  0.751595  1
  Al  Al19  1  0.834211  0.495142  0.835311  1
  Ir  Ir20  1  0.624505  0.125596  0.624952  1
  Ir  Ir21  1  0.625530  0.624340  0.124173  1
  Ir  Ir22  1  0.124678  0.623910  0.625707  1
  Ir  Ir23  1  0.625531  0.624336  0.625962  1
  N  N24  1  0.129044  0.622214  0.124376  1
  N  N25  1  0.122132  0.127364  0.629535  1
  N  N26  1  0.627043  0.131285  0.120833  1
  N  N27  1  0.122142  0.127358  0.120971  1
