# generated using pymatgen
data_Gd12Dy8Si15Ag
_symmetry_space_group_name_H-M   'P 1'
_cell_length_a   7.46911600
_cell_length_b   7.70399852
_cell_length_c   14.67468400
_cell_angle_alpha   89.82306252
_cell_angle_beta   89.46140937
_cell_angle_gamma   90.14656020
_symmetry_Int_Tables_number   1
_chemical_formula_structural   Gd12Dy8Si15Ag
_chemical_formula_sum   'Gd12 Dy8 Si15 Ag1'
_cell_volume   844.36736675
_cell_formula_units_Z   1
loop_
 _symmetry_equiv_pos_site_id
 _symmetry_equiv_pos_as_xyz
  1  'x, y, z'
loop_
 _atom_site_type_symbol
 _atom_site_label
 _atom_site_symmetry_multiplicity
 _atom_site_fract_x
 _atom_site_fract_y
 _atom_site_fract_z
 _atom_site_occupancy
  Gd  Gd0  1  0.649023  0.991246  0.250344  1
  Gd  Gd1  1  0.147858  0.510963  0.249134  1
  Gd  Gd2  1  0.847854  0.488516  0.748336  1
  Gd  Gd3  1  0.349864  0.012798  0.749349  1
  Gd  Gd4  1  0.977227  0.823365  0.101344  1
  Gd  Gd5  1  0.472432  0.682526  0.402321  1
  Gd  Gd6  1  0.517700  0.315021  0.898771  1
  Gd  Gd7  1  0.028561  0.180343  0.596794  1
  Gd  Gd8  1  0.029709  0.174480  0.900220  1
  Gd  Gd9  1  0.528017  0.318411  0.596996  1
  Gd  Gd10  1  0.473794  0.682607  0.101664  1
  Gd  Gd11  1  0.972187  0.817990  0.400573  1
  Dy  Dy12  1  0.673998  0.825244  0.875579  1
  Dy  Dy13  1  0.181448  0.680071  0.620873  1
  Dy  Dy14  1  0.820988  0.322937  0.125084  1
  Dy  Dy15  1  0.316907  0.178575  0.378073  1
  Dy  Dy16  1  0.323490  0.178722  0.124307  1
  Dy  Dy17  1  0.818887  0.319907  0.378079  1
  Dy  Dy18  1  0.182123  0.676542  0.877780  1
  Dy  Dy19  1  0.682927  0.821253  0.621466  1
  Si  Si20  1  0.762915  0.625650  0.252214  1
  Si  Si21  1  0.264655  0.875713  0.251948  1
  Si  Si22  1  0.737322  0.121956  0.748148  1
  Si  Si23  1  0.232761  0.377910  0.746684  1
  Si  Si24  1  0.025453  0.105892  0.251330  1
  Si  Si25  1  0.525226  0.395549  0.252656  1
  Si  Si26  1  0.472944  0.605596  0.747399  1
  Si  Si27  1  0.975063  0.891388  0.747869  1
  Si  Si28  1  0.355727  0.971009  0.539742  1
  Si  Si29  1  0.649942  0.028145  0.040304  1
  Si  Si30  1  0.146541  0.471082  0.459994  1
  Si  Si31  1  0.159210  0.469399  0.041573  1
  Si  Si32  1  0.644165  0.028831  0.459998  1
  Si  Si33  1  0.352419  0.969194  0.962224  1
  Si  Si34  1  0.856520  0.530088  0.538312  1
  Ag  Ag35  1  0.844139  0.531073  0.962516  1
