# generated using pymatgen
data_LaTh7VSe17
_symmetry_space_group_name_H-M   'P 1'
_cell_length_a   8.47350190
_cell_length_b   8.46120128
_cell_length_c   11.20383342
_cell_angle_alpha   80.68923198
_cell_angle_beta   80.50026880
_cell_angle_gamma   64.96723221
_symmetry_Int_Tables_number   1
_chemical_formula_structural   LaTh7VSe17
_chemical_formula_sum   'La1 Th7 V1 Se17'
_cell_volume   714.02437833
_cell_formula_units_Z   1
loop_
 _symmetry_equiv_pos_site_id
 _symmetry_equiv_pos_as_xyz
  1  'x, y, z'
loop_
 _atom_site_type_symbol
 _atom_site_label
 _atom_site_symmetry_multiplicity
 _atom_site_fract_x
 _atom_site_fract_y
 _atom_site_fract_z
 _atom_site_occupancy
  La  La0  1  0.812883  0.303492  0.295512  1
  Th  Th1  1  0.302073  0.815277  0.294241  1
  Th  Th2  1  0.184677  0.698231  0.704014  1
  Th  Th3  1  0.698104  0.185993  0.704029  1
  Th  Th4  1  0.203340  0.203253  0.543852  1
  Th  Th5  1  0.795858  0.795254  0.455535  1
  Th  Th6  1  0.681890  0.681078  0.980512  1
  Th  Th7  1  0.317331  0.318875  0.021155  1
  V  V8  1  0.001046  0.002176  0.002374  1
  Se  Se9  1  0.823938  0.432655  0.537691  1
  Se  Se10  1  0.431868  0.820155  0.532238  1
  Se  Se11  1  0.178466  0.566965  0.468357  1
  Se  Se12  1  0.567597  0.173026  0.473182  1
  Se  Se13  1  0.947726  0.321393  0.021914  1
  Se  Se14  1  0.321773  0.946588  0.026050  1
  Se  Se15  1  0.053992  0.680203  0.970987  1
  Se  Se16  1  0.678771  0.056058  0.971432  1
  Se  Se17  1  0.218186  0.203860  0.278023  1
  Se  Se18  1  0.790601  0.790595  0.722965  1
  Se  Se19  1  0.059273  0.057982  0.776047  1
  Se  Se20  1  0.944652  0.932153  0.223694  1
  Se  Se21  1  0.302461  0.303782  0.755457  1
  Se  Se22  1  0.691272  0.706824  0.242627  1
  Se  Se23  1  0.519436  0.521293  0.831893  1
  Se  Se24  1  0.471096  0.487354  0.163389  1
  Se  Se25  1  0.001690  0.995486  0.502831  1
