# generated using pymatgen
data_Pa4ZnCo3Ge4
_symmetry_space_group_name_H-M   'P 1'
_cell_length_a   4.25089100
_cell_length_b   6.99074921
_cell_length_c   7.34801246
_cell_angle_alpha   91.38894537
_cell_angle_beta   90.00000000
_cell_angle_gamma   90.00000000
_symmetry_Int_Tables_number   1
_chemical_formula_structural   Pa4ZnCo3Ge4
_chemical_formula_sum   'Pa4 Zn1 Co3 Ge4'
_cell_volume   218.29608876
_cell_formula_units_Z   1
loop_
 _symmetry_equiv_pos_site_id
 _symmetry_equiv_pos_as_xyz
  1  'x, y, z'
loop_
 _atom_site_type_symbol
 _atom_site_label
 _atom_site_symmetry_multiplicity
 _atom_site_fract_x
 _atom_site_fract_y
 _atom_site_fract_z
 _atom_site_occupancy
  Pa  Pa0  1  0.000000  0.483994  0.707182  1
  Pa  Pa1  1  0.000000  0.996183  0.780125  1
  Pa  Pa2  1  0.500000  0.496442  0.303005  1
  Pa  Pa3  1  0.500000  0.021776  0.213707  1
  Zn  Zn4  1  0.000000  0.706708  0.087166  1
  Co  Co5  1  0.000000  0.228544  0.421009  1
  Co  Co6  1  0.500000  0.295037  0.914928  1
  Co  Co7  1  0.500000  0.764794  0.574879  1
  Ge  Ge8  1  0.000000  0.293242  0.083150  1
  Ge  Ge9  1  0.000000  0.804460  0.417674  1
  Ge  Ge10  1  0.500000  0.714093  0.906790  1
  Ge  Ge11  1  0.500000  0.194725  0.590382  1
