# generated using pymatgen
data_Lu4Cu3Ru5
_symmetry_space_group_name_H-M   'P 1'
_cell_length_a   5.23433788
_cell_length_b   5.10627665
_cell_length_c   8.71403900
_cell_angle_alpha   90.00000000
_cell_angle_beta   90.00000000
_cell_angle_gamma   119.19394372
_symmetry_Int_Tables_number   1
_chemical_formula_structural   Lu4Cu3Ru5
_chemical_formula_sum   'Lu4 Cu3 Ru5'
_cell_volume   203.32310045
_cell_formula_units_Z   1
loop_
 _symmetry_equiv_pos_site_id
 _symmetry_equiv_pos_as_xyz
  1  'x, y, z'
loop_
 _atom_site_type_symbol
 _atom_site_label
 _atom_site_symmetry_multiplicity
 _atom_site_fract_x
 _atom_site_fract_y
 _atom_site_fract_z
 _atom_site_occupancy
  Lu  Lu0  1  0.319746  0.659874  0.435896  1
  Lu  Lu1  1  0.660047  0.330023  0.563479  1
  Lu  Lu2  1  0.660047  0.330023  0.936521  1
  Lu  Lu3  1  0.319746  0.659874  0.064104  1
  Cu  Cu4  1  0.202112  0.355972  0.750000  1
  Cu  Cu5  1  0.202112  0.846140  0.750000  1
  Cu  Cu6  1  0.325472  0.162736  0.250000  1
  Ru  Ru7  1  0.825284  0.655660  0.250000  1
  Ru  Ru8  1  0.703783  0.851892  0.750000  1
  Ru  Ru9  1  0.978182  0.989092  0.997624  1
  Ru  Ru10  1  0.825284  0.169625  0.250000  1
  Ru  Ru11  1  0.978182  0.989092  0.502376  1
