# generated using pymatgen
data_Dy3YAl18RePd5
_symmetry_space_group_name_H-M   'P 1'
_cell_length_a   7.64742324
_cell_length_b   7.64777340
_cell_length_c   9.51508503
_cell_angle_alpha   90.16257556
_cell_angle_beta   90.15202861
_cell_angle_gamma   119.83185492
_symmetry_Int_Tables_number   1
_chemical_formula_structural   Dy3YAl18RePd5
_chemical_formula_sum   'Dy3 Y1 Al18 Re1 Pd5'
_cell_volume   482.74777359
_cell_formula_units_Z   1
loop_
 _symmetry_equiv_pos_site_id
 _symmetry_equiv_pos_as_xyz
  1  'x, y, z'
loop_
 _atom_site_type_symbol
 _atom_site_label
 _atom_site_symmetry_multiplicity
 _atom_site_fract_x
 _atom_site_fract_y
 _atom_site_fract_z
 _atom_site_occupancy
  Dy  Dy0  1  0.993053  0.666180  0.247868  1
  Dy  Dy1  1  0.002742  0.330074  0.751735  1
  Dy  Dy2  1  0.670047  0.997257  0.248301  1
  Y  Y3  1  0.333517  0.006667  0.751986  1
  Al  Al4  1  0.127586  0.129358  0.249822  1
  Al  Al5  1  0.870610  0.872478  0.750261  1
  Al  Al6  1  0.998993  0.333508  0.074512  1
  Al  Al7  1  0.995859  0.660332  0.924985  1
  Al  Al8  1  0.000112  0.668152  0.577894  1
  Al  Al9  1  0.331957  0.999920  0.421726  1
  Al  Al10  1  0.000970  0.334760  0.423769  1
  Al  Al11  1  0.665542  0.999170  0.576072  1
  Al  Al12  1  0.666456  0.000177  0.925579  1
  Al  Al13  1  0.339070  0.003534  0.075473  1
  Al  Al14  1  0.333484  0.335355  0.559505  1
  Al  Al15  1  0.664994  0.666649  0.440332  1
  Al  Al16  1  0.667798  0.661184  0.053312  1
  Al  Al17  1  0.338318  0.332084  0.946904  1
  Al  Al18  1  0.337119  0.546750  0.249672  1
  Al  Al19  1  0.661466  0.455197  0.752759  1
  Al  Al20  1  0.545298  0.338908  0.246761  1
  Al  Al21  1  0.453268  0.662720  0.750389  1
  Re  Re22  1  0.674020  0.327028  0.000229  1
  Pd  Pd23  1  0.327987  0.671810  0.999782  1
  Pd  Pd24  1  0.327379  0.673406  0.500196  1
  Pd  Pd25  1  0.670940  0.328271  0.500100  1
  Pd  Pd26  1  0.001489  0.998444  0.999942  1
  Pd  Pd27  1  0.999923  0.000627  0.500134  1
