# generated using pymatgen
data_Ca6NbOsO12
_symmetry_space_group_name_H-M   'P 1'
_cell_length_a   5.90127768
_cell_length_b   5.60963674
_cell_length_c   9.84694036
_cell_angle_alpha   55.30336212
_cell_angle_beta   90.03552582
_cell_angle_gamma   89.98403297
_symmetry_Int_Tables_number   1
_chemical_formula_structural   Ca6NbOsO12
_chemical_formula_sum   'Ca6 Nb1 Os1 O12'
_cell_volume   268.00780636
_cell_formula_units_Z   1
loop_
 _symmetry_equiv_pos_site_id
 _symmetry_equiv_pos_as_xyz
  1  'x, y, z'
loop_
 _atom_site_type_symbol
 _atom_site_label
 _atom_site_symmetry_multiplicity
 _atom_site_fract_x
 _atom_site_fract_y
 _atom_site_fract_z
 _atom_site_occupancy
  Ca  Ca0  1  0.054883  0.719591  0.766693  1
  Ca  Ca1  1  0.945117  0.280409  0.233307  1
  Ca  Ca2  1  0.563140  0.269186  0.753774  1
  Ca  Ca3  1  0.436860  0.730814  0.246226  1
  Ca  Ca4  1  0.500000  0.500000  0.000000  1
  Ca  Ca5  1  0.000000  0.500000  0.500000  1
  Nb  Nb6  1  0.000000  0.000000  0.000000  1
  Os  Os7  1  0.500000  0.000000  0.500000  1
  O  O8  1  0.449734  0.896894  0.718125  1
  O  O9  1  0.550266  0.103106  0.281875  1
  O  O10  1  0.939581  0.110322  0.767103  1
  O  O11  1  0.060419  0.889678  0.232897  1
  O  O12  1  0.770707  0.763790  0.571784  1
  O  O13  1  0.229293  0.236210  0.428216  1
  O  O14  1  0.282697  0.252880  0.922718  1
  O  O15  1  0.717303  0.747120  0.077282  1
  O  O16  1  0.326876  0.669677  0.552343  1
  O  O17  1  0.673124  0.330323  0.447657  1
  O  O18  1  0.816679  0.345713  0.945318  1
  O  O19  1  0.183321  0.654287  0.054682  1
