# generated using pymatgen
data_NaLu(BIr)4
_symmetry_space_group_name_H-M   'P 1'
_cell_length_a   7.13284095
_cell_length_b   6.15998337
_cell_length_c   5.44583747
_cell_angle_alpha   75.56483351
_cell_angle_beta   56.75613051
_cell_angle_gamma   47.67903955
_symmetry_Int_Tables_number   1
_chemical_formula_structural   NaLu(BIr)4
_chemical_formula_sum   'Na1 Lu1 B4 Ir4'
_cell_volume   145.16239405
_cell_formula_units_Z   1
loop_
 _symmetry_equiv_pos_site_id
 _symmetry_equiv_pos_as_xyz
  1  'x, y, z'
loop_
 _atom_site_type_symbol
 _atom_site_label
 _atom_site_symmetry_multiplicity
 _atom_site_fract_x
 _atom_site_fract_y
 _atom_site_fract_z
 _atom_site_occupancy
  Na  Na0  1  0.500000  0.500000  0.500000  1
  Lu  Lu1  1  0.750000  0.750000  0.750000  1
  B  B2  1  0.820465  0.179535  0.820465  1
  B  B3  1  0.071642  0.428358  0.071642  1
  B  B4  1  0.179535  0.820465  0.179535  1
  B  B5  1  0.428358  0.071642  0.428358  1
  Ir  Ir6  1  0.128092  0.128092  0.871908  1
  Ir  Ir7  1  0.378495  0.378495  0.121505  1
  Ir  Ir8  1  0.121505  0.121505  0.378495  1
  Ir  Ir9  1  0.871908  0.871908  0.128092  1
