# generated using pymatgen
data_Dy3CI3
_symmetry_space_group_name_H-M   'P 1'
_cell_length_a   3.90923300
_cell_length_b   8.71502208
_cell_length_c   11.87678499
_cell_angle_alpha   92.14807423
_cell_angle_beta   90.00000000
_cell_angle_gamma   90.00000000
_symmetry_Int_Tables_number   1
_chemical_formula_structural   Dy3CI3
_chemical_formula_sum   'Dy6 C2 I6'
_cell_volume   404.34646853
_cell_formula_units_Z   2
loop_
 _symmetry_equiv_pos_site_id
 _symmetry_equiv_pos_as_xyz
  1  'x, y, z'
loop_
 _atom_site_type_symbol
 _atom_site_label
 _atom_site_symmetry_multiplicity
 _atom_site_fract_x
 _atom_site_fract_y
 _atom_site_fract_z
 _atom_site_occupancy
  Dy  Dy0  1  0.250000  0.919022  0.599488  1
  Dy  Dy1  1  0.750000  0.080978  0.400512  1
  Dy  Dy2  1  0.250000  0.886783  0.186867  1
  Dy  Dy3  1  0.750000  0.113217  0.813133  1
  Dy  Dy4  1  0.250000  0.291351  0.615391  1
  Dy  Dy5  1  0.750000  0.708649  0.384609  1
  C  C6  1  0.250000  0.882928  0.386855  1
  C  C7  1  0.750000  0.117072  0.613145  1
  I  I8  1  0.250000  0.859765  0.873175  1
  I  I9  1  0.750000  0.140235  0.126825  1
  I  I10  1  0.250000  0.375198  0.871462  1
  I  I11  1  0.750000  0.624802  0.128538  1
  I  I12  1  0.250000  0.382187  0.367518  1
  I  I13  1  0.750000  0.617813  0.632482  1
