# generated using pymatgen
data_Tb6Er6AlCo4Sn
_symmetry_space_group_name_H-M   'P 1'
_cell_length_a   8.31189829
_cell_length_b   8.31189826
_cell_length_c   8.30103782
_cell_angle_alpha   112.12089403
_cell_angle_beta   109.26468789
_cell_angle_gamma   107.12326404
_symmetry_Int_Tables_number   1
_chemical_formula_structural   Tb6Er6AlCo4Sn
_chemical_formula_sum   'Tb6 Er6 Al1 Co4 Sn1'
_cell_volume   440.32555151
_cell_formula_units_Z   1
loop_
 _symmetry_equiv_pos_site_id
 _symmetry_equiv_pos_as_xyz
  1  'x, y, z'
loop_
 _atom_site_type_symbol
 _atom_site_label
 _atom_site_symmetry_multiplicity
 _atom_site_fract_x
 _atom_site_fract_y
 _atom_site_fract_z
 _atom_site_occupancy
  Tb  Tb0  1  0.437141  0.233747  0.201883  1
  Tb  Tb1  1  0.562859  0.766253  0.798117  1
  Tb  Tb2  1  0.031863  0.235257  0.798117  1
  Tb  Tb3  1  0.968137  0.764743  0.201883  1
  Tb  Tb4  1  0.180472  0.282548  0.463022  1
  Tb  Tb5  1  0.819528  0.717452  0.536978  1
  Er  Er6  1  0.180462  0.718577  0.899038  1
  Er  Er7  1  0.819538  0.281423  0.100962  1
  Er  Er8  1  0.323722  0.638632  0.312869  1
  Er  Er9  1  0.676278  0.361368  0.687131  1
  Er  Er10  1  0.325764  0.010854  0.687131  1
  Er  Er11  1  0.674236  0.989146  0.312869  1
  Al  Al12  1  0.000000  0.000000  0.000000  1
  Co  Co13  1  0.338877  0.998588  0.337463  1
  Co  Co14  1  0.661123  0.001412  0.662537  1
  Co  Co15  1  0.114358  0.614358  0.500000  1
  Co  Co16  1  0.885642  0.385642  0.500000  1
  Sn  Sn17  1  0.500000  0.500000  0.000000  1
