# generated using pymatgen
data_Pr3Sn2PdRh2Pb
_symmetry_space_group_name_H-M   'P 1'
_cell_length_a   7.82499937
_cell_length_b   7.77559904
_cell_length_c   4.03686300
_cell_angle_alpha   90.00000000
_cell_angle_beta   90.00000000
_cell_angle_gamma   120.14220965
_symmetry_Int_Tables_number   1
_chemical_formula_structural   Pr3Sn2PdRh2Pb
_chemical_formula_sum   'Pr3 Sn2 Pd1 Rh2 Pb1'
_cell_volume   212.40693028
_cell_formula_units_Z   1
loop_
 _symmetry_equiv_pos_site_id
 _symmetry_equiv_pos_as_xyz
  1  'x, y, z'
loop_
 _atom_site_type_symbol
 _atom_site_label
 _atom_site_symmetry_multiplicity
 _atom_site_fract_x
 _atom_site_fract_y
 _atom_site_fract_z
 _atom_site_occupancy
  Pr  Pr0  1  0.598081  0.009436  0.500000  1
  Pr  Pr1  1  0.413804  0.406417  0.500000  1
  Pr  Pr2  1  0.989619  0.585278  0.500000  1
  Sn  Sn3  1  0.745994  0.746337  0.000000  1
  Sn  Sn4  1  0.998853  0.253720  0.000000  1
  Pd  Pd5  1  0.335521  0.658139  0.000000  1
  Rh  Rh6  1  0.987127  0.000344  0.500000  1
  Rh  Rh7  1  0.676871  0.341165  0.000000  1
  Pb  Pb8  1  0.254130  0.999163  0.000000  1
