# generated using pymatgen
data_NdYTh2Al4(Ga7Ir3)2
_symmetry_space_group_name_H-M   'P 1'
_cell_length_a   7.61681900
_cell_length_b   7.62557879
_cell_length_c   9.51233900
_cell_angle_alpha   90.00000000
_cell_angle_beta   90.00000000
_cell_angle_gamma   119.50436264
_symmetry_Int_Tables_number   1
_chemical_formula_structural   NdYTh2Al4(Ga7Ir3)2
_chemical_formula_sum   'Nd1 Y1 Th2 Al4 Ga14 Ir6'
_cell_volume   480.85244931
_cell_formula_units_Z   1
loop_
 _symmetry_equiv_pos_site_id
 _symmetry_equiv_pos_as_xyz
  1  'x, y, z'
loop_
 _atom_site_type_symbol
 _atom_site_label
 _atom_site_symmetry_multiplicity
 _atom_site_fract_x
 _atom_site_fract_y
 _atom_site_fract_z
 _atom_site_occupancy
  Nd  Nd0  1  0.000346  0.329522  0.750000  1
  Y  Y1  1  0.328691  0.001082  0.750000  1
  Th  Th2  1  0.998476  0.671063  0.250000  1
  Th  Th3  1  0.671427  0.997888  0.250000  1
  Al  Al4  1  0.332374  0.331114  0.557645  1
  Al  Al5  1  0.663713  0.663539  0.453776  1
  Al  Al6  1  0.663713  0.663539  0.046224  1
  Al  Al7  1  0.332374  0.331114  0.942355  1
  Ga  Ga8  1  0.136251  0.134782  0.250000  1
  Ga  Ga9  1  0.873561  0.872923  0.750000  1
  Ga  Ga10  1  0.005459  0.335628  0.075800  1
  Ga  Ga11  1  0.000778  0.666670  0.916249  1
  Ga  Ga12  1  0.000778  0.666670  0.583751  1
  Ga  Ga13  1  0.335704  0.004742  0.426568  1
  Ga  Ga14  1  0.005459  0.335628  0.424200  1
  Ga  Ga15  1  0.662207  0.998854  0.583764  1
  Ga  Ga16  1  0.662207  0.998854  0.916236  1
  Ga  Ga17  1  0.335704  0.004742  0.073432  1
  Ga  Ga18  1  0.347918  0.545262  0.250000  1
  Ga  Ga19  1  0.650820  0.447293  0.750000  1
  Ga  Ga20  1  0.545241  0.346009  0.250000  1
  Ga  Ga21  1  0.448996  0.654582  0.750000  1
  Ir  Ir22  1  0.670849  0.331448  0.001764  1
  Ir  Ir23  1  0.331122  0.670727  0.001985  1
  Ir  Ir24  1  0.331122  0.670727  0.498015  1
  Ir  Ir25  1  0.670849  0.331448  0.498236  1
  Ir  Ir26  1  0.996929  0.997072  0.002875  1
  Ir  Ir27  1  0.996929  0.997072  0.497125  1
