# generated using pymatgen
data_AcSbPdO
_symmetry_space_group_name_H-M   'P 1'
_cell_length_a   4.46767900
_cell_length_b   4.46767900
_cell_length_c   8.87940100
_cell_angle_alpha   89.99997427
_cell_angle_beta   89.99997427
_cell_angle_gamma   90.00000000
_symmetry_Int_Tables_number   1
_chemical_formula_structural   AcSbPdO
_chemical_formula_sum   'Ac2 Sb2 Pd2 O2'
_cell_volume   177.23422601
_cell_formula_units_Z   2
loop_
 _symmetry_equiv_pos_site_id
 _symmetry_equiv_pos_as_xyz
  1  'x, y, z'
loop_
 _atom_site_type_symbol
 _atom_site_label
 _atom_site_symmetry_multiplicity
 _atom_site_fract_x
 _atom_site_fract_y
 _atom_site_fract_z
 _atom_site_occupancy
  Ac  Ac0  1  0.249992  0.249992  0.132691  1
  Ac  Ac1  1  0.749993  0.749993  0.867309  1
  Sb  Sb2  1  0.749994  0.749994  0.339169  1
  Sb  Sb3  1  0.249994  0.249994  0.660831  1
  Pd  Pd4  1  0.750028  0.250028  0.499999  1
  Pd  Pd5  1  0.250028  0.750028  0.499999  1
  O  O6  1  0.749992  0.249991  0.000001  1
  O  O7  1  0.249991  0.749992  0.000001  1
