# generated using pymatgen
data_Co6Si2Mo3Ir
_symmetry_space_group_name_H-M   'P 1'
_cell_length_a   4.75830400
_cell_length_b   4.75830338
_cell_length_c   7.37354700
_cell_angle_alpha   90.00000000
_cell_angle_beta   90.00000000
_cell_angle_gamma   119.99999043
_symmetry_Int_Tables_number   1
_chemical_formula_structural   Co6Si2Mo3Ir
_chemical_formula_sum   'Co6 Si2 Mo3 Ir1'
_cell_volume   144.58107161
_cell_formula_units_Z   1
loop_
 _symmetry_equiv_pos_site_id
 _symmetry_equiv_pos_as_xyz
  1  'x, y, z'
loop_
 _atom_site_type_symbol
 _atom_site_label
 _atom_site_symmetry_multiplicity
 _atom_site_fract_x
 _atom_site_fract_y
 _atom_site_fract_z
 _atom_site_occupancy
  Co  Co0  1  0.829553  0.170447  0.248693  1
  Co  Co1  1  0.829553  0.659105  0.248693  1
  Co  Co2  1  0.340895  0.170447  0.248693  1
  Co  Co3  1  0.172358  0.827642  0.750407  1
  Co  Co4  1  0.172358  0.344715  0.750407  1
  Co  Co5  1  0.655285  0.827642  0.750407  1
  Si  Si6  1  0.000000  0.000000  0.500237  1
  Si  Si7  1  0.000000  0.000000  0.997051  1
  Mo  Mo8  1  0.666667  0.333333  0.568643  1
  Mo  Mo9  1  0.666667  0.333333  0.929166  1
  Mo  Mo10  1  0.333333  0.666667  0.071221  1
  Ir  Ir11  1  0.333333  0.666667  0.436382  1
