# generated using pymatgen
data_Dy5In3O
_symmetry_space_group_name_H-M   'P 1'
_cell_length_a   9.15999579
_cell_length_b   9.15999478
_cell_length_c   9.15999500
_cell_angle_alpha   127.02960746
_cell_angle_beta   127.02961054
_cell_angle_gamma   78.20237962
_symmetry_Int_Tables_number   1
_chemical_formula_structural   Dy5In3O
_chemical_formula_sum   'Dy10 In6 O2'
_cell_volume   474.49394932
_cell_formula_units_Z   2
loop_
 _symmetry_equiv_pos_site_id
 _symmetry_equiv_pos_as_xyz
  1  'x, y, z'
loop_
 _atom_site_type_symbol
 _atom_site_label
 _atom_site_symmetry_multiplicity
 _atom_site_fract_x
 _atom_site_fract_y
 _atom_site_fract_z
 _atom_site_occupancy
  Dy  Dy0  1  0.502139  0.307944  0.500000  1
  Dy  Dy1  1  0.807944  0.002139  0.500000  1
  Dy  Dy2  1  0.002139  0.502139  0.194195  1
  Dy  Dy3  1  0.307944  0.807944  0.805805  1
  Dy  Dy4  1  0.500321  0.694462  0.500000  1
  Dy  Dy5  1  0.194462  0.000321  0.500000  1
  Dy  Dy6  1  0.000321  0.500321  0.805858  1
  Dy  Dy7  1  0.694462  0.194462  0.194142  1
  Dy  Dy8  1  0.501299  0.501299  0.000000  1
  Dy  Dy9  1  0.001299  0.001299  0.000000  1
  In  In10  1  0.137465  0.365009  0.500000  1
  In  In11  1  0.865009  0.637465  0.500000  1
  In  In12  1  0.637465  0.137465  0.772455  1
  In  In13  1  0.365009  0.865009  0.227545  1
  In  In14  1  0.751378  0.751378  0.000000  1
  In  In15  1  0.251378  0.251378  0.000000  1
  O  O16  1  0.751401  0.251401  0.500000  1
  O  O17  1  0.251401  0.751401  0.500000  1
