# generated using pymatgen
data_Ba4Pr7YSe16
_symmetry_space_group_name_H-M   'P 1'
_cell_length_a   4.34828800
_cell_length_b   13.11542183
_cell_length_c   15.62932286
_cell_angle_alpha   90.24696001
_cell_angle_beta   90.00000000
_cell_angle_gamma   90.00000000
_symmetry_Int_Tables_number   1
_chemical_formula_structural   Ba4Pr7YSe16
_chemical_formula_sum   'Ba4 Pr7 Y1 Se16'
_cell_volume   891.32624104
_cell_formula_units_Z   1
loop_
 _symmetry_equiv_pos_site_id
 _symmetry_equiv_pos_as_xyz
  1  'x, y, z'
loop_
 _atom_site_type_symbol
 _atom_site_label
 _atom_site_symmetry_multiplicity
 _atom_site_fract_x
 _atom_site_fract_y
 _atom_site_fract_z
 _atom_site_occupancy
  Ba  Ba0  1  0.250000  0.241312  0.336424  1
  Ba  Ba1  1  0.250000  0.742410  0.162001  1
  Ba  Ba2  1  0.750000  0.759972  0.666641  1
  Ba  Ba3  1  0.750000  0.256657  0.837146  1
  Pr  Pr4  1  0.250000  0.079452  0.602203  1
  Pr  Pr5  1  0.250000  0.582736  0.899882  1
  Pr  Pr6  1  0.750000  0.919226  0.399277  1
  Pr  Pr7  1  0.750000  0.418669  0.100369  1
  Pr  Pr8  1  0.250000  0.569220  0.391613  1
  Pr  Pr9  1  0.250000  0.066934  0.106074  1
  Pr  Pr10  1  0.750000  0.431717  0.608645  1
  Y  Y11  1  0.750000  0.935928  0.889996  1
  Se  Se12  1  0.250000  0.081237  0.917862  1
  Se  Se13  1  0.250000  0.586114  0.580377  1
  Se  Se14  1  0.750000  0.913323  0.071935  1
  Se  Se15  1  0.750000  0.414352  0.420169  1
  Se  Se16  1  0.250000  0.293174  0.673990  1
  Se  Se17  1  0.250000  0.800025  0.833241  1
  Se  Se18  1  0.750000  0.706695  0.326020  1
  Se  Se19  1  0.750000  0.205214  0.172617  1
  Se  Se20  1  0.250000  0.369778  0.972034  1
  Se  Se21  1  0.250000  0.869028  0.527152  1
  Se  Se22  1  0.750000  0.629191  0.027980  1
  Se  Se23  1  0.750000  0.129698  0.474817  1
  Se  Se24  1  0.250000  0.475197  0.217197  1
  Se  Se25  1  0.250000  0.974800  0.281455  1
  Se  Se26  1  0.750000  0.526245  0.782980  1
  Se  Se27  1  0.750000  0.021695  0.719904  1
