# generated using pymatgen
data_P3(RuO6)2
_symmetry_space_group_name_H-M   'P 1'
_cell_length_a   8.43214152
_cell_length_b   8.42299936
_cell_length_c   8.81935067
_cell_angle_alpha   90.10202879
_cell_angle_beta   118.10069618
_cell_angle_gamma   119.84145424
_symmetry_Int_Tables_number   1
_chemical_formula_structural   P3(RuO6)2
_chemical_formula_sum   'P6 Ru4 O24'
_cell_volume   455.88271438
_cell_formula_units_Z   2
loop_
 _symmetry_equiv_pos_site_id
 _symmetry_equiv_pos_as_xyz
  1  'x, y, z'
loop_
 _atom_site_type_symbol
 _atom_site_label
 _atom_site_symmetry_multiplicity
 _atom_site_fract_x
 _atom_site_fract_y
 _atom_site_fract_z
 _atom_site_occupancy
  P  P0  1  0.996293  0.963235  0.246719  1
  P  P1  1  0.003707  0.036765  0.753281  1
  P  P2  1  0.713995  0.246795  0.255477  1
  P  P3  1  0.286005  0.753205  0.744523  1
  P  P4  1  0.282816  0.535218  0.252648  1
  P  P5  1  0.717184  0.464782  0.747352  1
  Ru  Ru6  1  0.215291  0.861587  0.074891  1
  Ru  Ru7  1  0.205200  0.356561  0.558510  1
  Ru  Ru8  1  0.794800  0.643439  0.441490  1
  Ru  Ru9  1  0.784709  0.138413  0.925109  1
  O  O10  1  0.137339  0.024214  0.941267  1
  O  O11  1  0.238505  0.525258  0.406271  1
  O  O12  1  0.862661  0.975786  0.058733  1
  O  O13  1  0.499634  0.101212  0.241998  1
  O  O14  1  0.869326  0.108142  0.760027  1
  O  O15  1  0.752221  0.447658  0.273576  1
  O  O16  1  0.164410  0.164052  0.391303  1
  O  O17  1  0.761495  0.474742  0.593729  1
  O  O18  1  0.699011  0.187356  0.082312  1
  O  O19  1  0.247779  0.552342  0.726424  1
  O  O20  1  0.109230  0.758351  0.576037  1
  O  O21  1  0.337495  0.732351  0.225843  1
  O  O22  1  0.474709  0.520608  0.300048  1
  O  O23  1  0.168307  0.182398  0.710184  1
  O  O24  1  0.130674  0.891858  0.239973  1
  O  O25  1  0.662505  0.267649  0.774157  1
  O  O26  1  0.500366  0.898788  0.758002  1
  O  O27  1  0.081921  0.372645  0.076018  1
  O  O28  1  0.890770  0.241649  0.423963  1
  O  O29  1  0.300989  0.812644  0.917688  1
  O  O30  1  0.835590  0.835948  0.608697  1
  O  O31  1  0.831693  0.817602  0.289816  1
  O  O32  1  0.918079  0.627355  0.923982  1
  O  O33  1  0.525291  0.479392  0.699952  1
