# generated using pymatgen
data_Th8Sc12Si15Pd
_symmetry_space_group_name_H-M   'P 1'
_cell_length_a   7.25001800
_cell_length_b   7.54688083
_cell_length_c   14.17079300
_cell_angle_alpha   90.00000000
_cell_angle_beta   90.00000000
_cell_angle_gamma   90.34375939
_symmetry_Int_Tables_number   1
_chemical_formula_structural   Th8Sc12Si15Pd
_chemical_formula_sum   'Th8 Sc12 Si15 Pd1'
_cell_volume   775.34129382
_cell_formula_units_Z   1
loop_
 _symmetry_equiv_pos_site_id
 _symmetry_equiv_pos_as_xyz
  1  'x, y, z'
loop_
 _atom_site_type_symbol
 _atom_site_label
 _atom_site_symmetry_multiplicity
 _atom_site_fract_x
 _atom_site_fract_y
 _atom_site_fract_z
 _atom_site_occupancy
  Th  Th0  1  0.006855  0.173531  0.095411  1
  Th  Th1  1  0.994814  0.823541  0.904333  1
  Th  Th2  1  0.494414  0.673878  0.904037  1
  Th  Th3  1  0.994814  0.823541  0.595667  1
  Th  Th4  1  0.505580  0.326337  0.096359  1
  Th  Th5  1  0.006855  0.173531  0.404589  1
  Th  Th6  1  0.505580  0.326337  0.403641  1
  Th  Th7  1  0.494414  0.673878  0.595963  1
  Sc  Sc8  1  0.159199  0.504373  0.750000  1
  Sc  Sc9  1  0.838342  0.497720  0.250000  1
  Sc  Sc10  1  0.338737  0.003640  0.250000  1
  Sc  Sc11  1  0.663905  0.000478  0.750000  1
  Sc  Sc12  1  0.331400  0.172512  0.625104  1
  Sc  Sc13  1  0.668102  0.826357  0.374120  1
  Sc  Sc14  1  0.167040  0.674597  0.374790  1
  Sc  Sc15  1  0.668102  0.826357  0.125880  1
  Sc  Sc16  1  0.829002  0.327651  0.624735  1
  Sc  Sc17  1  0.331400  0.172512  0.874896  1
  Sc  Sc18  1  0.829002  0.327651  0.875265  1
  Sc  Sc19  1  0.167040  0.674597  0.125210  1
  Si  Si20  1  0.966795  0.879061  0.250000  1
  Si  Si21  1  0.464109  0.621410  0.250000  1
  Si  Si22  1  0.532565  0.382221  0.750000  1
  Si  Si23  1  0.294734  0.872441  0.750000  1
  Si  Si24  1  0.709203  0.125735  0.250000  1
  Si  Si25  1  0.207976  0.377853  0.250000  1
  Si  Si26  1  0.789412  0.622857  0.750000  1
  Si  Si27  1  0.160729  0.464169  0.539955  1
  Si  Si28  1  0.839677  0.537413  0.460081  1
  Si  Si29  1  0.342020  0.963426  0.460326  1
  Si  Si30  1  0.839677  0.537413  0.039919  1
  Si  Si31  1  0.660340  0.036739  0.539104  1
  Si  Si32  1  0.160729  0.464169  0.960045  1
  Si  Si33  1  0.660340  0.036739  0.960896  1
  Si  Si34  1  0.342020  0.963426  0.039674  1
  Pd  Pd35  1  0.035076  0.111903  0.750000  1
