# generated using pymatgen
data_Ca2Mg3Pa2ZnRh4
_symmetry_space_group_name_H-M   'P 1'
_cell_length_a   3.82175600
_cell_length_b   7.47522071
_cell_length_c   8.87527165
_cell_angle_alpha   87.41295835
_cell_angle_beta   90.00000000
_cell_angle_gamma   90.00000000
_symmetry_Int_Tables_number   1
_chemical_formula_structural   Ca2Mg3Pa2ZnRh4
_chemical_formula_sum   'Ca2 Mg3 Pa2 Zn1 Rh4'
_cell_volume   253.29450799
_cell_formula_units_Z   1
loop_
 _symmetry_equiv_pos_site_id
 _symmetry_equiv_pos_as_xyz
  1  'x, y, z'
loop_
 _atom_site_type_symbol
 _atom_site_label
 _atom_site_symmetry_multiplicity
 _atom_site_fract_x
 _atom_site_fract_y
 _atom_site_fract_z
 _atom_site_occupancy
  Ca  Ca0  1  0.250000  0.538808  0.176868  1
  Ca  Ca1  1  0.750000  0.447107  0.828818  1
  Mg  Mg2  1  0.750000  0.867097  0.049951  1
  Mg  Mg3  1  0.250000  0.635832  0.560311  1
  Mg  Mg4  1  0.750000  0.364801  0.440304  1
  Pa  Pa5  1  0.250000  0.037472  0.310939  1
  Pa  Pa6  1  0.750000  0.969697  0.691307  1
  Zn  Zn7  1  0.250000  0.136031  0.945884  1
  Rh  Rh8  1  0.750000  0.218291  0.156571  1
  Rh  Rh9  1  0.250000  0.779980  0.838766  1
  Rh  Rh10  1  0.750000  0.793051  0.374529  1
  Rh  Rh11  1  0.250000  0.211833  0.625750  1
