# generated using pymatgen
data_La2PrIrI3
_symmetry_space_group_name_H-M   'P 1'
_cell_length_a   10.99391299
_cell_length_b   10.99391438
_cell_length_c   10.99391331
_cell_angle_alpha   108.77838711
_cell_angle_beta   108.77839235
_cell_angle_gamma   110.86594992
_symmetry_Int_Tables_number   1
_chemical_formula_structural   La2PrIrI3
_chemical_formula_sum   'La8 Pr4 Ir4 I12'
_cell_volume   1022.44858114
_cell_formula_units_Z   4
loop_
 _symmetry_equiv_pos_site_id
 _symmetry_equiv_pos_as_xyz
  1  'x, y, z'
loop_
 _atom_site_type_symbol
 _atom_site_label
 _atom_site_symmetry_multiplicity
 _atom_site_fract_x
 _atom_site_fract_y
 _atom_site_fract_z
 _atom_site_occupancy
  La  La0  1  0.455885  0.473934  0.232138  1
  La  La1  1  0.741796  0.223749  0.267862  1
  La  La2  1  0.758204  0.026066  0.481953  1
  La  La3  1  0.223749  0.455885  0.481953  1
  La  La4  1  0.276251  0.758204  0.232138  1
  La  La5  1  0.044115  0.276251  0.018047  1
  La  La6  1  0.026066  0.044115  0.267862  1
  La  La7  1  0.473934  0.741796  0.018047  1
  Pr  Pr8  1  0.478041  0.228041  0.456082  1
  Pr  Pr9  1  0.021959  0.478041  0.750000  1
  Pr  Pr10  1  0.271959  0.021959  0.043918  1
  Pr  Pr11  1  0.228041  0.271959  0.750000  1
  Ir  Ir12  1  0.248646  0.251354  0.250000  1
  Ir  Ir13  1  0.501354  0.998646  0.250000  1
  Ir  Ir14  1  0.998646  0.248646  0.497292  1
  Ir  Ir15  1  0.251354  0.501354  0.002708  1
  I  I16  1  0.249003  0.760245  0.742764  1
  I  I17  1  0.517480  0.506239  0.757236  1
  I  I18  1  0.982520  0.739755  0.988758  1
  I  I19  1  0.739755  0.250997  0.757236  1
  I  I20  1  0.993761  0.982520  0.742764  1
  I  I21  1  0.250997  0.993761  0.511242  1
  I  I22  1  0.760245  0.517480  0.511242  1
  I  I23  1  0.506239  0.249003  0.988758  1
  I  I24  1  0.757964  0.742036  0.250000  1
  I  I25  1  0.742036  0.992036  0.984074  1
  I  I26  1  0.992036  0.507964  0.250000  1
  I  I27  1  0.507964  0.757964  0.515926  1
