# generated using pymatgen
data_Lu12AlInCu4
_symmetry_space_group_name_H-M   'P 1'
_cell_length_a   8.30839388
_cell_length_b   8.30839448
_cell_length_c   8.30839500
_cell_angle_alpha   112.27087843
_cell_angle_beta   109.51065306
_cell_angle_gamma   106.68035004
_symmetry_Int_Tables_number   1
_chemical_formula_structural   Lu12AlInCu4
_chemical_formula_sum   'Lu12 Al1 In1 Cu4'
_cell_volume   440.44838787
_cell_formula_units_Z   1
loop_
 _symmetry_equiv_pos_site_id
 _symmetry_equiv_pos_as_xyz
  1  'x, y, z'
loop_
 _atom_site_type_symbol
 _atom_site_label
 _atom_site_symmetry_multiplicity
 _atom_site_fract_x
 _atom_site_fract_y
 _atom_site_fract_z
 _atom_site_occupancy
  Lu  Lu0  1  0.434467  0.235664  0.198803  1
  Lu  Lu1  1  0.565533  0.764336  0.801197  1
  Lu  Lu2  1  0.036861  0.235664  0.801197  1
  Lu  Lu3  1  0.963139  0.764336  0.198803  1
  Lu  Lu4  1  0.183415  0.277866  0.461281  1
  Lu  Lu5  1  0.816585  0.722134  0.538719  1
  Lu  Lu6  1  0.183415  0.722134  0.905552  1
  Lu  Lu7  1  0.816585  0.277866  0.094448  1
  Lu  Lu8  1  0.321801  0.622495  0.300695  1
  Lu  Lu9  1  0.678199  0.377505  0.699305  1
  Lu  Lu10  1  0.321801  0.021106  0.699305  1
  Lu  Lu11  1  0.678199  0.978894  0.300695  1
  Al  Al12  1  0.000000  0.000000  0.000000  1
  In  In13  1  0.500000  0.500000  0.000000  1
  Cu  Cu14  1  0.352791  0.000000  0.352791  1
  Cu  Cu15  1  0.647209  0.000000  0.647209  1
  Cu  Cu16  1  0.121002  0.621002  0.500000  1
  Cu  Cu17  1  0.878998  0.378998  0.500000  1
