# generated using pymatgen
data_Ca2CeTm(NiAs)4
_symmetry_space_group_name_H-M   'P 1'
_cell_length_a   4.06191100
_cell_length_b   4.06191115
_cell_length_c   16.00500300
_cell_angle_alpha   90.00000000
_cell_angle_beta   90.00000000
_cell_angle_gamma   120.00000691
_symmetry_Int_Tables_number   1
_chemical_formula_structural   Ca2CeTm(NiAs)4
_chemical_formula_sum   'Ca2 Ce1 Tm1 Ni4 As4'
_cell_volume   228.69000518
_cell_formula_units_Z   1
loop_
 _symmetry_equiv_pos_site_id
 _symmetry_equiv_pos_as_xyz
  1  'x, y, z'
loop_
 _atom_site_type_symbol
 _atom_site_label
 _atom_site_symmetry_multiplicity
 _atom_site_fract_x
 _atom_site_fract_y
 _atom_site_fract_z
 _atom_site_occupancy
  Ca  Ca0  1  0.000000  0.000000  0.248000  1
  Ca  Ca1  1  0.000000  0.000000  0.503294  1
  Ce  Ce2  1  0.000000  0.000000  0.996579  1
  Tm  Tm3  1  0.000000  0.000000  0.752591  1
  Ni  Ni4  1  0.333333  0.666667  0.116522  1
  Ni  Ni5  1  0.666667  0.333333  0.861082  1
  Ni  Ni6  1  0.666667  0.333333  0.647929  1
  Ni  Ni7  1  0.333333  0.666667  0.372565  1
  As  As8  1  0.333333  0.666667  0.632260  1
  As  As9  1  0.666667  0.333333  0.376677  1
  As  As10  1  0.666667  0.333333  0.115317  1
  As  As11  1  0.333333  0.666667  0.877185  1
