# generated using pymatgen
data_CsTb2Sm8(C2I9)2
_symmetry_space_group_name_H-M   'P 1'
_cell_length_a   11.57567392
_cell_length_b   11.61696385
_cell_length_c   11.68088361
_cell_angle_alpha   113.22387488
_cell_angle_beta   87.04561241
_cell_angle_gamma   119.68969791
_symmetry_Int_Tables_number   1
_chemical_formula_structural   CsTb2Sm8(C2I9)2
_chemical_formula_sum   'Cs1 Tb2 Sm8 C4 I18'
_cell_volume   1233.49514056
_cell_formula_units_Z   1
loop_
 _symmetry_equiv_pos_site_id
 _symmetry_equiv_pos_as_xyz
  1  'x, y, z'
loop_
 _atom_site_type_symbol
 _atom_site_label
 _atom_site_symmetry_multiplicity
 _atom_site_fract_x
 _atom_site_fract_y
 _atom_site_fract_z
 _atom_site_occupancy
  Cs  Cs0  1  0.499942  0.999611  0.499815  1
  Tb  Tb1  1  0.675587  0.723101  0.710377  1
  Tb  Tb2  1  0.275657  0.351828  0.017171  1
  Sm  Sm3  1  0.093900  0.396372  0.295191  1
  Sm  Sm4  1  0.965124  0.038540  0.324481  1
  Sm  Sm5  1  0.906838  0.603873  0.704763  1
  Sm  Sm6  1  0.106585  0.944072  0.000339  1
  Sm  Sm7  1  0.034729  0.961763  0.674852  1
  Sm  Sm8  1  0.327534  0.278225  0.292292  1
  Sm  Sm9  1  0.721651  0.645242  0.983618  1
  Sm  Sm10  1  0.893173  0.056103  0.999727  1
  C  C11  1  0.152721  0.221997  0.123479  1
  C  C12  1  0.846215  0.777569  0.875248  1
  C  C13  1  0.920285  0.852318  0.801098  1
  C  C14  1  0.078604  0.147419  0.197574  1
  I  I15  1  0.448338  0.530126  0.829625  1
  I  I16  1  0.385656  0.038363  0.158203  1
  I  I17  1  0.773016  0.853146  0.502047  1
  I  I18  1  0.835138  0.311022  0.153563  1
  I  I19  1  0.548636  0.469724  0.167162  1
  I  I20  1  0.225033  0.145218  0.499914  1
  I  I21  1  0.317792  0.099093  0.833428  1
  I  I22  1  0.682003  0.904770  0.168998  1
  I  I23  1  0.977599  0.756936  0.168831  1
  I  I24  1  0.931939  0.299500  0.503126  1
  I  I25  1  0.026285  0.245478  0.833403  1
  I  I26  1  0.068625  0.701064  0.496978  1
  I  I27  1  0.263469  0.621573  0.180759  1
  I  I28  1  0.737705  0.374362  0.815374  1
  I  I29  1  0.639149  0.435018  0.499516  1
  I  I30  1  0.164983  0.689074  0.846106  1
  I  I31  1  0.614948  0.957402  0.839322  1
  I  I32  1  0.361141  0.570097  0.503619  1
