# generated using pymatgen
data_YbSmNpO6
_symmetry_space_group_name_H-M   'P 1'
_cell_length_a   5.57402500
_cell_length_b   7.87801685
_cell_length_c   11.83788746
_cell_angle_alpha   74.10913522
_cell_angle_beta   90.00000000
_cell_angle_gamma   90.00000000
_symmetry_Int_Tables_number   1
_chemical_formula_structural   YbSmNpO6
_chemical_formula_sum   'Yb4 Sm4 Np4 O24'
_cell_volume   499.96317097
_cell_formula_units_Z   4
loop_
 _symmetry_equiv_pos_site_id
 _symmetry_equiv_pos_as_xyz
  1  'x, y, z'
loop_
 _atom_site_type_symbol
 _atom_site_label
 _atom_site_symmetry_multiplicity
 _atom_site_fract_x
 _atom_site_fract_y
 _atom_site_fract_z
 _atom_site_occupancy
  Yb  Yb0  1  0.186426  0.204963  0.420109  1
  Yb  Yb1  1  0.186426  0.795037  0.079891  1
  Yb  Yb2  1  0.813574  0.795037  0.579891  1
  Yb  Yb3  1  0.813574  0.204963  0.920109  1
  Sm  Sm4  1  0.689620  0.500000  0.250000  1
  Sm  Sm5  1  0.310380  0.500000  0.750000  1
  Sm  Sm6  1  0.744761  0.000000  0.250000  1
  Sm  Sm7  1  0.255239  0.000000  0.750000  1
  Np  Np8  1  0.252760  0.276287  0.112776  1
  Np  Np9  1  0.252760  0.723713  0.387224  1
  Np  Np10  1  0.747240  0.723713  0.887224  1
  Np  Np11  1  0.747240  0.276287  0.612776  1
  O  O12  1  0.447786  0.207145  0.268328  1
  O  O13  1  0.447786  0.792855  0.231672  1
  O  O14  1  0.552214  0.792855  0.731672  1
  O  O15  1  0.552214  0.207145  0.768328  1
  O  O16  1  0.053444  0.062463  0.104264  1
  O  O17  1  0.053444  0.937537  0.395736  1
  O  O18  1  0.946556  0.937537  0.895736  1
  O  O19  1  0.946556  0.062463  0.604264  1
  O  O20  1  0.968773  0.286712  0.228961  1
  O  O21  1  0.968773  0.713288  0.271039  1
  O  O22  1  0.031227  0.713288  0.771039  1
  O  O23  1  0.031227  0.286712  0.728961  1
  O  O24  1  0.864142  0.370487  0.447396  1
  O  O25  1  0.864142  0.629513  0.052604  1
  O  O26  1  0.135858  0.629513  0.552604  1
  O  O27  1  0.135858  0.370487  0.947396  1
  O  O28  1  0.623172  0.512917  0.611487  1
  O  O29  1  0.623172  0.487083  0.888513  1
  O  O30  1  0.376828  0.487083  0.388513  1
  O  O31  1  0.376828  0.512917  0.111487  1
  O  O32  1  0.461424  0.151123  0.567950  1
  O  O33  1  0.461424  0.848877  0.932050  1
  O  O34  1  0.538576  0.848877  0.432050  1
  O  O35  1  0.538576  0.151123  0.067950  1
