# generated using pymatgen
data_CsNiP2Ru
_symmetry_space_group_name_H-M   'P 1'
_cell_length_a   7.81931937
_cell_length_b   7.81931953
_cell_length_c   7.81931932
_cell_angle_alpha   151.58634552
_cell_angle_beta   151.58635288
_cell_angle_gamma   40.61768402
_symmetry_Int_Tables_number   1
_chemical_formula_structural   CsNiP2Ru
_chemical_formula_sum   'Cs1 Ni1 P2 Ru1'
_cell_volume   108.02481411
_cell_formula_units_Z   1
loop_
 _symmetry_equiv_pos_site_id
 _symmetry_equiv_pos_as_xyz
  1  'x, y, z'
loop_
 _atom_site_type_symbol
 _atom_site_label
 _atom_site_symmetry_multiplicity
 _atom_site_fract_x
 _atom_site_fract_y
 _atom_site_fract_z
 _atom_site_occupancy
  Cs  Cs0  1  0.000000  0.000000  0.000000  1
  Ni  Ni1  1  0.750000  0.250000  0.500000  1
  P  P2  1  0.336014  0.336014  0.000000  1
  P  P3  1  0.663986  0.663986  0.000000  1
  Ru  Ru4  1  0.250000  0.750000  0.500000  1
