# generated using pymatgen
data_Tb5HoCo17ReP12
_symmetry_space_group_name_H-M   'P 1'
_cell_length_a   3.71110100
_cell_length_b   10.53273201
_cell_length_c   12.23370901
_cell_angle_alpha   89.99562060
_cell_angle_beta   90.00000000
_cell_angle_gamma   90.00000000
_symmetry_Int_Tables_number   1
_chemical_formula_structural   Tb5HoCo17ReP12
_chemical_formula_sum   'Tb5 Ho1 Co17 Re1 P12'
_cell_volume   478.19161133
_cell_formula_units_Z   1
loop_
 _symmetry_equiv_pos_site_id
 _symmetry_equiv_pos_as_xyz
  1  'x, y, z'
loop_
 _atom_site_type_symbol
 _atom_site_label
 _atom_site_symmetry_multiplicity
 _atom_site_fract_x
 _atom_site_fract_y
 _atom_site_fract_z
 _atom_site_occupancy
  Tb  Tb0  1  0.000000  0.499987  0.523798  1
  Tb  Tb1  1  0.500000  0.999992  0.478234  1
  Tb  Tb2  1  0.500000  0.182158  0.206828  1
  Tb  Tb3  1  0.000000  0.683001  0.795097  1
  Tb  Tb4  1  0.000000  0.316998  0.795108  1
  Ho  Ho5  1  0.500000  0.817706  0.206825  1
  Co  Co6  1  0.000000  0.999989  0.840222  1
  Co  Co7  1  0.500000  0.500014  0.702753  1
  Co  Co8  1  0.000000  0.999592  0.296226  1
  Co  Co9  1  0.000000  0.500055  0.988128  1
  Co  Co10  1  0.500000  0.999846  0.014767  1
  Co  Co11  1  0.500000  0.332383  0.991438  1
  Co  Co12  1  0.500000  0.667745  0.991559  1
  Co  Co13  1  0.000000  0.166389  0.005618  1
  Co  Co14  1  0.000000  0.833541  0.005850  1
  Co  Co15  1  0.500000  0.296647  0.430508  1
  Co  Co16  1  0.500000  0.703423  0.430320  1
  Co  Co17  1  0.000000  0.203298  0.569149  1
  Co  Co18  1  0.000000  0.796685  0.569104  1
  Co  Co19  1  0.500000  0.879409  0.709089  1
  Co  Co20  1  0.500000  0.120584  0.709104  1
  Co  Co21  1  0.000000  0.620663  0.290806  1
  Co  Co22  1  0.000000  0.379722  0.290971  1
  Re  Re23  1  0.500000  0.500085  0.156585  1
  P  P24  1  0.500000  0.500006  0.881214  1
  P  P25  1  0.000000  0.999632  0.117134  1
  P  P26  1  0.500000  0.499952  0.348847  1
  P  P27  1  0.000000  0.000005  0.656578  1
  P  P28  1  0.500000  0.310465  0.616081  1
  P  P29  1  0.500000  0.689554  0.616076  1
  P  P30  1  0.000000  0.189059  0.384727  1
  P  P31  1  0.000000  0.811019  0.384261  1
  P  P32  1  0.500000  0.849927  0.892179  1
  P  P33  1  0.500000  0.150081  0.892235  1
  P  P34  1  0.000000  0.656268  0.106437  1
  P  P35  1  0.000000  0.344122  0.106147  1
