# generated using pymatgen
data_TbSc5H18
_symmetry_space_group_name_H-M   'P 1'
_cell_length_a   5.90081700
_cell_length_b   5.94240424
_cell_length_c   6.17145556
_cell_angle_alpha   89.81476351
_cell_angle_beta   90.00000000
_cell_angle_gamma   119.76876958
_symmetry_Int_Tables_number   1
_chemical_formula_structural   TbSc5H18
_chemical_formula_sum   'Tb1 Sc5 H18'
_cell_volume   187.84376085
_cell_formula_units_Z   1
loop_
 _symmetry_equiv_pos_site_id
 _symmetry_equiv_pos_as_xyz
  1  'x, y, z'
loop_
 _atom_site_type_symbol
 _atom_site_label
 _atom_site_symmetry_multiplicity
 _atom_site_fract_x
 _atom_site_fract_y
 _atom_site_fract_z
 _atom_site_occupancy
  Tb  Tb0  1  0.335957  0.000000  0.250000  1
  Sc  Sc1  1  0.994378  0.654128  0.750765  1
  Sc  Sc2  1  0.340249  0.345872  0.749235  1
  Sc  Sc3  1  0.659224  0.000000  0.750000  1
  Sc  Sc4  1  0.673168  0.670704  0.250548  1
  Sc  Sc5  1  0.002464  0.329296  0.249452  1
  H  H6  1  0.667092  0.624438  0.589808  1
  H  H7  1  0.382905  0.054264  0.601168  1
  H  H8  1  0.956840  0.329642  0.590350  1
  H  H9  1  0.332669  0.670199  0.671934  1
  H  H10  1  0.002628  0.000000  0.750000  1
  H  H11  1  0.662471  0.329801  0.828066  1
  H  H12  1  0.042654  0.375562  0.910192  1
  H  H13  1  0.627198  0.670358  0.909650  1
  H  H14  1  0.328641  0.945736  0.898832  1
  H  H15  1  0.700382  0.023043  0.085439  1
  H  H16  1  0.324783  0.316934  0.082226  1
  H  H17  1  0.971774  0.667741  0.085955  1
  H  H18  1  0.333877  0.649413  0.210885  1
  H  H19  1  0.986961  0.000000  0.250000  1
  H  H20  1  0.684464  0.350587  0.289115  1
  H  H21  1  0.007850  0.683066  0.417774  1
  H  H22  1  0.677339  0.976957  0.414561  1
  H  H23  1  0.304033  0.332259  0.414045  1
