# generated using pymatgen
data_CsDyMnS3
_symmetry_space_group_name_H-M   'P 1'
_cell_length_a   8.05671392
_cell_length_b   8.05671351
_cell_length_c   10.68736800
_cell_angle_alpha   90.00000000
_cell_angle_beta   90.00000000
_cell_angle_gamma   150.58716114
_symmetry_Int_Tables_number   1
_chemical_formula_structural   CsDyMnS3
_chemical_formula_sum   'Cs2 Dy2 Mn2 S6'
_cell_volume   340.68706496
_cell_formula_units_Z   2
loop_
 _symmetry_equiv_pos_site_id
 _symmetry_equiv_pos_as_xyz
  1  'x, y, z'
loop_
 _atom_site_type_symbol
 _atom_site_label
 _atom_site_symmetry_multiplicity
 _atom_site_fract_x
 _atom_site_fract_y
 _atom_site_fract_z
 _atom_site_occupancy
  Cs  Cs0  1  0.259103  0.740897  0.250000  1
  Cs  Cs1  1  0.740897  0.259103  0.750000  1
  Dy  Dy2  1  0.000000  0.000000  0.000000  1
  Dy  Dy3  1  0.000000  0.000000  0.500000  1
  Mn  Mn4  1  0.536969  0.463031  0.250000  1
  Mn  Mn5  1  0.463031  0.536969  0.750000  1
  S  S6  1  0.612482  0.387518  0.060257  1
  S  S7  1  0.387518  0.612482  0.939743  1
  S  S8  1  0.387518  0.612482  0.560257  1
  S  S9  1  0.612482  0.387518  0.439743  1
  S  S10  1  0.949581  0.050419  0.250000  1
  S  S11  1  0.050419  0.949581  0.750000  1
