# generated using pymatgen
data_NaSr21Al7Tl6Ga
_symmetry_space_group_name_H-M   'P 1'
_cell_length_a   12.38380804
_cell_length_b   12.38380876
_cell_length_c   12.38380731
_cell_angle_alpha   59.84204709
_cell_angle_beta   59.84204223
_cell_angle_gamma   59.84203996
_symmetry_Int_Tables_number   1
_chemical_formula_structural   NaSr21Al7Tl6Ga
_chemical_formula_sum   'Na1 Sr21 Al7 Tl6 Ga1'
_cell_volume   1338.09815316
_cell_formula_units_Z   1
loop_
 _symmetry_equiv_pos_site_id
 _symmetry_equiv_pos_as_xyz
  1  'x, y, z'
loop_
 _atom_site_type_symbol
 _atom_site_label
 _atom_site_symmetry_multiplicity
 _atom_site_fract_x
 _atom_site_fract_y
 _atom_site_fract_z
 _atom_site_occupancy
  Na  Na0  1  0.499888  0.499888  0.499888  1
  Sr  Sr1  1  0.868654  0.868654  0.394177  1
  Sr  Sr2  1  0.604478  0.132244  0.132244  1
  Sr  Sr3  1  0.868654  0.394177  0.868654  1
  Sr  Sr4  1  0.131536  0.131536  0.131536  1
  Sr  Sr5  1  0.394177  0.868654  0.868654  1
  Sr  Sr6  1  0.868659  0.868659  0.868659  1
  Sr  Sr7  1  0.166994  0.832943  0.500029  1
  Sr  Sr8  1  0.832177  0.500333  0.500333  1
  Sr  Sr9  1  0.132244  0.132244  0.604478  1
  Sr  Sr10  1  0.832943  0.166994  0.500029  1
  Sr  Sr11  1  0.167257  0.498638  0.498638  1
  Sr  Sr12  1  0.132244  0.604478  0.132244  1
  Sr  Sr13  1  0.498638  0.498638  0.167257  1
  Sr  Sr14  1  0.500029  0.166994  0.832943  1
  Sr  Sr15  1  0.500029  0.832943  0.166994  1
  Sr  Sr16  1  0.500333  0.500333  0.832177  1
  Sr  Sr17  1  0.498638  0.167257  0.498638  1
  Sr  Sr18  1  0.166994  0.500029  0.832943  1
  Sr  Sr19  1  0.999846  0.999846  0.999846  1
  Sr  Sr20  1  0.500333  0.832177  0.500333  1
  Sr  Sr21  1  0.832943  0.500029  0.166994  1
  Al  Al22  1  0.694367  0.916417  0.694367  1
  Al  Al23  1  0.694367  0.694367  0.916417  1
  Al  Al24  1  0.694518  0.694518  0.694518  1
  Al  Al25  1  0.305601  0.084512  0.305601  1
  Al  Al26  1  0.916417  0.694367  0.694367  1
  Al  Al27  1  0.305601  0.305601  0.084512  1
  Al  Al28  1  0.084512  0.305601  0.305601  1
  Tl  Tl29  1  0.783354  0.216813  0.783354  1
  Tl  Tl30  1  0.782742  0.217019  0.217019  1
  Tl  Tl31  1  0.217019  0.782742  0.217019  1
  Tl  Tl32  1  0.216813  0.783354  0.783354  1
  Tl  Tl33  1  0.783354  0.783354  0.216813  1
  Tl  Tl34  1  0.217019  0.217019  0.782742  1
  Ga  Ga35  1  0.306626  0.306626  0.306626  1
