# generated using pymatgen
data_Na3LiF12
_symmetry_space_group_name_H-M   'P 1'
_cell_length_a   5.93327994
_cell_length_b   4.97265631
_cell_length_c   7.08197666
_cell_angle_alpha   90.21224915
_cell_angle_beta   89.96682427
_cell_angle_gamma   90.39965850
_symmetry_Int_Tables_number   1
_chemical_formula_structural   Na3LiF12
_chemical_formula_sum   'Na3 Li1 F12'
_cell_volume   208.94123745
_cell_formula_units_Z   1
loop_
 _symmetry_equiv_pos_site_id
 _symmetry_equiv_pos_as_xyz
  1  'x, y, z'
loop_
 _atom_site_type_symbol
 _atom_site_label
 _atom_site_symmetry_multiplicity
 _atom_site_fract_x
 _atom_site_fract_y
 _atom_site_fract_z
 _atom_site_occupancy
  Na  Na0  1  0.252217  0.252621  0.365909  1
  Na  Na1  1  0.252225  0.254114  0.883954  1
  Na  Na2  1  0.751783  0.756754  0.625183  1
  Li  Li3  1  0.737542  0.743274  0.125228  1
  F  F4  1  0.053590  0.007255  0.124002  1
  F  F5  1  0.427831  0.471047  0.625241  1
  F  F6  1  0.587263  0.958025  0.898980  1
  F  F7  1  0.910628  0.538014  0.354045  1
  F  F8  1  0.587929  0.958565  0.352491  1
  F  F9  1  0.909809  0.537445  0.894535  1
  F  F10  1  0.083317  0.028304  0.624767  1
  F  F11  1  0.442420  0.495418  0.125837  1
  F  F12  1  0.246098  0.753144  0.124948  1
  F  F13  1  0.255084  0.749497  0.625024  1
  F  F14  1  0.749660  0.247986  0.892180  1
  F  F15  1  0.750180  0.248540  0.357676  1
