# generated using pymatgen
data_Cs3TbBr6
_symmetry_space_group_name_H-M   'P 1'
_cell_length_a   10.01045000
_cell_length_b   10.01045000
_cell_length_c   8.33621000
_cell_angle_alpha   90.00000000
_cell_angle_beta   90.00000000
_cell_angle_gamma   90.00000000
_symmetry_Int_Tables_number   1
_chemical_formula_structural   Cs3TbBr6
_chemical_formula_sum   'Cs6 Tb2 Br12'
_cell_volume   835.36417822
_cell_formula_units_Z   2
loop_
 _symmetry_equiv_pos_site_id
 _symmetry_equiv_pos_as_xyz
  1  'x, y, z'
loop_
 _atom_site_type_symbol
 _atom_site_label
 _atom_site_symmetry_multiplicity
 _atom_site_fract_x
 _atom_site_fract_y
 _atom_site_fract_z
 _atom_site_occupancy
  Cs  Cs0  1  0.000000  0.000000  0.500000  1
  Cs  Cs1  1  0.000000  0.000000  0.000000  1
  Cs  Cs2  1  0.234773  0.585758  0.500000  1
  Cs  Cs3  1  0.765227  0.414242  0.500000  1
  Cs  Cs4  1  0.414242  0.234773  0.000000  1
  Cs  Cs5  1  0.585758  0.765227  0.000000  1
  Tb  Tb6  1  0.500000  0.000000  0.500000  1
  Tb  Tb7  1  0.000000  0.500000  0.000000  1
  Br  Br8  1  0.692316  0.058684  0.741116  1
  Br  Br9  1  0.307684  0.941316  0.741116  1
  Br  Br10  1  0.941316  0.692316  0.241116  1
  Br  Br11  1  0.058684  0.307684  0.241116  1
  Br  Br12  1  0.307684  0.941316  0.258884  1
  Br  Br13  1  0.692316  0.058684  0.258884  1
  Br  Br14  1  0.058684  0.307684  0.758884  1
  Br  Br15  1  0.941316  0.692316  0.758884  1
  Br  Br16  1  0.570583  0.728605  0.500000  1
  Br  Br17  1  0.429417  0.271395  0.500000  1
  Br  Br18  1  0.271395  0.570583  0.000000  1
  Br  Br19  1  0.728605  0.429417  0.000000  1
