# generated using pymatgen
data_LaTm2(NiRh2)3
_symmetry_space_group_name_H-M   'P 1'
_cell_length_a   5.30536078
_cell_length_b   5.30536027
_cell_length_c   8.76693549
_cell_angle_alpha   72.38749297
_cell_angle_beta   72.38749565
_cell_angle_gamma   60.00000115
_symmetry_Int_Tables_number   1
_chemical_formula_structural   LaTm2(NiRh2)3
_chemical_formula_sum   'La1 Tm2 Ni3 Rh6'
_cell_volume   200.23403393
_cell_formula_units_Z   1
loop_
 _symmetry_equiv_pos_site_id
 _symmetry_equiv_pos_as_xyz
  1  'x, y, z'
loop_
 _atom_site_type_symbol
 _atom_site_label
 _atom_site_symmetry_multiplicity
 _atom_site_fract_x
 _atom_site_fract_y
 _atom_site_fract_z
 _atom_site_occupancy
  La  La0  1  0.000000  0.000000  0.000000  1
  Tm  Tm1  1  0.141160  0.141160  0.576520  1
  Tm  Tm2  1  0.858840  0.858840  0.423480  1
  Ni  Ni3  1  0.332915  0.332915  0.001254  1
  Ni  Ni4  1  0.667085  0.667085  0.998746  1
  Ni  Ni5  1  0.500000  0.500000  0.500000  1
  Rh  Rh6  1  0.081917  0.584494  0.749095  1
  Rh  Rh7  1  0.584494  0.584494  0.749095  1
  Rh  Rh8  1  0.584494  0.081917  0.749095  1
  Rh  Rh9  1  0.918083  0.415506  0.250905  1
  Rh  Rh10  1  0.415506  0.415506  0.250905  1
  Rh  Rh11  1  0.415506  0.918083  0.250905  1
