# generated using pymatgen
data_Y3(GaCo2)4
_symmetry_space_group_name_H-M   'P 1'
_cell_length_a   8.52895601
_cell_length_b   8.52838023
_cell_length_c   7.24346300
_cell_angle_alpha   89.99999833
_cell_angle_beta   90.00320623
_cell_angle_gamma   119.99776207
_symmetry_Int_Tables_number   1
_chemical_formula_structural   Y3(GaCo2)4
_chemical_formula_sum   'Y6 Ga8 Co16'
_cell_volume   456.29856146
_cell_formula_units_Z   2
loop_
 _symmetry_equiv_pos_site_id
 _symmetry_equiv_pos_as_xyz
  1  'x, y, z'
loop_
 _atom_site_type_symbol
 _atom_site_label
 _atom_site_symmetry_multiplicity
 _atom_site_fract_x
 _atom_site_fract_y
 _atom_site_fract_z
 _atom_site_occupancy
  Y  Y0  1  0.525711  0.474285  0.000100  1
  Y  Y1  1  0.474361  0.525635  0.500383  1
  Y  Y2  1  0.948516  0.474258  0.000360  1
  Y  Y3  1  0.525711  0.051427  0.000100  1
  Y  Y4  1  0.474361  0.948725  0.500383  1
  Y  Y5  1  0.051308  0.525654  0.500150  1
  Ga  Ga6  1  0.169622  0.830450  0.791830  1
  Ga  Ga7  1  0.339246  0.169623  0.291859  1
  Ga  Ga8  1  0.830419  0.660798  0.291778  1
  Ga  Ga9  1  0.169622  0.339171  0.791830  1
  Ga  Ga10  1  0.660873  0.830436  0.791696  1
  Ga  Ga11  1  0.830419  0.169622  0.291778  1
  Ga  Ga12  1  0.333200  0.666600  0.175548  1
  Ga  Ga13  1  0.666566  0.333282  0.675684  1
  Co  Co14  1  0.101555  0.203011  0.472049  1
  Co  Co15  1  0.999934  0.999967  0.219131  1
  Co  Co16  1  0.000117  0.000058  0.719105  1
  Co  Co17  1  0.666774  0.333387  0.333635  1
  Co  Co18  1  0.333508  0.666755  0.833554  1
  Co  Co19  1  0.898443  0.101715  0.971973  1
  Co  Co20  1  0.162874  0.837198  0.163038  1
  Co  Co21  1  0.325627  0.162813  0.663095  1
  Co  Co22  1  0.837193  0.674289  0.662880  1
  Co  Co23  1  0.162874  0.325677  0.163038  1
  Co  Co24  1  0.674322  0.837162  0.162940  1
  Co  Co25  1  0.837193  0.162904  0.662880  1
  Co  Co26  1  0.101555  0.898543  0.472049  1
  Co  Co27  1  0.202888  0.101445  0.971905  1
  Co  Co28  1  0.898443  0.796730  0.971973  1
  Co  Co29  1  0.796763  0.898381  0.471881  1
