# generated using pymatgen
data_Ho9Lu(GePb3)2
_symmetry_space_group_name_H-M   'P 1'
_cell_length_a   9.28884500
_cell_length_b   9.28884461
_cell_length_c   6.51271900
_cell_angle_alpha   90.00000000
_cell_angle_beta   90.00000000
_cell_angle_gamma   120.00000496
_symmetry_Int_Tables_number   1
_chemical_formula_structural   Ho9Lu(GePb3)2
_chemical_formula_sum   'Ho9 Lu1 Ge2 Pb6'
_cell_volume   486.64959246
_cell_formula_units_Z   1
loop_
 _symmetry_equiv_pos_site_id
 _symmetry_equiv_pos_as_xyz
  1  'x, y, z'
loop_
 _atom_site_type_symbol
 _atom_site_label
 _atom_site_symmetry_multiplicity
 _atom_site_fract_x
 _atom_site_fract_y
 _atom_site_fract_z
 _atom_site_occupancy
  Ho  Ho0  1  0.251663  0.999813  0.749685  1
  Ho  Ho1  1  0.748149  0.999813  0.250315  1
  Ho  Ho2  1  0.000187  0.251851  0.749685  1
  Ho  Ho3  1  0.000187  0.748337  0.250315  1
  Ho  Ho4  1  0.748149  0.748337  0.749685  1
  Ho  Ho5  1  0.251663  0.251851  0.250315  1
  Ho  Ho6  1  0.333333  0.666667  0.500000  1
  Ho  Ho7  1  0.666667  0.333333  0.500000  1
  Ho  Ho8  1  0.666667  0.333333  0.000000  1
  Lu  Lu9  1  0.333333  0.666667  0.000000  1
  Ge  Ge10  1  0.000000  0.000000  0.500000  1
  Ge  Ge11  1  0.000000  0.000000  0.000000  1
  Pb  Pb12  1  0.606292  0.999330  0.750217  1
  Pb  Pb13  1  0.393038  0.999330  0.249783  1
  Pb  Pb14  1  0.000670  0.606962  0.750217  1
  Pb  Pb15  1  0.000670  0.393708  0.249783  1
  Pb  Pb16  1  0.393038  0.393708  0.750217  1
  Pb  Pb17  1  0.606292  0.606962  0.249783  1
