# generated using pymatgen
data_Gd3Tc5
_symmetry_space_group_name_H-M   'P 1'
_cell_length_a   4.81415000
_cell_length_b   6.35384496
_cell_length_c   6.35223966
_cell_angle_alpha   120.08254274
_cell_angle_beta   90.00000000
_cell_angle_gamma   90.00000000
_symmetry_Int_Tables_number   1
_chemical_formula_structural   Gd3Tc5
_chemical_formula_sum   'Gd3 Tc5'
_cell_volume   168.13259266
_cell_formula_units_Z   1
loop_
 _symmetry_equiv_pos_site_id
 _symmetry_equiv_pos_as_xyz
  1  'x, y, z'
loop_
 _atom_site_type_symbol
 _atom_site_label
 _atom_site_symmetry_multiplicity
 _atom_site_fract_x
 _atom_site_fract_y
 _atom_site_fract_z
 _atom_site_occupancy
  Gd  Gd0  1  0.000000  0.009858  0.009830  1
  Gd  Gd1  1  0.000000  0.663153  0.314712  1
  Gd  Gd2  1  0.000000  0.314666  0.663129  1
  Tc  Tc3  1  0.500000  0.997511  0.329583  1
  Tc  Tc4  1  0.500000  0.424484  0.424560  1
  Tc  Tc5  1  0.500000  0.906768  0.662088  1
  Tc  Tc6  1  0.500000  0.662102  0.906759  1
  Tc  Tc7  1  0.500000  0.329551  0.997431  1
