# generated using pymatgen
data_Nd3LuZn2Ir3
_symmetry_space_group_name_H-M   'P 1'
_cell_length_a   7.44744200
_cell_length_b   7.46274213
_cell_length_c   4.09049100
_cell_angle_alpha   90.00000000
_cell_angle_beta   90.00000000
_cell_angle_gamma   119.93220300
_symmetry_Int_Tables_number   1
_chemical_formula_structural   Nd3LuZn2Ir3
_chemical_formula_sum   'Nd3 Lu1 Zn2 Ir3'
_cell_volume   197.01891750
_cell_formula_units_Z   1
loop_
 _symmetry_equiv_pos_site_id
 _symmetry_equiv_pos_as_xyz
  1  'x, y, z'
loop_
 _atom_site_type_symbol
 _atom_site_label
 _atom_site_symmetry_multiplicity
 _atom_site_fract_x
 _atom_site_fract_y
 _atom_site_fract_z
 _atom_site_occupancy
  Nd  Nd0  1  0.386935  0.000000  0.499999  1
  Nd  Nd1  1  0.017934  0.438040  0.499999  1
  Nd  Nd2  1  0.579893  0.561959  0.499999  1
  Lu  Lu3  1  0.760902  0.000000  0.000000  1
  Zn  Zn4  1  0.241354  0.247147  0.000000  1
  Zn  Zn5  1  0.994207  0.752853  0.000000  1
  Ir  Ir6  1  0.670766  0.326793  0.000000  1
  Ir  Ir7  1  0.343972  0.673207  0.000000  1
  Ir  Ir8  1  0.004037  0.000000  0.499999  1
