# generated using pymatgen
data_RbCo3PdO8
_symmetry_space_group_name_H-M   'P 1'
_cell_length_a   5.83977465
_cell_length_b   7.76239407
_cell_length_c   5.85287000
_cell_angle_alpha   91.08254684
_cell_angle_beta   120.13733233
_cell_angle_gamma   110.57534468
_symmetry_Int_Tables_number   1
_chemical_formula_structural   RbCo3PdO8
_chemical_formula_sum   'Rb1 Co3 Pd1 O8'
_cell_volume   208.46815561
_cell_formula_units_Z   1
loop_
 _symmetry_equiv_pos_site_id
 _symmetry_equiv_pos_as_xyz
  1  'x, y, z'
loop_
 _atom_site_type_symbol
 _atom_site_label
 _atom_site_symmetry_multiplicity
 _atom_site_fract_x
 _atom_site_fract_y
 _atom_site_fract_z
 _atom_site_occupancy
  Rb  Rb0  1  0.000000  0.500000  0.500000  1
  Co  Co1  1  0.000000  0.000000  0.000000  1
  Co  Co2  1  0.500000  0.000000  0.000000  1
  Co  Co3  1  0.000000  0.000000  0.500000  1
  Pd  Pd4  1  0.500000  0.000000  0.500000  1
  O  O5  1  0.582358  0.862669  0.274025  1
  O  O6  1  0.062217  0.861140  0.275043  1
  O  O7  1  0.584683  0.861067  0.800205  1
  O  O8  1  0.083147  0.867162  0.790770  1
  O  O9  1  0.916853  0.132838  0.209230  1
  O  O10  1  0.415317  0.138933  0.199795  1
  O  O11  1  0.937783  0.138860  0.724957  1
  O  O12  1  0.417642  0.137331  0.725975  1
