# generated using pymatgen
data_Ho5MnAuO12
_symmetry_space_group_name_H-M   'P 1'
_cell_length_a   6.84845891
_cell_length_b   6.84845932
_cell_length_c   7.21222437
_cell_angle_alpha   74.59174207
_cell_angle_beta   74.59174274
_cell_angle_gamma   50.76930896
_symmetry_Int_Tables_number   1
_chemical_formula_structural   Ho5MnAuO12
_chemical_formula_sum   'Ho5 Mn1 Au1 O12'
_cell_volume   250.43367205
_cell_formula_units_Z   1
loop_
 _symmetry_equiv_pos_site_id
 _symmetry_equiv_pos_as_xyz
  1  'x, y, z'
loop_
 _atom_site_type_symbol
 _atom_site_label
 _atom_site_symmetry_multiplicity
 _atom_site_fract_x
 _atom_site_fract_y
 _atom_site_fract_z
 _atom_site_occupancy
  Ho  Ho0  1  0.294330  0.305066  0.360497  1
  Ho  Ho1  1  0.694934  0.705670  0.639503  1
  Ho  Ho2  1  0.308231  0.301778  0.833653  1
  Ho  Ho3  1  0.698222  0.691769  0.166347  1
  Ho  Ho4  1  0.000027  0.999973  0.500000  1
  Mn  Mn5  1  0.246741  0.753259  0.000000  1
  Au  Au6  1  0.753633  0.246367  0.000000  1
  O  O7  1  0.905951  0.433422  0.913841  1
  O  O8  1  0.424152  0.898744  0.917846  1
  O  O9  1  0.101256  0.575848  0.082154  1
  O  O10  1  0.566578  0.094049  0.086159  1
  O  O11  1  0.096613  0.598901  0.574375  1
  O  O12  1  0.598122  0.098328  0.573486  1
  O  O13  1  0.901672  0.401878  0.426514  1
  O  O14  1  0.401099  0.903387  0.425625  1
  O  O15  1  0.012227  0.987179  0.815696  1
  O  O16  1  0.012821  0.987773  0.184304  1
  O  O17  1  0.491792  0.508403  0.812459  1
  O  O18  1  0.491597  0.508208  0.187541  1
