# generated using pymatgen
data_NdYHo6(CdPt)2
_symmetry_space_group_name_H-M   'P 1'
_cell_length_a   9.70164039
_cell_length_b   9.69796299
_cell_length_c   9.67792575
_cell_angle_alpha   60.09345080
_cell_angle_beta   60.05570512
_cell_angle_gamma   59.85084417
_symmetry_Int_Tables_number   1
_chemical_formula_structural   NdYHo6(CdPt)2
_chemical_formula_sum   'Nd2 Y2 Ho12 Cd4 Pt4'
_cell_volume   643.85560431
_cell_formula_units_Z   2
loop_
 _symmetry_equiv_pos_site_id
 _symmetry_equiv_pos_as_xyz
  1  'x, y, z'
loop_
 _atom_site_type_symbol
 _atom_site_label
 _atom_site_symmetry_multiplicity
 _atom_site_fract_x
 _atom_site_fract_y
 _atom_site_fract_z
 _atom_site_occupancy
  Nd  Nd0  1  0.567314  0.567314  0.932686  1
  Nd  Nd1  1  0.932686  0.932686  0.567314  1
  Y  Y2  1  0.562693  0.937307  0.562693  1
  Y  Y3  1  0.937307  0.562693  0.937307  1
  Ho  Ho4  1  0.353087  0.351170  0.351191  1
  Ho  Ho5  1  0.351170  0.353087  0.944552  1
  Ho  Ho6  1  0.351191  0.944552  0.353087  1
  Ho  Ho7  1  0.944552  0.351191  0.351170  1
  Ho  Ho8  1  0.810798  0.189202  0.189202  1
  Ho  Ho9  1  0.189202  0.810798  0.810798  1
  Ho  Ho10  1  0.189465  0.810535  0.189465  1
  Ho  Ho11  1  0.810535  0.189465  0.810535  1
  Ho  Ho12  1  0.189544  0.189544  0.810456  1
  Ho  Ho13  1  0.810456  0.810456  0.189544  1
  Ho  Ho14  1  0.939922  0.560078  0.560078  1
  Ho  Ho15  1  0.560078  0.939922  0.939922  1
  Cd  Cd16  1  0.582922  0.582555  0.578195  1
  Cd  Cd17  1  0.582555  0.582922  0.256328  1
  Cd  Cd18  1  0.578195  0.256328  0.582922  1
  Cd  Cd19  1  0.256328  0.578195  0.582555  1
  Pt  Pt20  1  0.145388  0.144271  0.140248  1
  Pt  Pt21  1  0.144271  0.145388  0.570093  1
  Pt  Pt22  1  0.140248  0.570093  0.145388  1
  Pt  Pt23  1  0.570093  0.140248  0.144271  1
