# generated using pymatgen
data_Sr2La2Zn3Sb8
_symmetry_space_group_name_H-M   'P 1'
_cell_length_a   11.49982659
_cell_length_b   11.49982629
_cell_length_c   11.50819500
_cell_angle_alpha   148.67340563
_cell_angle_beta   148.67339363
_cell_angle_gamma   44.79124353
_symmetry_Int_Tables_number   1
_chemical_formula_structural   Sr2La2Zn3Sb8
_chemical_formula_sum   'Sr2 La2 Zn3 Sb8'
_cell_volume   410.26327229
_cell_formula_units_Z   1
loop_
 _symmetry_equiv_pos_site_id
 _symmetry_equiv_pos_as_xyz
  1  'x, y, z'
loop_
 _atom_site_type_symbol
 _atom_site_label
 _atom_site_symmetry_multiplicity
 _atom_site_fract_x
 _atom_site_fract_y
 _atom_site_fract_z
 _atom_site_occupancy
  Sr  Sr0  1  0.627124  0.627124  0.511740  1
  Sr  Sr1  1  0.115384  0.115384  0.488260  1
  La  La2  1  0.371915  0.877239  0.000000  1
  La  La3  1  0.877239  0.371915  0.000000  1
  Zn  Zn4  1  0.998532  0.998532  0.000000  1
  Zn  Zn5  1  0.001987  0.501987  0.500000  1
  Zn  Zn6  1  0.501987  0.001987  0.500000  1
  Sb  Sb7  1  0.332123  0.332123  0.501520  1
  Sb  Sb8  1  0.830604  0.830604  0.498480  1
  Sb  Sb9  1  0.671325  0.188535  0.000000  1
  Sb  Sb10  1  0.188535  0.671325  0.000000  1
  Sb  Sb11  1  0.247100  0.247100  0.000000  1
  Sb  Sb12  1  0.745077  0.745077  0.000000  1
  Sb  Sb13  1  0.745533  0.245533  0.500000  1
  Sb  Sb14  1  0.245533  0.745533  0.500000  1
