# generated using pymatgen
data_YbTm3Pd2(PtO7)2
_symmetry_space_group_name_H-M   'P 1'
_cell_length_a   7.21883204
_cell_length_b   7.19368097
_cell_length_c   7.19262100
_cell_angle_alpha   60.00486950
_cell_angle_beta   60.12003298
_cell_angle_gamma   60.12143285
_symmetry_Int_Tables_number   1
_chemical_formula_structural   YbTm3Pd2(PtO7)2
_chemical_formula_sum   'Yb1 Tm3 Pd2 Pt2 O14'
_cell_volume   264.60403118
_cell_formula_units_Z   1
loop_
 _symmetry_equiv_pos_site_id
 _symmetry_equiv_pos_as_xyz
  1  'x, y, z'
loop_
 _atom_site_type_symbol
 _atom_site_label
 _atom_site_symmetry_multiplicity
 _atom_site_fract_x
 _atom_site_fract_y
 _atom_site_fract_z
 _atom_site_occupancy
  Yb  Yb0  1  0.125000  0.625000  0.625000  1
  Tm  Tm1  1  0.625000  0.625000  0.125000  1
  Tm  Tm2  1  0.625000  0.625000  0.625000  1
  Tm  Tm3  1  0.625000  0.125000  0.625000  1
  Pd  Pd4  1  0.625000  0.125000  0.125000  1
  Pd  Pd5  1  0.125000  0.625000  0.125000  1
  Pt  Pt6  1  0.125000  0.125000  0.125000  1
  Pt  Pt7  1  0.125000  0.125000  0.625000  1
  O  O8  1  0.029895  0.461842  0.465146  1
  O  O9  1  0.783520  0.783969  0.216256  1
  O  O10  1  0.784418  0.215604  0.216461  1
  O  O11  1  0.465582  0.034396  0.466482  1
  O  O12  1  0.029739  0.045633  0.462313  1
  O  O13  1  0.029895  0.461842  0.043116  1
  O  O14  1  0.740623  0.753634  0.752872  1
  O  O15  1  0.509377  0.496366  0.497128  1
  O  O16  1  0.784418  0.215604  0.783518  1
  O  O17  1  0.220105  0.788158  0.206884  1
  O  O18  1  0.220261  0.204367  0.787687  1
  O  O19  1  0.465582  0.034396  0.033539  1
  O  O20  1  0.466480  0.466031  0.033744  1
  O  O21  1  0.220105  0.788158  0.784854  1
