# generated using pymatgen
data_Li8B4Pd5Pt7
_symmetry_space_group_name_H-M   'P 1'
_cell_length_a   6.89751261
_cell_length_b   6.75950541
_cell_length_c   6.86178910
_cell_angle_alpha   90.38005275
_cell_angle_beta   89.99970399
_cell_angle_gamma   89.04423417
_symmetry_Int_Tables_number   1
_chemical_formula_structural   Li8B4Pd5Pt7
_chemical_formula_sum   'Li8 B4 Pd5 Pt7'
_cell_volume   319.87095320
_cell_formula_units_Z   1
loop_
 _symmetry_equiv_pos_site_id
 _symmetry_equiv_pos_as_xyz
  1  'x, y, z'
loop_
 _atom_site_type_symbol
 _atom_site_label
 _atom_site_symmetry_multiplicity
 _atom_site_fract_x
 _atom_site_fract_y
 _atom_site_fract_z
 _atom_site_occupancy
  Li  Li0  1  0.315874  0.307728  0.303925  1
  Li  Li1  1  0.052786  0.452275  0.557316  1
  Li  Li2  1  0.564420  0.057496  0.442858  1
  Li  Li3  1  0.451995  0.547804  0.052423  1
  Li  Li4  1  0.189134  0.692024  0.808804  1
  Li  Li5  1  0.936020  0.945662  0.943528  1
  Li  Li6  1  0.802286  0.204591  0.700379  1
  Li  Li7  1  0.695813  0.794537  0.196397  1
  B  B8  1  0.852060  0.378442  0.107440  1
  B  B9  1  0.377681  0.139066  0.890860  1
  B  B10  1  0.642418  0.623522  0.615385  1
  B  B11  1  0.115793  0.858745  0.381124  1
  Pd  Pd12  1  0.208914  0.048069  0.624814  1
  Pd  Pd13  1  0.441798  0.379681  0.695876  1
  Pd  Pd14  1  0.060528  0.610845  0.198139  1
  Pd  Pd15  1  0.963122  0.134206  0.302371  1
  Pd  Pd16  1  0.293491  0.942241  0.128713  1
  Pt  Pt17  1  0.686585  0.432835  0.371019  1
  Pt  Pt18  1  0.541039  0.876111  0.799732  1
  Pt  Pt19  1  0.626870  0.169963  0.066515  1
  Pt  Pt20  1  0.378215  0.701179  0.447979  1
  Pt  Pt21  1  0.871342  0.828713  0.557060  1
  Pt  Pt22  1  0.116561  0.300597  0.936898  1
  Pt  Pt23  1  0.815252  0.573670  0.870445  1
