# generated using pymatgen
data_Ba2LuNpS6
_symmetry_space_group_name_H-M   'P 1'
_cell_length_a   7.09016844
_cell_length_b   7.36850800
_cell_length_c   12.44423700
_cell_angle_alpha   89.99948680
_cell_angle_beta   124.86718974
_cell_angle_gamma   90.00178627
_symmetry_Int_Tables_number   1
_chemical_formula_structural   Ba2LuNpS6
_chemical_formula_sum   'Ba4 Lu2 Np2 S12'
_cell_volume   533.42339154
_cell_formula_units_Z   2
loop_
 _symmetry_equiv_pos_site_id
 _symmetry_equiv_pos_as_xyz
  1  'x, y, z'
loop_
 _atom_site_type_symbol
 _atom_site_label
 _atom_site_symmetry_multiplicity
 _atom_site_fract_x
 _atom_site_fract_y
 _atom_site_fract_z
 _atom_site_occupancy
  Ba  Ba0  1  0.764841  0.939602  0.248657  1
  Ba  Ba1  1  0.233549  0.439324  0.249859  1
  Ba  Ba2  1  0.766451  0.560677  0.750141  1
  Ba  Ba3  1  0.235159  0.060398  0.751343  1
  Lu  Lu4  1  0.500000  0.500001  0.000000  1
  Lu  Lu5  1  0.500000  0.000000  0.500000  1
  Np  Np6  1  0.000000  0.000000  0.000000  1
  Np  Np7  1  0.000000  0.500001  0.500000  1
  S  S8  1  0.838343  0.707104  0.039537  1
  S  S9  1  0.746439  0.202191  0.039346  1
  S  S10  1  0.322988  0.013016  0.246877  1
  S  S11  1  0.676399  0.512307  0.252672  1
  S  S12  1  0.254614  0.702094  0.459979  1
  S  S13  1  0.159423  0.206979  0.459433  1
  S  S14  1  0.840578  0.793020  0.540567  1
  S  S15  1  0.745386  0.297906  0.540022  1
  S  S16  1  0.323601  0.487693  0.747328  1
  S  S17  1  0.677012  0.986984  0.753122  1
  S  S18  1  0.253560  0.797809  0.960654  1
  S  S19  1  0.161656  0.292897  0.960463  1
