# generated using pymatgen
data_SmCoSb12Os2Ru
_symmetry_space_group_name_H-M   'P 1'
_cell_length_a   8.08752687
_cell_length_b   8.08339330
_cell_length_c   8.14365303
_cell_angle_alpha   109.61422471
_cell_angle_beta   109.62345825
_cell_angle_gamma   109.35276685
_symmetry_Int_Tables_number   1
_chemical_formula_structural   SmCoSb12Os2Ru
_chemical_formula_sum   'Sm1 Co1 Sb12 Os2 Ru1'
_cell_volume   408.93407795
_cell_formula_units_Z   1
loop_
 _symmetry_equiv_pos_site_id
 _symmetry_equiv_pos_as_xyz
  1  'x, y, z'
loop_
 _atom_site_type_symbol
 _atom_site_label
 _atom_site_symmetry_multiplicity
 _atom_site_fract_x
 _atom_site_fract_y
 _atom_site_fract_z
 _atom_site_occupancy
  Sm  Sm0  1  0.000000  0.000000  0.000000  1
  Co  Co1  1  0.000000  0.000000  0.500000  1
  Sb  Sb2  1  0.330886  0.176305  0.837027  1
  Sb  Sb3  1  0.669113  0.823695  0.162973  1
  Sb  Sb4  1  0.660267  0.504112  0.842580  1
  Sb  Sb5  1  0.339733  0.495888  0.157420  1
  Sb  Sb6  1  0.177235  0.846263  0.340315  1
  Sb  Sb7  1  0.822765  0.153737  0.659686  1
  Sb  Sb8  1  0.504530  0.844274  0.662860  1
  Sb  Sb9  1  0.495470  0.155726  0.337141  1
  Sb  Sb10  1  0.842762  0.338491  0.181261  1
  Sb  Sb11  1  0.157238  0.661508  0.818739  1
  Sb  Sb12  1  0.846223  0.668950  0.505994  1
  Sb  Sb13  1  0.153777  0.331050  0.494006  1
  Os  Os14  1  0.000000  0.500000  0.000000  1
  Os  Os15  1  0.500000  0.500000  0.500000  1
  Ru  Ru16  1  0.500000  0.000000  0.000000  1
