# generated using pymatgen
data_Lu12Co8Hg
_symmetry_space_group_name_H-M   'P 1'
_cell_length_a   3.89006733
_cell_length_b   11.35731650
_cell_length_c   11.34849079
_cell_angle_alpha   59.96099563
_cell_angle_beta   89.96075044
_cell_angle_gamma   90.00742442
_symmetry_Int_Tables_number   1
_chemical_formula_structural   Lu12Co8Hg
_chemical_formula_sum   'Lu12 Co8 Hg1'
_cell_volume   434.04083980
_cell_formula_units_Z   1
loop_
 _symmetry_equiv_pos_site_id
 _symmetry_equiv_pos_as_xyz
  1  'x, y, z'
loop_
 _atom_site_type_symbol
 _atom_site_label
 _atom_site_symmetry_multiplicity
 _atom_site_fract_x
 _atom_site_fract_y
 _atom_site_fract_z
 _atom_site_occupancy
  Lu  Lu0  1  0.749145  0.618138  0.861798  1
  Lu  Lu1  1  0.749196  0.520019  0.618135  1
  Lu  Lu2  1  0.748982  0.861994  0.519919  1
  Lu  Lu3  1  0.250855  0.381862  0.138202  1
  Lu  Lu4  1  0.250804  0.479981  0.381865  1
  Lu  Lu5  1  0.251018  0.138006  0.480081  1
  Lu  Lu6  1  0.753373  0.760476  0.264126  1
  Lu  Lu7  1  0.753092  0.975163  0.760552  1
  Lu  Lu8  1  0.753403  0.264324  0.975351  1
  Lu  Lu9  1  0.246627  0.239524  0.735874  1
  Lu  Lu10  1  0.246908  0.024837  0.239448  1
  Lu  Lu11  1  0.246597  0.735676  0.024649  1
  Co  Co12  1  0.747763  0.333202  0.333450  1
  Co  Co13  1  0.252237  0.666798  0.666550  1
  Co  Co14  1  0.747055  0.281913  0.558887  1
  Co  Co15  1  0.746727  0.159390  0.281866  1
  Co  Co16  1  0.746807  0.558870  0.159237  1
  Co  Co17  1  0.252945  0.718087  0.441113  1
  Co  Co18  1  0.253273  0.840610  0.718134  1
  Co  Co19  1  0.253193  0.441130  0.840763  1
  Hg  Hg20  1  0.500000  0.000000  0.000000  1
