# generated using pymatgen
data_PrCu7O12
_symmetry_space_group_name_H-M   'P 1'
_cell_length_a   6.37907750
_cell_length_b   6.37907796
_cell_length_c   6.37907800
_cell_angle_alpha   109.47121760
_cell_angle_beta   109.47121906
_cell_angle_gamma   109.47122974
_symmetry_Int_Tables_number   1
_chemical_formula_structural   PrCu7O12
_chemical_formula_sum   'Pr1 Cu7 O12'
_cell_volume   199.82590355
_cell_formula_units_Z   1
loop_
 _symmetry_equiv_pos_site_id
 _symmetry_equiv_pos_as_xyz
  1  'x, y, z'
loop_
 _atom_site_type_symbol
 _atom_site_label
 _atom_site_symmetry_multiplicity
 _atom_site_fract_x
 _atom_site_fract_y
 _atom_site_fract_z
 _atom_site_occupancy
  Pr  Pr0  1  0.000000  0.000000  0.000000  1
  Cu  Cu1  1  0.000000  0.500000  0.500000  1
  Cu  Cu2  1  0.500000  0.000000  0.500000  1
  Cu  Cu3  1  0.500000  0.500000  0.000000  1
  Cu  Cu4  1  0.000000  0.000000  0.500000  1
  Cu  Cu5  1  0.000000  0.500000  0.000000  1
  Cu  Cu6  1  0.500000  0.000000  0.000000  1
  Cu  Cu7  1  0.500000  0.500000  0.500000  1
  O  O8  1  0.310241  0.139345  0.829105  1
  O  O9  1  0.689759  0.860655  0.170895  1
  O  O10  1  0.689759  0.518864  0.829105  1
  O  O11  1  0.481136  0.170895  0.310241  1
  O  O12  1  0.170895  0.310241  0.481136  1
  O  O13  1  0.829105  0.310241  0.139345  1
  O  O14  1  0.860655  0.170895  0.689759  1
  O  O15  1  0.829105  0.689759  0.518864  1
  O  O16  1  0.310241  0.481136  0.170895  1
  O  O17  1  0.518864  0.829105  0.689759  1
  O  O18  1  0.170895  0.689759  0.860655  1
  O  O19  1  0.139345  0.829105  0.310241  1
