# generated using pymatgen
data_Nb4GaCo4P3
_symmetry_space_group_name_H-M   'P 1'
_cell_length_a   3.62128900
_cell_length_b   6.21868206
_cell_length_c   7.07540225
_cell_angle_alpha   90.06753790
_cell_angle_beta   90.00000000
_cell_angle_gamma   90.00000000
_symmetry_Int_Tables_number   1
_chemical_formula_structural   Nb4GaCo4P3
_chemical_formula_sum   'Nb4 Ga1 Co4 P3'
_cell_volume   159.33543581
_cell_formula_units_Z   1
loop_
 _symmetry_equiv_pos_site_id
 _symmetry_equiv_pos_as_xyz
  1  'x, y, z'
loop_
 _atom_site_type_symbol
 _atom_site_label
 _atom_site_symmetry_multiplicity
 _atom_site_fract_x
 _atom_site_fract_y
 _atom_site_fract_z
 _atom_site_occupancy
  Nb  Nb0  1  0.250000  0.025339  0.827021  1
  Nb  Nb1  1  0.250000  0.521579  0.677796  1
  Nb  Nb2  1  0.750000  0.980456  0.169018  1
  Nb  Nb3  1  0.750000  0.466280  0.323253  1
  Ga  Ga4  1  0.250000  0.773700  0.375716  1
  Co  Co5  1  0.250000  0.153216  0.443028  1
  Co  Co6  1  0.250000  0.636053  0.047272  1
  Co  Co7  1  0.750000  0.863241  0.579023  1
  Co  Co8  1  0.750000  0.356102  0.936003  1
  P  P9  1  0.250000  0.276964  0.121248  1
  P  P10  1  0.750000  0.222025  0.619673  1
  P  P11  1  0.750000  0.725046  0.880946  1
