# generated using pymatgen
data_Ho4GaSi3
_symmetry_space_group_name_H-M   'P 1'
_cell_length_a   3.87099200
_cell_length_b   4.28167800
_cell_length_c   10.57721300
_cell_angle_alpha   90.00000000
_cell_angle_beta   90.00000000
_cell_angle_gamma   90.00000000
_symmetry_Int_Tables_number   1
_chemical_formula_structural   Ho4GaSi3
_chemical_formula_sum   'Ho4 Ga1 Si3'
_cell_volume   175.31033810
_cell_formula_units_Z   1
loop_
 _symmetry_equiv_pos_site_id
 _symmetry_equiv_pos_as_xyz
  1  'x, y, z'
loop_
 _atom_site_type_symbol
 _atom_site_label
 _atom_site_symmetry_multiplicity
 _atom_site_fract_x
 _atom_site_fract_y
 _atom_site_fract_z
 _atom_site_occupancy
  Ho  Ho0  1  0.000000  0.000000  0.362536  1
  Ho  Ho1  1  0.000000  0.500000  0.857014  1
  Ho  Ho2  1  0.500000  0.500000  0.142107  1
  Ho  Ho3  1  0.500000  0.000000  0.639300  1
  Ga  Ga4  1  0.000000  0.000000  0.075794  1
  Si  Si5  1  0.000000  0.500000  0.576552  1
  Si  Si6  1  0.500000  0.500000  0.425211  1
  Si  Si7  1  0.500000  0.000000  0.921484  1
