# generated using pymatgen
data_LiTm4Co16(P4Ru)3
_symmetry_space_group_name_H-M   'P 1'
_cell_length_a   3.66903000
_cell_length_b   10.30275713
_cell_length_c   11.74504569
_cell_angle_alpha   89.82460455
_cell_angle_beta   90.00000000
_cell_angle_gamma   90.00000000
_symmetry_Int_Tables_number   1
_chemical_formula_structural   LiTm4Co16(P4Ru)3
_chemical_formula_sum   'Li1 Tm4 Co16 P12 Ru3'
_cell_volume   443.97385983
_cell_formula_units_Z   1
loop_
 _symmetry_equiv_pos_site_id
 _symmetry_equiv_pos_as_xyz
  1  'x, y, z'
loop_
 _atom_site_type_symbol
 _atom_site_label
 _atom_site_symmetry_multiplicity
 _atom_site_fract_x
 _atom_site_fract_y
 _atom_site_fract_z
 _atom_site_occupancy
  Li  Li0  1  0.250000  0.704794  0.990361  1
  Tm  Tm1  1  0.250000  0.584870  0.703475  1
  Tm  Tm2  1  0.250000  0.915235  0.205278  1
  Tm  Tm3  1  0.750000  0.414869  0.296139  1
  Tm  Tm4  1  0.750000  0.081015  0.797619  1
  Co  Co5  1  0.250000  0.408663  0.488404  1
  Co  Co6  1  0.250000  0.093982  0.988740  1
  Co  Co7  1  0.750000  0.590909  0.513048  1
  Co  Co8  1  0.750000  0.907795  0.013572  1
  Co  Co9  1  0.250000  0.223408  0.176477  1
  Co  Co10  1  0.250000  0.278897  0.676975  1
  Co  Co11  1  0.750000  0.779839  0.821072  1
  Co  Co12  1  0.750000  0.718947  0.326336  1
  Co  Co13  1  0.250000  0.888756  0.701791  1
  Co  Co14  1  0.250000  0.617285  0.200501  1
  Co  Co15  1  0.750000  0.113374  0.296173  1
  Co  Co16  1  0.750000  0.385620  0.798260  1
  Co  Co17  1  0.250000  0.465114  0.930759  1
  Co  Co18  1  0.250000  0.035286  0.429412  1
  Co  Co19  1  0.750000  0.536776  0.067514  1
  Co  Co20  1  0.750000  0.965833  0.568430  1
  P  P21  1  0.250000  0.423065  0.113523  1
  P  P22  1  0.250000  0.080373  0.612447  1
  P  P23  1  0.750000  0.580736  0.884317  1
  P  P24  1  0.750000  0.919349  0.386893  1
  P  P25  1  0.250000  0.268560  0.866345  1
  P  P26  1  0.250000  0.230575  0.365988  1
  P  P27  1  0.750000  0.731538  0.136344  1
  P  P28  1  0.750000  0.770805  0.633761  1
  P  P29  1  0.250000  0.595082  0.389573  1
  P  P30  1  0.250000  0.899985  0.892180  1
  P  P31  1  0.750000  0.404653  0.610920  1
  P  P32  1  0.750000  0.095074  0.108772  1
  Ru  Ru33  1  0.250000  0.782828  0.492671  1
  Ru  Ru34  1  0.750000  0.288475  0.009044  1
  Ru  Ru35  1  0.750000  0.217634  0.506886  1
