# generated using pymatgen
data_Nd4Al18TcPd5
_symmetry_space_group_name_H-M   'P 1'
_cell_length_a   7.70106047
_cell_length_b   7.70106025
_cell_length_c   9.64810158
_cell_angle_alpha   89.88060602
_cell_angle_beta   89.88060330
_cell_angle_gamma   119.42399842
_symmetry_Int_Tables_number   1
_chemical_formula_structural   Nd4Al18TcPd5
_chemical_formula_sum   'Nd4 Al18 Tc1 Pd5'
_cell_volume   498.38093220
_cell_formula_units_Z   1
loop_
 _symmetry_equiv_pos_site_id
 _symmetry_equiv_pos_as_xyz
  1  'x, y, z'
loop_
 _atom_site_type_symbol
 _atom_site_label
 _atom_site_symmetry_multiplicity
 _atom_site_fract_x
 _atom_site_fract_y
 _atom_site_fract_z
 _atom_site_occupancy
  Nd  Nd0  1  0.995474  0.670766  0.249733  1
  Nd  Nd1  1  0.004526  0.329234  0.750267  1
  Nd  Nd2  1  0.670766  0.995474  0.249733  1
  Nd  Nd3  1  0.329234  0.004526  0.750267  1
  Al  Al4  1  0.131715  0.131715  0.245870  1
  Al  Al5  1  0.868285  0.868285  0.754130  1
  Al  Al6  1  0.001885  0.329144  0.072544  1
  Al  Al7  1  0.998115  0.670856  0.927456  1
  Al  Al8  1  0.995987  0.663672  0.576863  1
  Al  Al9  1  0.336328  0.004013  0.423137  1
  Al  Al10  1  0.004013  0.336328  0.423137  1
  Al  Al11  1  0.663672  0.995987  0.576863  1
  Al  Al12  1  0.670856  0.998115  0.927456  1
  Al  Al13  1  0.329144  0.001885  0.072544  1
  Al  Al14  1  0.335580  0.335580  0.553241  1
  Al  Al15  1  0.664420  0.664420  0.446759  1
  Al  Al16  1  0.670165  0.670165  0.049047  1
  Al  Al17  1  0.329835  0.329835  0.950953  1
  Al  Al18  1  0.341936  0.545850  0.249159  1
  Al  Al19  1  0.658064  0.454150  0.750841  1
  Al  Al20  1  0.545850  0.341936  0.249159  1
  Al  Al21  1  0.454150  0.658064  0.750841  1
  Tc  Tc22  1  0.000000  0.000000  0.000000  1
  Pd  Pd23  1  0.671203  0.328797  0.000000  1
  Pd  Pd24  1  0.328797  0.671203  0.000000  1
  Pd  Pd25  1  0.328536  0.671464  0.500000  1
  Pd  Pd26  1  0.671464  0.328536  0.500000  1
  Pd  Pd27  1  0.000000  0.000000  0.500000  1
