# generated using pymatgen
data_TbSmGa5Au3
_symmetry_space_group_name_H-M   'P 1'
_cell_length_a   4.26029900
_cell_length_b   4.25326800
_cell_length_c   11.07083200
_cell_angle_alpha   90.00000000
_cell_angle_beta   90.00000000
_cell_angle_gamma   90.00000000
_symmetry_Int_Tables_number   1
_chemical_formula_structural   TbSmGa5Au3
_chemical_formula_sum   'Tb1 Sm1 Ga5 Au3'
_cell_volume   200.60561702
_cell_formula_units_Z   1
loop_
 _symmetry_equiv_pos_site_id
 _symmetry_equiv_pos_as_xyz
  1  'x, y, z'
loop_
 _atom_site_type_symbol
 _atom_site_label
 _atom_site_symmetry_multiplicity
 _atom_site_fract_x
 _atom_site_fract_y
 _atom_site_fract_z
 _atom_site_occupancy
  Tb  Tb0  1  0.500000  0.000000  0.745014  1
  Sm  Sm1  1  0.000000  0.500000  0.256194  1
  Ga  Ga2  1  0.500000  0.500000  0.998929  1
  Ga  Ga3  1  0.000000  0.000000  0.999265  1
  Ga  Ga4  1  0.000000  0.500000  0.640046  1
  Ga  Ga5  1  0.500000  0.000000  0.360212  1
  Ga  Ga6  1  0.000000  0.000000  0.500277  1
  Au  Au7  1  0.000000  0.500000  0.863103  1
  Au  Au8  1  0.500000  0.000000  0.135540  1
  Au  Au9  1  0.500000  0.500000  0.501420  1
