# generated using pymatgen
data_Lu(ScZn4)3
_symmetry_space_group_name_H-M   'P 1'
_cell_length_a   4.26197700
_cell_length_b   6.50179376
_cell_length_c   9.82516071
_cell_angle_alpha   89.73079635
_cell_angle_beta   90.00000000
_cell_angle_gamma   90.00000000
_symmetry_Int_Tables_number   1
_chemical_formula_structural   Lu(ScZn4)3
_chemical_formula_sum   'Lu1 Sc3 Zn12'
_cell_volume   272.25706640
_cell_formula_units_Z   1
loop_
 _symmetry_equiv_pos_site_id
 _symmetry_equiv_pos_as_xyz
  1  'x, y, z'
loop_
 _atom_site_type_symbol
 _atom_site_label
 _atom_site_symmetry_multiplicity
 _atom_site_fract_x
 _atom_site_fract_y
 _atom_site_fract_z
 _atom_site_occupancy
  Lu  Lu0  1  0.750000  0.221928  0.168908  1
  Sc  Sc1  1  0.250000  0.277484  0.665234  1
  Sc  Sc2  1  0.250000  0.780866  0.833525  1
  Sc  Sc3  1  0.750000  0.721941  0.335158  1
  Zn  Zn4  1  0.250000  0.536046  0.098842  1
  Zn  Zn5  1  0.250000  0.037684  0.399173  1
  Zn  Zn6  1  0.750000  0.464620  0.896720  1
  Zn  Zn7  1  0.750000  0.961885  0.599941  1
  Zn  Zn8  1  0.250000  0.917625  0.151194  1
  Zn  Zn9  1  0.250000  0.430001  0.351957  1
  Zn  Zn10  1  0.750000  0.075183  0.846421  1
  Zn  Zn11  1  0.750000  0.575329  0.651586  1
  Zn  Zn12  1  0.250000  0.211931  0.953618  1
  Zn  Zn13  1  0.250000  0.712153  0.543603  1
  Zn  Zn14  1  0.750000  0.783861  0.042115  1
  Zn  Zn15  1  0.750000  0.291461  0.462005  1
