# generated using pymatgen
data_Ho2Zn14Cu3
_symmetry_space_group_name_H-M   'P 1'
_cell_length_a   8.88469728
_cell_length_b   8.88469649
_cell_length_c   8.64494800
_cell_angle_alpha   90.00000000
_cell_angle_beta   90.00000000
_cell_angle_gamma   120.00012406
_symmetry_Int_Tables_number   1
_chemical_formula_structural   Ho2Zn14Cu3
_chemical_formula_sum   'Ho4 Zn28 Cu6'
_cell_volume   590.98669771
_cell_formula_units_Z   2
loop_
 _symmetry_equiv_pos_site_id
 _symmetry_equiv_pos_as_xyz
  1  'x, y, z'
loop_
 _atom_site_type_symbol
 _atom_site_label
 _atom_site_symmetry_multiplicity
 _atom_site_fract_x
 _atom_site_fract_y
 _atom_site_fract_z
 _atom_site_occupancy
  Ho  Ho0  1  0.999989  0.000011  0.750000  1
  Ho  Ho1  1  0.000011  0.999989  0.250000  1
  Ho  Ho2  1  0.666698  0.333302  0.250000  1
  Ho  Ho3  1  0.333302  0.666698  0.750000  1
  Zn  Zn4  1  0.666680  0.333320  0.596131  1
  Zn  Zn5  1  0.333320  0.666680  0.403869  1
  Zn  Zn6  1  0.333320  0.666680  0.096131  1
  Zn  Zn7  1  0.666680  0.333320  0.903869  1
  Zn  Zn8  1  0.666406  0.034543  0.750000  1
  Zn  Zn9  1  0.368143  0.333565  0.750000  1
  Zn  Zn10  1  0.965470  0.631903  0.750000  1
  Zn  Zn11  1  0.368097  0.034530  0.750000  1
  Zn  Zn12  1  0.965457  0.333594  0.750000  1
  Zn  Zn13  1  0.666435  0.631857  0.750000  1
  Zn  Zn14  1  0.333594  0.965457  0.250000  1
  Zn  Zn15  1  0.631857  0.666435  0.250000  1
  Zn  Zn16  1  0.034530  0.368097  0.250000  1
  Zn  Zn17  1  0.631903  0.965470  0.250000  1
  Zn  Zn18  1  0.034543  0.666406  0.250000  1
  Zn  Zn19  1  0.333565  0.368143  0.250000  1
  Zn  Zn20  1  0.835010  0.670031  0.480071  1
  Zn  Zn21  1  0.835038  0.164962  0.480103  1
  Zn  Zn22  1  0.329969  0.164990  0.480071  1
  Zn  Zn23  1  0.164990  0.329969  0.519929  1
  Zn  Zn24  1  0.164962  0.835038  0.519897  1
  Zn  Zn25  1  0.670031  0.835010  0.519929  1
  Zn  Zn26  1  0.164990  0.329969  0.980071  1
  Zn  Zn27  1  0.164962  0.835038  0.980103  1
  Zn  Zn28  1  0.670031  0.835010  0.980071  1
  Zn  Zn29  1  0.835010  0.670031  0.019929  1
  Zn  Zn30  1  0.835038  0.164962  0.019897  1
  Zn  Zn31  1  0.329969  0.164990  0.019929  1
  Cu  Cu32  1  0.500000  0.000000  0.500000  1
  Cu  Cu33  1  0.500000  0.500000  0.500000  1
  Cu  Cu34  1  0.000000  0.500000  0.500000  1
  Cu  Cu35  1  0.500000  0.000000  0.000000  1
  Cu  Cu36  1  0.500000  0.500000  0.000000  1
  Cu  Cu37  1  0.000000  0.500000  0.000000  1
