# generated using pymatgen
data_Y18Sc2In3Hg3Ru2
_symmetry_space_group_name_H-M   'P 1'
_cell_length_a   9.64166600
_cell_length_b   9.64166627
_cell_length_c   9.68484400
_cell_angle_alpha   90.00000000
_cell_angle_beta   90.00000000
_cell_angle_gamma   119.99999908
_symmetry_Int_Tables_number   1
_chemical_formula_structural   Y18Sc2In3Hg3Ru2
_chemical_formula_sum   'Y18 Sc2 In3 Hg3 Ru2'
_cell_volume   779.69983655
_cell_formula_units_Z   1
loop_
 _symmetry_equiv_pos_site_id
 _symmetry_equiv_pos_as_xyz
  1  'x, y, z'
loop_
 _atom_site_type_symbol
 _atom_site_label
 _atom_site_symmetry_multiplicity
 _atom_site_fract_x
 _atom_site_fract_y
 _atom_site_fract_z
 _atom_site_occupancy
  Y  Y0  1  0.207923  0.792077  0.438957  1
  Y  Y1  1  0.207923  0.415847  0.438957  1
  Y  Y2  1  0.584153  0.792077  0.438957  1
  Y  Y3  1  0.792198  0.207802  0.560403  1
  Y  Y4  1  0.792198  0.584397  0.560403  1
  Y  Y5  1  0.415603  0.207802  0.560403  1
  Y  Y6  1  0.792198  0.207802  0.939597  1
  Y  Y7  1  0.792198  0.584397  0.939597  1
  Y  Y8  1  0.415603  0.207802  0.939597  1
  Y  Y9  1  0.207923  0.792077  0.061043  1
  Y  Y10  1  0.207923  0.415847  0.061043  1
  Y  Y11  1  0.584153  0.792077  0.061043  1
  Y  Y12  1  0.540910  0.459090  0.250000  1
  Y  Y13  1  0.540910  0.081820  0.250000  1
  Y  Y14  1  0.918180  0.459090  0.250000  1
  Y  Y15  1  0.460635  0.539365  0.750000  1
  Y  Y16  1  0.460635  0.921270  0.750000  1
  Y  Y17  1  0.078730  0.539365  0.750000  1
  Sc  Sc18  1  0.000000  0.000000  0.484086  1
  Sc  Sc19  1  0.000000  0.000000  0.015914  1
  In  In20  1  0.108992  0.891008  0.750000  1
  In  In21  1  0.108992  0.217981  0.750000  1
  In  In22  1  0.782019  0.891008  0.750000  1
  Hg  Hg23  1  0.884126  0.115874  0.250000  1
  Hg  Hg24  1  0.884126  0.768253  0.250000  1
  Hg  Hg25  1  0.231747  0.115874  0.250000  1
  Ru  Ru26  1  0.333333  0.666667  0.250000  1
  Ru  Ru27  1  0.666667  0.333333  0.750000  1
