# generated using pymatgen
data_Tb18Dy2Ir7Rh5
_symmetry_space_group_name_H-M   'P 1'
_cell_length_a   10.91516318
_cell_length_b   10.91516253
_cell_length_c   6.40748600
_cell_angle_alpha   89.99067295
_cell_angle_beta   89.99068149
_cell_angle_gamma   89.93956439
_symmetry_Int_Tables_number   1
_chemical_formula_structural   Tb18Dy2Ir7Rh5
_chemical_formula_sum   'Tb18 Dy2 Ir7 Rh5'
_cell_volume   763.39243609
_cell_formula_units_Z   1
loop_
 _symmetry_equiv_pos_site_id
 _symmetry_equiv_pos_as_xyz
  1  'x, y, z'
loop_
 _atom_site_type_symbol
 _atom_site_label
 _atom_site_symmetry_multiplicity
 _atom_site_fract_x
 _atom_site_fract_y
 _atom_site_fract_z
 _atom_site_occupancy
  Tb  Tb0  1  0.290309  0.089112  0.380308  1
  Tb  Tb1  1  0.290553  0.910786  0.879723  1
  Tb  Tb2  1  0.708812  0.088699  0.878956  1
  Tb  Tb3  1  0.708855  0.909198  0.380402  1
  Tb  Tb4  1  0.589154  0.790249  0.880230  1
  Tb  Tb5  1  0.587666  0.209879  0.379982  1
  Tb  Tb6  1  0.410521  0.790354  0.380080  1
  Tb  Tb7  1  0.410750  0.209502  0.879902  1
  Tb  Tb8  1  0.209751  0.410846  0.619770  1
  Tb  Tb9  1  0.209646  0.589479  0.119920  1
  Tb  Tb10  1  0.790121  0.412334  0.120018  1
  Tb  Tb11  1  0.790498  0.589250  0.620098  1
  Tb  Tb12  1  0.910888  0.709691  0.119692  1
  Tb  Tb13  1  0.911301  0.291188  0.621044  1
  Tb  Tb14  1  0.089214  0.709447  0.620277  1
  Tb  Tb15  1  0.090802  0.291145  0.119598  1
  Tb  Tb16  1  0.999914  0.999807  0.499808  1
  Tb  Tb17  1  0.000193  0.000086  0.000192  1
  Dy  Dy18  1  0.499925  0.499772  0.999855  1
  Dy  Dy19  1  0.500228  0.500075  0.500145  1
  Ir  Ir20  1  0.846018  0.846660  0.749976  1
  Ir  Ir21  1  0.153340  0.153982  0.750024  1
  Ir  Ir22  1  0.154057  0.845943  0.250000  1
  Ir  Ir23  1  0.654310  0.345690  0.750000  1
  Ir  Ir24  1  0.653885  0.653409  0.249751  1
  Ir  Ir25  1  0.346591  0.346115  0.250249  1
  Ir  Ir26  1  0.346319  0.653681  0.750000  1
  Rh  Rh27  1  0.845815  0.154185  0.250000  1
  Rh  Rh28  1  0.500660  0.000272  0.124628  1
  Rh  Rh29  1  0.500424  0.000248  0.624015  1
  Rh  Rh30  1  0.999752  0.499576  0.875985  1
  Rh  Rh31  1  0.999728  0.499340  0.375372  1
