# generated using pymatgen
data_NiAg3(NO3)8
_symmetry_space_group_name_H-M   'P 1'
_cell_length_a   7.90209743
_cell_length_b   7.90209746
_cell_length_c   7.90209763
_cell_angle_alpha   91.39419055
_cell_angle_beta   88.60580160
_cell_angle_gamma   88.60580362
_symmetry_Int_Tables_number   1
_chemical_formula_structural   NiAg3(NO3)8
_chemical_formula_sum   'Ni1 Ag3 N8 O24'
_cell_volume   492.98635051
_cell_formula_units_Z   1
loop_
 _symmetry_equiv_pos_site_id
 _symmetry_equiv_pos_as_xyz
  1  'x, y, z'
loop_
 _atom_site_type_symbol
 _atom_site_label
 _atom_site_symmetry_multiplicity
 _atom_site_fract_x
 _atom_site_fract_y
 _atom_site_fract_z
 _atom_site_occupancy
  Ni  Ni0  1  0.000000  0.000000  0.500000  1
  Ag  Ag1  1  0.500000  0.500000  0.500000  1
  Ag  Ag2  1  0.500000  0.000000  0.000000  1
  Ag  Ag3  1  0.000000  0.500000  0.000000  1
  N  N4  1  0.685187  0.153785  0.331604  1
  N  N5  1  0.666975  0.333025  0.833025  1
  N  N6  1  0.846215  0.831604  0.814813  1
  N  N7  1  0.831604  0.685187  0.346215  1
  N  N8  1  0.153785  0.168396  0.185187  1
  N  N9  1  0.168396  0.314813  0.653785  1
  N  N10  1  0.333025  0.666975  0.166975  1
  N  N11  1  0.314813  0.846215  0.668396  1
  O  O12  1  0.547323  0.231528  0.814929  1
  O  O13  1  0.570415  0.266275  0.318983  1
  O  O14  1  0.685071  0.452677  0.731528  1
  O  O15  1  0.695416  0.032968  0.224297  1
  O  O16  1  0.724297  0.695416  0.467032  1
  O  O17  1  0.733725  0.818983  0.929585  1
  O  O18  1  0.768472  0.314929  0.952677  1
  O  O19  1  0.789404  0.162318  0.450981  1
  O  O20  1  0.837682  0.950981  0.710596  1
  O  O21  1  0.818983  0.570415  0.233725  1
  O  O22  1  0.967032  0.724297  0.804584  1
  O  O23  1  0.950981  0.789404  0.337682  1
  O  O24  1  0.049019  0.210596  0.662318  1
  O  O25  1  0.032968  0.275703  0.195416  1
  O  O26  1  0.181017  0.429585  0.766275  1
  O  O27  1  0.162318  0.049019  0.289404  1
  O  O28  1  0.231528  0.685071  0.047323  1
  O  O29  1  0.210596  0.837682  0.549019  1
  O  O30  1  0.266275  0.181017  0.070415  1
  O  O31  1  0.275703  0.304584  0.532968  1
  O  O32  1  0.314929  0.547323  0.268472  1
  O  O33  1  0.304584  0.967032  0.775703  1
  O  O34  1  0.429585  0.733725  0.681017  1
  O  O35  1  0.452677  0.768472  0.185071  1
