# generated using pymatgen
data_K4Si2SbAu6
_symmetry_space_group_name_H-M   'P 1'
_cell_length_a   10.10829364
_cell_length_b   10.10829363
_cell_length_c   10.10829405
_cell_angle_alpha   37.96577953
_cell_angle_beta   37.96578142
_cell_angle_gamma   37.96577799
_symmetry_Int_Tables_number   1
_chemical_formula_structural   K4Si2SbAu6
_chemical_formula_sum   'K4 Si2 Sb1 Au6'
_cell_volume   350.85722331
_cell_formula_units_Z   1
loop_
 _symmetry_equiv_pos_site_id
 _symmetry_equiv_pos_as_xyz
  1  'x, y, z'
loop_
 _atom_site_type_symbol
 _atom_site_label
 _atom_site_symmetry_multiplicity
 _atom_site_fract_x
 _atom_site_fract_y
 _atom_site_fract_z
 _atom_site_occupancy
  K  K0  1  0.682179  0.682179  0.682179  1
  K  K1  1  0.317821  0.317821  0.317821  1
  K  K2  1  0.809229  0.809229  0.809229  1
  K  K3  1  0.190771  0.190771  0.190771  1
  Si  Si4  1  0.542684  0.542684  0.542684  1
  Si  Si5  1  0.457316  0.457316  0.457316  1
  Sb  Sb6  1  0.000000  0.000000  0.000000  1
  Au  Au7  1  0.232549  0.232549  0.786570  1
  Au  Au8  1  0.786570  0.232549  0.232549  1
  Au  Au9  1  0.232549  0.786570  0.232549  1
  Au  Au10  1  0.767451  0.213430  0.767451  1
  Au  Au11  1  0.767451  0.767451  0.213430  1
  Au  Au12  1  0.213430  0.767451  0.767451  1
