# generated using pymatgen
data_Sr6MnNiRuO12
_symmetry_space_group_name_H-M   'P 1'
_cell_length_a   8.76096553
_cell_length_b   8.76096532
_cell_length_c   6.90834832
_cell_angle_alpha   67.70405950
_cell_angle_beta   67.70406135
_cell_angle_gamma   36.82355750
_symmetry_Int_Tables_number   1
_chemical_formula_structural   Sr6MnNiRuO12
_chemical_formula_sum   'Sr6 Mn1 Ni1 Ru1 O12'
_cell_volume   291.29262461
_cell_formula_units_Z   1
loop_
 _symmetry_equiv_pos_site_id
 _symmetry_equiv_pos_as_xyz
  1  'x, y, z'
loop_
 _atom_site_type_symbol
 _atom_site_label
 _atom_site_symmetry_multiplicity
 _atom_site_fract_x
 _atom_site_fract_y
 _atom_site_fract_z
 _atom_site_occupancy
  Sr  Sr0  1  0.876817  0.876817  0.715902  1
  Sr  Sr1  1  0.221150  0.221150  0.712328  1
  Sr  Sr2  1  0.545861  0.545861  0.705743  1
  Sr  Sr3  1  0.449412  0.449412  0.291960  1
  Sr  Sr4  1  0.780829  0.780829  0.288891  1
  Sr  Sr5  1  0.126586  0.126586  0.284792  1
  Mn  Mn6  1  0.669006  0.669006  0.999193  1
  Ni  Ni7  1  0.331715  0.331715  0.000419  1
  Ru  Ru8  1  0.000110  0.000110  0.000124  1
  O  O9  1  0.947978  0.947978  0.316387  1
  O  O10  1  0.279231  0.279231  0.328132  1
  O  O11  1  0.613173  0.613173  0.314145  1
  O  O12  1  0.389741  0.389741  0.671995  1
  O  O13  1  0.716676  0.716676  0.686926  1
  O  O14  1  0.053432  0.053432  0.683131  1
  O  O15  1  0.505795  0.987448  0.000284  1
  O  O16  1  0.833136  0.331967  0.000279  1
  O  O17  1  0.163500  0.676437  0.999403  1
  O  O18  1  0.987448  0.505795  0.000284  1
  O  O19  1  0.331967  0.833136  0.000279  1
  O  O20  1  0.676437  0.163500  0.999403  1
