# generated using pymatgen
data_AgIr5O13
_symmetry_space_group_name_H-M   'P 1'
_cell_length_a   5.48199842
_cell_length_b   5.48199620
_cell_length_c   16.29272100
_cell_angle_alpha   90.00000000
_cell_angle_beta   90.00000000
_cell_angle_gamma   108.60981594
_symmetry_Int_Tables_number   1
_chemical_formula_structural   AgIr5O13
_chemical_formula_sum   'Ag2 Ir10 O26'
_cell_volume   464.03254326
_cell_formula_units_Z   2
loop_
 _symmetry_equiv_pos_site_id
 _symmetry_equiv_pos_as_xyz
  1  'x, y, z'
loop_
 _atom_site_type_symbol
 _atom_site_label
 _atom_site_symmetry_multiplicity
 _atom_site_fract_x
 _atom_site_fract_y
 _atom_site_fract_z
 _atom_site_occupancy
  Ag  Ag0  1  0.887878  0.128721  0.750000  1
  Ag  Ag1  1  0.128721  0.887878  0.250000  1
  Ir  Ir2  1  0.383982  0.617796  0.076241  1
  Ir  Ir3  1  0.617796  0.383982  0.923759  1
  Ir  Ir4  1  0.001052  0.001052  0.000000  1
  Ir  Ir5  1  0.383982  0.617796  0.423759  1
  Ir  Ir6  1  0.617796  0.383982  0.576241  1
  Ir  Ir7  1  0.001052  0.001052  0.500000  1
  Ir  Ir8  1  0.762233  0.240503  0.362568  1
  Ir  Ir9  1  0.762233  0.240503  0.137432  1
  Ir  Ir10  1  0.240503  0.762233  0.862568  1
  Ir  Ir11  1  0.240503  0.762233  0.637432  1
  O  O12  1  0.544184  0.064459  0.861581  1
  O  O13  1  0.064459  0.544184  0.361581  1
  O  O14  1  0.064459  0.544184  0.138419  1
  O  O15  1  0.544184  0.064459  0.638419  1
  O  O16  1  0.308978  0.308978  0.000000  1
  O  O17  1  0.308978  0.308978  0.500000  1
  O  O18  1  0.024586  0.977817  0.619470  1
  O  O19  1  0.178661  0.824263  0.750000  1
  O  O20  1  0.226409  0.775709  0.987147  1
  O  O21  1  0.226409  0.775709  0.512853  1
  O  O22  1  0.457522  0.543715  0.653020  1
  O  O23  1  0.543715  0.457522  0.153020  1
  O  O24  1  0.775709  0.226409  0.487147  1
  O  O25  1  0.977817  0.024586  0.380530  1
  O  O26  1  0.543715  0.457522  0.346980  1
  O  O27  1  0.977817  0.024586  0.119470  1
  O  O28  1  0.824263  0.178661  0.250000  1
  O  O29  1  0.775709  0.226409  0.012853  1
  O  O30  1  0.024586  0.977817  0.880530  1
  O  O31  1  0.457522  0.543715  0.846980  1
  O  O32  1  0.693043  0.693043  0.500000  1
  O  O33  1  0.693043  0.693043  0.000000  1
  O  O34  1  0.458171  0.937605  0.361443  1
  O  O35  1  0.937605  0.458171  0.638557  1
  O  O36  1  0.937605  0.458171  0.861443  1
  O  O37  1  0.458171  0.937605  0.138557  1
