# generated using pymatgen
data_Sr2Li3NdPd3
_symmetry_space_group_name_H-M   'P 1'
_cell_length_a   7.63686631
_cell_length_b   7.63686655
_cell_length_c   4.22888100
_cell_angle_alpha   90.00000000
_cell_angle_beta   90.00000000
_cell_angle_gamma   119.89182356
_symmetry_Int_Tables_number   1
_chemical_formula_structural   Sr2Li3NdPd3
_chemical_formula_sum   'Sr2 Li3 Nd1 Pd3'
_cell_volume   213.82518705
_cell_formula_units_Z   1
loop_
 _symmetry_equiv_pos_site_id
 _symmetry_equiv_pos_as_xyz
  1  'x, y, z'
loop_
 _atom_site_type_symbol
 _atom_site_label
 _atom_site_symmetry_multiplicity
 _atom_site_fract_x
 _atom_site_fract_y
 _atom_site_fract_z
 _atom_site_occupancy
  Sr  Sr0  1  0.584360  0.996504  0.000000  1
  Sr  Sr1  1  0.996504  0.584360  0.000000  1
  Li  Li2  1  0.232645  0.009303  0.500000  1
  Li  Li3  1  0.009303  0.232645  0.500000  1
  Li  Li4  1  0.770285  0.770285  0.500000  1
  Nd  Nd5  1  0.406264  0.406264  0.000000  1
  Pd  Pd6  1  0.340470  0.639225  0.500000  1
  Pd  Pd7  1  0.639225  0.340470  0.500000  1
  Pd  Pd8  1  0.020945  0.020945  0.000000  1
