# generated using pymatgen
data_Ho6FeMoO12
_symmetry_space_group_name_H-M   'P 1'
_cell_length_a   6.56854948
_cell_length_b   6.56854902
_cell_length_c   6.56854975
_cell_angle_alpha   92.76733350
_cell_angle_beta   92.76734274
_cell_angle_gamma   92.76733743
_symmetry_Int_Tables_number   1
_chemical_formula_structural   Ho6FeMoO12
_chemical_formula_sum   'Ho6 Fe1 Mo1 O12'
_cell_volume   282.38091879
_cell_formula_units_Z   1
loop_
 _symmetry_equiv_pos_site_id
 _symmetry_equiv_pos_as_xyz
  1  'x, y, z'
loop_
 _atom_site_type_symbol
 _atom_site_label
 _atom_site_symmetry_multiplicity
 _atom_site_fract_x
 _atom_site_fract_y
 _atom_site_fract_z
 _atom_site_occupancy
  Ho  Ho0  1  0.742426  0.926419  0.436998  1
  Ho  Ho1  1  0.926419  0.436998  0.742426  1
  Ho  Ho2  1  0.436998  0.742426  0.926419  1
  Ho  Ho3  1  0.257574  0.073581  0.563002  1
  Ho  Ho4  1  0.073581  0.563002  0.257574  1
  Ho  Ho5  1  0.563002  0.257574  0.073581  1
  Fe  Fe6  1  0.500000  0.500000  0.500000  1
  Mo  Mo7  1  0.000000  0.000000  0.000000  1
  O  O8  1  0.589080  0.461478  0.801171  1
  O  O9  1  0.461478  0.801171  0.589080  1
  O  O10  1  0.801171  0.589080  0.461478  1
  O  O11  1  0.410920  0.538522  0.198829  1
  O  O12  1  0.538522  0.198829  0.410920  1
  O  O13  1  0.198829  0.410920  0.538522  1
  O  O14  1  0.068404  0.910418  0.312254  1
  O  O15  1  0.910418  0.312254  0.068404  1
  O  O16  1  0.687746  0.931596  0.089582  1
  O  O17  1  0.089582  0.687746  0.931596  1
  O  O18  1  0.931596  0.089582  0.687746  1
  O  O19  1  0.312254  0.068404  0.910418  1
