# generated using pymatgen
data_RbYTa4(NbBr9)2
_symmetry_space_group_name_H-M   'P 1'
_cell_length_a   10.78293551
_cell_length_b   10.80132497
_cell_length_c   10.78547470
_cell_angle_alpha   55.60339251
_cell_angle_beta   55.68063935
_cell_angle_gamma   55.59736752
_symmetry_Int_Tables_number   1
_chemical_formula_structural   RbYTa4(NbBr9)2
_chemical_formula_sum   'Rb1 Y1 Ta4 Nb2 Br18'
_cell_volume   798.11999084
_cell_formula_units_Z   1
loop_
 _symmetry_equiv_pos_site_id
 _symmetry_equiv_pos_as_xyz
  1  'x, y, z'
loop_
 _atom_site_type_symbol
 _atom_site_label
 _atom_site_symmetry_multiplicity
 _atom_site_fract_x
 _atom_site_fract_y
 _atom_site_fract_z
 _atom_site_occupancy
  Rb  Rb0  1  0.220653  0.221163  0.221097  1
  Y  Y1  1  0.498543  0.498279  0.498000  1
  Ta  Ta2  1  0.811968  0.140884  0.916438  1
  Ta  Ta3  1  0.916734  0.812837  0.140288  1
  Ta  Ta4  1  0.140112  0.917010  0.812597  1
  Ta  Ta5  1  0.188967  0.860015  0.082921  1
  Nb  Nb6  1  0.083396  0.190403  0.858766  1
  Nb  Nb7  1  0.858829  0.083473  0.190440  1
  Br  Br8  1  0.864448  0.409067  0.726350  1
  Br  Br9  1  0.726493  0.864732  0.409121  1
  Br  Br10  1  0.408400  0.726369  0.867502  1
  Br  Br11  1  0.132438  0.591853  0.275952  1
  Br  Br12  1  0.276625  0.130792  0.589948  1
  Br  Br13  1  0.590103  0.276615  0.130624  1
  Br  Br14  1  0.537513  0.338158  0.803240  1
  Br  Br15  1  0.803462  0.538214  0.337805  1
  Br  Br16  1  0.338602  0.802390  0.538523  1
  Br  Br17  1  0.460240  0.661837  0.198160  1
  Br  Br18  1  0.199994  0.462194  0.660372  1
  Br  Br19  1  0.660868  0.199034  0.462944  1
  Br  Br20  1  0.664765  0.939662  0.069158  1
  Br  Br21  1  0.069606  0.664989  0.939333  1
  Br  Br22  1  0.938815  0.069813  0.664811  1
  Br  Br23  1  0.340165  0.056966  0.928304  1
  Br  Br24  1  0.927212  0.339538  0.059905  1
  Br  Br25  1  0.062189  0.924852  0.338541  1
