# generated using pymatgen
data_Ho2Er10Co4BiOs
_symmetry_space_group_name_H-M   'P 1'
_cell_length_a   8.26826453
_cell_length_b   8.26826384
_cell_length_c   8.26352277
_cell_angle_alpha   110.47295217
_cell_angle_beta   111.47821600
_cell_angle_gamma   106.52883248
_symmetry_Int_Tables_number   1
_chemical_formula_structural   Ho2Er10Co4BiOs
_chemical_formula_sum   'Ho2 Er10 Co4 Bi1 Os1'
_cell_volume   433.85396796
_cell_formula_units_Z   1
loop_
 _symmetry_equiv_pos_site_id
 _symmetry_equiv_pos_as_xyz
  1  'x, y, z'
loop_
 _atom_site_type_symbol
 _atom_site_label
 _atom_site_symmetry_multiplicity
 _atom_site_fract_x
 _atom_site_fract_y
 _atom_site_fract_z
 _atom_site_occupancy
  Ho  Ho0  1  0.281208  0.181087  0.462293  1
  Ho  Ho1  1  0.718792  0.818913  0.537707  1
  Er  Er2  1  0.280734  0.818638  0.099372  1
  Er  Er3  1  0.719266  0.181362  0.900628  1
  Er  Er4  1  0.620580  0.311413  0.308390  1
  Er  Er5  1  0.379420  0.688587  0.691610  1
  Er  Er6  1  0.003025  0.312189  0.691610  1
  Er  Er7  1  0.996975  0.687811  0.308390  1
  Er  Er8  1  0.214060  0.411286  0.196335  1
  Er  Er9  1  0.785940  0.588714  0.803665  1
  Er  Er10  1  0.214951  0.017725  0.803665  1
  Er  Er11  1  0.785049  0.982275  0.196335  1
  Co  Co12  1  0.999892  0.375930  0.375821  1
  Co  Co13  1  0.000108  0.624070  0.624179  1
  Co  Co14  1  0.388751  0.888751  0.500000  1
  Co  Co15  1  0.611249  0.111249  0.500000  1
  Bi  Bi16  1  0.500000  0.500000  0.000000  1
  Os  Os17  1  0.000000  0.000000  0.000000  1
