# generated using pymatgen
data_Lu6VFe17P12
_symmetry_space_group_name_H-M   'P 1'
_cell_length_a   3.66999300
_cell_length_b   10.49230000
_cell_length_c   12.16891800
_cell_angle_alpha   90.00000000
_cell_angle_beta   90.00000000
_cell_angle_gamma   90.00000000
_symmetry_Int_Tables_number   1
_chemical_formula_structural   Lu6VFe17P12
_chemical_formula_sum   'Lu6 V1 Fe17 P12'
_cell_volume   468.58447992
_cell_formula_units_Z   1
loop_
 _symmetry_equiv_pos_site_id
 _symmetry_equiv_pos_as_xyz
  1  'x, y, z'
loop_
 _atom_site_type_symbol
 _atom_site_label
 _atom_site_symmetry_multiplicity
 _atom_site_fract_x
 _atom_site_fract_y
 _atom_site_fract_z
 _atom_site_occupancy
  Lu  Lu0  1  0.000000  0.500000  0.526417  1
  Lu  Lu1  1  0.500000  0.000000  0.473727  1
  Lu  Lu2  1  0.500000  0.821851  0.207462  1
  Lu  Lu3  1  0.500000  0.178149  0.207462  1
  Lu  Lu4  1  0.000000  0.678967  0.792669  1
  Lu  Lu5  1  0.000000  0.321033  0.792669  1
  V  V6  1  0.500000  0.500000  0.149353  1
  Fe  Fe7  1  0.000000  0.000000  0.845741  1
  Fe  Fe8  1  0.500000  0.500000  0.698643  1
  Fe  Fe9  1  0.000000  0.000000  0.300857  1
  Fe  Fe10  1  0.000000  0.500000  0.988291  1
  Fe  Fe11  1  0.500000  0.000000  0.009595  1
  Fe  Fe12  1  0.500000  0.324895  0.996219  1
  Fe  Fe13  1  0.500000  0.675105  0.996219  1
  Fe  Fe14  1  0.000000  0.171702  0.002925  1
  Fe  Fe15  1  0.000000  0.828298  0.002925  1
  Fe  Fe16  1  0.500000  0.298889  0.431295  1
  Fe  Fe17  1  0.500000  0.701111  0.431295  1
  Fe  Fe18  1  0.000000  0.199986  0.569535  1
  Fe  Fe19  1  0.000000  0.800014  0.569535  1
  Fe  Fe20  1  0.500000  0.881964  0.706717  1
  Fe  Fe21  1  0.500000  0.118036  0.706717  1
  Fe  Fe22  1  0.000000  0.619770  0.295034  1
  Fe  Fe23  1  0.000000  0.380230  0.295034  1
  P  P24  1  0.500000  0.500000  0.882883  1
  P  P25  1  0.000000  0.000000  0.117338  1
  P  P26  1  0.500000  0.500000  0.346927  1
  P  P27  1  0.000000  0.000000  0.658037  1
  P  P28  1  0.500000  0.307587  0.615492  1
  P  P29  1  0.500000  0.692413  0.615492  1
  P  P30  1  0.000000  0.190959  0.385463  1
  P  P31  1  0.000000  0.809041  0.385463  1
  P  P32  1  0.500000  0.851204  0.885345  1
  P  P33  1  0.500000  0.148796  0.885345  1
  P  P34  1  0.000000  0.653381  0.112940  1
  P  P35  1  0.000000  0.346619  0.112940  1
