# generated using pymatgen
data_Y2Fe5P6Rh5
_symmetry_space_group_name_H-M   'P 1'
_cell_length_a   3.77865900
_cell_length_b   10.42680700
_cell_length_c   12.20746300
_cell_angle_alpha   90.00000000
_cell_angle_beta   90.00000000
_cell_angle_gamma   90.00000000
_symmetry_Int_Tables_number   1
_chemical_formula_structural   Y2Fe5P6Rh5
_chemical_formula_sum   'Y4 Fe10 P12 Rh10'
_cell_volume   480.96608430
_cell_formula_units_Z   2
loop_
 _symmetry_equiv_pos_site_id
 _symmetry_equiv_pos_as_xyz
  1  'x, y, z'
loop_
 _atom_site_type_symbol
 _atom_site_label
 _atom_site_symmetry_multiplicity
 _atom_site_fract_x
 _atom_site_fract_y
 _atom_site_fract_z
 _atom_site_occupancy
  Y  Y0  1  0.250000  0.582888  0.711899  1
  Y  Y1  1  0.250000  0.917112  0.211899  1
  Y  Y2  1  0.750000  0.423466  0.290213  1
  Y  Y3  1  0.750000  0.076534  0.790213  1
  Fe  Fe4  1  0.750000  0.774167  0.828516  1
  Fe  Fe5  1  0.750000  0.725833  0.328516  1
  Fe  Fe6  1  0.250000  0.874349  0.697006  1
  Fe  Fe7  1  0.250000  0.625651  0.197006  1
  Fe  Fe8  1  0.750000  0.120399  0.301932  1
  Fe  Fe9  1  0.750000  0.379601  0.801932  1
  Fe  Fe10  1  0.250000  0.459890  0.935051  1
  Fe  Fe11  1  0.250000  0.040110  0.435051  1
  Fe  Fe12  1  0.750000  0.541235  0.064598  1
  Fe  Fe13  1  0.750000  0.958765  0.564598  1
  P  P14  1  0.250000  0.439647  0.111778  1
  P  P15  1  0.250000  0.060353  0.611778  1
  P  P16  1  0.750000  0.570236  0.887092  1
  P  P17  1  0.750000  0.929764  0.387092  1
  P  P18  1  0.250000  0.271739  0.863468  1
  P  P19  1  0.250000  0.228261  0.363468  1
  P  P20  1  0.750000  0.726404  0.146400  1
  P  P21  1  0.750000  0.773596  0.646400  1
  P  P22  1  0.250000  0.609872  0.377089  1
  P  P23  1  0.250000  0.890128  0.877089  1
  P  P24  1  0.750000  0.402701  0.618351  1
  P  P25  1  0.750000  0.097299  0.118351  1
  Rh  Rh26  1  0.250000  0.707621  0.984895  1
  Rh  Rh27  1  0.250000  0.792379  0.484895  1
  Rh  Rh28  1  0.750000  0.287061  0.009251  1
  Rh  Rh29  1  0.750000  0.212939  0.509251  1
  Rh  Rh30  1  0.250000  0.411880  0.478660  1
  Rh  Rh31  1  0.250000  0.088120  0.978660  1
  Rh  Rh32  1  0.750000  0.599455  0.520030  1
  Rh  Rh33  1  0.750000  0.900545  0.020030  1
  Rh  Rh34  1  0.250000  0.229824  0.173770  1
  Rh  Rh35  1  0.250000  0.270176  0.673770  1
