# generated using pymatgen
data_TbHo4Bi2Sb
_symmetry_space_group_name_H-M   'P 1'
_cell_length_a   8.20970300
_cell_length_b   9.45772600
_cell_length_c   12.08377800
_cell_angle_alpha   90.00000000
_cell_angle_beta   90.00000000
_cell_angle_gamma   90.00000000
_symmetry_Int_Tables_number   1
_chemical_formula_structural   TbHo4Bi2Sb
_chemical_formula_sum   'Tb4 Ho16 Bi8 Sb4'
_cell_volume   938.24641117
_cell_formula_units_Z   4
loop_
 _symmetry_equiv_pos_site_id
 _symmetry_equiv_pos_as_xyz
  1  'x, y, z'
loop_
 _atom_site_type_symbol
 _atom_site_label
 _atom_site_symmetry_multiplicity
 _atom_site_fract_x
 _atom_site_fract_y
 _atom_site_fract_z
 _atom_site_occupancy
  Tb  Tb0  1  0.319845  0.250000  0.216276  1
  Tb  Tb1  1  0.819845  0.250000  0.283724  1
  Tb  Tb2  1  0.680155  0.750000  0.783724  1
  Tb  Tb3  1  0.180155  0.750000  0.716276  1
  Ho  Ho4  1  0.351336  0.750000  0.214861  1
  Ho  Ho5  1  0.851336  0.750000  0.285139  1
  Ho  Ho6  1  0.648664  0.250000  0.785139  1
  Ho  Ho7  1  0.148664  0.250000  0.714861  1
  Ho  Ho8  1  0.687118  0.562906  0.059549  1
  Ho  Ho9  1  0.187118  0.937094  0.440451  1
  Ho  Ho10  1  0.312882  0.062906  0.940451  1
  Ho  Ho11  1  0.812882  0.437094  0.559549  1
  Ho  Ho12  1  0.312882  0.437094  0.940451  1
  Ho  Ho13  1  0.812882  0.062906  0.559549  1
  Ho  Ho14  1  0.687118  0.937094  0.059549  1
  Ho  Ho15  1  0.187118  0.562906  0.440451  1
  Ho  Ho16  1  0.474545  0.250000  0.487545  1
  Ho  Ho17  1  0.974545  0.250000  0.012455  1
  Ho  Ho18  1  0.525455  0.750000  0.512455  1
  Ho  Ho19  1  0.025455  0.750000  0.987545  1
  Bi  Bi20  1  0.566033  0.994884  0.327003  1
  Bi  Bi21  1  0.066033  0.505116  0.172997  1
  Bi  Bi22  1  0.433967  0.494884  0.672997  1
  Bi  Bi23  1  0.933967  0.005116  0.827003  1
  Bi  Bi24  1  0.433967  0.005116  0.672997  1
  Bi  Bi25  1  0.933967  0.494884  0.827003  1
  Bi  Bi26  1  0.566033  0.505116  0.327003  1
  Bi  Bi27  1  0.066033  0.994884  0.172997  1
  Sb  Sb28  1  0.404965  0.750000  0.961785  1
  Sb  Sb29  1  0.904965  0.750000  0.538215  1
  Sb  Sb30  1  0.595035  0.250000  0.038215  1
  Sb  Sb31  1  0.095035  0.250000  0.461785  1
