# generated using pymatgen
data_LaEu15(MgIr)4
_symmetry_space_group_name_H-M   'P 1'
_cell_length_a   10.24526460
_cell_length_b   10.24526462
_cell_length_c   10.29356700
_cell_angle_alpha   59.84392241
_cell_angle_beta   59.84392234
_cell_angle_gamma   60.25896487
_symmetry_Int_Tables_number   1
_chemical_formula_structural   LaEu15(MgIr)4
_chemical_formula_sum   'La1 Eu15 Mg4 Ir4'
_cell_volume   763.67289846
_cell_formula_units_Z   1
loop_
 _symmetry_equiv_pos_site_id
 _symmetry_equiv_pos_as_xyz
  1  'x, y, z'
loop_
 _atom_site_type_symbol
 _atom_site_label
 _atom_site_symmetry_multiplicity
 _atom_site_fract_x
 _atom_site_fract_y
 _atom_site_fract_z
 _atom_site_occupancy
  La  La0  1  0.464488  0.464488  0.035512  1
  Eu  Eu1  1  0.448038  0.056169  0.441614  1
  Eu  Eu2  1  0.811565  0.811565  0.188435  1
  Eu  Eu3  1  0.056169  0.448038  0.054178  1
  Eu  Eu4  1  0.189996  0.810542  0.192791  1
  Eu  Eu5  1  0.810542  0.189996  0.192791  1
  Eu  Eu6  1  0.050613  0.050613  0.449387  1
  Eu  Eu7  1  0.659991  0.659991  0.648743  1
  Eu  Eu8  1  0.654786  0.021969  0.661622  1
  Eu  Eu9  1  0.189996  0.810542  0.806671  1
  Eu  Eu10  1  0.021969  0.654786  0.661622  1
  Eu  Eu11  1  0.056169  0.448038  0.441614  1
  Eu  Eu12  1  0.187536  0.187536  0.812464  1
  Eu  Eu13  1  0.659991  0.659991  0.031273  1
  Eu  Eu14  1  0.448038  0.056169  0.054178  1
  Eu  Eu15  1  0.810542  0.189996  0.806671  1
  Mg  Mg16  1  0.731417  0.422882  0.422851  1
  Mg  Mg17  1  0.422555  0.422555  0.422601  1
  Mg  Mg18  1  0.422882  0.731417  0.422851  1
  Mg  Mg19  1  0.422555  0.422555  0.732288  1
  Ir  Ir20  1  0.861621  0.861621  0.862103  1
  Ir  Ir21  1  0.842162  0.414756  0.871542  1
  Ir  Ir22  1  0.861621  0.861621  0.414655  1
  Ir  Ir23  1  0.414756  0.842162  0.871542  1
