# generated using pymatgen
data_YbAg2PbO4
_symmetry_space_group_name_H-M   'P 1'
_cell_length_a   6.68754899
_cell_length_b   6.68754855
_cell_length_c   6.00406992
_cell_angle_alpha   80.65800483
_cell_angle_beta   80.65800651
_cell_angle_gamma   30.25888486
_symmetry_Int_Tables_number   1
_chemical_formula_structural   YbAg2PbO4
_chemical_formula_sum   'Yb1 Ag2 Pb1 O4'
_cell_volume   133.38354397
_cell_formula_units_Z   1
loop_
 _symmetry_equiv_pos_site_id
 _symmetry_equiv_pos_as_xyz
  1  'x, y, z'
loop_
 _atom_site_type_symbol
 _atom_site_label
 _atom_site_symmetry_multiplicity
 _atom_site_fract_x
 _atom_site_fract_y
 _atom_site_fract_z
 _atom_site_occupancy
  Yb  Yb0  1  0.000000  0.000000  0.500000  1
  Ag  Ag1  1  0.746002  0.746002  0.216983  1
  Ag  Ag2  1  0.253998  0.253998  0.783017  1
  Pb  Pb3  1  0.500000  0.500000  0.000000  1
  O  O4  1  0.910355  0.910355  0.185900  1
  O  O5  1  0.417643  0.417643  0.714580  1
  O  O6  1  0.582357  0.582357  0.285420  1
  O  O7  1  0.089645  0.089645  0.814100  1
