# generated using pymatgen
data_Ho4Sc16Bi11Sb
_symmetry_space_group_name_H-M   'P 1'
_cell_length_a   7.86209426
_cell_length_b   9.05018000
_cell_length_c   11.53581838
_cell_angle_alpha   90.00000000
_cell_angle_beta   90.02925071
_cell_angle_gamma   90.00000000
_symmetry_Int_Tables_number   1
_chemical_formula_structural   Ho4Sc16Bi11Sb
_chemical_formula_sum   'Ho4 Sc16 Bi11 Sb1'
_cell_volume   820.81222536
_cell_formula_units_Z   1
loop_
 _symmetry_equiv_pos_site_id
 _symmetry_equiv_pos_as_xyz
  1  'x, y, z'
loop_
 _atom_site_type_symbol
 _atom_site_label
 _atom_site_symmetry_multiplicity
 _atom_site_fract_x
 _atom_site_fract_y
 _atom_site_fract_z
 _atom_site_occupancy
  Ho  Ho0  1  0.316030  0.250000  0.218769  1
  Ho  Ho1  1  0.815967  0.250000  0.281318  1
  Ho  Ho2  1  0.681080  0.750000  0.783300  1
  Ho  Ho3  1  0.185031  0.750000  0.720045  1
  Sc  Sc4  1  0.350357  0.750000  0.217744  1
  Sc  Sc5  1  0.849759  0.750000  0.279500  1
  Sc  Sc6  1  0.650477  0.250000  0.779468  1
  Sc  Sc7  1  0.150362  0.250000  0.720580  1
  Sc  Sc8  1  0.690575  0.569037  0.061059  1
  Sc  Sc9  1  0.193026  0.932627  0.438038  1
  Sc  Sc10  1  0.307886  0.064068  0.938396  1
  Sc  Sc11  1  0.806998  0.432814  0.561897  1
  Sc  Sc12  1  0.307886  0.435932  0.938396  1
  Sc  Sc13  1  0.806998  0.067186  0.561897  1
  Sc  Sc14  1  0.690575  0.930963  0.061059  1
  Sc  Sc15  1  0.193026  0.567373  0.438038  1
  Sc  Sc16  1  0.481986  0.250000  0.489013  1
  Sc  Sc17  1  0.982240  0.250000  0.010905  1
  Sc  Sc18  1  0.518141  0.750000  0.511018  1
  Sc  Sc19  1  0.021343  0.750000  0.988824  1
  Bi  Bi20  1  0.902068  0.750000  0.533921  1
  Bi  Bi21  1  0.598126  0.250000  0.033677  1
  Bi  Bi22  1  0.098199  0.250000  0.466357  1
  Bi  Bi23  1  0.564494  0.990399  0.328281  1
  Bi  Bi24  1  0.064427  0.509413  0.171620  1
  Bi  Bi25  1  0.435458  0.490475  0.671694  1
  Bi  Bi26  1  0.935332  0.009394  0.828307  1
  Bi  Bi27  1  0.435458  0.009525  0.671694  1
  Bi  Bi28  1  0.935332  0.490606  0.828307  1
  Bi  Bi29  1  0.564494  0.509601  0.328281  1
  Bi  Bi30  1  0.064427  0.990587  0.171620  1
  Sb  Sb31  1  0.402443  0.750000  0.966978  1
