# generated using pymatgen
data_La3Hg3PdRh2
_symmetry_space_group_name_H-M   'P 1'
_cell_length_a   7.78048900
_cell_length_b   7.78049001
_cell_length_c   4.07318300
_cell_angle_alpha   90.00000000
_cell_angle_beta   90.00000000
_cell_angle_gamma   119.99999998
_symmetry_Int_Tables_number   1
_chemical_formula_structural   La3Hg3PdRh2
_chemical_formula_sum   'La3 Hg3 Pd1 Rh2'
_cell_volume   213.53958606
_cell_formula_units_Z   1
loop_
 _symmetry_equiv_pos_site_id
 _symmetry_equiv_pos_as_xyz
  1  'x, y, z'
loop_
 _atom_site_type_symbol
 _atom_site_label
 _atom_site_symmetry_multiplicity
 _atom_site_fract_x
 _atom_site_fract_y
 _atom_site_fract_z
 _atom_site_occupancy
  La  La0  1  0.407606  0.407606  0.500000  1
  La  La1  1  0.592394  0.000000  0.500000  1
  La  La2  1  0.000000  0.592394  0.500000  1
  Hg  Hg3  1  0.742725  0.742725  0.000000  1
  Hg  Hg4  1  0.257275  0.000000  0.000000  1
  Hg  Hg5  1  0.000000  0.257275  0.000000  1
  Pd  Pd6  1  0.000000  0.000000  0.500000  1
  Rh  Rh7  1  0.666667  0.333333  0.000000  1
  Rh  Rh8  1  0.333333  0.666667  0.000000  1
