# generated using pymatgen
data_Hf6Zn19GeAu4
_symmetry_space_group_name_H-M   'P 1'
_cell_length_a   8.87106172
_cell_length_b   8.82477457
_cell_length_c   8.82477715
_cell_angle_alpha   60.45370248
_cell_angle_beta   59.84212132
_cell_angle_gamma   59.84219022
_symmetry_Int_Tables_number   1
_chemical_formula_structural   Hf6Zn19GeAu4
_chemical_formula_sum   'Hf6 Zn19 Ge1 Au4'
_cell_volume   488.97596640
_cell_formula_units_Z   1
loop_
 _symmetry_equiv_pos_site_id
 _symmetry_equiv_pos_as_xyz
  1  'x, y, z'
loop_
 _atom_site_type_symbol
 _atom_site_label
 _atom_site_symmetry_multiplicity
 _atom_site_fract_x
 _atom_site_fract_y
 _atom_site_fract_z
 _atom_site_occupancy
  Hf  Hf0  1  0.716423  0.289677  0.289678  1
  Hf  Hf1  1  0.278978  0.715576  0.715577  1
  Hf  Hf2  1  0.290058  0.710627  0.291192  1
  Hf  Hf3  1  0.715281  0.285360  0.706175  1
  Hf  Hf4  1  0.290058  0.291193  0.710628  1
  Hf  Hf5  1  0.715282  0.706175  0.285359  1
  Zn  Zn6  1  0.877294  0.872961  0.374435  1
  Zn  Zn7  1  0.877294  0.374437  0.872960  1
  Zn  Zn8  1  0.622212  0.123967  0.123968  1
  Zn  Zn9  1  0.369753  0.876469  0.876471  1
  Zn  Zn10  1  0.496517  0.998848  0.998847  1
  Zn  Zn11  1  0.996994  0.502098  0.502097  1
  Zn  Zn12  1  0.000091  0.498048  0.997244  1
  Zn  Zn13  1  0.509854  0.997699  0.492967  1
  Zn  Zn14  1  0.000091  0.997245  0.498048  1
  Zn  Zn15  1  0.509854  0.492967  0.997700  1
  Zn  Zn16  1  0.342128  0.337801  0.337802  1
  Zn  Zn17  1  0.658100  0.660348  0.660348  1
  Zn  Zn18  1  0.340443  0.339246  0.983262  1
  Zn  Zn19  1  0.340445  0.983261  0.339246  1
  Zn  Zn20  1  0.661395  0.659718  0.013287  1
  Zn  Zn21  1  0.661394  0.013288  0.659718  1
  Zn  Zn22  1  0.993354  0.335414  0.335415  1
  Zn  Zn23  1  0.014166  0.661353  0.661353  1
  Zn  Zn24  1  0.982411  0.009062  0.009061  1
  Ge  Ge25  1  0.498178  0.503720  0.503720  1
  Au  Au26  1  0.121824  0.118296  0.118299  1
  Au  Au27  1  0.871434  0.882312  0.882311  1
  Au  Au28  1  0.124347  0.121657  0.641176  1
  Au  Au29  1  0.124346  0.641177  0.121658  1
