# generated using pymatgen
data_Ta6Al4CuReC2
_symmetry_space_group_name_H-M   'P 1'
_cell_length_a   8.32176485
_cell_length_b   8.32176541
_cell_length_c   8.27839200
_cell_angle_alpha   60.17226380
_cell_angle_beta   60.17226158
_cell_angle_gamma   60.37813933
_symmetry_Int_Tables_number   1
_chemical_formula_structural   Ta6Al4CuReC2
_chemical_formula_sum   'Ta12 Al8 Cu2 Re2 C4'
_cell_volume   407.58672962
_cell_formula_units_Z   2
loop_
 _symmetry_equiv_pos_site_id
 _symmetry_equiv_pos_as_xyz
  1  'x, y, z'
loop_
 _atom_site_type_symbol
 _atom_site_label
 _atom_site_symmetry_multiplicity
 _atom_site_fract_x
 _atom_site_fract_y
 _atom_site_fract_z
 _atom_site_occupancy
  Ta  Ta0  1  0.570375  0.936998  0.554704  1
  Ta  Ta1  1  0.313002  0.679625  0.695296  1
  Ta  Ta2  1  0.679625  0.313002  0.312076  1
  Ta  Ta3  1  0.313002  0.679625  0.312076  1
  Ta  Ta4  1  0.692488  0.692488  0.307512  1
  Ta  Ta5  1  0.315993  0.315993  0.684007  1
  Ta  Ta6  1  0.557512  0.557512  0.942488  1
  Ta  Ta7  1  0.936998  0.570375  0.554704  1
  Ta  Ta8  1  0.570375  0.936998  0.937924  1
  Ta  Ta9  1  0.934007  0.934007  0.565993  1
  Ta  Ta10  1  0.679625  0.313002  0.695296  1
  Ta  Ta11  1  0.936998  0.570375  0.937924  1
  Al  Al12  1  0.920886  0.920886  0.911295  1
  Al  Al13  1  0.994445  0.329509  0.338023  1
  Al  Al14  1  0.329509  0.994445  0.338023  1
  Al  Al15  1  0.329114  0.329114  0.003066  1
  Al  Al16  1  0.920491  0.255555  0.911977  1
  Al  Al17  1  0.920886  0.920886  0.246934  1
  Al  Al18  1  0.255555  0.920491  0.911977  1
  Al  Al19  1  0.329114  0.329114  0.338705  1
  Cu  Cu20  1  0.125000  0.125000  0.125000  1
  Cu  Cu21  1  0.125000  0.125000  0.625000  1
  Re  Re22  1  0.625000  0.125000  0.125000  1
  Re  Re23  1  0.125000  0.625000  0.125000  1
  C  C24  1  0.625000  0.625000  0.625000  1
  C  C25  1  0.125000  0.625000  0.625000  1
  C  C26  1  0.625000  0.125000  0.625000  1
  C  C27  1  0.625000  0.625000  0.125000  1
