# generated using pymatgen
data_Tb2Ho2TcB12Ru
_symmetry_space_group_name_H-M   'P 1'
_cell_length_a   3.67607100
_cell_length_b   9.15604452
_cell_length_c   11.55264600
_cell_angle_alpha   89.85432222
_cell_angle_beta   90.00000000
_cell_angle_gamma   90.00000000
_symmetry_Int_Tables_number   1
_chemical_formula_structural   Tb2Ho2TcB12Ru
_chemical_formula_sum   'Tb4 Ho4 Tc2 B24 Ru2'
_cell_volume   388.84081856
_cell_formula_units_Z   2
loop_
 _symmetry_equiv_pos_site_id
 _symmetry_equiv_pos_as_xyz
  1  'x, y, z'
loop_
 _atom_site_type_symbol
 _atom_site_label
 _atom_site_symmetry_multiplicity
 _atom_site_fract_x
 _atom_site_fract_y
 _atom_site_fract_z
 _atom_site_occupancy
  Tb  Tb0  1  0.000000  0.324877  0.415413  1
  Tb  Tb1  1  0.000000  0.675123  0.584587  1
  Tb  Tb2  1  0.000000  0.821492  0.087306  1
  Tb  Tb3  1  0.000000  0.178508  0.912694  1
  Ho  Ho4  1  0.000000  0.942113  0.370483  1
  Ho  Ho5  1  0.000000  0.057887  0.629517  1
  Ho  Ho6  1  0.000000  0.443102  0.130158  1
  Ho  Ho7  1  0.000000  0.556898  0.869842  1
  Tc  Tc8  1  0.000000  0.638788  0.319858  1
  Tc  Tc9  1  0.000000  0.361212  0.680142  1
  B  B10  1  0.500000  0.553422  0.432560  1
  B  B11  1  0.500000  0.446578  0.567440  1
  B  B12  1  0.500000  0.054127  0.067463  1
  B  B13  1  0.500000  0.945873  0.932537  1
  B  B14  1  0.500000  0.748668  0.418521  1
  B  B15  1  0.500000  0.251332  0.581479  1
  B  B16  1  0.500000  0.248714  0.081578  1
  B  B17  1  0.500000  0.751286  0.918422  1
  B  B18  1  0.500000  0.791409  0.265470  1
  B  B19  1  0.500000  0.208591  0.734530  1
  B  B20  1  0.500000  0.290535  0.234031  1
  B  B21  1  0.500000  0.709465  0.765969  1
  B  B22  1  0.500000  0.631008  0.185255  1
  B  B23  1  0.500000  0.368992  0.814745  1
  B  B24  1  0.500000  0.130663  0.313970  1
  B  B25  1  0.500000  0.869337  0.686030  1
  B  B26  1  0.500000  0.983454  0.212102  1
  B  B27  1  0.500000  0.016546  0.787898  1
  B  B28  1  0.500000  0.482994  0.287425  1
  B  B29  1  0.500000  0.517006  0.712575  1
  B  B30  1  0.500000  0.602859  0.028265  1
  B  B31  1  0.500000  0.397141  0.971735  1
  B  B32  1  0.500000  0.102823  0.471365  1
  B  B33  1  0.500000  0.897177  0.528635  1
  Ru  Ru34  1  0.000000  0.138036  0.178917  1
  Ru  Ru35  1  0.000000  0.861964  0.821083  1
