# generated using pymatgen
data_Hg2PdPtO7
_symmetry_space_group_name_H-M   'P 1'
_cell_length_a   7.30834528
_cell_length_b   7.30924858
_cell_length_c   7.30834176
_cell_angle_alpha   59.99620765
_cell_angle_beta   59.94880574
_cell_angle_gamma   59.99619974
_symmetry_Int_Tables_number   1
_chemical_formula_structural   Hg2PdPtO7
_chemical_formula_sum   'Hg4 Pd2 Pt2 O14'
_cell_volume   275.93222645
_cell_formula_units_Z   2
loop_
 _symmetry_equiv_pos_site_id
 _symmetry_equiv_pos_as_xyz
  1  'x, y, z'
loop_
 _atom_site_type_symbol
 _atom_site_label
 _atom_site_symmetry_multiplicity
 _atom_site_fract_x
 _atom_site_fract_y
 _atom_site_fract_z
 _atom_site_occupancy
  Hg  Hg0  1  0.124999  0.125001  0.124999  1
  Hg  Hg1  1  0.624997  0.125003  0.124997  1
  Hg  Hg2  1  0.124999  0.625001  0.124999  1
  Hg  Hg3  1  0.124997  0.125003  0.624997  1
  Pd  Pd4  1  0.625004  0.625003  0.625004  1
  Pd  Pd5  1  0.625004  0.124989  0.625004  1
  Pt  Pt6  1  0.624995  0.625002  0.125000  1
  Pt  Pt7  1  0.125000  0.625002  0.624995  1
  O  O8  1  0.705688  0.297754  0.293209  1
  O  O9  1  0.706496  0.293503  0.706496  1
  O  O10  1  0.000176  0.999826  0.000175  1
  O  O11  1  0.296545  0.703455  0.296545  1
  O  O12  1  0.705686  0.703348  0.293210  1
  O  O13  1  0.956797  0.546653  0.544310  1
  O  O14  1  0.293210  0.703348  0.705686  1
  O  O15  1  0.249826  0.250172  0.249827  1
  O  O16  1  0.953460  0.546540  0.953460  1
  O  O17  1  0.543495  0.956506  0.543495  1
  O  O18  1  0.544310  0.546653  0.956797  1
  O  O19  1  0.956798  0.952242  0.544309  1
  O  O20  1  0.544308  0.952242  0.956798  1
  O  O21  1  0.293209  0.297754  0.705687  1
