# generated using pymatgen
data_Sm12Zn4AgAu19
_symmetry_space_group_name_H-M   'P 1'
_cell_length_a   8.54772625
_cell_length_b   8.53588507
_cell_length_c   13.66198700
_cell_angle_alpha   90.00000000
_cell_angle_beta   90.00000000
_cell_angle_gamma   127.11680055
_symmetry_Int_Tables_number   1
_chemical_formula_structural   Sm12Zn4AgAu19
_chemical_formula_sum   'Sm12 Zn4 Ag1 Au19'
_cell_volume   794.86447232
_cell_formula_units_Z   1
loop_
 _symmetry_equiv_pos_site_id
 _symmetry_equiv_pos_as_xyz
  1  'x, y, z'
loop_
 _atom_site_type_symbol
 _atom_site_label
 _atom_site_symmetry_multiplicity
 _atom_site_fract_x
 _atom_site_fract_y
 _atom_site_fract_z
 _atom_site_occupancy
  Sm  Sm0  1  0.922252  0.072209  0.250000  1
  Sm  Sm1  1  0.072369  0.926938  0.750000  1
  Sm  Sm2  1  0.319116  0.674112  0.250000  1
  Sm  Sm3  1  0.679859  0.320003  0.750000  1
  Sm  Sm4  1  0.630254  0.368147  0.464838  1
  Sm  Sm5  1  0.368841  0.630464  0.535586  1
  Sm  Sm6  1  0.630254  0.368147  0.035162  1
  Sm  Sm7  1  0.368841  0.630464  0.964414  1
  Sm  Sm8  1  0.881231  0.117525  0.948951  1
  Sm  Sm9  1  0.115152  0.879744  0.048791  1
  Sm  Sm10  1  0.881231  0.117525  0.551049  1
  Sm  Sm11  1  0.115152  0.879744  0.451209  1
  Zn  Zn12  1  0.726335  0.285767  0.250000  1
  Zn  Zn13  1  0.279439  0.720967  0.750000  1
  Zn  Zn14  1  0.539981  0.470867  0.250000  1
  Zn  Zn15  1  0.465719  0.533987  0.750000  1
  Ag  Ag16  1  0.323949  0.069323  0.250000  1
  Au  Au17  1  0.062860  0.317753  0.750000  1
  Au  Au18  1  0.682507  0.936978  0.750000  1
  Au  Au19  1  0.945190  0.690834  0.250000  1
  Au  Au20  1  0.567045  0.002232  0.395535  1
  Au  Au21  1  0.003480  0.570224  0.603447  1
  Au  Au22  1  0.567045  0.002232  0.104465  1
  Au  Au23  1  0.003480  0.570224  0.896553  1
  Au  Au24  1  0.429693  0.996537  0.603166  1
  Au  Au25  1  0.996543  0.428819  0.397690  1
  Au  Au26  1  0.429693  0.996537  0.896834  1
  Au  Au27  1  0.996543  0.428819  0.102310  1
  Au  Au28  1  0.685483  0.741484  0.394488  1
  Au  Au29  1  0.741177  0.685762  0.606100  1
  Au  Au30  1  0.685483  0.741484  0.105512  1
  Au  Au31  1  0.741177  0.685762  0.893900  1
  Au  Au32  1  0.313355  0.258078  0.606066  1
  Au  Au33  1  0.257956  0.311115  0.392632  1
  Au  Au34  1  0.313355  0.258078  0.893934  1
  Au  Au35  1  0.257956  0.311115  0.107368  1
