# generated using pymatgen
data_Pr6Ga(P3Rh5)4
_symmetry_space_group_name_H-M   'P 1'
_cell_length_a   13.62304500
_cell_length_b   13.62304334
_cell_length_c   3.94847000
_cell_angle_alpha   90.00000000
_cell_angle_beta   90.00000000
_cell_angle_gamma   119.99999674
_symmetry_Int_Tables_number   1
_chemical_formula_structural   Pr6Ga(P3Rh5)4
_chemical_formula_sum   'Pr6 Ga1 P12 Rh20'
_cell_volume   634.61132519
_cell_formula_units_Z   1
loop_
 _symmetry_equiv_pos_site_id
 _symmetry_equiv_pos_as_xyz
  1  'x, y, z'
loop_
 _atom_site_type_symbol
 _atom_site_label
 _atom_site_symmetry_multiplicity
 _atom_site_fract_x
 _atom_site_fract_y
 _atom_site_fract_z
 _atom_site_occupancy
  Pr  Pr0  1  0.530692  0.717486  0.249093  1
  Pr  Pr1  1  0.282514  0.813206  0.249093  1
  Pr  Pr2  1  0.186794  0.469308  0.249093  1
  Pr  Pr3  1  0.469308  0.282514  0.750907  1
  Pr  Pr4  1  0.717486  0.186794  0.750907  1
  Pr  Pr5  1  0.813206  0.530692  0.750907  1
  Ga  Ga6  1  0.000000  0.000000  0.000000  1
  P  P7  1  0.522066  0.134651  0.250567  1
  P  P8  1  0.865349  0.387415  0.250567  1
  P  P9  1  0.612585  0.477934  0.250567  1
  P  P10  1  0.949529  0.722957  0.249542  1
  P  P11  1  0.277043  0.226571  0.249542  1
  P  P12  1  0.773429  0.050471  0.249542  1
  P  P13  1  0.387415  0.522066  0.749433  1
  P  P14  1  0.477934  0.865349  0.749433  1
  P  P15  1  0.134651  0.612585  0.749433  1
  P  P16  1  0.722957  0.773429  0.750458  1
  P  P17  1  0.226571  0.949529  0.750458  1
  P  P18  1  0.050471  0.277043  0.750458  1
  Rh  Rh19  1  0.333333  0.666667  0.751356  1
  Rh  Rh20  1  0.923805  0.252049  0.249880  1
  Rh  Rh21  1  0.747951  0.671757  0.249880  1
  Rh  Rh22  1  0.328243  0.076195  0.249880  1
  Rh  Rh23  1  0.442613  0.026903  0.750216  1
  Rh  Rh24  1  0.973097  0.415712  0.750216  1
  Rh  Rh25  1  0.584288  0.557387  0.750216  1
  Rh  Rh26  1  0.666667  0.333333  0.248644  1
  Rh  Rh27  1  0.095321  0.198645  0.253333  1
  Rh  Rh28  1  0.801355  0.896675  0.253333  1
  Rh  Rh29  1  0.103325  0.904679  0.253333  1
  Rh  Rh30  1  0.026903  0.584288  0.249784  1
  Rh  Rh31  1  0.415712  0.442613  0.249784  1
  Rh  Rh32  1  0.557387  0.973097  0.249784  1
  Rh  Rh33  1  0.671757  0.923805  0.750120  1
  Rh  Rh34  1  0.076195  0.747951  0.750120  1
  Rh  Rh35  1  0.252049  0.328243  0.750120  1
  Rh  Rh36  1  0.904679  0.801355  0.746667  1
  Rh  Rh37  1  0.198645  0.103325  0.746667  1
  Rh  Rh38  1  0.896675  0.095321  0.746667  1
