# generated using pymatgen
data_Nd16Cd3InCo4
_symmetry_space_group_name_H-M   'P 1'
_cell_length_a   9.78234119
_cell_length_b   9.78143154
_cell_length_c   9.78096079
_cell_angle_alpha   59.92714303
_cell_angle_beta   59.93103267
_cell_angle_gamma   59.93203217
_symmetry_Int_Tables_number   1
_chemical_formula_structural   Nd16Cd3InCo4
_chemical_formula_sum   'Nd16 Cd3 In1 Co4'
_cell_volume   660.72740334
_cell_formula_units_Z   1
loop_
 _symmetry_equiv_pos_site_id
 _symmetry_equiv_pos_as_xyz
  1  'x, y, z'
loop_
 _atom_site_type_symbol
 _atom_site_label
 _atom_site_symmetry_multiplicity
 _atom_site_fract_x
 _atom_site_fract_y
 _atom_site_fract_z
 _atom_site_occupancy
  Nd  Nd0  1  0.346017  0.346129  0.346158  1
  Nd  Nd1  1  0.348107  0.348213  0.958425  1
  Nd  Nd2  1  0.348098  0.958438  0.348229  1
  Nd  Nd3  1  0.958494  0.348155  0.348176  1
  Nd  Nd4  1  0.811063  0.188222  0.188226  1
  Nd  Nd5  1  0.188938  0.808833  0.808796  1
  Nd  Nd6  1  0.188205  0.811007  0.188221  1
  Nd  Nd7  1  0.808889  0.188947  0.808721  1
  Nd  Nd8  1  0.188200  0.188209  0.810991  1
  Nd  Nd9  1  0.808872  0.808735  0.188949  1
  Nd  Nd10  1  0.942080  0.561298  0.561312  1
  Nd  Nd11  1  0.559351  0.939705  0.939702  1
  Nd  Nd12  1  0.561300  0.942072  0.561321  1
  Nd  Nd13  1  0.939711  0.559346  0.939707  1
  Nd  Nd14  1  0.561311  0.561320  0.942063  1
  Nd  Nd15  1  0.939720  0.939714  0.559341  1
  Cd  Cd16  1  0.578904  0.578909  0.261009  1
  Cd  Cd17  1  0.578901  0.261012  0.578910  1
  Cd  Cd18  1  0.261017  0.578902  0.578904  1
  In  In19  1  0.580199  0.580200  0.580202  1
  Co  Co20  1  0.141039  0.141041  0.141041  1
  Co  Co21  1  0.141903  0.141909  0.577779  1
  Co  Co22  1  0.141903  0.577775  0.141908  1
  Co  Co23  1  0.577776  0.141909  0.141908  1
