# generated using pymatgen
data_Pr17Y2CdIr12
_symmetry_space_group_name_H-M   'P 1'
_cell_length_a   11.32143900
_cell_length_b   11.32143900
_cell_length_c   6.50670000
_cell_angle_alpha   90.00000000
_cell_angle_beta   90.00000000
_cell_angle_gamma   90.00000000
_symmetry_Int_Tables_number   1
_chemical_formula_structural   Pr17Y2CdIr12
_chemical_formula_sum   'Pr17 Y2 Cd1 Ir12'
_cell_volume   833.99614907
_cell_formula_units_Z   1
loop_
 _symmetry_equiv_pos_site_id
 _symmetry_equiv_pos_as_xyz
  1  'x, y, z'
loop_
 _atom_site_type_symbol
 _atom_site_label
 _atom_site_symmetry_multiplicity
 _atom_site_fract_x
 _atom_site_fract_y
 _atom_site_fract_z
 _atom_site_occupancy
  Pr  Pr0  1  0.290895  0.088603  0.383098  1
  Pr  Pr1  1  0.280949  0.914467  0.884411  1
  Pr  Pr2  1  0.719051  0.085533  0.884411  1
  Pr  Pr3  1  0.709105  0.911397  0.383098  1
  Pr  Pr4  1  0.587021  0.789833  0.881979  1
  Pr  Pr5  1  0.588746  0.210821  0.384944  1
  Pr  Pr6  1  0.411254  0.789179  0.384944  1
  Pr  Pr7  1  0.412979  0.210167  0.881979  1
  Pr  Pr8  1  0.210821  0.411254  0.615056  1
  Pr  Pr9  1  0.210167  0.587021  0.118021  1
  Pr  Pr10  1  0.789833  0.412979  0.118021  1
  Pr  Pr11  1  0.789179  0.588746  0.615056  1
  Pr  Pr12  1  0.914467  0.719051  0.115589  1
  Pr  Pr13  1  0.911397  0.290895  0.616902  1
  Pr  Pr14  1  0.088603  0.709105  0.616902  1
  Pr  Pr15  1  0.085533  0.280949  0.115589  1
  Pr  Pr16  1  0.000000  0.000000  0.500000  1
  Y  Y17  1  0.500000  0.500000  0.000000  1
  Y  Y18  1  0.500000  0.500000  0.500000  1
  Cd  Cd19  1  0.000000  0.000000  0.000000  1
  Ir  Ir20  1  0.843932  0.155419  0.255204  1
  Ir  Ir21  1  0.844581  0.843932  0.744796  1
  Ir  Ir22  1  0.155419  0.156068  0.744796  1
  Ir  Ir23  1  0.156068  0.844581  0.255204  1
  Ir  Ir24  1  0.649113  0.350663  0.752085  1
  Ir  Ir25  1  0.649337  0.649113  0.247915  1
  Ir  Ir26  1  0.350663  0.350887  0.247915  1
  Ir  Ir27  1  0.350887  0.649337  0.752085  1
  Ir  Ir28  1  0.500000  0.000000  0.114946  1
  Ir  Ir29  1  0.500000  0.000000  0.619884  1
  Ir  Ir30  1  0.000000  0.500000  0.885054  1
  Ir  Ir31  1  0.000000  0.500000  0.380116  1
