# generated using pymatgen
data_Er11Tm(IrPd)2
_symmetry_space_group_name_H-M   'P 1'
_cell_length_a   6.39092300
_cell_length_b   7.09719903
_cell_length_c   9.32742000
_cell_angle_alpha   90.00000000
_cell_angle_beta   90.00000000
_cell_angle_gamma   90.00526360
_symmetry_Int_Tables_number   1
_chemical_formula_structural   Er11Tm(IrPd)2
_chemical_formula_sum   'Er11 Tm1 Ir2 Pd2'
_cell_volume   423.06987345
_cell_formula_units_Z   1
loop_
 _symmetry_equiv_pos_site_id
 _symmetry_equiv_pos_as_xyz
  1  'x, y, z'
loop_
 _atom_site_type_symbol
 _atom_site_label
 _atom_site_symmetry_multiplicity
 _atom_site_fract_x
 _atom_site_fract_y
 _atom_site_fract_z
 _atom_site_occupancy
  Er  Er0  1  0.330542  0.677705  0.059406  1
  Er  Er1  1  0.177310  0.183808  0.437982  1
  Er  Er2  1  0.669440  0.322556  0.559463  1
  Er  Er3  1  0.822773  0.816310  0.938133  1
  Er  Er4  1  0.669440  0.322556  0.940537  1
  Er  Er5  1  0.822773  0.816310  0.561867  1
  Er  Er6  1  0.330542  0.677705  0.440594  1
  Er  Er7  1  0.177310  0.183808  0.062018  1
  Er  Er8  1  0.627152  0.037066  0.250000  1
  Er  Er9  1  0.134544  0.477389  0.750000  1
  Er  Er10  1  0.372963  0.963419  0.750000  1
  Tm  Tm11  1  0.865584  0.522211  0.250000  1
  Ir  Ir12  1  0.451034  0.386956  0.250000  1
  Ir  Ir13  1  0.549488  0.613648  0.750000  1
  Pd  Pd14  1  0.048651  0.885279  0.250000  1
  Pd  Pd15  1  0.950450  0.113277  0.750000  1
