# generated using pymatgen
data_Ca11Tb(PrSn2)8
_symmetry_space_group_name_H-M   'P 1'
_cell_length_a   7.99472611
_cell_length_b   8.55398672
_cell_length_c   16.14469581
_cell_angle_alpha   90.05456792
_cell_angle_beta   90.03983894
_cell_angle_gamma   89.92668209
_symmetry_Int_Tables_number   1
_chemical_formula_structural   Ca11Tb(PrSn2)8
_chemical_formula_sum   'Ca11 Tb1 Pr8 Sn16'
_cell_volume   1104.08210642
_cell_formula_units_Z   1
loop_
 _symmetry_equiv_pos_site_id
 _symmetry_equiv_pos_as_xyz
  1  'x, y, z'
loop_
 _atom_site_type_symbol
 _atom_site_label
 _atom_site_symmetry_multiplicity
 _atom_site_fract_x
 _atom_site_fract_y
 _atom_site_fract_z
 _atom_site_occupancy
  Ca  Ca0  1  0.834069  0.673978  0.623285  1
  Ca  Ca1  1  0.665603  0.174211  0.376414  1
  Ca  Ca2  1  0.165067  0.326148  0.123399  1
  Ca  Ca3  1  0.666287  0.174262  0.123577  1
  Ca  Ca4  1  0.165467  0.325850  0.376431  1
  Ca  Ca5  1  0.334836  0.825926  0.623287  1
  Ca  Ca6  1  0.834442  0.674400  0.877148  1
  Ca  Ca7  1  0.162702  0.501072  0.749557  1
  Ca  Ca8  1  0.663924  0.998970  0.749668  1
  Ca  Ca9  1  0.836658  0.498185  0.250121  1
  Ca  Ca10  1  0.336681  0.001520  0.250027  1
  Tb  Tb11  1  0.334927  0.824575  0.875677  1
  Pr  Pr12  1  0.494754  0.315940  0.903980  1
  Pr  Pr13  1  0.993843  0.185603  0.595292  1
  Pr  Pr14  1  0.505628  0.685647  0.403675  1
  Pr  Pr15  1  0.005218  0.814291  0.096639  1
  Pr  Pr16  1  0.506573  0.684924  0.096543  1
  Pr  Pr17  1  0.005588  0.814403  0.403828  1
  Pr  Pr18  1  0.494581  0.314983  0.595834  1
  Pr  Pr19  1  0.994038  0.185848  0.904856  1
  Sn  Sn20  1  0.327620  0.032506  0.036464  1
  Sn  Sn21  1  0.828841  0.466316  0.461947  1
  Sn  Sn22  1  0.670619  0.966679  0.538308  1
  Sn  Sn23  1  0.173959  0.536742  0.960857  1
  Sn  Sn24  1  0.667675  0.965327  0.960558  1
  Sn  Sn25  1  0.171117  0.533517  0.538412  1
  Sn  Sn26  1  0.329408  0.033546  0.461896  1
  Sn  Sn27  1  0.828546  0.465985  0.038047  1
  Sn  Sn28  1  0.534294  0.603257  0.751315  1
  Sn  Sn29  1  0.038254  0.897380  0.752043  1
  Sn  Sn30  1  0.464158  0.398766  0.249893  1
  Sn  Sn31  1  0.964161  0.100726  0.250019  1
  Sn  Sn32  1  0.290601  0.140751  0.751392  1
  Sn  Sn33  1  0.789920  0.357810  0.750198  1
  Sn  Sn34  1  0.710231  0.857420  0.249719  1
  Sn  Sn35  1  0.209711  0.642535  0.249695  1
