# generated using pymatgen
data_Tb6Al24Pd3Ru5
_symmetry_space_group_name_H-M   'P 1'
_cell_length_a   8.85025208
_cell_length_b   8.83120779
_cell_length_c   9.57840660
_cell_angle_alpha   90.20568969
_cell_angle_beta   89.86803458
_cell_angle_gamma   119.48461397
_symmetry_Int_Tables_number   1
_chemical_formula_structural   Tb6Al24Pd3Ru5
_chemical_formula_sum   'Tb6 Al24 Pd3 Ru5'
_cell_volume   651.67171209
_cell_formula_units_Z   1
loop_
 _symmetry_equiv_pos_site_id
 _symmetry_equiv_pos_as_xyz
  1  'x, y, z'
loop_
 _atom_site_type_symbol
 _atom_site_label
 _atom_site_symmetry_multiplicity
 _atom_site_fract_x
 _atom_site_fract_y
 _atom_site_fract_z
 _atom_site_occupancy
  Tb  Tb0  1  0.382850  0.189276  0.250133  1
  Tb  Tb1  1  0.808933  0.192600  0.249410  1
  Tb  Tb2  1  0.811686  0.614913  0.247927  1
  Tb  Tb3  1  0.617150  0.810724  0.749867  1
  Tb  Tb4  1  0.191067  0.807400  0.750590  1
  Tb  Tb5  1  0.188314  0.385087  0.752073  1
  Al  Al6  1  0.437692  0.874394  0.246536  1
  Al  Al7  1  0.123098  0.560055  0.249950  1
  Al  Al8  1  0.435915  0.563131  0.250038  1
  Al  Al9  1  0.562308  0.125606  0.753464  1
  Al  Al10  1  0.876902  0.439945  0.750050  1
  Al  Al11  1  0.564085  0.436869  0.749962  1
  Al  Al12  1  0.157117  0.831021  0.419980  1
  Al  Al13  1  0.157431  0.324655  0.422904  1
  Al  Al14  1  0.677022  0.836922  0.421484  1
  Al  Al15  1  0.842883  0.168979  0.580020  1
  Al  Al16  1  0.842569  0.675345  0.577096  1
  Al  Al17  1  0.322978  0.163078  0.578516  1
  Al  Al18  1  0.835449  0.163262  0.922709  1
  Al  Al19  1  0.842014  0.674469  0.923964  1
  Al  Al20  1  0.324964  0.157230  0.925521  1
  Al  Al21  1  0.164551  0.836738  0.077291  1
  Al  Al22  1  0.157986  0.325531  0.076036  1
  Al  Al23  1  0.675036  0.842770  0.074479  1
  Al  Al24  1  0.327039  0.664083  0.526626  1
  Al  Al25  1  0.672961  0.335917  0.473374  1
  Al  Al26  1  0.669234  0.329781  0.026890  1
  Al  Al27  1  0.330766  0.670219  0.973110  1
  Al  Al28  1  0.003104  0.998433  0.249683  1
  Al  Al29  1  0.996896  0.001567  0.750317  1
  Pd  Pd30  1  0.500000  0.000000  0.500000  1
  Pd  Pd31  1  0.500000  0.500000  0.500000  1
  Pd  Pd32  1  0.500000  0.500000  0.000000  1
  Ru  Ru33  1  0.000000  0.000000  0.500000  1
  Ru  Ru34  1  0.000000  0.000000  0.000000  1
  Ru  Ru35  1  0.000000  0.500000  0.500000  1
  Ru  Ru36  1  0.500000  0.000000  0.000000  1
  Ru  Ru37  1  0.000000  0.500000  0.000000  1
