# generated using pymatgen
data_ErZr5(SnRh)6
_symmetry_space_group_name_H-M   'P 1'
_cell_length_a   7.48918573
_cell_length_b   7.50952396
_cell_length_c   7.25100800
_cell_angle_alpha   90.00000000
_cell_angle_beta   90.00000000
_cell_angle_gamma   120.11294907
_symmetry_Int_Tables_number   1
_chemical_formula_structural   ErZr5(SnRh)6
_chemical_formula_sum   'Er1 Zr5 Sn6 Rh6'
_cell_volume   352.76103330
_cell_formula_units_Z   1
loop_
 _symmetry_equiv_pos_site_id
 _symmetry_equiv_pos_as_xyz
  1  'x, y, z'
loop_
 _atom_site_type_symbol
 _atom_site_label
 _atom_site_symmetry_multiplicity
 _atom_site_fract_x
 _atom_site_fract_y
 _atom_site_fract_z
 _atom_site_occupancy
  Er  Er0  1  0.594254  0.988617  0.750000  1
  Zr  Zr1  1  0.392767  0.399676  0.750000  1
  Zr  Zr2  1  0.008955  0.608398  0.750000  1
  Zr  Zr3  1  0.611927  0.009825  0.250000  1
  Zr  Zr4  1  0.399269  0.391370  0.250000  1
  Zr  Zr5  1  0.985783  0.597186  0.250000  1
  Sn  Sn6  1  0.268720  0.998015  0.007409  1
  Sn  Sn7  1  0.729612  0.730655  0.501145  1
  Sn  Sn8  1  0.002409  0.271660  0.501944  1
  Sn  Sn9  1  0.002409  0.271660  0.998056  1
  Sn  Sn10  1  0.729612  0.730655  0.998855  1
  Sn  Sn11  1  0.268720  0.998015  0.492591  1
  Rh  Rh12  1  0.668064  0.338052  0.988814  1
  Rh  Rh13  1  0.668064  0.338052  0.511186  1
  Rh  Rh14  1  0.331532  0.663819  0.032106  1
  Rh  Rh15  1  0.331532  0.663819  0.467894  1
  Rh  Rh16  1  0.009522  0.000240  0.750000  1
  Rh  Rh17  1  0.996848  0.000285  0.250000  1
