# generated using pymatgen
data_Th4CdSi4Ag
_symmetry_space_group_name_H-M   'P 1'
_cell_length_a   7.35272300
_cell_length_b   7.35272300
_cell_length_c   4.33244900
_cell_angle_alpha   90.00000000
_cell_angle_beta   90.00000000
_cell_angle_gamma   90.00000000
_symmetry_Int_Tables_number   1
_chemical_formula_structural   Th4CdSi4Ag
_chemical_formula_sum   'Th4 Cd1 Si4 Ag1'
_cell_volume   234.22317793
_cell_formula_units_Z   1
loop_
 _symmetry_equiv_pos_site_id
 _symmetry_equiv_pos_as_xyz
  1  'x, y, z'
loop_
 _atom_site_type_symbol
 _atom_site_label
 _atom_site_symmetry_multiplicity
 _atom_site_fract_x
 _atom_site_fract_y
 _atom_site_fract_z
 _atom_site_occupancy
  Th  Th0  1  0.680717  0.181110  0.500000  1
  Th  Th1  1  0.319283  0.818890  0.500000  1
  Th  Th2  1  0.181110  0.319283  0.500000  1
  Th  Th3  1  0.818890  0.680717  0.500000  1
  Cd  Cd4  1  0.500000  0.500000  0.000000  1
  Si  Si5  1  0.110598  0.618712  0.000000  1
  Si  Si6  1  0.889402  0.381288  0.000000  1
  Si  Si7  1  0.618712  0.889402  0.000000  1
  Si  Si8  1  0.381288  0.110598  0.000000  1
  Ag  Ag9  1  0.000000  0.000000  0.000000  1
