# generated using pymatgen
data_VCr5Ga2
_symmetry_space_group_name_H-M   'P 1'
_cell_length_a   4.60014700
_cell_length_b   4.63278200
_cell_length_c   4.63278200
_cell_angle_alpha   90.00000000
_cell_angle_beta   90.00000000
_cell_angle_gamma   90.00000000
_symmetry_Int_Tables_number   1
_chemical_formula_structural   VCr5Ga2
_chemical_formula_sum   'V1 Cr5 Ga2'
_cell_volume   98.73143269
_cell_formula_units_Z   1
loop_
 _symmetry_equiv_pos_site_id
 _symmetry_equiv_pos_as_xyz
  1  'x, y, z'
loop_
 _atom_site_type_symbol
 _atom_site_label
 _atom_site_symmetry_multiplicity
 _atom_site_fract_x
 _atom_site_fract_y
 _atom_site_fract_z
 _atom_site_occupancy
  V  V0  1  0.250000  0.000000  0.500000  1
  Cr  Cr1  1  0.750000  0.000000  0.500000  1
  Cr  Cr2  1  0.999468  0.500000  0.248626  1
  Cr  Cr3  1  0.999468  0.500000  0.751374  1
  Cr  Cr4  1  0.500532  0.748626  0.000000  1
  Cr  Cr5  1  0.500532  0.251374  0.000000  1
  Ga  Ga6  1  0.997706  0.000000  0.000000  1
  Ga  Ga7  1  0.502294  0.500000  0.500000  1
