# generated using pymatgen
data_Tb5PdRhPb4
_symmetry_space_group_name_H-M   'P 1'
_cell_length_a   8.16992514
_cell_length_b   18.42645409
_cell_length_c   3.77195300
_cell_angle_alpha   90.00000000
_cell_angle_beta   90.00000000
_cell_angle_gamma   89.92534749
_symmetry_Int_Tables_number   1
_chemical_formula_structural   Tb5PdRhPb4
_chemical_formula_sum   'Tb10 Pd2 Rh2 Pb8'
_cell_volume   567.83969740
_cell_formula_units_Z   2
loop_
 _symmetry_equiv_pos_site_id
 _symmetry_equiv_pos_as_xyz
  1  'x, y, z'
loop_
 _atom_site_type_symbol
 _atom_site_label
 _atom_site_symmetry_multiplicity
 _atom_site_fract_x
 _atom_site_fract_y
 _atom_site_fract_z
 _atom_site_occupancy
  Tb  Tb0  1  0.500000  0.500000  0.000000  1
  Tb  Tb1  1  0.000000  0.000000  0.000000  1
  Tb  Tb2  1  0.728095  0.280751  0.000000  1
  Tb  Tb3  1  0.271905  0.719249  0.000000  1
  Tb  Tb4  1  0.748201  0.783599  0.000000  1
  Tb  Tb5  1  0.251799  0.216401  0.000000  1
  Tb  Tb6  1  0.616139  0.088210  0.000000  1
  Tb  Tb7  1  0.383861  0.911790  0.000000  1
  Tb  Tb8  1  0.883817  0.586187  0.000000  1
  Tb  Tb9  1  0.116183  0.413813  0.000000  1
  Pd  Pd10  1  0.972716  0.696591  0.500000  1
  Pd  Pd11  1  0.027284  0.303409  0.500000  1
  Rh  Rh12  1  0.525651  0.195529  0.500000  1
  Rh  Rh13  1  0.474349  0.804471  0.500000  1
  Pb  Pb14  1  0.705456  0.935989  0.500000  1
  Pb  Pb15  1  0.294544  0.064011  0.500000  1
  Pb  Pb16  1  0.792181  0.435006  0.500000  1
  Pb  Pb17  1  0.207819  0.564994  0.500000  1
  Pb  Pb18  1  0.585980  0.651045  0.500000  1
  Pb  Pb19  1  0.414020  0.348955  0.500000  1
  Pb  Pb20  1  0.915483  0.151662  0.500000  1
  Pb  Pb21  1  0.084517  0.848338  0.500000  1
