# generated using pymatgen
data_SrDyGe4N7
_symmetry_space_group_name_H-M   'P 1'
_cell_length_a   6.31120000
_cell_length_b   6.31119991
_cell_length_c   10.33432600
_cell_angle_alpha   90.00000000
_cell_angle_beta   90.00000000
_cell_angle_gamma   119.99999000
_symmetry_Int_Tables_number   1
_chemical_formula_structural   SrDyGe4N7
_chemical_formula_sum   'Sr2 Dy2 Ge8 N14'
_cell_volume   356.48126696
_cell_formula_units_Z   2
loop_
 _symmetry_equiv_pos_site_id
 _symmetry_equiv_pos_as_xyz
  1  'x, y, z'
loop_
 _atom_site_type_symbol
 _atom_site_label
 _atom_site_symmetry_multiplicity
 _atom_site_fract_x
 _atom_site_fract_y
 _atom_site_fract_z
 _atom_site_occupancy
  Sr  Sr0  1  0.666667  0.333333  0.583237  1
  Sr  Sr1  1  0.333333  0.666667  0.083237  1
  Dy  Dy2  1  0.666667  0.333333  0.950656  1
  Dy  Dy3  1  0.333333  0.666667  0.450656  1
  Ge  Ge4  1  0.173588  0.347176  0.760436  1
  Ge  Ge5  1  0.826412  0.173588  0.260436  1
  Ge  Ge6  1  0.347176  0.173588  0.260436  1
  Ge  Ge7  1  0.652824  0.826412  0.760436  1
  Ge  Ge8  1  0.173588  0.826412  0.760436  1
  Ge  Ge9  1  0.826412  0.652824  0.260436  1
  Ge  Ge10  1  0.000000  0.000000  0.025933  1
  Ge  Ge11  1  0.000000  0.000000  0.525933  1
  N  N12  1  0.000000  0.000000  0.833974  1
  N  N13  1  0.000000  0.000000  0.333974  1
  N  N14  1  0.841080  0.682161  0.082478  1
  N  N15  1  0.158920  0.841080  0.582478  1
  N  N16  1  0.682161  0.841080  0.582478  1
  N  N17  1  0.317839  0.158920  0.082478  1
  N  N18  1  0.841080  0.158920  0.082478  1
  N  N19  1  0.158920  0.317839  0.582478  1
  N  N20  1  0.494863  0.505137  0.816760  1
  N  N21  1  0.989726  0.494863  0.316760  1
  N  N22  1  0.505137  0.010274  0.316760  1
  N  N23  1  0.494863  0.989726  0.816760  1
  N  N24  1  0.505137  0.494863  0.316760  1
  N  N25  1  0.010274  0.505137  0.816760  1
