# generated using pymatgen
data_Lu5ZnIn4Rh
_symmetry_space_group_name_H-M   'P 1'
_cell_length_a   3.56372900
_cell_length_b   8.03632842
_cell_length_c   17.98181814
_cell_angle_alpha   90.69700947
_cell_angle_beta   90.00000000
_cell_angle_gamma   90.00000000
_symmetry_Int_Tables_number   1
_chemical_formula_structural   Lu5ZnIn4Rh
_chemical_formula_sum   'Lu10 Zn2 In8 Rh2'
_cell_volume   514.94851758
_cell_formula_units_Z   2
loop_
 _symmetry_equiv_pos_site_id
 _symmetry_equiv_pos_as_xyz
  1  'x, y, z'
loop_
 _atom_site_type_symbol
 _atom_site_label
 _atom_site_symmetry_multiplicity
 _atom_site_fract_x
 _atom_site_fract_y
 _atom_site_fract_z
 _atom_site_occupancy
  Lu  Lu0  1  0.000000  0.117196  0.415407  1
  Lu  Lu1  1  0.000000  0.882804  0.584593  1
  Lu  Lu2  1  0.000000  0.379191  0.919185  1
  Lu  Lu3  1  0.000000  0.620809  0.080815  1
  Lu  Lu4  1  0.000000  0.221122  0.223436  1
  Lu  Lu5  1  0.000000  0.778878  0.776564  1
  Lu  Lu6  1  0.000000  0.239770  0.717933  1
  Lu  Lu7  1  0.000000  0.760230  0.282067  1
  Lu  Lu8  1  0.000000  0.000000  0.000000  1
  Lu  Lu9  1  0.000000  0.500000  0.500000  1
  Zn  Zn10  1  0.500000  0.478558  0.800925  1
  Zn  Zn11  1  0.500000  0.521442  0.199075  1
  In  In12  1  0.500000  0.420787  0.350832  1
  In  In13  1  0.500000  0.579213  0.649168  1
  In  In14  1  0.500000  0.077812  0.851858  1
  In  In15  1  0.500000  0.922188  0.148142  1
  In  In16  1  0.500000  0.291777  0.068964  1
  In  In17  1  0.500000  0.708223  0.931036  1
  In  In18  1  0.500000  0.205728  0.566672  1
  In  In19  1  0.500000  0.794272  0.433328  1
  Rh  Rh20  1  0.500000  0.025076  0.304989  1
  Rh  Rh21  1  0.500000  0.974924  0.695011  1
