# generated using pymatgen
data_Hf5ZrTi4Al12Ru5Rh2
_symmetry_space_group_name_H-M   'P 1'
_cell_length_a   8.76991786
_cell_length_b   8.75289246
_cell_length_c   8.75289300
_cell_angle_alpha   60.17768885
_cell_angle_beta   59.93563656
_cell_angle_gamma   59.93563395
_symmetry_Int_Tables_number   1
_chemical_formula_structural   Hf5ZrTi4Al12Ru5Rh2
_chemical_formula_sum   'Hf5 Zr1 Ti4 Al12 Ru5 Rh2'
_cell_volume   475.26869981
_cell_formula_units_Z   1
loop_
 _symmetry_equiv_pos_site_id
 _symmetry_equiv_pos_as_xyz
  1  'x, y, z'
loop_
 _atom_site_type_symbol
 _atom_site_label
 _atom_site_symmetry_multiplicity
 _atom_site_fract_x
 _atom_site_fract_y
 _atom_site_fract_z
 _atom_site_occupancy
  Hf  Hf0  1  0.699492  0.699676  0.305866  1
  Hf  Hf1  1  0.298992  0.697335  0.302437  1
  Hf  Hf2  1  0.692361  0.303645  0.307813  1
  Hf  Hf3  1  0.301194  0.299895  0.695450  1
  Hf  Hf4  1  0.698779  0.305008  0.694862  1
  Zr  Zr5  1  0.308530  0.694468  0.691601  1
  Ti  Ti6  1  0.879502  0.881347  0.360656  1
  Ti  Ti7  1  0.877989  0.358875  0.880437  1
  Ti  Ti8  1  0.359360  0.877959  0.878910  1
  Ti  Ti9  1  0.883201  0.882004  0.877388  1
  Al  Al10  1  0.119466  0.119324  0.641844  1
  Al  Al11  1  0.119188  0.642539  0.119665  1
  Al  Al12  1  0.643059  0.119483  0.119495  1
  Al  Al13  1  0.118083  0.118600  0.119533  1
  Al  Al14  1  0.663603  0.664342  0.011199  1
  Al  Al15  1  0.663156  0.008730  0.665545  1
  Al  Al16  1  0.007914  0.663049  0.664605  1
  Al  Al17  1  0.665186  0.664189  0.665251  1
  Al  Al18  1  0.335295  0.334421  0.994436  1
  Al  Al19  1  0.334740  0.996755  0.333143  1
  Al  Al20  1  0.996464  0.334805  0.333414  1
  Al  Al21  1  0.333526  0.334055  0.333500  1
  Ru  Ru22  1  0.000320  0.999650  0.999825  1
  Ru  Ru23  1  0.997715  0.999369  0.501574  1
  Ru  Ru24  1  0.501963  0.999516  0.501065  1
  Ru  Ru25  1  0.998393  0.500622  0.501714  1
  Ru  Ru26  1  0.502402  0.500764  0.000180  1
  Rh  Rh27  1  0.998635  0.500426  0.999608  1
  Rh  Rh28  1  0.501485  0.999147  0.998983  1
