# generated using pymatgen
data_DyPa(Co3B2)2
_symmetry_space_group_name_H-M   'P 1'
_cell_length_a   5.83577775
_cell_length_b   5.83577706
_cell_length_c   5.83577747
_cell_angle_alpha   129.88009736
_cell_angle_beta   116.07622636
_cell_angle_gamma   85.36834471
_symmetry_Int_Tables_number   1
_chemical_formula_structural   DyPa(Co3B2)2
_chemical_formula_sum   'Dy1 Pa1 Co6 B4'
_cell_volume   131.03043497
_cell_formula_units_Z   1
loop_
 _symmetry_equiv_pos_site_id
 _symmetry_equiv_pos_as_xyz
  1  'x, y, z'
loop_
 _atom_site_type_symbol
 _atom_site_label
 _atom_site_symmetry_multiplicity
 _atom_site_fract_x
 _atom_site_fract_y
 _atom_site_fract_z
 _atom_site_occupancy
  Dy  Dy0  1  0.250000  0.503922  0.253922  1
  Pa  Pa1  1  0.750000  0.491637  0.741637  1
  Co  Co2  1  0.992331  0.999564  0.491895  1
  Co  Co3  1  0.507669  0.999564  0.007234  1
  Co  Co4  1  0.737878  0.003176  0.738522  1
  Co  Co5  1  0.235347  0.500645  0.738522  1
  Co  Co6  1  0.264653  0.003176  0.265297  1
  Co  Co7  1  0.762122  0.500645  0.265297  1
  B  B8  1  0.086026  0.851916  0.765889  1
  B  B9  1  0.922503  0.155450  0.232946  1
  B  B10  1  0.577497  0.810444  0.232946  1
  B  B11  1  0.413974  0.179862  0.765889  1
