# generated using pymatgen
data_Ho4Al18Pd5W
_symmetry_space_group_name_H-M   'P 1'
_cell_length_a   7.63316937
_cell_length_b   7.63316861
_cell_length_c   9.52147716
_cell_angle_alpha   89.63655126
_cell_angle_beta   89.63655482
_cell_angle_gamma   118.90557841
_symmetry_Int_Tables_number   1
_chemical_formula_structural   Ho4Al18Pd5W
_chemical_formula_sum   'Ho4 Al18 Pd5 W1'
_cell_volume   485.61877150
_cell_formula_units_Z   1
loop_
 _symmetry_equiv_pos_site_id
 _symmetry_equiv_pos_as_xyz
  1  'x, y, z'
loop_
 _atom_site_type_symbol
 _atom_site_label
 _atom_site_symmetry_multiplicity
 _atom_site_fract_x
 _atom_site_fract_y
 _atom_site_fract_z
 _atom_site_occupancy
  Ho  Ho0  1  0.995145  0.679142  0.246718  1
  Ho  Ho1  1  0.004855  0.320858  0.753282  1
  Ho  Ho2  1  0.679142  0.995145  0.246718  1
  Ho  Ho3  1  0.320858  0.004855  0.753282  1
  Al  Al4  1  0.135277  0.135277  0.249365  1
  Al  Al5  1  0.864723  0.864723  0.750635  1
  Al  Al6  1  0.002704  0.335828  0.076759  1
  Al  Al7  1  0.997296  0.664172  0.923241  1
  Al  Al8  1  0.998777  0.660910  0.578250  1
  Al  Al9  1  0.339090  0.001223  0.421750  1
  Al  Al10  1  0.001223  0.339090  0.421750  1
  Al  Al11  1  0.660910  0.998777  0.578250  1
  Al  Al12  1  0.664172  0.997296  0.923241  1
  Al  Al13  1  0.335828  0.002704  0.076759  1
  Al  Al14  1  0.333193  0.333193  0.555458  1
  Al  Al15  1  0.666807  0.666808  0.444542  1
  Al  Al16  1  0.666786  0.666787  0.053087  1
  Al  Al17  1  0.333214  0.333214  0.946913  1
  Al  Al18  1  0.342171  0.551286  0.250234  1
  Al  Al19  1  0.657829  0.448714  0.749766  1
  Al  Al20  1  0.551286  0.342171  0.250234  1
  Al  Al21  1  0.448714  0.657829  0.749766  1
  Pd  Pd22  1  0.673023  0.326977  0.000000  1
  Pd  Pd23  1  0.326977  0.673023  0.000000  1
  Pd  Pd24  1  0.327400  0.672600  0.500000  1
  Pd  Pd25  1  0.672600  0.327400  0.500000  1
  Pd  Pd26  1  0.000000  0.000000  0.500000  1
  W  W27  1  0.000000  0.000000  0.000000  1
