# generated using pymatgen
data_U4Ga5Tc3
_symmetry_space_group_name_H-M   'P 1'
_cell_length_a   5.32320157
_cell_length_b   5.02053458
_cell_length_c   9.11166600
_cell_angle_alpha   90.00000000
_cell_angle_beta   90.00000000
_cell_angle_gamma   118.13632844
_symmetry_Int_Tables_number   1
_chemical_formula_structural   U4Ga5Tc3
_chemical_formula_sum   'U4 Ga5 Tc3'
_cell_volume   214.73585789
_cell_formula_units_Z   1
loop_
 _symmetry_equiv_pos_site_id
 _symmetry_equiv_pos_as_xyz
  1  'x, y, z'
loop_
 _atom_site_type_symbol
 _atom_site_label
 _atom_site_symmetry_multiplicity
 _atom_site_fract_x
 _atom_site_fract_y
 _atom_site_fract_z
 _atom_site_occupancy
  U  U0  1  0.365651  0.682826  0.459981  1
  U  U1  1  0.635081  0.317540  0.549661  1
  U  U2  1  0.635081  0.317540  0.950339  1
  U  U3  1  0.365651  0.682826  0.040019  1
  Ga  Ga4  1  0.849682  0.177990  0.250000  1
  Ga  Ga5  1  0.849682  0.671691  0.250000  1
  Ga  Ga6  1  0.344814  0.172407  0.250000  1
  Ga  Ga7  1  0.143440  0.819811  0.750000  1
  Ga  Ga8  1  0.143440  0.323629  0.750000  1
  Tc  Tc9  1  0.009628  0.004814  0.496241  1
  Tc  Tc10  1  0.009628  0.004814  0.003759  1
  Tc  Tc11  1  0.648219  0.824110  0.750000  1
