# generated using pymatgen
data_Ca2YbZn11
_symmetry_space_group_name_H-M   'P 1'
_cell_length_a   4.37449367
_cell_length_b   8.28467312
_cell_length_c   8.28467310
_cell_angle_alpha   66.40555308
_cell_angle_beta   74.69179209
_cell_angle_gamma   74.69178769
_symmetry_Int_Tables_number   1
_chemical_formula_structural   Ca2YbZn11
_chemical_formula_sum   'Ca2 Yb1 Zn11'
_cell_volume   261.09152586
_cell_formula_units_Z   1
loop_
 _symmetry_equiv_pos_site_id
 _symmetry_equiv_pos_as_xyz
  1  'x, y, z'
loop_
 _atom_site_type_symbol
 _atom_site_label
 _atom_site_symmetry_multiplicity
 _atom_site_fract_x
 _atom_site_fract_y
 _atom_site_fract_z
 _atom_site_occupancy
  Ca  Ca0  1  0.000093  0.999907  0.999907  1
  Ca  Ca1  1  0.705201  0.294799  0.294799  1
  Yb  Yb2  1  0.295075  0.704925  0.704925  1
  Zn  Zn3  1  0.999570  0.500430  0.500430  1
  Zn  Zn4  1  0.499553  0.687279  0.313615  1
  Zn  Zn5  1  0.499553  0.313615  0.687279  1
  Zn  Zn6  1  0.663825  0.693383  0.978967  1
  Zn  Zn7  1  0.337321  0.307061  0.018298  1
  Zn  Zn8  1  0.663825  0.978967  0.693383  1
  Zn  Zn9  1  0.337321  0.018298  0.307061  1
  Zn  Zn10  1  0.866565  0.422867  0.844003  1
  Zn  Zn11  1  0.132767  0.580988  0.153479  1
  Zn  Zn12  1  0.866565  0.844003  0.422867  1
  Zn  Zn13  1  0.132767  0.153479  0.580988  1
