# generated using pymatgen
data_Tm4Lu8In2Fe2Re
_symmetry_space_group_name_H-M   'P 1'
_cell_length_a   8.21119653
_cell_length_b   8.21119638
_cell_length_c   8.21119594
_cell_angle_alpha   108.92798711
_cell_angle_beta   108.92799913
_cell_angle_gamma   110.56322544
_symmetry_Int_Tables_number   1
_chemical_formula_structural   Tm4Lu8In2Fe2Re
_chemical_formula_sum   'Tm4 Lu8 In2 Fe2 Re1'
_cell_volume   426.06790323
_cell_formula_units_Z   1
loop_
 _symmetry_equiv_pos_site_id
 _symmetry_equiv_pos_as_xyz
  1  'x, y, z'
loop_
 _atom_site_type_symbol
 _atom_site_label
 _atom_site_symmetry_multiplicity
 _atom_site_fract_x
 _atom_site_fract_y
 _atom_site_fract_z
 _atom_site_occupancy
  Tm  Tm0  1  0.307211  0.307211  0.614423  1
  Tm  Tm1  1  0.692789  0.692789  0.385577  1
  Tm  Tm2  1  0.692789  0.307211  0.000000  1
  Tm  Tm3  1  0.307211  0.692789  0.000000  1
  Lu  Lu4  1  0.192274  0.430221  0.237947  1
  Lu  Lu5  1  0.807726  0.569779  0.762053  1
  Lu  Lu6  1  0.192274  0.954326  0.762053  1
  Lu  Lu7  1  0.954326  0.192274  0.762053  1
  Lu  Lu8  1  0.807726  0.045674  0.237947  1
  Lu  Lu9  1  0.045674  0.807726  0.237947  1
  Lu  Lu10  1  0.430221  0.192274  0.237947  1
  Lu  Lu11  1  0.569779  0.807726  0.762053  1
  In  In12  1  0.000000  0.500000  0.500000  1
  In  In13  1  0.500000  0.000000  0.500000  1
  Fe  Fe14  1  0.383617  0.383617  0.000000  1
  Fe  Fe15  1  0.616383  0.616383  0.000000  1
  Re  Re16  1  0.000000  0.000000  0.000000  1
