# generated using pymatgen
data_Nd2SmHf(Co4P3)2
_symmetry_space_group_name_H-M   'P 1'
_cell_length_a   3.76611800
_cell_length_b   10.79339100
_cell_length_c   12.54692700
_cell_angle_alpha   90.00000000
_cell_angle_beta   90.00000000
_cell_angle_gamma   90.00000000
_symmetry_Int_Tables_number   1
_chemical_formula_structural   Nd2SmHf(Co4P3)2
_chemical_formula_sum   'Nd4 Sm2 Hf2 Co16 P12'
_cell_volume   510.02234584
_cell_formula_units_Z   2
loop_
 _symmetry_equiv_pos_site_id
 _symmetry_equiv_pos_as_xyz
  1  'x, y, z'
loop_
 _atom_site_type_symbol
 _atom_site_label
 _atom_site_symmetry_multiplicity
 _atom_site_fract_x
 _atom_site_fract_y
 _atom_site_fract_z
 _atom_site_occupancy
  Nd  Nd0  1  0.000000  0.500000  0.528881  1
  Nd  Nd1  1  0.500000  0.000000  0.471838  1
  Nd  Nd2  1  0.500000  0.821165  0.205200  1
  Nd  Nd3  1  0.500000  0.178835  0.205200  1
  Sm  Sm4  1  0.000000  0.678721  0.795157  1
  Sm  Sm5  1  0.000000  0.321279  0.795157  1
  Hf  Hf6  1  0.500000  0.500000  0.154883  1
  Hf  Hf7  1  0.000000  0.000000  0.844787  1
  Co  Co8  1  0.500000  0.500000  0.705714  1
  Co  Co9  1  0.000000  0.000000  0.295147  1
  Co  Co10  1  0.000000  0.500000  0.986640  1
  Co  Co11  1  0.500000  0.000000  0.011334  1
  Co  Co12  1  0.500000  0.332473  0.992950  1
  Co  Co13  1  0.500000  0.667527  0.992950  1
  Co  Co14  1  0.000000  0.168239  0.005028  1
  Co  Co15  1  0.000000  0.831761  0.005028  1
  Co  Co16  1  0.500000  0.296003  0.433517  1
  Co  Co17  1  0.500000  0.703997  0.433517  1
  Co  Co18  1  0.000000  0.204563  0.568332  1
  Co  Co19  1  0.000000  0.795437  0.568332  1
  Co  Co20  1  0.500000  0.879534  0.704243  1
  Co  Co21  1  0.500000  0.120466  0.704243  1
  Co  Co22  1  0.000000  0.619723  0.296857  1
  Co  Co23  1  0.000000  0.380277  0.296857  1
  P  P24  1  0.500000  0.500000  0.885473  1
  P  P25  1  0.000000  0.000000  0.112117  1
  P  P26  1  0.500000  0.500000  0.357405  1
  P  P27  1  0.000000  0.000000  0.642785  1
  P  P28  1  0.500000  0.305897  0.615440  1
  P  P29  1  0.500000  0.694103  0.615440  1
  P  P30  1  0.000000  0.195020  0.386723  1
  P  P31  1  0.000000  0.804980  0.386723  1
  P  P32  1  0.500000  0.839836  0.894991  1
  P  P33  1  0.500000  0.160164  0.894991  1
  P  P34  1  0.000000  0.659024  0.103059  1
  P  P35  1  0.000000  0.340976  0.103059  1
