# generated using pymatgen
data_TaTi(MoH4)2
_symmetry_space_group_name_H-M   'P 1'
_cell_length_a   4.43499100
_cell_length_b   4.45474900
_cell_length_c   4.45474900
_cell_angle_alpha   90.00000000
_cell_angle_beta   90.00000000
_cell_angle_gamma   90.00000000
_symmetry_Int_Tables_number   1
_chemical_formula_structural   TaTi(MoH4)2
_chemical_formula_sum   'Ta1 Ti1 Mo2 H8'
_cell_volume   88.01145907
_cell_formula_units_Z   1
loop_
 _symmetry_equiv_pos_site_id
 _symmetry_equiv_pos_as_xyz
  1  'x, y, z'
loop_
 _atom_site_type_symbol
 _atom_site_label
 _atom_site_symmetry_multiplicity
 _atom_site_fract_x
 _atom_site_fract_y
 _atom_site_fract_z
 _atom_site_occupancy
  Ta  Ta0  1  0.000000  0.500000  0.500000  1
  Ti  Ti1  1  0.000000  0.000000  0.000000  1
  Mo  Mo2  1  0.500000  0.500000  0.000000  1
  Mo  Mo3  1  0.500000  0.000000  0.500000  1
  H  H4  1  0.255455  0.246330  0.753670  1
  H  H5  1  0.255455  0.753670  0.246330  1
  H  H6  1  0.744545  0.246330  0.246330  1
  H  H7  1  0.744545  0.753670  0.753670  1
  H  H8  1  0.744545  0.753670  0.246330  1
  H  H9  1  0.744545  0.246330  0.753670  1
  H  H10  1  0.255455  0.753670  0.753670  1
  H  H11  1  0.255455  0.246330  0.246330  1
