# generated using pymatgen
data_Ho3Lu2CoBi2
_symmetry_space_group_name_H-M   'P 1'
_cell_length_a   7.85219700
_cell_length_b   8.87100900
_cell_length_c   12.34085800
_cell_angle_alpha   90.00000000
_cell_angle_beta   90.00000000
_cell_angle_gamma   90.00000000
_symmetry_Int_Tables_number   1
_chemical_formula_structural   Ho3Lu2CoBi2
_chemical_formula_sum   'Ho12 Lu8 Co4 Bi8'
_cell_volume   859.62603820
_cell_formula_units_Z   4
loop_
 _symmetry_equiv_pos_site_id
 _symmetry_equiv_pos_as_xyz
  1  'x, y, z'
loop_
 _atom_site_type_symbol
 _atom_site_label
 _atom_site_symmetry_multiplicity
 _atom_site_fract_x
 _atom_site_fract_y
 _atom_site_fract_z
 _atom_site_occupancy
  Ho  Ho0  1  0.152868  0.750000  0.200410  1
  Ho  Ho1  1  0.652868  0.250000  0.299590  1
  Ho  Ho2  1  0.847132  0.250000  0.799590  1
  Ho  Ho3  1  0.347132  0.750000  0.700410  1
  Ho  Ho4  1  0.443447  0.750000  0.997076  1
  Ho  Ho5  1  0.943447  0.250000  0.502924  1
  Ho  Ho6  1  0.556553  0.250000  0.002924  1
  Ho  Ho7  1  0.056553  0.750000  0.497076  1
  Ho  Ho8  1  0.618309  0.750000  0.314190  1
  Ho  Ho9  1  0.118309  0.250000  0.185810  1
  Ho  Ho10  1  0.381691  0.250000  0.685810  1
  Ho  Ho11  1  0.881691  0.750000  0.814190  1
  Lu  Lu12  1  0.828911  0.962500  0.063732  1
  Lu  Lu13  1  0.328911  0.037500  0.436268  1
  Lu  Lu14  1  0.171089  0.462500  0.936268  1
  Lu  Lu15  1  0.671089  0.537500  0.563732  1
  Lu  Lu16  1  0.171089  0.037500  0.936268  1
  Lu  Lu17  1  0.671089  0.962500  0.563732  1
  Lu  Lu18  1  0.828911  0.537500  0.063732  1
  Lu  Lu19  1  0.328911  0.462500  0.436268  1
  Co  Co20  1  0.435844  0.750000  0.493401  1
  Co  Co21  1  0.935844  0.250000  0.006599  1
  Co  Co22  1  0.564156  0.250000  0.506599  1
  Co  Co23  1  0.064156  0.750000  0.993401  1
  Bi  Bi24  1  0.933465  0.992266  0.327105  1
  Bi  Bi25  1  0.433465  0.007734  0.172895  1
  Bi  Bi26  1  0.066535  0.492266  0.672895  1
  Bi  Bi27  1  0.566535  0.507734  0.827105  1
  Bi  Bi28  1  0.066535  0.007734  0.672895  1
  Bi  Bi29  1  0.566535  0.992266  0.827105  1
  Bi  Bi30  1  0.933465  0.507734  0.327105  1
  Bi  Bi31  1  0.433465  0.492266  0.172895  1
