# generated using pymatgen
data_La16MgCo3Hg3Ir
_symmetry_space_group_name_H-M   'P 1'
_cell_length_a   10.04305904
_cell_length_b   10.01920159
_cell_length_c   9.95439422
_cell_angle_alpha   59.78440884
_cell_angle_beta   59.98156658
_cell_angle_gamma   60.07855896
_symmetry_Int_Tables_number   1
_chemical_formula_structural   La16MgCo3Hg3Ir
_chemical_formula_sum   'La16 Mg1 Co3 Hg3 Ir1'
_cell_volume   707.42807009
_cell_formula_units_Z   1
loop_
 _symmetry_equiv_pos_site_id
 _symmetry_equiv_pos_as_xyz
  1  'x, y, z'
loop_
 _atom_site_type_symbol
 _atom_site_label
 _atom_site_symmetry_multiplicity
 _atom_site_fract_x
 _atom_site_fract_y
 _atom_site_fract_z
 _atom_site_occupancy
  La  La0  1  0.439315  0.059083  0.442521  1
  La  La1  1  0.808386  0.809041  0.191372  1
  La  La2  1  0.061478  0.439709  0.059104  1
  La  La3  1  0.186623  0.807464  0.198449  1
  La  La4  1  0.808386  0.191200  0.191372  1
  La  La5  1  0.058888  0.060295  0.441338  1
  La  La6  1  0.660044  0.651775  0.651601  1
  La  La7  1  0.660044  0.036579  0.651601  1
  La  La8  1  0.182605  0.810207  0.813408  1
  La  La9  1  0.035081  0.655026  0.654865  1
  La  La10  1  0.058888  0.439480  0.441338  1
  La  La11  1  0.182605  0.193781  0.813408  1
  La  La12  1  0.655792  0.648590  0.047029  1
  La  La13  1  0.439767  0.062071  0.057753  1
  La  La14  1  0.811111  0.187146  0.814598  1
  La  La15  1  0.439767  0.440410  0.057753  1
  Mg  Mg16  1  0.430318  0.430282  0.709118  1
  Co  Co17  1  0.859628  0.859403  0.860489  1
  Co  Co18  1  0.859628  0.420481  0.860489  1
  Co  Co19  1  0.859234  0.859115  0.422535  1
  Hg  Hg20  1  0.751677  0.414384  0.419555  1
  Hg  Hg21  1  0.414642  0.414776  0.419945  1
  Hg  Hg22  1  0.414642  0.750636  0.419945  1
  Ir  Ir23  1  0.421450  0.859068  0.860415  1
