# generated using pymatgen
data_Dy6Fe6Co16W
_symmetry_space_group_name_H-M   'P 1'
_cell_length_a   8.34977279
_cell_length_b   8.34977321
_cell_length_c   8.34977300
_cell_angle_alpha   59.99999686
_cell_angle_beta   59.99999520
_cell_angle_gamma   59.99999618
_symmetry_Int_Tables_number   1
_chemical_formula_structural   Dy6Fe6Co16W
_chemical_formula_sum   'Dy6 Fe6 Co16 W1'
_cell_volume   411.63184877
_cell_formula_units_Z   1
loop_
 _symmetry_equiv_pos_site_id
 _symmetry_equiv_pos_as_xyz
  1  'x, y, z'
loop_
 _atom_site_type_symbol
 _atom_site_label
 _atom_site_symmetry_multiplicity
 _atom_site_fract_x
 _atom_site_fract_y
 _atom_site_fract_z
 _atom_site_occupancy
  Dy  Dy0  1  0.712365  0.712365  0.287635  1
  Dy  Dy1  1  0.287635  0.712365  0.287635  1
  Dy  Dy2  1  0.712365  0.287635  0.287635  1
  Dy  Dy3  1  0.287635  0.287635  0.712365  1
  Dy  Dy4  1  0.712365  0.287635  0.712365  1
  Dy  Dy5  1  0.287635  0.712365  0.712365  1
  Fe  Fe6  1  0.000000  0.000000  0.500000  1
  Fe  Fe7  1  0.500000  0.000000  0.500000  1
  Fe  Fe8  1  0.000000  0.500000  0.500000  1
  Fe  Fe9  1  0.500000  0.500000  0.000000  1
  Fe  Fe10  1  0.000000  0.500000  0.000000  1
  Fe  Fe11  1  0.500000  0.000000  0.000000  1
  Co  Co12  1  0.876945  0.876945  0.369162  1
  Co  Co13  1  0.876945  0.369162  0.876945  1
  Co  Co14  1  0.369162  0.876945  0.876945  1
  Co  Co15  1  0.876945  0.876945  0.876945  1
  Co  Co16  1  0.123055  0.123055  0.630838  1
  Co  Co17  1  0.123055  0.630838  0.123055  1
  Co  Co18  1  0.630838  0.123055  0.123055  1
  Co  Co19  1  0.123055  0.123055  0.123055  1
  Co  Co20  1  0.676822  0.676822  0.969535  1
  Co  Co21  1  0.676822  0.969535  0.676822  1
  Co  Co22  1  0.969535  0.676822  0.676822  1
  Co  Co23  1  0.676822  0.676822  0.676822  1
  Co  Co24  1  0.323178  0.323178  0.030465  1
  Co  Co25  1  0.323178  0.030465  0.323178  1
  Co  Co26  1  0.030465  0.323178  0.323178  1
  Co  Co27  1  0.323178  0.323178  0.323178  1
  W  W28  1  0.000000  0.000000  0.000000  1
