# generated using pymatgen
data_Hf9ReNiMo2W
_symmetry_space_group_name_H-M   'P 1'
_cell_length_a   8.67930957
_cell_length_b   8.67930917
_cell_length_c   8.48276000
_cell_angle_alpha   90.00000000
_cell_angle_beta   90.00000000
_cell_angle_gamma   120.01358104
_symmetry_Int_Tables_number   1
_chemical_formula_structural   Hf9ReNiMo2W
_chemical_formula_sum   'Hf18 Re2 Ni2 Mo4 W2'
_cell_volume   553.32296940
_cell_formula_units_Z   2
loop_
 _symmetry_equiv_pos_site_id
 _symmetry_equiv_pos_as_xyz
  1  'x, y, z'
loop_
 _atom_site_type_symbol
 _atom_site_label
 _atom_site_symmetry_multiplicity
 _atom_site_fract_x
 _atom_site_fract_y
 _atom_site_fract_z
 _atom_site_occupancy
  Hf  Hf0  1  0.200106  0.799894  0.443500  1
  Hf  Hf1  1  0.199480  0.399223  0.444169  1
  Hf  Hf2  1  0.600777  0.800520  0.444169  1
  Hf  Hf3  1  0.800913  0.199087  0.558942  1
  Hf  Hf4  1  0.800178  0.601016  0.557598  1
  Hf  Hf5  1  0.398984  0.199822  0.557598  1
  Hf  Hf6  1  0.800913  0.199087  0.941058  1
  Hf  Hf7  1  0.800178  0.601016  0.942402  1
  Hf  Hf8  1  0.398984  0.199822  0.942402  1
  Hf  Hf9  1  0.200106  0.799894  0.056500  1
  Hf  Hf10  1  0.199480  0.399223  0.055831  1
  Hf  Hf11  1  0.600777  0.800520  0.055831  1
  Hf  Hf12  1  0.542114  0.457886  0.250000  1
  Hf  Hf13  1  0.542839  0.084454  0.250000  1
  Hf  Hf14  1  0.915546  0.457161  0.250000  1
  Hf  Hf15  1  0.457705  0.542295  0.750000  1
  Hf  Hf16  1  0.458659  0.915491  0.750000  1
  Hf  Hf17  1  0.084509  0.541341  0.750000  1
  Re  Re18  1  0.111145  0.224477  0.750000  1
  Re  Re19  1  0.775523  0.888855  0.750000  1
  Ni  Ni20  1  0.333996  0.666004  0.250000  1
  Ni  Ni21  1  0.666499  0.333501  0.750000  1
  Mo  Mo22  1  0.888074  0.111926  0.250000  1
  Mo  Mo23  1  0.887542  0.775485  0.250000  1
  Mo  Mo24  1  0.224515  0.112458  0.250000  1
  Mo  Mo25  1  0.111051  0.888949  0.750000  1
  W  W26  1  0.999705  0.000295  0.500336  1
  W  W27  1  0.999705  0.000295  0.999664  1
