# generated using pymatgen
data_HoTm19(CoSb2)4
_symmetry_space_group_name_H-M   'P 1'
_cell_length_a   7.75190822
_cell_length_b   8.67561600
_cell_length_c   12.01101135
_cell_angle_alpha   90.00000000
_cell_angle_beta   90.02752247
_cell_angle_gamma   90.00000000
_symmetry_Int_Tables_number   1
_chemical_formula_structural   HoTm19(CoSb2)4
_chemical_formula_sum   'Ho1 Tm19 Co4 Sb8'
_cell_volume   807.77139643
_cell_formula_units_Z   1
loop_
 _symmetry_equiv_pos_site_id
 _symmetry_equiv_pos_as_xyz
  1  'x, y, z'
loop_
 _atom_site_type_symbol
 _atom_site_label
 _atom_site_symmetry_multiplicity
 _atom_site_fract_x
 _atom_site_fract_y
 _atom_site_fract_z
 _atom_site_occupancy
  Ho  Ho0  1  0.877403  0.750000  0.807527  1
  Tm  Tm1  1  0.156980  0.750000  0.203790  1
  Tm  Tm2  1  0.657025  0.250000  0.296137  1
  Tm  Tm3  1  0.842984  0.250000  0.796127  1
  Tm  Tm4  1  0.343131  0.750000  0.703824  1
  Tm  Tm5  1  0.450910  0.750000  0.998096  1
  Tm  Tm6  1  0.951009  0.250000  0.501869  1
  Tm  Tm7  1  0.548840  0.250000  0.001923  1
  Tm  Tm8  1  0.049032  0.750000  0.498021  1
  Tm  Tm9  1  0.622208  0.750000  0.307922  1
  Tm  Tm10  1  0.122188  0.250000  0.192088  1
  Tm  Tm11  1  0.377763  0.250000  0.692138  1
  Tm  Tm12  1  0.823646  0.962714  0.065540  1
  Tm  Tm13  1  0.323604  0.037450  0.434647  1
  Tm  Tm14  1  0.176579  0.462215  0.934728  1
  Tm  Tm15  1  0.676337  0.537496  0.565312  1
  Tm  Tm16  1  0.176579  0.037785  0.934728  1
  Tm  Tm17  1  0.676337  0.962504  0.565312  1
  Tm  Tm18  1  0.823646  0.537286  0.065540  1
  Tm  Tm19  1  0.323604  0.462550  0.434647  1
  Co  Co20  1  0.430822  0.750000  0.490187  1
  Co  Co21  1  0.930804  0.250000  0.009846  1
  Co  Co22  1  0.569191  0.250000  0.509806  1
  Co  Co23  1  0.069441  0.750000  0.990467  1
  Sb  Sb24  1  0.930811  0.991634  0.327296  1
  Sb  Sb25  1  0.430842  0.008352  0.172696  1
  Sb  Sb26  1  0.069467  0.491363  0.672584  1
  Sb  Sb27  1  0.568848  0.508139  0.827313  1
  Sb  Sb28  1  0.069467  0.008637  0.672584  1
  Sb  Sb29  1  0.568848  0.991861  0.827313  1
  Sb  Sb30  1  0.930811  0.508366  0.327296  1
  Sb  Sb31  1  0.430842  0.491648  0.172696  1
