# generated using pymatgen
data_CeHo4Al2Ru3
_symmetry_space_group_name_H-M   'P 1'
_cell_length_a   8.30356527
_cell_length_b   8.24918474
_cell_length_c   8.33668600
_cell_angle_alpha   109.82528143
_cell_angle_beta   109.29473305
_cell_angle_gamma   108.58123374
_symmetry_Int_Tables_number   1
_chemical_formula_structural   CeHo4Al2Ru3
_chemical_formula_sum   'Ce2 Ho8 Al4 Ru6'
_cell_volume   443.37262554
_cell_formula_units_Z   2
loop_
 _symmetry_equiv_pos_site_id
 _symmetry_equiv_pos_as_xyz
  1  'x, y, z'
loop_
 _atom_site_type_symbol
 _atom_site_label
 _atom_site_symmetry_multiplicity
 _atom_site_fract_x
 _atom_site_fract_y
 _atom_site_fract_z
 _atom_site_occupancy
  Ce  Ce0  1  0.795300  0.804497  0.801925  1
  Ce  Ce1  1  0.306106  0.555620  0.748209  1
  Ho  Ho2  1  0.749064  0.317488  0.567421  1
  Ho  Ho3  1  0.565829  0.751565  0.316458  1
  Ho  Ho4  1  0.720363  0.498674  0.002723  1
  Ho  Ho5  1  0.995338  0.714916  0.494461  1
  Ho  Ho6  1  0.491057  0.997901  0.714048  1
  Ho  Ho7  1  0.255900  0.185124  0.934845  1
  Ho  Ho8  1  0.933120  0.255296  0.187616  1
  Ho  Ho9  1  0.190273  0.932570  0.254604  1
  Al  Al10  1  0.409412  0.413042  0.405754  1
  Al  Al11  1  0.088234  0.490260  0.999563  1
  Al  Al12  1  0.990959  0.086487  0.492452  1
  Al  Al13  1  0.505038  0.003001  0.096825  1
  Ru  Ru14  1  0.867895  0.106634  0.749403  1
  Ru  Ru15  1  0.755868  0.871672  0.113490  1
  Ru  Ru16  1  0.139242  0.738329  0.867189  1
  Ru  Ru17  1  0.245908  0.628050  0.371429  1
  Ru  Ru18  1  0.369133  0.271194  0.631837  1
  Ru  Ru19  1  0.625961  0.377679  0.249746  1
