# generated using pymatgen
data_Ho9Er(BiAu2)2
_symmetry_space_group_name_H-M   'P 1'
_cell_length_a   8.69471079
_cell_length_b   8.69471090
_cell_length_c   8.69471135
_cell_angle_alpha   124.27190333
_cell_angle_beta   124.27190954
_cell_angle_gamma   82.74752685
_symmetry_Int_Tables_number   1
_chemical_formula_structural   Ho9Er(BiAu2)2
_chemical_formula_sum   'Ho9 Er1 Bi2 Au4'
_cell_volume   430.98039651
_cell_formula_units_Z   1
loop_
 _symmetry_equiv_pos_site_id
 _symmetry_equiv_pos_as_xyz
  1  'x, y, z'
loop_
 _atom_site_type_symbol
 _atom_site_label
 _atom_site_symmetry_multiplicity
 _atom_site_fract_x
 _atom_site_fract_y
 _atom_site_fract_z
 _atom_site_occupancy
  Ho  Ho0  1  0.000000  0.000000  0.000000  1
  Ho  Ho1  1  0.513853  0.013921  0.808700  1
  Ho  Ho2  1  0.205221  0.705152  0.191300  1
  Ho  Ho3  1  0.013921  0.205221  0.500068  1
  Ho  Ho4  1  0.705152  0.513853  0.499932  1
  Ho  Ho5  1  0.486147  0.986079  0.191300  1
  Ho  Ho6  1  0.794779  0.294848  0.808700  1
  Ho  Ho7  1  0.986079  0.794779  0.499932  1
  Ho  Ho8  1  0.294848  0.486147  0.500068  1
  Er  Er9  1  0.500000  0.500000  0.000000  1
  Bi  Bi10  1  0.250039  0.250039  0.000000  1
  Bi  Bi11  1  0.749961  0.749961  0.000000  1
  Au  Au12  1  0.139169  0.639092  0.778262  1
  Au  Au13  1  0.860831  0.360908  0.221738  1
  Au  Au14  1  0.639092  0.860831  0.499923  1
  Au  Au15  1  0.360908  0.139169  0.500077  1
