# generated using pymatgen
data_Tb8In4PdAu7
_symmetry_space_group_name_H-M   'P 1'
_cell_length_a   8.04399860
_cell_length_b   8.04399837
_cell_length_c   7.36837313
_cell_angle_alpha   90.03116562
_cell_angle_beta   89.96883560
_cell_angle_gamma   89.79930567
_symmetry_Int_Tables_number   1
_chemical_formula_structural   Tb8In4PdAu7
_chemical_formula_sum   'Tb8 In4 Pd1 Au7'
_cell_volume   476.77423419
_cell_formula_units_Z   1
loop_
 _symmetry_equiv_pos_site_id
 _symmetry_equiv_pos_as_xyz
  1  'x, y, z'
loop_
 _atom_site_type_symbol
 _atom_site_label
 _atom_site_symmetry_multiplicity
 _atom_site_fract_x
 _atom_site_fract_y
 _atom_site_fract_z
 _atom_site_occupancy
  Tb  Tb0  1  0.166283  0.160273  0.997778  1
  Tb  Tb1  1  0.839727  0.833717  0.997778  1
  Tb  Tb2  1  0.663666  0.336334  0.499756  1
  Tb  Tb3  1  0.332159  0.667841  0.503035  1
  Tb  Tb4  1  0.675301  0.324699  0.000027  1
  Tb  Tb5  1  0.321318  0.678682  0.997844  1
  Tb  Tb6  1  0.828057  0.823517  0.501906  1
  Tb  Tb7  1  0.176483  0.171943  0.501906  1
  In  In8  1  0.502212  0.999891  0.249757  1
  In  In9  1  0.494528  0.998062  0.748953  1
  In  In10  1  0.000109  0.497788  0.249757  1
  In  In11  1  0.001938  0.505472  0.748953  1
  Pd  Pd12  1  0.129010  0.870990  0.739792  1
  Au  Au13  1  0.369741  0.372557  0.238865  1
  Au  Au14  1  0.628018  0.628725  0.761662  1
  Au  Au15  1  0.627443  0.630259  0.238865  1
  Au  Au16  1  0.873288  0.126712  0.738639  1
  Au  Au17  1  0.871385  0.128615  0.261113  1
  Au  Au18  1  0.371275  0.371982  0.761662  1
  Au  Au19  1  0.128061  0.871939  0.261954  1
