# generated using pymatgen
data_Dy5Tm3(HgAu2)4
_symmetry_space_group_name_H-M   'P 1'
_cell_length_a   7.95863702
_cell_length_b   7.95863706
_cell_length_c   7.37880000
_cell_angle_alpha   90.00000000
_cell_angle_beta   90.00000000
_cell_angle_gamma   89.86771469
_symmetry_Int_Tables_number   1
_chemical_formula_structural   Dy5Tm3(HgAu2)4
_chemical_formula_sum   'Dy5 Tm3 Hg4 Au8'
_cell_volume   467.37123415
_cell_formula_units_Z   1
loop_
 _symmetry_equiv_pos_site_id
 _symmetry_equiv_pos_as_xyz
  1  'x, y, z'
loop_
 _atom_site_type_symbol
 _atom_site_label
 _atom_site_symmetry_multiplicity
 _atom_site_fract_x
 _atom_site_fract_y
 _atom_site_fract_z
 _atom_site_occupancy
  Dy  Dy0  1  0.840390  0.160758  0.500000  1
  Dy  Dy1  1  0.160758  0.840390  0.500000  1
  Dy  Dy2  1  0.339279  0.339279  0.000000  1
  Dy  Dy3  1  0.659776  0.659776  0.000000  1
  Dy  Dy4  1  0.682725  0.682725  0.500000  1
  Tm  Tm5  1  0.317941  0.317941  0.500000  1
  Tm  Tm6  1  0.182511  0.818553  0.000000  1
  Tm  Tm7  1  0.818553  0.182511  0.000000  1
  Hg  Hg8  1  0.499706  0.999957  0.249935  1
  Hg  Hg9  1  0.999957  0.499706  0.750065  1
  Hg  Hg10  1  0.499706  0.999957  0.750065  1
  Hg  Hg11  1  0.999957  0.499706  0.249935  1
  Au  Au12  1  0.627058  0.370892  0.271968  1
  Au  Au13  1  0.370892  0.627058  0.271968  1
  Au  Au14  1  0.128070  0.128070  0.772961  1
  Au  Au15  1  0.873351  0.873351  0.775934  1
  Au  Au16  1  0.370892  0.627058  0.728032  1
  Au  Au17  1  0.627058  0.370892  0.728032  1
  Au  Au18  1  0.873351  0.873351  0.224066  1
  Au  Au19  1  0.128070  0.128070  0.227039  1
