# generated using pymatgen
data_Dy8Er10ScSi16Ag
_symmetry_space_group_name_H-M   'P 1'
_cell_length_a   7.23159496
_cell_length_b   7.65051497
_cell_length_c   14.48783200
_cell_angle_alpha   90.00000000
_cell_angle_beta   90.00000000
_cell_angle_gamma   89.97112602
_symmetry_Int_Tables_number   1
_chemical_formula_structural   Dy8Er10ScSi16Ag
_chemical_formula_sum   'Dy8 Er10 Sc1 Si16 Ag1'
_cell_volume   801.54536767
_cell_formula_units_Z   1
loop_
 _symmetry_equiv_pos_site_id
 _symmetry_equiv_pos_as_xyz
  1  'x, y, z'
loop_
 _atom_site_type_symbol
 _atom_site_label
 _atom_site_symmetry_multiplicity
 _atom_site_fract_x
 _atom_site_fract_y
 _atom_site_fract_z
 _atom_site_occupancy
  Dy  Dy0  1  0.017263  0.181605  0.095434  1
  Dy  Dy1  1  0.984143  0.808033  0.899086  1
  Dy  Dy2  1  0.477958  0.677859  0.900078  1
  Dy  Dy3  1  0.984143  0.808033  0.600914  1
  Dy  Dy4  1  0.515433  0.319794  0.094291  1
  Dy  Dy5  1  0.017263  0.181605  0.404566  1
  Dy  Dy6  1  0.515433  0.319794  0.405709  1
  Dy  Dy7  1  0.477958  0.677859  0.599922  1
  Er  Er8  1  0.839481  0.488946  0.250000  1
  Er  Er9  1  0.345045  0.012575  0.250000  1
  Er  Er10  1  0.320832  0.184420  0.628699  1
  Er  Er11  1  0.675455  0.822878  0.377875  1
  Er  Er12  1  0.173662  0.683011  0.376354  1
  Er  Er13  1  0.675455  0.822878  0.122125  1
  Er  Er14  1  0.835162  0.324954  0.628361  1
  Er  Er15  1  0.320832  0.184420  0.871301  1
  Er  Er16  1  0.835162  0.324954  0.871639  1
  Er  Er17  1  0.173662  0.683011  0.123646  1
  Sc  Sc18  1  0.654197  0.986360  0.750000  1
  Si  Si19  1  0.017825  0.076697  0.750000  1
  Si  Si20  1  0.970776  0.898249  0.250000  1
  Si  Si21  1  0.467981  0.609222  0.250000  1
  Si  Si22  1  0.530432  0.401681  0.750000  1
  Si  Si23  1  0.282611  0.873823  0.750000  1
  Si  Si24  1  0.724202  0.129040  0.250000  1
  Si  Si25  1  0.222284  0.373205  0.250000  1
  Si  Si26  1  0.766804  0.634841  0.750000  1
  Si  Si27  1  0.160553  0.462735  0.531735  1
  Si  Si28  1  0.845969  0.530979  0.463301  1
  Si  Si29  1  0.347409  0.970067  0.465476  1
  Si  Si30  1  0.845969  0.530979  0.036699  1
  Si  Si31  1  0.654612  0.029537  0.543423  1
  Si  Si32  1  0.160553  0.462735  0.968265  1
  Si  Si33  1  0.654612  0.029537  0.956577  1
  Si  Si34  1  0.347409  0.970067  0.034524  1
  Ag  Ag35  1  0.161459  0.523614  0.750000  1
