# generated using pymatgen
data_Dy16Lu4Ir11Rh
_symmetry_space_group_name_H-M   'P 1'
_cell_length_a   10.83595000
_cell_length_b   10.83595000
_cell_length_c   6.36751800
_cell_angle_alpha   90.00000000
_cell_angle_beta   90.00000000
_cell_angle_gamma   90.00000000
_symmetry_Int_Tables_number   1
_chemical_formula_structural   Dy16Lu4Ir11Rh
_chemical_formula_sum   'Dy16 Lu4 Ir11 Rh1'
_cell_volume   747.66003399
_cell_formula_units_Z   1
loop_
 _symmetry_equiv_pos_site_id
 _symmetry_equiv_pos_as_xyz
  1  'x, y, z'
loop_
 _atom_site_type_symbol
 _atom_site_label
 _atom_site_symmetry_multiplicity
 _atom_site_fract_x
 _atom_site_fract_y
 _atom_site_fract_z
 _atom_site_occupancy
  Dy  Dy0  1  0.290158  0.087418  0.379976  1
  Dy  Dy1  1  0.290259  0.912264  0.879376  1
  Dy  Dy2  1  0.709741  0.087736  0.879376  1
  Dy  Dy3  1  0.709842  0.912582  0.379976  1
  Dy  Dy4  1  0.587736  0.790259  0.879376  1
  Dy  Dy5  1  0.587418  0.209842  0.379976  1
  Dy  Dy6  1  0.412582  0.790158  0.379976  1
  Dy  Dy7  1  0.412264  0.209741  0.879376  1
  Dy  Dy8  1  0.209778  0.411933  0.621096  1
  Dy  Dy9  1  0.209777  0.587996  0.120795  1
  Dy  Dy10  1  0.790223  0.412004  0.120795  1
  Dy  Dy11  1  0.790222  0.588067  0.621096  1
  Dy  Dy12  1  0.912004  0.709777  0.120795  1
  Dy  Dy13  1  0.911933  0.290222  0.621096  1
  Dy  Dy14  1  0.088067  0.709778  0.621096  1
  Dy  Dy15  1  0.087996  0.290223  0.120795  1
  Lu  Lu16  1  0.000000  0.000000  0.499406  1
  Lu  Lu17  1  0.000000  0.000000  0.999142  1
  Lu  Lu18  1  0.500000  0.500000  0.999142  1
  Lu  Lu19  1  0.500000  0.500000  0.499406  1
  Ir  Ir20  1  0.848603  0.151029  0.249314  1
  Ir  Ir21  1  0.848793  0.849153  0.749571  1
  Ir  Ir22  1  0.151207  0.150847  0.749571  1
  Ir  Ir23  1  0.151397  0.848971  0.249314  1
  Ir  Ir24  1  0.650847  0.348793  0.749571  1
  Ir  Ir25  1  0.651029  0.651397  0.249314  1
  Ir  Ir26  1  0.348971  0.348603  0.249314  1
  Ir  Ir27  1  0.349153  0.651207  0.749571  1
  Ir  Ir28  1  0.500000  0.000000  0.624938  1
  Ir  Ir29  1  0.000000  0.500000  0.876144  1
  Ir  Ir30  1  0.000000  0.500000  0.375979  1
  Rh  Rh31  1  0.500000  0.000000  0.125339  1
