# generated using pymatgen
data_Ce6Sc13Si16W
_symmetry_space_group_name_H-M   'P 1'
_cell_length_a   7.00494012
_cell_length_b   7.32112926
_cell_length_c   13.84001100
_cell_angle_alpha   89.75357148
_cell_angle_beta   89.93072098
_cell_angle_gamma   89.62983895
_symmetry_Int_Tables_number   1
_chemical_formula_structural   Ce6Sc13Si16W
_chemical_formula_sum   'Ce6 Sc13 Si16 W1'
_cell_volume   709.75024904
_cell_formula_units_Z   1
loop_
 _symmetry_equiv_pos_site_id
 _symmetry_equiv_pos_as_xyz
  1  'x, y, z'
loop_
 _atom_site_type_symbol
 _atom_site_label
 _atom_site_symmetry_multiplicity
 _atom_site_fract_x
 _atom_site_fract_y
 _atom_site_fract_z
 _atom_site_occupancy
  Ce  Ce0  1  0.994740  0.675317  0.601106  1
  Ce  Ce1  1  0.012546  0.325758  0.403315  1
  Ce  Ce2  1  0.508799  0.171608  0.406254  1
  Ce  Ce3  1  0.013187  0.326977  0.091275  1
  Ce  Ce4  1  0.489381  0.829668  0.597574  1
  Ce  Ce5  1  0.991809  0.673809  0.905101  1
  Sc  Sc6  1  0.840488  0.008073  0.248007  1
  Sc  Sc7  1  0.339780  0.495818  0.247495  1
  Sc  Sc8  1  0.660146  0.506944  0.752540  1
  Sc  Sc9  1  0.487086  0.823154  0.900218  1
  Sc  Sc10  1  0.511382  0.180906  0.096485  1
  Sc  Sc11  1  0.328433  0.322768  0.629208  1
  Sc  Sc12  1  0.669643  0.676020  0.373312  1
  Sc  Sc13  1  0.173348  0.828492  0.376036  1
  Sc  Sc14  1  0.669127  0.679320  0.122665  1
  Sc  Sc15  1  0.826682  0.168153  0.629409  1
  Sc  Sc16  1  0.330232  0.319605  0.875237  1
  Sc  Sc17  1  0.826035  0.168647  0.874870  1
  Sc  Sc18  1  0.173307  0.829361  0.118640  1
  Si  Si19  1  0.032911  0.371271  0.752600  1
  Si  Si20  1  0.968770  0.620381  0.247571  1
  Si  Si21  1  0.467863  0.887824  0.246186  1
  Si  Si22  1  0.519471  0.101662  0.754307  1
  Si  Si23  1  0.288997  0.640575  0.754505  1
  Si  Si24  1  0.711694  0.372952  0.246071  1
  Si  Si25  1  0.218758  0.128186  0.244654  1
  Si  Si26  1  0.791836  0.872176  0.753805  1
  Si  Si27  1  0.153714  0.035380  0.548946  1
  Si  Si28  1  0.844637  0.962883  0.463056  1
  Si  Si29  1  0.345082  0.536747  0.462811  1
  Si  Si30  1  0.832701  0.969260  0.038347  1
  Si  Si31  1  0.657978  0.464628  0.540173  1
  Si  Si32  1  0.161841  0.028204  0.948844  1
  Si  Si33  1  0.654748  0.465235  0.960646  1
  Si  Si34  1  0.348534  0.535658  0.036830  1
  W  W35  1  0.154314  0.996578  0.751901  1
