# generated using pymatgen
data_NaLi3Sc4(P3Ir4)4
_symmetry_space_group_name_H-M   'P 1'
_cell_length_a   12.68939100
_cell_length_b   12.62883047
_cell_length_c   3.89273600
_cell_angle_alpha   90.00000000
_cell_angle_beta   90.00000000
_cell_angle_gamma   120.15875574
_symmetry_Int_Tables_number   1
_chemical_formula_structural   NaLi3Sc4(P3Ir4)4
_chemical_formula_sum   'Na1 Li3 Sc4 P12 Ir16'
_cell_volume   539.37711718
_cell_formula_units_Z   1
loop_
 _symmetry_equiv_pos_site_id
 _symmetry_equiv_pos_as_xyz
  1  'x, y, z'
loop_
 _atom_site_type_symbol
 _atom_site_label
 _atom_site_symmetry_multiplicity
 _atom_site_fract_x
 _atom_site_fract_y
 _atom_site_fract_z
 _atom_site_occupancy
  Na  Na0  1  0.812402  0.000000  0.500000  1
  Li  Li1  1  0.440705  0.000000  0.000000  1
  Li  Li2  1  0.001859  0.443007  0.000000  1
  Li  Li3  1  0.558853  0.556993  0.000000  1
  Sc  Sc4  1  0.330904  0.665477  0.000000  1
  Sc  Sc5  1  0.665428  0.334523  0.000000  1
  Sc  Sc6  1  0.000606  0.807271  0.500000  1
  Sc  Sc7  1  0.193335  0.192729  0.500000  1
  P  P8  1  0.177627  0.000000  0.000000  1
  P  P9  1  0.001649  0.178083  0.000000  1
  P  P10  1  0.823566  0.821917  0.000000  1
  P  P11  1  0.173039  0.483765  0.500000  1
  P  P12  1  0.516857  0.689755  0.500000  1
  P  P13  1  0.310503  0.826569  0.500000  1
  P  P14  1  0.689273  0.516235  0.500000  1
  P  P15  1  0.827101  0.310245  0.500000  1
  P  P16  1  0.483933  0.173431  0.500000  1
  P  P17  1  0.629927  0.000000  0.000000  1
  P  P18  1  0.999711  0.632187  0.000000  1
  P  P19  1  0.367524  0.367813  0.000000  1
  Ir  Ir20  1  0.361389  0.493829  0.500000  1
  Ir  Ir21  1  0.505609  0.867828  0.500000  1
  Ir  Ir22  1  0.131110  0.638674  0.500000  1
  Ir  Ir23  1  0.867560  0.506171  0.500000  1
  Ir  Ir24  1  0.637781  0.132172  0.500000  1
  Ir  Ir25  1  0.492436  0.361326  0.500000  1
  Ir  Ir26  1  0.181839  0.370708  0.000000  1
  Ir  Ir27  1  0.621049  0.801777  0.000000  1
  Ir  Ir28  1  0.190105  0.819151  0.000000  1
  Ir  Ir29  1  0.811132  0.629292  0.000000  1
  Ir  Ir30  1  0.819274  0.198223  0.000000  1
  Ir  Ir31  1  0.370955  0.180849  0.000000  1
  Ir  Ir32  1  0.277807  0.000000  0.500000  1
  Ir  Ir33  1  0.001041  0.278451  0.500000  1
  Ir  Ir34  1  0.722591  0.721549  0.500000  1
  Ir  Ir35  1  0.003520  0.000000  0.000000  1
