# generated using pymatgen
data_Zr2MnAlFe8
_symmetry_space_group_name_H-M   'P 1'
_cell_length_a   8.37947631
_cell_length_b   8.37947645
_cell_length_c   8.37947695
_cell_angle_alpha   33.74489215
_cell_angle_beta   33.74489380
_cell_angle_gamma   33.74489286
_symmetry_Int_Tables_number   1
_chemical_formula_structural   Zr2MnAlFe8
_chemical_formula_sum   'Zr2 Mn1 Al1 Fe8'
_cell_volume   161.76701541
_cell_formula_units_Z   1
loop_
 _symmetry_equiv_pos_site_id
 _symmetry_equiv_pos_as_xyz
  1  'x, y, z'
loop_
 _atom_site_type_symbol
 _atom_site_label
 _atom_site_symmetry_multiplicity
 _atom_site_fract_x
 _atom_site_fract_y
 _atom_site_fract_z
 _atom_site_occupancy
  Zr  Zr0  1  0.999100  0.999100  0.999100  1
  Zr  Zr1  1  0.500888  0.500888  0.500888  1
  Mn  Mn2  1  0.625538  0.625538  0.625538  1
  Al  Al3  1  0.125595  0.125595  0.125595  1
  Fe  Fe4  1  0.564258  0.060403  0.564258  1
  Fe  Fe5  1  0.063313  0.559241  0.063313  1
  Fe  Fe6  1  0.060403  0.564258  0.564258  1
  Fe  Fe7  1  0.559241  0.063313  0.063313  1
  Fe  Fe8  1  0.812259  0.812259  0.812259  1
  Fe  Fe9  1  0.311836  0.311836  0.311836  1
  Fe  Fe10  1  0.564258  0.564258  0.060403  1
  Fe  Fe11  1  0.063313  0.063313  0.559241  1
