# generated using pymatgen
data_Mn5AlPt10
_symmetry_space_group_name_H-M   'P 1'
_cell_length_a   4.04661500
_cell_length_b   5.48921040
_cell_length_c   10.88224283
_cell_angle_alpha   88.99387977
_cell_angle_beta   90.00000000
_cell_angle_gamma   90.00000000
_symmetry_Int_Tables_number   1
_chemical_formula_structural   Mn5AlPt10
_chemical_formula_sum   'Mn5 Al1 Pt10'
_cell_volume   241.68695749
_cell_formula_units_Z   1
loop_
 _symmetry_equiv_pos_site_id
 _symmetry_equiv_pos_as_xyz
  1  'x, y, z'
loop_
 _atom_site_type_symbol
 _atom_site_label
 _atom_site_symmetry_multiplicity
 _atom_site_fract_x
 _atom_site_fract_y
 _atom_site_fract_z
 _atom_site_occupancy
  Mn  Mn0  1  0.500000  0.203081  0.635214  1
  Mn  Mn1  1  0.500000  0.796919  0.364786  1
  Mn  Mn2  1  0.500000  0.696180  0.863940  1
  Mn  Mn3  1  0.500000  0.303820  0.136060  1
  Mn  Mn4  1  0.000000  0.500000  0.500000  1
  Al  Al5  1  0.000000  0.000000  0.000000  1
  Pt  Pt6  1  0.500000  0.287530  0.385250  1
  Pt  Pt7  1  0.500000  0.712470  0.614750  1
  Pt  Pt8  1  0.500000  0.797951  0.108713  1
  Pt  Pt9  1  0.500000  0.202049  0.891287  1
  Pt  Pt10  1  0.000000  0.445892  0.743298  1
  Pt  Pt11  1  0.000000  0.554108  0.256702  1
  Pt  Pt12  1  0.000000  0.947334  0.759966  1
  Pt  Pt13  1  0.000000  0.052666  0.240034  1
  Pt  Pt14  1  0.000000  0.500000  0.000000  1
  Pt  Pt15  1  0.000000  0.000000  0.500000  1
