# generated using pymatgen
data_Yb4Ir3RhO14
_symmetry_space_group_name_H-M   'P 1'
_cell_length_a   7.19827251
_cell_length_b   7.22757789
_cell_length_c   7.22757700
_cell_angle_alpha   59.99999036
_cell_angle_beta   59.86522550
_cell_angle_gamma   59.86522785
_symmetry_Int_Tables_number   1
_chemical_formula_structural   Yb4Ir3RhO14
_chemical_formula_sum   'Yb4 Ir3 Rh1 O14'
_cell_volume   265.34508771
_cell_formula_units_Z   1
loop_
 _symmetry_equiv_pos_site_id
 _symmetry_equiv_pos_as_xyz
  1  'x, y, z'
loop_
 _atom_site_type_symbol
 _atom_site_label
 _atom_site_symmetry_multiplicity
 _atom_site_fract_x
 _atom_site_fract_y
 _atom_site_fract_z
 _atom_site_occupancy
  Yb  Yb0  1  0.125000  0.125000  0.625000  1
  Yb  Yb1  1  0.125000  0.125000  0.125000  1
  Yb  Yb2  1  0.625000  0.125000  0.125000  1
  Yb  Yb3  1  0.125000  0.625000  0.125000  1
  Ir  Ir4  1  0.625000  0.625000  0.625000  1
  Ir  Ir5  1  0.625000  0.125000  0.625000  1
  Ir  Ir6  1  0.625000  0.625000  0.125000  1
  Rh  Rh7  1  0.125000  0.625000  0.625000  1
  O  O8  1  0.950606  0.546698  0.546698  1
  O  O9  1  0.299394  0.294003  0.703302  1
  O  O10  1  0.950606  0.546698  0.955997  1
  O  O11  1  0.699299  0.298367  0.298367  1
  O  O12  1  0.550701  0.546033  0.951633  1
  O  O13  1  0.550701  0.951633  0.546033  1
  O  O14  1  0.550701  0.951633  0.951633  1
  O  O15  1  0.247671  0.250776  0.250776  1
  O  O16  1  0.299394  0.703302  0.703302  1
  O  O17  1  0.699299  0.298367  0.703967  1
  O  O18  1  0.002329  0.999224  0.999224  1
  O  O19  1  0.950606  0.955997  0.546698  1
  O  O20  1  0.299394  0.703302  0.294003  1
  O  O21  1  0.699299  0.703967  0.298367  1
