# generated using pymatgen
data_Cs5(FeS3)2
_symmetry_space_group_name_H-M   'P 1'
_cell_length_a   7.94268142
_cell_length_b   8.58904258
_cell_length_c   17.26795739
_cell_angle_alpha   89.98038774
_cell_angle_beta   100.11256229
_cell_angle_gamma   122.74310645
_symmetry_Int_Tables_number   1
_chemical_formula_structural   Cs5(FeS3)2
_chemical_formula_sum   'Cs10 Fe4 S12'
_cell_volume   969.05473894
_cell_formula_units_Z   2
loop_
 _symmetry_equiv_pos_site_id
 _symmetry_equiv_pos_as_xyz
  1  'x, y, z'
loop_
 _atom_site_type_symbol
 _atom_site_label
 _atom_site_symmetry_multiplicity
 _atom_site_fract_x
 _atom_site_fract_y
 _atom_site_fract_z
 _atom_site_occupancy
  Cs  Cs0  1  0.121733  0.797799  0.995611  1
  Cs  Cs1  1  0.878518  0.676284  0.504313  1
  Cs  Cs2  1  0.878267  0.202201  0.004389  1
  Cs  Cs3  1  0.121482  0.323716  0.495687  1
  Cs  Cs4  1  0.312585  0.081547  0.720322  1
  Cs  Cs5  1  0.687025  0.768545  0.779503  1
  Cs  Cs6  1  0.687415  0.918453  0.279678  1
  Cs  Cs7  1  0.312975  0.231455  0.220497  1
  Cs  Cs8  1  0.000112  0.390820  0.750139  1
  Cs  Cs9  1  0.999888  0.609180  0.249861  1
  Fe  Fe10  1  0.542199  0.925484  0.565991  1
  Fe  Fe11  1  0.457816  0.383302  0.933896  1
  Fe  Fe12  1  0.457801  0.074516  0.434009  1
  Fe  Fe13  1  0.542184  0.616698  0.066104  1
  S  S14  1  0.851235  0.001886  0.620801  1
  S  S15  1  0.149013  0.150653  0.879313  1
  S  S16  1  0.148765  0.998114  0.379199  1
  S  S17  1  0.850987  0.849347  0.120687  1
  S  S18  1  0.310495  0.722493  0.629946  1
  S  S19  1  0.689025  0.411782  0.869983  1
  S  S20  1  0.689505  0.277507  0.370054  1
  S  S21  1  0.310975  0.588218  0.130017  1
  S  S22  1  0.569499  0.195880  0.559474  1
  S  S23  1  0.430693  0.626262  0.940780  1
  S  S24  1  0.430501  0.804120  0.440526  1
  S  S25  1  0.569307  0.373738  0.059220  1
