# generated using pymatgen
data_Nd3ZnHg2PdPt2
_symmetry_space_group_name_H-M   'P 1'
_cell_length_a   7.78631672
_cell_length_b   7.71291152
_cell_length_c   3.91625700
_cell_angle_alpha   90.00000000
_cell_angle_beta   90.00000000
_cell_angle_gamma   119.68862047
_symmetry_Int_Tables_number   1
_chemical_formula_structural   Nd3ZnHg2PdPt2
_chemical_formula_sum   'Nd3 Zn1 Hg2 Pd1 Pt2'
_cell_volume   204.31787748
_cell_formula_units_Z   1
loop_
 _symmetry_equiv_pos_site_id
 _symmetry_equiv_pos_as_xyz
  1  'x, y, z'
loop_
 _atom_site_type_symbol
 _atom_site_label
 _atom_site_symmetry_multiplicity
 _atom_site_fract_x
 _atom_site_fract_y
 _atom_site_fract_z
 _atom_site_occupancy
  Nd  Nd0  1  0.401078  0.402851  0.000000  1
  Nd  Nd1  1  0.598922  0.001773  0.000000  1
  Nd  Nd2  1  0.000000  0.588502  0.000000  1
  Zn  Zn3  1  0.000000  0.260174  0.500000  1
  Hg  Hg4  1  0.745765  0.743353  0.500000  1
  Hg  Hg5  1  0.254235  0.997586  0.500000  1
  Pd  Pd6  1  0.000000  0.027516  0.000000  1
  Pt  Pt7  1  0.677611  0.327928  0.500000  1
  Pt  Pt8  1  0.322389  0.650317  0.500000  1
