# generated using pymatgen
data_Er8TiGe16Mo11
_symmetry_space_group_name_H-M   'P 1'
_cell_length_a   6.91495700
_cell_length_b   7.06652449
_cell_length_c   13.12143300
_cell_angle_alpha   90.00000000
_cell_angle_beta   90.00000000
_cell_angle_gamma   90.16832349
_symmetry_Int_Tables_number   1
_chemical_formula_structural   Er8TiGe16Mo11
_chemical_formula_sum   'Er8 Ti1 Ge16 Mo11'
_cell_volume   641.17229105
_cell_formula_units_Z   1
loop_
 _symmetry_equiv_pos_site_id
 _symmetry_equiv_pos_as_xyz
  1  'x, y, z'
loop_
 _atom_site_type_symbol
 _atom_site_label
 _atom_site_symmetry_multiplicity
 _atom_site_fract_x
 _atom_site_fract_y
 _atom_site_fract_z
 _atom_site_occupancy
  Er  Er0  1  0.490949  0.328015  0.092791  1
  Er  Er1  1  0.989601  0.171892  0.407280  1
  Er  Er2  1  0.511589  0.670787  0.592108  1
  Er  Er3  1  0.010578  0.829418  0.908045  1
  Er  Er4  1  0.511589  0.670787  0.907892  1
  Er  Er5  1  0.010578  0.829418  0.591955  1
  Er  Er6  1  0.490949  0.328015  0.407209  1
  Er  Er7  1  0.989601  0.171892  0.092720  1
  Ti  Ti8  1  0.837570  0.512480  0.250000  1
  Ge  Ge9  1  0.812955  0.644466  0.750000  1
  Ge  Ge10  1  0.312476  0.856305  0.750000  1
  Ge  Ge11  1  0.188875  0.356166  0.250000  1
  Ge  Ge12  1  0.690148  0.141220  0.250000  1
  Ge  Ge13  1  0.531662  0.369070  0.750000  1
  Ge  Ge14  1  0.032948  0.130754  0.750000  1
  Ge  Ge15  1  0.466171  0.627227  0.250000  1
  Ge  Ge16  1  0.967518  0.871342  0.250000  1
  Ge  Ge17  1  0.671307  0.045081  0.547532  1
  Ge  Ge18  1  0.171112  0.455188  0.952732  1
  Ge  Ge19  1  0.327198  0.954936  0.046426  1
  Ge  Ge20  1  0.827958  0.544028  0.453682  1
  Ge  Ge21  1  0.327198  0.954936  0.453574  1
  Ge  Ge22  1  0.827958  0.544028  0.046318  1
  Ge  Ge23  1  0.671307  0.045081  0.952468  1
  Ge  Ge24  1  0.171112  0.455188  0.547268  1
  Mo  Mo25  1  0.668575  0.004279  0.750000  1
  Mo  Mo26  1  0.167284  0.495449  0.750000  1
  Mo  Mo27  1  0.332714  0.991623  0.250000  1
  Mo  Mo28  1  0.832277  0.342716  0.627830  1
  Mo  Mo29  1  0.332399  0.158115  0.873227  1
  Mo  Mo30  1  0.166514  0.658886  0.125825  1
  Mo  Mo31  1  0.664069  0.840749  0.374643  1
  Mo  Mo32  1  0.166514  0.658886  0.374175  1
  Mo  Mo33  1  0.664069  0.840749  0.125357  1
  Mo  Mo34  1  0.832277  0.342716  0.872170  1
  Mo  Mo35  1  0.332399  0.158115  0.626773  1
