# generated using pymatgen
data_Th5Tl3Se
_symmetry_space_group_name_H-M   'P 1'
_cell_length_a   9.63952800
_cell_length_b   9.63952739
_cell_length_c   6.61221600
_cell_angle_alpha   90.00000000
_cell_angle_beta   90.00000000
_cell_angle_gamma   119.99999523
_symmetry_Int_Tables_number   1
_chemical_formula_structural   Th5Tl3Se
_chemical_formula_sum   'Th10 Tl6 Se2'
_cell_volume   532.09502149
_cell_formula_units_Z   2
loop_
 _symmetry_equiv_pos_site_id
 _symmetry_equiv_pos_as_xyz
  1  'x, y, z'
loop_
 _atom_site_type_symbol
 _atom_site_label
 _atom_site_symmetry_multiplicity
 _atom_site_fract_x
 _atom_site_fract_y
 _atom_site_fract_z
 _atom_site_occupancy
  Th  Th0  1  0.666667  0.333333  0.000000  1
  Th  Th1  1  0.333333  0.666667  0.000000  1
  Th  Th2  1  0.333333  0.666667  0.500000  1
  Th  Th3  1  0.666667  0.333333  0.500000  1
  Th  Th4  1  0.737199  0.737199  0.750000  1
  Th  Th5  1  0.262801  0.000000  0.750000  1
  Th  Th6  1  0.000000  0.262801  0.750000  1
  Th  Th7  1  0.262801  0.262801  0.250000  1
  Th  Th8  1  0.737199  0.000000  0.250000  1
  Th  Th9  1  0.000000  0.737199  0.250000  1
  Tl  Tl10  1  0.388214  0.388214  0.750000  1
  Tl  Tl11  1  0.611786  0.000000  0.750000  1
  Tl  Tl12  1  0.000000  0.611786  0.750000  1
  Tl  Tl13  1  0.611786  0.611786  0.250000  1
  Tl  Tl14  1  0.388214  0.000000  0.250000  1
  Tl  Tl15  1  0.000000  0.388214  0.250000  1
  Se  Se16  1  0.000000  0.000000  0.000000  1
  Se  Se17  1  0.000000  0.000000  0.500000  1
