# generated using pymatgen
data_TbGdTm6(WO6)4
_symmetry_space_group_name_H-M   'P 1'
_cell_length_a   5.36532300
_cell_length_b   7.66219085
_cell_length_c   11.41147736
_cell_angle_alpha   75.28544983
_cell_angle_beta   90.00000000
_cell_angle_gamma   90.00000000
_symmetry_Int_Tables_number   1
_chemical_formula_structural   TbGdTm6(WO6)4
_chemical_formula_sum   'Tb1 Gd1 Tm6 W4 O24'
_cell_volume   453.74146734
_cell_formula_units_Z   1
loop_
 _symmetry_equiv_pos_site_id
 _symmetry_equiv_pos_as_xyz
  1  'x, y, z'
loop_
 _atom_site_type_symbol
 _atom_site_label
 _atom_site_symmetry_multiplicity
 _atom_site_fract_x
 _atom_site_fract_y
 _atom_site_fract_z
 _atom_site_occupancy
  Tb  Tb0  1  0.315384  0.500000  0.250000  1
  Gd  Gd1  1  0.685079  0.500000  0.750000  1
  Tm  Tm2  1  0.740981  0.000000  0.750000  1
  Tm  Tm3  1  0.259502  0.000000  0.250000  1
  Tm  Tm4  1  0.185318  0.796826  0.577703  1
  Tm  Tm5  1  0.814968  0.796223  0.078242  1
  Tm  Tm6  1  0.185318  0.203174  0.922297  1
  Tm  Tm7  1  0.814968  0.203777  0.421758  1
  W  W8  1  0.254857  0.725432  0.885593  1
  W  W9  1  0.745132  0.725054  0.384838  1
  W  W10  1  0.254857  0.274568  0.614407  1
  W  W11  1  0.745132  0.274946  0.115162  1
  O  O12  1  0.040459  0.941591  0.896040  1
  O  O13  1  0.536364  0.847669  0.930823  1
  O  O14  1  0.959217  0.942020  0.395234  1
  O  O15  1  0.458139  0.794578  0.726076  1
  O  O16  1  0.464244  0.847814  0.430627  1
  O  O17  1  0.982922  0.716183  0.769407  1
  O  O18  1  0.540728  0.793433  0.225881  1
  O  O19  1  0.854774  0.636918  0.547793  1
  O  O20  1  0.354707  0.488940  0.887417  1
  O  O21  1  0.018427  0.714265  0.269653  1
  O  O22  1  0.354707  0.511060  0.612583  1
  O  O23  1  0.854774  0.363082  0.952207  1
  O  O24  1  0.146630  0.637088  0.049074  1
  O  O25  1  0.642641  0.489016  0.386555  1
  O  O26  1  0.982922  0.283817  0.730593  1
  O  O27  1  0.642641  0.510984  0.113445  1
  O  O28  1  0.146630  0.362912  0.450926  1
  O  O29  1  0.458139  0.205422  0.773924  1
  O  O30  1  0.018427  0.285735  0.230347  1
  O  O31  1  0.536364  0.152331  0.569177  1
  O  O32  1  0.540728  0.206567  0.274119  1
  O  O33  1  0.040459  0.058409  0.603960  1
  O  O34  1  0.464244  0.152186  0.069373  1
  O  O35  1  0.959217  0.057980  0.104766  1
