# generated using pymatgen
data_Tb12Tc2Ni2PtPb
_symmetry_space_group_name_H-M   'P 1'
_cell_length_a   8.47162737
_cell_length_b   8.47162859
_cell_length_c   8.47162689
_cell_angle_alpha   104.93196453
_cell_angle_beta   110.48172806
_cell_angle_gamma   113.10512726
_symmetry_Int_Tables_number   1
_chemical_formula_structural   Tb12Tc2Ni2PtPb
_chemical_formula_sum   'Tb12 Tc2 Ni2 Pt1 Pb1'
_cell_volume   465.58894321
_cell_formula_units_Z   1
loop_
 _symmetry_equiv_pos_site_id
 _symmetry_equiv_pos_as_xyz
  1  'x, y, z'
loop_
 _atom_site_type_symbol
 _atom_site_label
 _atom_site_symmetry_multiplicity
 _atom_site_fract_x
 _atom_site_fract_y
 _atom_site_fract_z
 _atom_site_occupancy
  Tb  Tb0  1  0.690565  0.270879  0.961443  1
  Tb  Tb1  1  0.309435  0.729121  0.038557  1
  Tb  Tb2  1  0.690565  0.729121  0.419686  1
  Tb  Tb3  1  0.309435  0.270879  0.580314  1
  Tb  Tb4  1  0.815700  0.147029  0.331330  1
  Tb  Tb5  1  0.815700  0.484370  0.668670  1
  Tb  Tb6  1  0.184300  0.852971  0.668670  1
  Tb  Tb7  1  0.184300  0.515630  0.331330  1
  Tb  Tb8  1  0.600639  0.778786  0.821854  1
  Tb  Tb9  1  0.956933  0.778786  0.178146  1
  Tb  Tb10  1  0.043067  0.221214  0.821854  1
  Tb  Tb11  1  0.399361  0.221214  0.178146  1
  Tc  Tc12  1  0.829329  0.500000  0.329329  1
  Tc  Tc13  1  0.170671  0.500000  0.670671  1
  Ni  Ni14  1  0.000000  0.116032  0.116032  1
  Ni  Ni15  1  0.000000  0.883968  0.883968  1
  Pt  Pt16  1  0.500000  0.500000  0.000000  1
  Pb  Pb17  1  0.500000  0.000000  0.500000  1
