# generated using pymatgen
data_Er6Al24Ir5Ru3
_symmetry_space_group_name_H-M   'P 1'
_cell_length_a   8.80568500
_cell_length_b   8.81388740
_cell_length_c   9.48784502
_cell_angle_alpha   90.10213670
_cell_angle_beta   90.00000000
_cell_angle_gamma   119.96921628
_symmetry_Int_Tables_number   1
_chemical_formula_structural   Er6Al24Ir5Ru3
_chemical_formula_sum   'Er6 Al24 Ir5 Ru3'
_cell_volume   637.91464297
_cell_formula_units_Z   1
loop_
 _symmetry_equiv_pos_site_id
 _symmetry_equiv_pos_as_xyz
  1  'x, y, z'
loop_
 _atom_site_type_symbol
 _atom_site_label
 _atom_site_symmetry_multiplicity
 _atom_site_fract_x
 _atom_site_fract_y
 _atom_site_fract_z
 _atom_site_occupancy
  Er  Er0  1  0.194949  0.389898  0.249356  1
  Er  Er1  1  0.805051  0.610102  0.750644  1
  Er  Er2  1  0.610773  0.805352  0.250671  1
  Er  Er3  1  0.389227  0.194648  0.749329  1
  Er  Er4  1  0.194579  0.805352  0.250671  1
  Er  Er5  1  0.805421  0.194648  0.749329  1
  Al  Al6  1  0.333432  0.666866  0.028046  1
  Al  Al7  1  0.666568  0.333134  0.971954  1
  Al  Al8  1  0.665586  0.331171  0.526423  1
  Al  Al9  1  0.334414  0.668829  0.473577  1
  Al  Al10  1  0.162694  0.325387  0.576690  1
  Al  Al11  1  0.837306  0.674613  0.423310  1
  Al  Al12  1  0.673840  0.837672  0.577235  1
  Al  Al13  1  0.837367  0.674733  0.076970  1
  Al  Al14  1  0.326160  0.162328  0.422765  1
  Al  Al15  1  0.162633  0.325267  0.923030  1
  Al  Al16  1  0.163832  0.837672  0.577235  1
  Al  Al17  1  0.325458  0.162720  0.076477  1
  Al  Al18  1  0.836168  0.162328  0.422765  1
  Al  Al19  1  0.674542  0.837280  0.923523  1
  Al  Al20  1  0.837262  0.162720  0.076477  1
  Al  Al21  1  0.162738  0.837280  0.923523  1
  Al  Al22  1  0.561961  0.123922  0.251081  1
  Al  Al23  1  0.438039  0.876078  0.748919  1
  Al  Al24  1  0.875185  0.437854  0.249611  1
  Al  Al25  1  0.124815  0.562146  0.750389  1
  Al  Al26  1  0.562669  0.437854  0.249611  1
  Al  Al27  1  0.437331  0.562146  0.750389  1
  Al  Al28  1  0.000416  0.000833  0.249956  1
  Al  Al29  1  0.999584  0.999167  0.750044  1
  Ir  Ir30  1  0.500000  0.000000  0.000000  1
  Ir  Ir31  1  0.000000  0.500000  0.000000  1
  Ir  Ir32  1  0.500000  0.500000  0.000000  1
  Ir  Ir33  1  0.000000  0.500000  0.500000  1
  Ir  Ir34  1  0.500000  0.500000  0.500000  1
  Ru  Ru35  1  0.500000  0.000000  0.500000  1
  Ru  Ru36  1  0.000000  0.000000  0.000000  1
  Ru  Ru37  1  0.000000  0.000000  0.500000  1
