# generated using pymatgen
data_Dy20GaBi7Ir4
_symmetry_space_group_name_H-M   'P 1'
_cell_length_a   7.96719704
_cell_length_b   9.02326388
_cell_length_c   12.40766027
_cell_angle_alpha   90.10868248
_cell_angle_beta   90.04119706
_cell_angle_gamma   90.10969872
_symmetry_Int_Tables_number   1
_chemical_formula_structural   Dy20GaBi7Ir4
_chemical_formula_sum   'Dy20 Ga1 Bi7 Ir4'
_cell_volume   891.98472877
_cell_formula_units_Z   1
loop_
 _symmetry_equiv_pos_site_id
 _symmetry_equiv_pos_as_xyz
  1  'x, y, z'
loop_
 _atom_site_type_symbol
 _atom_site_label
 _atom_site_symmetry_multiplicity
 _atom_site_fract_x
 _atom_site_fract_y
 _atom_site_fract_z
 _atom_site_occupancy
  Dy  Dy0  1  0.833177  0.740971  0.790070  1
  Dy  Dy1  1  0.157863  0.250031  0.203194  1
  Dy  Dy2  1  0.348990  0.259289  0.712307  1
  Dy  Dy3  1  0.656419  0.752071  0.292839  1
  Dy  Dy4  1  0.384686  0.739304  0.700576  1
  Dy  Dy5  1  0.623011  0.249506  0.306469  1
  Dy  Dy6  1  0.860647  0.258988  0.806554  1
  Dy  Dy7  1  0.123459  0.749884  0.193897  1
  Dy  Dy8  1  0.949559  0.752225  0.502336  1
  Dy  Dy9  1  0.055520  0.247996  0.498617  1
  Dy  Dy10  1  0.457206  0.262485  0.990496  1
  Dy  Dy11  1  0.552917  0.737613  0.995332  1
  Dy  Dy12  1  0.678126  0.041327  0.566942  1
  Dy  Dy13  1  0.323157  0.956295  0.435467  1
  Dy  Dy14  1  0.176766  0.961779  0.933130  1
  Dy  Dy15  1  0.323691  0.540284  0.434265  1
  Dy  Dy16  1  0.818951  0.037761  0.064413  1
  Dy  Dy17  1  0.674122  0.461614  0.574171  1
  Dy  Dy18  1  0.822357  0.458218  0.064295  1
  Dy  Dy19  1  0.181867  0.540277  0.931583  1
  Ga  Ga20  1  0.568131  0.494713  0.830183  1
  Bi  Bi21  1  0.429217  0.508892  0.174143  1
  Bi  Bi22  1  0.071195  0.507581  0.671302  1
  Bi  Bi23  1  0.428510  0.991956  0.167862  1
  Bi  Bi24  1  0.929429  0.491254  0.328863  1
  Bi  Bi25  1  0.570015  0.006824  0.828846  1
  Bi  Bi26  1  0.930763  0.009489  0.326306  1
  Bi  Bi27  1  0.070915  0.992917  0.675820  1
  Ir  Ir28  1  0.572771  0.749338  0.511145  1
  Ir  Ir29  1  0.429744  0.249514  0.492557  1
  Ir  Ir30  1  0.066115  0.250303  0.988462  1
  Ir  Ir31  1  0.930709  0.749300  0.007555  1
