# generated using pymatgen
data_Mn4AlCoPbO12
_symmetry_space_group_name_H-M   'P 1'
_cell_length_a   8.09992923
_cell_length_b   8.09992854
_cell_length_c   9.60424659
_cell_angle_alpha   54.51007961
_cell_angle_beta   54.51008072
_cell_angle_gamma   65.00826465
_symmetry_Int_Tables_number   1
_chemical_formula_structural   Mn4AlCoPbO12
_chemical_formula_sum   'Mn8 Al2 Co2 Pb2 O24'
_cell_volume   414.25705065
_cell_formula_units_Z   2
loop_
 _symmetry_equiv_pos_site_id
 _symmetry_equiv_pos_as_xyz
  1  'x, y, z'
loop_
 _atom_site_type_symbol
 _atom_site_label
 _atom_site_symmetry_multiplicity
 _atom_site_fract_x
 _atom_site_fract_y
 _atom_site_fract_z
 _atom_site_occupancy
  Mn  Mn0  1  0.670318  0.001531  0.816920  1
  Mn  Mn1  1  0.186517  0.519001  0.479824  1
  Mn  Mn2  1  0.813530  0.482559  0.519831  1
  Mn  Mn3  1  0.329930  0.997297  0.183717  1
  Mn  Mn4  1  0.997297  0.329930  0.183717  1
  Mn  Mn5  1  0.001531  0.670318  0.816920  1
  Mn  Mn6  1  0.519001  0.186517  0.479824  1
  Mn  Mn7  1  0.482559  0.813530  0.519831  1
  Al  Al8  1  0.145144  0.145144  0.523983  1
  Al  Al9  1  0.664463  0.664463  0.184191  1
  Co  Co10  1  0.852799  0.852799  0.475534  1
  Co  Co11  1  0.332967  0.332967  0.821598  1
  Pb  Pb12  1  0.276968  0.725268  0.993717  1
  Pb  Pb13  1  0.725268  0.276968  0.993717  1
  O  O14  1  0.704542  0.704542  0.946272  1
  O  O15  1  0.012071  0.676081  0.349141  1
  O  O16  1  0.676081  0.012071  0.349141  1
  O  O17  1  0.679237  0.010745  0.611442  1
  O  O18  1  0.010745  0.679237  0.611442  1
  O  O19  1  0.042667  0.042667  0.277572  1
  O  O20  1  0.708593  0.379499  0.275944  1
  O  O21  1  0.379499  0.708593  0.275944  1
  O  O22  1  0.990715  0.319207  0.388752  1
  O  O23  1  0.986974  0.323366  0.650734  1
  O  O24  1  0.034319  0.370519  0.944868  1
  O  O25  1  0.370519  0.034319  0.944868  1
  O  O26  1  0.296652  0.296652  0.054492  1
  O  O27  1  0.964595  0.630471  0.055112  1
  O  O28  1  0.339801  0.339801  0.357740  1
  O  O29  1  0.348360  0.348360  0.610643  1
  O  O30  1  0.290827  0.622189  0.727574  1
  O  O31  1  0.622189  0.290827  0.727574  1
  O  O32  1  0.958535  0.958535  0.718417  1
  O  O33  1  0.652961  0.652961  0.387737  1
  O  O34  1  0.319207  0.990715  0.388752  1
  O  O35  1  0.658780  0.658780  0.646672  1
  O  O36  1  0.323366  0.986974  0.650734  1
  O  O37  1  0.630471  0.964595  0.055112  1
