# generated using pymatgen
data_Li6CrGeO8
_symmetry_space_group_name_H-M   'P 1'
_cell_length_a   6.36395400
_cell_length_b   5.48502724
_cell_length_c   5.04438127
_cell_angle_alpha   90.14580550
_cell_angle_beta   90.00021402
_cell_angle_gamma   89.99917009
_symmetry_Int_Tables_number   1
_chemical_formula_structural   Li6CrGeO8
_chemical_formula_sum   'Li6 Cr1 Ge1 O8'
_cell_volume   176.08092841
_cell_formula_units_Z   1
loop_
 _symmetry_equiv_pos_site_id
 _symmetry_equiv_pos_as_xyz
  1  'x, y, z'
loop_
 _atom_site_type_symbol
 _atom_site_label
 _atom_site_symmetry_multiplicity
 _atom_site_fract_x
 _atom_site_fract_y
 _atom_site_fract_z
 _atom_site_occupancy
  Li  Li0  1  0.999996  0.140618  0.505925  1
  Li  Li1  1  0.230717  0.340889  0.978466  1
  Li  Li2  1  0.236039  0.676451  0.506078  1
  Li  Li3  1  0.500008  0.812571  0.978429  1
  Li  Li4  1  0.763966  0.676466  0.506073  1
  Li  Li5  1  0.769283  0.340888  0.978470  1
  Cr  Cr6  1  0.499992  0.172282  0.499303  1
  Ge  Ge7  1  0.000008  0.830720  0.999566  1
  O  O8  1  0.000002  0.138953  0.887445  1
  O  O9  1  0.000004  0.825054  0.352467  1
  O  O10  1  0.231723  0.677064  0.886637  1
  O  O11  1  0.285022  0.315289  0.389951  1
  O  O12  1  0.499995  0.176883  0.830078  1
  O  O13  1  0.499996  0.883514  0.393994  1
  O  O14  1  0.714952  0.315292  0.389952  1
  O  O15  1  0.768297  0.677065  0.886634  1
