# generated using pymatgen
data_Er12IrOsRh2
_symmetry_space_group_name_H-M   'P 1'
_cell_length_a   6.32776059
_cell_length_b   7.21628425
_cell_length_c   9.09709200
_cell_angle_alpha   90.00000000
_cell_angle_beta   90.00000000
_cell_angle_gamma   89.96462396
_symmetry_Int_Tables_number   1
_chemical_formula_structural   Er12IrOsRh2
_chemical_formula_sum   'Er12 Ir1 Os1 Rh2'
_cell_volume   415.39969662
_cell_formula_units_Z   1
loop_
 _symmetry_equiv_pos_site_id
 _symmetry_equiv_pos_as_xyz
  1  'x, y, z'
loop_
 _atom_site_type_symbol
 _atom_site_label
 _atom_site_symmetry_multiplicity
 _atom_site_fract_x
 _atom_site_fract_y
 _atom_site_fract_z
 _atom_site_occupancy
  Er  Er0  1  0.331388  0.677859  0.059451  1
  Er  Er1  1  0.171254  0.177456  0.437257  1
  Er  Er2  1  0.671377  0.323891  0.563876  1
  Er  Er3  1  0.826278  0.820254  0.936791  1
  Er  Er4  1  0.671377  0.323891  0.936124  1
  Er  Er5  1  0.826278  0.820254  0.563209  1
  Er  Er6  1  0.331388  0.677859  0.440549  1
  Er  Er7  1  0.171254  0.177456  0.062743  1
  Er  Er8  1  0.873006  0.536238  0.250000  1
  Er  Er9  1  0.630358  0.034410  0.250000  1
  Er  Er10  1  0.128309  0.465703  0.750000  1
  Er  Er11  1  0.372354  0.965275  0.750000  1
  Ir  Ir12  1  0.044276  0.884798  0.250000  1
  Os  Os13  1  0.538332  0.615435  0.750000  1
  Rh  Rh14  1  0.455821  0.383909  0.250000  1
  Rh  Rh15  1  0.956952  0.115311  0.750000  1
