# generated using pymatgen
data_Er4Cd4Pd3Pt
_symmetry_space_group_name_H-M   'P 1'
_cell_length_a   7.25584546
_cell_length_b   4.03508000
_cell_length_c   8.85067000
_cell_angle_alpha   90.00000000
_cell_angle_beta   90.57434583
_cell_angle_gamma   90.00000000
_symmetry_Int_Tables_number   1
_chemical_formula_structural   Er4Cd4Pd3Pt
_chemical_formula_sum   'Er4 Cd4 Pd3 Pt1'
_cell_volume   259.11616155
_cell_formula_units_Z   1
loop_
 _symmetry_equiv_pos_site_id
 _symmetry_equiv_pos_as_xyz
  1  'x, y, z'
loop_
 _atom_site_type_symbol
 _atom_site_label
 _atom_site_symmetry_multiplicity
 _atom_site_fract_x
 _atom_site_fract_y
 _atom_site_fract_z
 _atom_site_occupancy
  Er  Er0  1  0.446294  0.749999  0.176342  1
  Er  Er1  1  0.947212  0.749999  0.321184  1
  Er  Er2  1  0.056232  0.250000  0.684571  1
  Er  Er3  1  0.548720  0.250000  0.820770  1
  Cd  Cd4  1  0.130386  0.250000  0.062166  1
  Cd  Cd5  1  0.633063  0.250000  0.438643  1
  Cd  Cd6  1  0.368287  0.749999  0.558346  1
  Cd  Cd7  1  0.865668  0.749999  0.939145  1
  Pd  Pd8  1  0.731360  0.250000  0.132343  1
  Pd  Pd9  1  0.230127  0.250000  0.367922  1
  Pd  Pd10  1  0.770938  0.749999  0.631029  1
  Pt  Pt11  1  0.271711  0.749999  0.867534  1
