# generated using pymatgen
data_Tb7Er(Si3Au)4
_symmetry_space_group_name_H-M   'P 1'
_cell_length_a   8.21439900
_cell_length_b   8.20419248
_cell_length_c   8.24597000
_cell_angle_alpha   90.00000000
_cell_angle_beta   90.00000000
_cell_angle_gamma   120.04116581
_symmetry_Int_Tables_number   1
_chemical_formula_structural   Tb7Er(Si3Au)4
_chemical_formula_sum   'Tb7 Er1 Si12 Au4'
_cell_volume   481.06495041
_cell_formula_units_Z   1
loop_
 _symmetry_equiv_pos_site_id
 _symmetry_equiv_pos_as_xyz
  1  'x, y, z'
loop_
 _atom_site_type_symbol
 _atom_site_label
 _atom_site_symmetry_multiplicity
 _atom_site_fract_x
 _atom_site_fract_y
 _atom_site_fract_z
 _atom_site_occupancy
  Tb  Tb0  1  0.498536  0.997074  0.750000  1
  Tb  Tb1  1  0.996815  0.498446  0.250000  1
  Tb  Tb2  1  0.002795  0.501286  0.750000  1
  Tb  Tb3  1  0.501632  0.498446  0.250000  1
  Tb  Tb4  1  0.498489  0.501286  0.750000  1
  Tb  Tb5  1  0.999968  0.999936  0.250000  1
  Tb  Tb6  1  0.000015  0.000030  0.750000  1
  Er  Er7  1  0.501471  0.002941  0.250000  1
  Si  Si8  1  0.164408  0.328815  0.998886  1
  Si  Si9  1  0.835707  0.671414  0.000450  1
  Si  Si10  1  0.672499  0.835808  0.999281  1
  Si  Si11  1  0.835707  0.671414  0.499550  1
  Si  Si12  1  0.327461  0.164137  0.001144  1
  Si  Si13  1  0.164408  0.328815  0.501114  1
  Si  Si14  1  0.163309  0.835808  0.999281  1
  Si  Si15  1  0.327461  0.164137  0.498856  1
  Si  Si16  1  0.836676  0.164137  0.001144  1
  Si  Si17  1  0.672499  0.835808  0.500719  1
  Si  Si18  1  0.836676  0.164137  0.498856  1
  Si  Si19  1  0.163309  0.835808  0.500719  1
  Au  Au20  1  0.334463  0.668928  0.007755  1
  Au  Au21  1  0.665617  0.331232  0.997341  1
  Au  Au22  1  0.665617  0.331232  0.502659  1
  Au  Au23  1  0.334463  0.668928  0.492245  1
