# generated using pymatgen
data_Zr8Mn4Fe3Si14Os
_symmetry_space_group_name_H-M   'P 1'
_cell_length_a   9.65362952
_cell_length_b   9.65409660
_cell_length_c   9.66242938
_cell_angle_alpha   93.97879896
_cell_angle_beta   94.07458980
_cell_angle_gamma   149.18783808
_symmetry_Int_Tables_number   1
_chemical_formula_structural   Zr8Mn4Fe3Si14Os
_chemical_formula_sum   'Zr8 Mn4 Fe3 Si14 Os1'
_cell_volume   444.85781738
_cell_formula_units_Z   1
loop_
 _symmetry_equiv_pos_site_id
 _symmetry_equiv_pos_as_xyz
  1  'x, y, z'
loop_
 _atom_site_type_symbol
 _atom_site_label
 _atom_site_symmetry_multiplicity
 _atom_site_fract_x
 _atom_site_fract_y
 _atom_site_fract_z
 _atom_site_occupancy
  Zr  Zr0  1  0.694314  0.497058  0.197072  1
  Zr  Zr1  1  0.501172  0.699342  0.195847  1
  Zr  Zr2  1  0.501726  0.305679  0.803199  1
  Zr  Zr3  1  0.302110  0.499061  0.804430  1
  Zr  Zr4  1  0.862643  0.864145  0.724821  1
  Zr  Zr5  1  0.136449  0.860547  0.999963  1
  Zr  Zr6  1  0.862659  0.139903  0.999754  1
  Zr  Zr7  1  0.136390  0.137707  0.275594  1
  Mn  Mn8  1  0.897318  0.397154  0.794683  1
  Mn  Mn9  1  0.603501  0.103333  0.206526  1
  Mn  Mn10  1  0.100904  0.599858  0.200308  1
  Mn  Mn11  1  0.603783  0.396258  0.499881  1
  Fe  Fe12  1  0.398835  0.897857  0.796492  1
  Fe  Fe13  1  0.895663  0.102895  0.499792  1
  Fe  Fe14  1  0.397274  0.602959  0.500436  1
  Si  Si15  1  0.749798  0.750225  0.000222  1
  Si  Si16  1  0.249868  0.250551  0.000112  1
  Si  Si17  1  0.100907  0.509238  0.592897  1
  Si  Si18  1  0.497899  0.080843  0.593734  1
  Si  Si19  1  0.488059  0.897359  0.407922  1
  Si  Si20  1  0.923213  0.505288  0.407096  1
  Si  Si21  1  0.695590  0.994086  0.701097  1
  Si  Si22  1  0.008921  0.709891  0.708549  1
  Si  Si23  1  0.699472  0.705334  0.418597  1
  Si  Si24  1  0.295014  0.715094  0.999326  1
  Si  Si25  1  0.290964  0.992097  0.291814  1
  Si  Si26  1  0.704476  0.284845  0.999433  1
  Si  Si27  1  0.294170  0.300192  0.581437  1
  Si  Si28  1  0.005231  0.303094  0.298671  1
  Os  Os29  1  0.101677  0.898107  0.500290  1
