# generated using pymatgen
data_Nd6BPBr6
_symmetry_space_group_name_H-M   'P 1'
_cell_length_a   10.27921599
_cell_length_b   10.27921616
_cell_length_c   10.16938461
_cell_angle_alpha   109.51250526
_cell_angle_beta   109.51250238
_cell_angle_gamma   109.82282015
_symmetry_Int_Tables_number   1
_chemical_formula_structural   Nd6BPBr6
_chemical_formula_sum   'Nd12 B2 P2 Br12'
_cell_volume   822.69820294
_cell_formula_units_Z   2
loop_
 _symmetry_equiv_pos_site_id
 _symmetry_equiv_pos_as_xyz
  1  'x, y, z'
loop_
 _atom_site_type_symbol
 _atom_site_label
 _atom_site_symmetry_multiplicity
 _atom_site_fract_x
 _atom_site_fract_y
 _atom_site_fract_z
 _atom_site_occupancy
  Nd  Nd0  1  0.465670  0.490402  0.225706  1
  Nd  Nd1  1  0.764696  0.239963  0.274294  1
  Nd  Nd2  1  0.762697  0.023340  0.491856  1
  Nd  Nd3  1  0.229159  0.468518  0.491856  1
  Nd  Nd4  1  0.260037  0.735304  0.225706  1
  Nd  Nd5  1  0.031482  0.270841  0.008144  1
  Nd  Nd6  1  0.009598  0.034330  0.274294  1
  Nd  Nd7  1  0.476660  0.737303  0.008144  1
  Nd  Nd8  1  0.486852  0.236852  0.473703  1
  Nd  Nd9  1  0.019634  0.480366  0.750000  1
  Nd  Nd10  1  0.263148  0.013148  0.026297  1
  Nd  Nd11  1  0.230366  0.269634  0.750000  1
  B  B12  1  0.999746  0.249746  0.499492  1
  B  B13  1  0.250254  0.500254  0.000508  1
  P  P14  1  0.249406  0.250594  0.250000  1
  P  P15  1  0.500594  0.999406  0.250000  1
  Br  Br16  1  0.248477  0.756609  0.741900  1
  Br  Br17  1  0.514708  0.506575  0.758100  1
  Br  Br18  1  0.989373  0.743756  0.994227  1
  Br  Br19  1  0.743391  0.251523  0.758100  1
  Br  Br20  1  0.993425  0.985292  0.741900  1
  Br  Br21  1  0.249529  0.995147  0.505773  1
  Br  Br22  1  0.756244  0.510627  0.505773  1
  Br  Br23  1  0.504853  0.250471  0.994227  1
  Br  Br24  1  0.756368  0.743632  0.250000  1
  Br  Br25  1  0.744467  0.994467  0.988934  1
  Br  Br26  1  0.993632  0.506368  0.250000  1
  Br  Br27  1  0.505533  0.755533  0.511066  1
