# generated using pymatgen
data_Ho5In4CoRh
_symmetry_space_group_name_H-M   'P 1'
_cell_length_a   3.59151800
_cell_length_b   7.97642800
_cell_length_c   18.16012800
_cell_angle_alpha   90.00000000
_cell_angle_beta   90.00000000
_cell_angle_gamma   90.00000000
_symmetry_Int_Tables_number   1
_chemical_formula_structural   Ho5In4CoRh
_chemical_formula_sum   'Ho10 In8 Co2 Rh2'
_cell_volume   520.24198971
_cell_formula_units_Z   2
loop_
 _symmetry_equiv_pos_site_id
 _symmetry_equiv_pos_as_xyz
  1  'x, y, z'
loop_
 _atom_site_type_symbol
 _atom_site_label
 _atom_site_symmetry_multiplicity
 _atom_site_fract_x
 _atom_site_fract_y
 _atom_site_fract_z
 _atom_site_occupancy
  Ho  Ho0  1  0.500000  0.384612  0.591356  1
  Ho  Ho1  1  0.500000  0.883139  0.912188  1
  Ho  Ho2  1  0.500000  0.115388  0.091356  1
  Ho  Ho3  1  0.500000  0.749385  0.720558  1
  Ho  Ho4  1  0.500000  0.256652  0.776998  1
  Ho  Ho5  1  0.500000  0.500334  0.999904  1
  Ho  Ho6  1  0.500000  0.750615  0.220558  1
  Ho  Ho7  1  0.500000  0.243348  0.276998  1
  Ho  Ho8  1  0.500000  0.999666  0.499904  1
  Ho  Ho9  1  0.500000  0.616861  0.412188  1
  In  In10  1  0.000000  0.794819  0.069569  1
  In  In11  1  0.000000  0.929111  0.347546  1
  In  In12  1  0.000000  0.072197  0.650185  1
  In  In13  1  0.000000  0.570889  0.847546  1
  In  In14  1  0.000000  0.705181  0.569569  1
  In  In15  1  0.000000  0.207908  0.931900  1
  In  In16  1  0.000000  0.292092  0.431900  1
  In  In17  1  0.000000  0.427803  0.150185  1
  Co  Co18  1  0.000000  0.479009  0.694891  1
  Co  Co19  1  0.000000  0.020991  0.194891  1
  Rh  Rh20  1  0.000000  0.976088  0.804904  1
  Rh  Rh21  1  0.000000  0.523912  0.304904  1
