# generated using pymatgen
data_Ce9Pa(Si3H)2
_symmetry_space_group_name_H-M   'P 1'
_cell_length_a   8.44647838
_cell_length_b   8.39762561
_cell_length_c   8.41332100
_cell_angle_alpha   126.16056495
_cell_angle_beta   126.32943503
_cell_angle_gamma   79.55734146
_symmetry_Int_Tables_number   1
_chemical_formula_structural   Ce9Pa(Si3H)2
_chemical_formula_sum   'Ce9 Pa1 Si6 H2'
_cell_volume   374.93241817
_cell_formula_units_Z   1
loop_
 _symmetry_equiv_pos_site_id
 _symmetry_equiv_pos_as_xyz
  1  'x, y, z'
loop_
 _atom_site_type_symbol
 _atom_site_label
 _atom_site_symmetry_multiplicity
 _atom_site_fract_x
 _atom_site_fract_y
 _atom_site_fract_z
 _atom_site_occupancy
  Ce  Ce0  1  0.499355  0.499214  0.999431  1
  Ce  Ce1  1  0.999924  0.999782  0.000569  1
  Ce  Ce2  1  0.525483  0.025179  0.858588  1
  Ce  Ce3  1  0.166896  0.666591  0.141412  1
  Ce  Ce4  1  0.027508  0.166431  0.500000  1
  Ce  Ce5  1  0.663716  0.527195  0.500000  1
  Ce  Ce6  1  0.473931  0.975138  0.140270  1
  Ce  Ce7  1  0.833660  0.334868  0.859730  1
  Ce  Ce8  1  0.973738  0.833823  0.500000  1
  Pa  Pa9  1  0.331719  0.474478  0.500000  1
  Si  Si10  1  0.249558  0.250784  0.005024  1
  Si  Si11  1  0.744534  0.745760  0.994976  1
  Si  Si12  1  0.891035  0.386515  0.273524  1
  Si  Si13  1  0.117511  0.612991  0.726476  1
  Si  Si14  1  0.386334  0.117688  0.500000  1
  Si  Si15  1  0.612559  0.888609  0.500000  1
  H  H16  1  0.250366  0.745445  0.500000  1
  H  H17  1  0.752171  0.249510  0.500000  1
