# generated using pymatgen
data_Fe3Co2Si3W4
_symmetry_space_group_name_H-M   'P 1'
_cell_length_a   4.73293869
_cell_length_b   4.73293866
_cell_length_c   7.65335700
_cell_angle_alpha   90.00000000
_cell_angle_beta   90.00000000
_cell_angle_gamma   119.77346138
_symmetry_Int_Tables_number   1
_chemical_formula_structural   Fe3Co2Si3W4
_chemical_formula_sum   'Fe3 Co2 Si3 W4'
_cell_volume   148.80969487
_cell_formula_units_Z   1
loop_
 _symmetry_equiv_pos_site_id
 _symmetry_equiv_pos_as_xyz
  1  'x, y, z'
loop_
 _atom_site_type_symbol
 _atom_site_label
 _atom_site_symmetry_multiplicity
 _atom_site_fract_x
 _atom_site_fract_y
 _atom_site_fract_z
 _atom_site_occupancy
  Fe  Fe0  1  0.338581  0.170674  0.750000  1
  Fe  Fe1  1  0.829326  0.661419  0.750000  1
  Fe  Fe2  1  0.827235  0.172765  0.750000  1
  Co  Co3  1  0.175569  0.327018  0.250000  1
  Co  Co4  1  0.672982  0.824431  0.250000  1
  Si  Si5  1  0.989819  0.010181  0.000997  1
  Si  Si6  1  0.989819  0.010181  0.499003  1
  Si  Si7  1  0.185067  0.814933  0.250000  1
  W  W8  1  0.330317  0.669683  0.934107  1
  W  W9  1  0.665484  0.334516  0.436248  1
  W  W10  1  0.665484  0.334516  0.063752  1
  W  W11  1  0.330317  0.669683  0.565893  1
