# generated using pymatgen
data_CaHo2(MgIr)3
_symmetry_space_group_name_H-M   'P 1'
_cell_length_a   7.11869200
_cell_length_b   7.24813435
_cell_length_c   4.15221100
_cell_angle_alpha   90.00000000
_cell_angle_beta   90.00000000
_cell_angle_gamma   119.41097619
_symmetry_Int_Tables_number   1
_chemical_formula_structural   CaHo2(MgIr)3
_chemical_formula_sum   'Ca1 Ho2 Mg3 Ir3'
_cell_volume   186.63097019
_cell_formula_units_Z   1
loop_
 _symmetry_equiv_pos_site_id
 _symmetry_equiv_pos_as_xyz
  1  'x, y, z'
loop_
 _atom_site_type_symbol
 _atom_site_label
 _atom_site_symmetry_multiplicity
 _atom_site_fract_x
 _atom_site_fract_y
 _atom_site_fract_z
 _atom_site_occupancy
  Ca  Ca0  1  0.413140  0.000000  0.500001  1
  Ho  Ho1  1  0.000601  0.410237  0.500001  1
  Ho  Ho2  1  0.590365  0.589764  0.500001  1
  Mg  Mg3  1  0.751464  0.000000  0.000000  1
  Mg  Mg4  1  0.243951  0.242083  0.000000  1
  Mg  Mg5  1  0.001869  0.757918  0.000000  1
  Ir  Ir6  1  0.678319  0.347869  0.000000  1
  Ir  Ir7  1  0.330449  0.652131  0.000000  1
  Ir  Ir8  1  0.989843  0.000000  0.500001  1
