# generated using pymatgen
data_TbSmTc3Os
_symmetry_space_group_name_H-M   'P 1'
_cell_length_a   5.31740700
_cell_length_b   5.31740714
_cell_length_c   9.18628900
_cell_angle_alpha   90.00000000
_cell_angle_beta   90.00000000
_cell_angle_gamma   119.99999288
_symmetry_Int_Tables_number   1
_chemical_formula_structural   TbSmTc3Os
_chemical_formula_sum   'Tb2 Sm2 Tc6 Os2'
_cell_volume   224.94201685
_cell_formula_units_Z   2
loop_
 _symmetry_equiv_pos_site_id
 _symmetry_equiv_pos_as_xyz
  1  'x, y, z'
loop_
 _atom_site_type_symbol
 _atom_site_label
 _atom_site_symmetry_multiplicity
 _atom_site_fract_x
 _atom_site_fract_y
 _atom_site_fract_z
 _atom_site_occupancy
  Tb  Tb0  1  0.666667  0.333333  0.936695  1
  Tb  Tb1  1  0.333333  0.666667  0.063305  1
  Sm  Sm2  1  0.333333  0.666667  0.436792  1
  Sm  Sm3  1  0.666667  0.333333  0.563208  1
  Tc  Tc4  1  0.829497  0.170503  0.247711  1
  Tc  Tc5  1  0.829497  0.658994  0.247711  1
  Tc  Tc6  1  0.341006  0.170503  0.247711  1
  Tc  Tc7  1  0.170503  0.829497  0.752289  1
  Tc  Tc8  1  0.170503  0.341006  0.752289  1
  Tc  Tc9  1  0.658994  0.829497  0.752289  1
  Os  Os10  1  0.000000  0.000000  0.500000  1
  Os  Os11  1  0.000000  0.000000  0.000000  1
