# generated using pymatgen
data_SrMnBO4
_symmetry_space_group_name_H-M   'P 1'
_cell_length_a   6.23796300
_cell_length_b   6.06783500
_cell_length_c   9.06090600
_cell_angle_alpha   90.00000000
_cell_angle_beta   90.00000000
_cell_angle_gamma   90.00000000
_symmetry_Int_Tables_number   1
_chemical_formula_structural   SrMnBO4
_chemical_formula_sum   'Sr4 Mn4 B4 O16'
_cell_volume   342.96372074
_cell_formula_units_Z   4
loop_
 _symmetry_equiv_pos_site_id
 _symmetry_equiv_pos_as_xyz
  1  'x, y, z'
loop_
 _atom_site_type_symbol
 _atom_site_label
 _atom_site_symmetry_multiplicity
 _atom_site_fract_x
 _atom_site_fract_y
 _atom_site_fract_z
 _atom_site_occupancy
  Sr  Sr0  1  0.987166  0.250001  0.351997  1
  Sr  Sr1  1  0.512832  0.750001  0.851997  1
  Sr  Sr2  1  0.487168  0.250001  0.148003  1
  Sr  Sr3  1  0.012834  0.750001  0.648003  1
  Mn  Mn4  1  0.000000  0.000000  0.000000  1
  Mn  Mn5  1  0.500000  0.000000  0.500000  1
  Mn  Mn6  1  0.500000  0.499999  0.500000  1
  Mn  Mn7  1  0.000000  0.499999  0.000000  1
  B  B8  1  0.801743  0.250001  0.743082  1
  B  B9  1  0.698257  0.750001  0.243081  1
  B  B10  1  0.301741  0.250001  0.756919  1
  B  B11  1  0.198258  0.750001  0.256918  1
  O  O12  1  0.737677  0.750001  0.091850  1
  O  O13  1  0.762324  0.250001  0.591849  1
  O  O14  1  0.237677  0.750001  0.408151  1
  O  O15  1  0.262322  0.250001  0.908149  1
  O  O16  1  0.177021  0.951474  0.183119  1
  O  O17  1  0.322977  0.048527  0.683119  1
  O  O18  1  0.677021  0.548526  0.316881  1
  O  O19  1  0.822979  0.451473  0.816881  1
  O  O20  1  0.822979  0.048527  0.816881  1
  O  O21  1  0.677021  0.951474  0.316881  1
  O  O22  1  0.322977  0.451473  0.683119  1
  O  O23  1  0.177021  0.548526  0.183119  1
  O  O24  1  0.125355  0.750001  0.908613  1
  O  O25  1  0.374645  0.250001  0.408614  1
  O  O26  1  0.625357  0.750001  0.591386  1
  O  O27  1  0.874644  0.250001  0.091387  1
