# generated using pymatgen
data_SrTh(Ni2B)12
_symmetry_space_group_name_H-M   'P 1'
_cell_length_a   6.05922546
_cell_length_b   6.05922644
_cell_length_c   11.06638295
_cell_angle_alpha   89.97000790
_cell_angle_beta   89.97001314
_cell_angle_gamma   104.69695060
_symmetry_Int_Tables_number   1
_chemical_formula_structural   SrTh(Ni2B)12
_chemical_formula_sum   'Sr1 Th1 Ni24 B12'
_cell_volume   393.00004797
_cell_formula_units_Z   1
loop_
 _symmetry_equiv_pos_site_id
 _symmetry_equiv_pos_as_xyz
  1  'x, y, z'
loop_
 _atom_site_type_symbol
 _atom_site_label
 _atom_site_symmetry_multiplicity
 _atom_site_fract_x
 _atom_site_fract_y
 _atom_site_fract_z
 _atom_site_occupancy
  Sr  Sr0  1  0.166236  0.166236  0.002668  1
  Th  Th1  1  0.831785  0.831785  0.496445  1
  Ni  Ni2  1  0.572234  0.572234  0.914377  1
  Ni  Ni3  1  0.434491  0.434491  0.418775  1
  Ni  Ni4  1  0.774279  0.774279  0.099665  1
  Ni  Ni5  1  0.217973  0.217973  0.599336  1
  Ni  Ni6  1  0.541658  0.805378  0.732944  1
  Ni  Ni7  1  0.805378  0.541658  0.732944  1
  Ni  Ni8  1  0.461011  0.196067  0.236350  1
  Ni  Ni9  1  0.196067  0.461011  0.236350  1
  Ni  Ni10  1  0.145330  0.879988  0.754435  1
  Ni  Ni11  1  0.879988  0.145330  0.754435  1
  Ni  Ni12  1  0.852917  0.119560  0.257601  1
  Ni  Ni13  1  0.119560  0.852917  0.257601  1
  Ni  Ni14  1  0.658216  0.271124  0.567180  1
  Ni  Ni15  1  0.271124  0.658216  0.567180  1
  Ni  Ni16  1  0.344281  0.725041  0.067046  1
  Ni  Ni17  1  0.725041  0.344281  0.067046  1
  Ni  Ni18  1  0.628754  0.995075  0.936501  1
  Ni  Ni19  1  0.995075  0.628754  0.936501  1
  Ni  Ni20  1  0.369429  0.005804  0.437893  1
  Ni  Ni21  1  0.005804  0.369429  0.437893  1
  Ni  Ni22  1  0.475660  0.211066  0.772449  1
  Ni  Ni23  1  0.211066  0.475660  0.772449  1
  Ni  Ni24  1  0.526288  0.789768  0.276772  1
  Ni  Ni25  1  0.789768  0.526288  0.276772  1
  B  B26  1  0.834256  0.834256  0.834067  1
  B  B27  1  0.163819  0.163819  0.333304  1
  B  B28  1  0.487142  0.487142  0.656853  1
  B  B29  1  0.514742  0.514742  0.161713  1
  B  B30  1  0.324423  0.749221  0.884818  1
  B  B31  1  0.749221  0.324423  0.884818  1
  B  B32  1  0.675469  0.246047  0.386207  1
  B  B33  1  0.246047  0.675469  0.386207  1
  B  B34  1  0.400175  0.987078  0.621484  1
  B  B35  1  0.987078  0.400175  0.621484  1
  B  B36  1  0.604146  0.014071  0.122715  1
  B  B37  1  0.014071  0.604146  0.122715  1
