# generated using pymatgen
data_Ho8InAgIr2
_symmetry_space_group_name_H-M   'P 1'
_cell_length_a   9.56160856
_cell_length_b   9.56160820
_cell_length_c   9.57288600
_cell_angle_alpha   59.96098209
_cell_angle_beta   59.96098336
_cell_angle_gamma   60.00367457
_symmetry_Int_Tables_number   1
_chemical_formula_structural   Ho8InAgIr2
_chemical_formula_sum   'Ho16 In2 Ag2 Ir4'
_cell_volume   618.50820179
_cell_formula_units_Z   2
loop_
 _symmetry_equiv_pos_site_id
 _symmetry_equiv_pos_as_xyz
  1  'x, y, z'
loop_
 _atom_site_type_symbol
 _atom_site_label
 _atom_site_symmetry_multiplicity
 _atom_site_fract_x
 _atom_site_fract_y
 _atom_site_fract_z
 _atom_site_occupancy
  Ho  Ho0  1  0.439016  0.439016  0.060984  1
  Ho  Ho1  1  0.650226  0.650226  0.049062  1
  Ho  Ho2  1  0.190138  0.809946  0.190243  1
  Ho  Ho3  1  0.065061  0.438984  0.058707  1
  Ho  Ho4  1  0.190138  0.809946  0.809674  1
  Ho  Ho5  1  0.065061  0.438984  0.437248  1
  Ho  Ho6  1  0.809946  0.190138  0.190243  1
  Ho  Ho7  1  0.650226  0.650226  0.650486  1
  Ho  Ho8  1  0.809946  0.190138  0.809674  1
  Ho  Ho9  1  0.189550  0.189550  0.810450  1
  Ho  Ho10  1  0.049892  0.650247  0.649931  1
  Ho  Ho11  1  0.438984  0.065061  0.058707  1
  Ho  Ho12  1  0.062257  0.062257  0.437743  1
  Ho  Ho13  1  0.650247  0.049892  0.649931  1
  Ho  Ho14  1  0.808626  0.808626  0.191374  1
  Ho  Ho15  1  0.438984  0.065061  0.437248  1
  In  In16  1  0.416890  0.742437  0.420337  1
  In  In17  1  0.742437  0.416890  0.420337  1
  Ag  Ag18  1  0.416837  0.416837  0.417431  1
  Ag  Ag19  1  0.416837  0.416837  0.748896  1
  Ir  Ir20  1  0.424975  0.858285  0.858369  1
  Ir  Ir21  1  0.857720  0.857720  0.859198  1
  Ir  Ir22  1  0.858285  0.424975  0.858369  1
  Ir  Ir23  1  0.857720  0.857720  0.425361  1
