# generated using pymatgen
data_Dy3ThZnRu
_symmetry_space_group_name_H-M   'P 1'
_cell_length_a   9.57801075
_cell_length_b   9.57801222
_cell_length_c   9.57800900
_cell_angle_alpha   60.00002148
_cell_angle_beta   60.00001641
_cell_angle_gamma   59.99998012
_symmetry_Int_Tables_number   1
_chemical_formula_structural   Dy3ThZnRu
_chemical_formula_sum   'Dy12 Th4 Zn4 Ru4'
_cell_volume   621.31381314
_cell_formula_units_Z   4
loop_
 _symmetry_equiv_pos_site_id
 _symmetry_equiv_pos_as_xyz
  1  'x, y, z'
loop_
 _atom_site_type_symbol
 _atom_site_label
 _atom_site_symmetry_multiplicity
 _atom_site_fract_x
 _atom_site_fract_y
 _atom_site_fract_z
 _atom_site_occupancy
  Dy  Dy0  1  0.059701  0.440299  0.440299  1
  Dy  Dy1  1  0.440299  0.059701  0.059701  1
  Dy  Dy2  1  0.440299  0.059701  0.440299  1
  Dy  Dy3  1  0.059701  0.440299  0.059701  1
  Dy  Dy4  1  0.440299  0.440299  0.059701  1
  Dy  Dy5  1  0.059701  0.059701  0.440299  1
  Dy  Dy6  1  0.185723  0.814277  0.814277  1
  Dy  Dy7  1  0.814277  0.185723  0.185723  1
  Dy  Dy8  1  0.814277  0.185723  0.814277  1
  Dy  Dy9  1  0.185723  0.814277  0.185723  1
  Dy  Dy10  1  0.814277  0.814277  0.185723  1
  Dy  Dy11  1  0.185723  0.185723  0.814277  1
  Th  Th12  1  0.600882  0.600882  0.600883  1
  Th  Th13  1  0.600882  0.600882  0.197351  1
  Th  Th14  1  0.600883  0.197351  0.600882  1
  Th  Th15  1  0.197351  0.600883  0.600882  1
  Zn  Zn16  1  0.830732  0.830732  0.830732  1
  Zn  Zn17  1  0.830732  0.830732  0.507803  1
  Zn  Zn18  1  0.830732  0.507803  0.830732  1
  Zn  Zn19  1  0.507803  0.830732  0.830732  1
  Ru  Ru20  1  0.393210  0.393210  0.393210  1
  Ru  Ru21  1  0.393210  0.393210  0.820368  1
  Ru  Ru22  1  0.393210  0.820368  0.393210  1
  Ru  Ru23  1  0.820368  0.393210  0.393210  1
