# generated using pymatgen
data_HoLuPa2(Al8Pt3)3
_symmetry_space_group_name_H-M   'P 1'
_cell_length_a   7.55792396
_cell_length_b   7.56741610
_cell_length_c   13.09239706
_cell_angle_alpha   84.50241419
_cell_angle_beta   78.91327629
_cell_angle_gamma   59.92775735
_symmetry_Int_Tables_number   1
_chemical_formula_structural   HoLuPa2(Al8Pt3)3
_chemical_formula_sum   'Ho1 Lu1 Pa2 Al24 Pt9'
_cell_volume   635.91857647
_cell_formula_units_Z   1
loop_
 _symmetry_equiv_pos_site_id
 _symmetry_equiv_pos_as_xyz
  1  'x, y, z'
loop_
 _atom_site_type_symbol
 _atom_site_label
 _atom_site_symmetry_multiplicity
 _atom_site_fract_x
 _atom_site_fract_y
 _atom_site_fract_z
 _atom_site_occupancy
  Ho  Ho0  1  0.733923  0.498407  0.807807  1
  Lu  Lu1  1  0.265515  0.501625  0.193073  1
  Pa  Pa2  1  0.394862  0.168446  0.805429  1
  Pa  Pa3  1  0.605050  0.831725  0.194535  1
  Al  Al4  1  0.684299  0.833292  0.944455  1
  Al  Al5  1  0.315629  0.167315  0.056232  1
  Al  Al6  1  0.145609  0.832560  0.561360  1
  Al  Al7  1  0.854473  0.167332  0.438488  1
  Al  Al8  1  0.480256  0.167616  0.558045  1
  Al  Al9  1  0.519750  0.832423  0.441723  1
  Al  Al10  1  0.215183  0.168128  0.329635  1
  Al  Al11  1  0.785262  0.832163  0.669767  1
  Al  Al12  1  0.437076  0.509232  0.670637  1
  Al  Al13  1  0.562597  0.490901  0.328834  1
  Al  Al14  1  0.107688  0.159471  0.668730  1
  Al  Al15  1  0.892922  0.840046  0.330692  1
  Al  Al16  1  0.353386  0.499558  0.943904  1
  Al  Al17  1  0.645537  0.500538  0.057131  1
  Al  Al18  1  0.015655  0.168017  0.951941  1
  Al  Al19  1  0.984635  0.831352  0.048773  1
  Al  Al20  1  0.185824  0.500288  0.441126  1
  Al  Al21  1  0.814313  0.499723  0.558599  1
  Al  Al22  1  0.735230  0.163014  0.182646  1
  Al  Al23  1  0.264075  0.837214  0.817316  1
  Al  Al24  1  0.062604  0.631219  0.816126  1
  Al  Al25  1  0.937769  0.369171  0.183820  1
  Al  Al26  1  0.855233  0.040414  0.816901  1
  Al  Al27  1  0.145228  0.958703  0.183047  1
  Pt  Pt28  1  0.119727  0.490983  0.640115  1
  Pt  Pt29  1  0.880884  0.509032  0.359623  1
  Pt  Pt30  1  0.656610  0.172724  0.999856  1
  Pt  Pt31  1  0.343281  0.827337  0.000182  1
  Pt  Pt32  1  0.536868  0.166911  0.360059  1
  Pt  Pt33  1  0.462808  0.833601  0.639667  1
  Pt  Pt34  1  0.777796  0.175479  0.638543  1
  Pt  Pt35  1  0.222351  0.824002  0.361151  1
  Pt  Pt36  1  0.000091  0.500036  0.000033  1
