# generated using pymatgen
data_Y2Er5Sn23Os6
_symmetry_space_group_name_H-M   'P 1'
_cell_length_a   9.83932772
_cell_length_b   9.83932794
_cell_length_c   10.10493385
_cell_angle_alpha   89.85446321
_cell_angle_beta   90.14553574
_cell_angle_gamma   119.78861584
_symmetry_Int_Tables_number   1
_chemical_formula_structural   Y2Er5Sn23Os6
_chemical_formula_sum   'Y2 Er5 Sn23 Os6'
_cell_volume   849.01278068
_cell_formula_units_Z   1
loop_
 _symmetry_equiv_pos_site_id
 _symmetry_equiv_pos_as_xyz
  1  'x, y, z'
loop_
 _atom_site_type_symbol
 _atom_site_label
 _atom_site_symmetry_multiplicity
 _atom_site_fract_x
 _atom_site_fract_y
 _atom_site_fract_z
 _atom_site_occupancy
  Y  Y0  1  0.485490  0.514510  0.302463  1
  Y  Y1  1  0.000154  0.999846  0.999937  1
  Er  Er2  1  0.513064  0.486936  0.698976  1
  Er  Er3  1  0.486998  0.973946  0.300880  1
  Er  Er4  1  0.513001  0.025955  0.699174  1
  Er  Er5  1  0.026054  0.513002  0.300880  1
  Er  Er6  1  0.974045  0.486999  0.699174  1
  Sn  Sn7  1  0.118081  0.881919  0.277245  1
  Sn  Sn8  1  0.882045  0.117955  0.722845  1
  Sn  Sn9  1  0.118077  0.235517  0.277029  1
  Sn  Sn10  1  0.881505  0.763747  0.722746  1
  Sn  Sn11  1  0.764483  0.881923  0.277029  1
  Sn  Sn12  1  0.236253  0.118495  0.722746  1
  Sn  Sn13  1  0.779113  0.220887  0.464223  1
  Sn  Sn14  1  0.220953  0.779047  0.535728  1
  Sn  Sn15  1  0.779388  0.558440  0.464482  1
  Sn  Sn16  1  0.220641  0.441473  0.535974  1
  Sn  Sn17  1  0.441560  0.220612  0.464482  1
  Sn  Sn18  1  0.558527  0.779359  0.535974  1
  Sn  Sn19  1  0.349763  0.999705  0.999627  1
  Sn  Sn20  1  0.650355  0.000096  0.000057  1
  Sn  Sn21  1  0.999904  0.349645  0.000057  1
  Sn  Sn22  1  0.000295  0.650237  0.999627  1
  Sn  Sn23  1  0.650539  0.650280  0.000095  1
  Sn  Sn24  1  0.349720  0.349461  0.000095  1
  Sn  Sn25  1  0.332448  0.667552  0.133253  1
  Sn  Sn26  1  0.666655  0.333345  0.865846  1
  Sn  Sn27  1  0.333490  0.666510  0.828171  1
  Sn  Sn28  1  0.666530  0.333470  0.171842  1
  Sn  Sn29  1  0.000025  0.999975  0.500052  1
  Os  Os30  1  0.829453  0.170547  0.202943  1
  Os  Os31  1  0.170537  0.829463  0.796771  1
  Os  Os32  1  0.830740  0.658726  0.202477  1
  Os  Os33  1  0.170515  0.341675  0.797311  1
  Os  Os34  1  0.341274  0.169260  0.202477  1
  Os  Os35  1  0.658325  0.829485  0.797311  1
