# generated using pymatgen
data_Ta4BAs2C
_symmetry_space_group_name_H-M   'P 1'
_cell_length_a   3.36665900
_cell_length_b   3.36665856
_cell_length_c   11.95310800
_cell_angle_alpha   90.00000000
_cell_angle_beta   90.00000000
_cell_angle_gamma   119.99999450
_symmetry_Int_Tables_number   1
_chemical_formula_structural   Ta4BAs2C
_chemical_formula_sum   'Ta4 B1 As2 C1'
_cell_volume   117.33017072
_cell_formula_units_Z   1
loop_
 _symmetry_equiv_pos_site_id
 _symmetry_equiv_pos_as_xyz
  1  'x, y, z'
loop_
 _atom_site_type_symbol
 _atom_site_label
 _atom_site_symmetry_multiplicity
 _atom_site_fract_x
 _atom_site_fract_y
 _atom_site_fract_z
 _atom_site_occupancy
  Ta  Ta0  1  0.666665  0.333332  0.099403  1
  Ta  Ta1  1  0.666665  0.333332  0.406040  1
  Ta  Ta2  1  0.333333  0.666667  0.593961  1
  Ta  Ta3  1  0.333333  0.666667  0.900597  1
  B  B4  1  0.000000  0.000000  0.000000  1
  As  As5  1  0.333333  0.666667  0.252023  1
  As  As6  1  0.666665  0.333332  0.747977  1
  C  C7  1  0.000000  0.000000  0.500000  1
