# generated using pymatgen
data_Er(Ga3Pt)3
_symmetry_space_group_name_H-M   'P 1'
_cell_length_a   10.45462207
_cell_length_b   10.45462134
_cell_length_c   10.45462377
_cell_angle_alpha   42.51394101
_cell_angle_beta   42.51394629
_cell_angle_gamma   42.51394710
_symmetry_Int_Tables_number   1
_chemical_formula_structural   Er(Ga3Pt)3
_chemical_formula_sum   'Er2 Ga18 Pt6'
_cell_volume   472.51327370
_cell_formula_units_Z   2
loop_
 _symmetry_equiv_pos_site_id
 _symmetry_equiv_pos_as_xyz
  1  'x, y, z'
loop_
 _atom_site_type_symbol
 _atom_site_label
 _atom_site_symmetry_multiplicity
 _atom_site_fract_x
 _atom_site_fract_y
 _atom_site_fract_z
 _atom_site_occupancy
  Er  Er0  1  0.166870  0.166870  0.166870  1
  Er  Er1  1  0.833130  0.833130  0.833130  1
  Ga  Ga2  1  0.108267  0.438800  0.769917  1
  Ga  Ga3  1  0.438800  0.769917  0.108267  1
  Ga  Ga4  1  0.561200  0.891733  0.230083  1
  Ga  Ga5  1  0.951009  0.951009  0.951009  1
  Ga  Ga6  1  0.048991  0.048991  0.048991  1
  Ga  Ga7  1  0.296069  0.703931  0.500000  1
  Ga  Ga8  1  0.891733  0.230083  0.561200  1
  Ga  Ga9  1  0.384370  0.384370  0.384370  1
  Ga  Ga10  1  0.500000  0.296069  0.703931  1
  Ga  Ga11  1  0.230083  0.561200  0.891733  1
  Ga  Ga12  1  0.715040  0.715040  0.715040  1
  Ga  Ga13  1  0.615630  0.615630  0.615630  1
  Ga  Ga14  1  0.334607  0.000000  0.665393  1
  Ga  Ga15  1  0.703931  0.500000  0.296069  1
  Ga  Ga16  1  0.665393  0.334607  0.000000  1
  Ga  Ga17  1  0.284960  0.284960  0.284960  1
  Ga  Ga18  1  0.000000  0.665393  0.334607  1
  Ga  Ga19  1  0.769917  0.108267  0.438800  1
  Pt  Pt20  1  0.418979  0.077837  0.760259  1
  Pt  Pt21  1  0.581021  0.239741  0.922163  1
  Pt  Pt22  1  0.077837  0.760259  0.418979  1
  Pt  Pt23  1  0.760259  0.418979  0.077837  1
  Pt  Pt24  1  0.922163  0.581021  0.239741  1
  Pt  Pt25  1  0.239741  0.922163  0.581021  1
