# generated using pymatgen
data_Dy5Er3Ga12CoAg3
_symmetry_space_group_name_H-M   'P 1'
_cell_length_a   7.06762101
_cell_length_b   8.93528036
_cell_length_c   8.92885607
_cell_angle_alpha   120.07101358
_cell_angle_beta   89.99307943
_cell_angle_gamma   90.00115227
_symmetry_Int_Tables_number   1
_chemical_formula_structural   Dy5Er3Ga12CoAg3
_chemical_formula_sum   'Dy5 Er3 Ga12 Co1 Ag3'
_cell_volume   487.97398638
_cell_formula_units_Z   1
loop_
 _symmetry_equiv_pos_site_id
 _symmetry_equiv_pos_as_xyz
  1  'x, y, z'
loop_
 _atom_site_type_symbol
 _atom_site_label
 _atom_site_symmetry_multiplicity
 _atom_site_fract_x
 _atom_site_fract_y
 _atom_site_fract_z
 _atom_site_occupancy
  Dy  Dy0  1  0.739642  0.000017  0.000075  1
  Dy  Dy1  1  0.251528  0.000048  0.999926  1
  Dy  Dy2  1  0.749532  0.487633  0.512396  1
  Dy  Dy3  1  0.258407  0.523508  0.476772  1
  Dy  Dy4  1  0.749308  0.024648  0.512189  1
  Er  Er5  1  0.259093  0.952803  0.476439  1
  Er  Er6  1  0.749170  0.488071  0.975794  1
  Er  Er7  1  0.259269  0.523574  0.046901  1
  Ga  Ga8  1  0.963179  0.836154  0.162968  1
  Ga  Ga9  1  0.040994  0.165989  0.834329  1
  Ga  Ga10  1  0.962574  0.326961  0.162888  1
  Ga  Ga11  1  0.462624  0.164856  0.835545  1
  Ga  Ga12  1  0.040457  0.668463  0.834841  1
  Ga  Ga13  1  0.541037  0.825041  0.173881  1
  Ga  Ga14  1  0.963477  0.836612  0.672941  1
  Ga  Ga15  1  0.463228  0.670672  0.835940  1
  Ga  Ga16  1  0.040838  0.165446  0.331823  1
  Ga  Ga17  1  0.541614  0.349015  0.173627  1
  Ga  Ga18  1  0.462834  0.164337  0.329517  1
  Ga  Ga19  1  0.540918  0.825890  0.651111  1
  Co  Co20  1  0.512108  0.666856  0.332615  1
  Ag  Ag21  1  0.942925  0.666522  0.332192  1
  Ag  Ag22  1  0.040889  0.333443  0.667617  1
  Ag  Ag23  1  0.464361  0.333443  0.667670  1
