# generated using pymatgen
data_Tb2ErTh(InPd2)2
_symmetry_space_group_name_H-M   'P 1'
_cell_length_a   7.81305378
_cell_length_b   7.81305410
_cell_length_c   3.74127900
_cell_angle_alpha   90.00000000
_cell_angle_beta   90.00000000
_cell_angle_gamma   91.02931463
_symmetry_Int_Tables_number   1
_chemical_formula_structural   Tb2ErTh(InPd2)2
_chemical_formula_sum   'Tb2 Er1 Th1 In2 Pd4'
_cell_volume   228.34507867
_cell_formula_units_Z   1
loop_
 _symmetry_equiv_pos_site_id
 _symmetry_equiv_pos_as_xyz
  1  'x, y, z'
loop_
 _atom_site_type_symbol
 _atom_site_label
 _atom_site_symmetry_multiplicity
 _atom_site_fract_x
 _atom_site_fract_y
 _atom_site_fract_z
 _atom_site_occupancy
  Tb  Tb0  1  0.825557  0.668479  0.500000  1
  Tb  Tb1  1  0.168479  0.325557  0.500000  1
  Er  Er2  1  0.675055  0.175055  0.500000  1
  Th  Th3  1  0.329390  0.829390  0.500000  1
  In  In4  1  0.993846  0.003327  0.000000  1
  In  In5  1  0.503327  0.493846  0.000000  1
  Pd  Pd6  1  0.374121  0.127636  0.000000  1
  Pd  Pd7  1  0.872350  0.372350  0.000000  1
  Pd  Pd8  1  0.130239  0.630239  0.000000  1
  Pd  Pd9  1  0.627636  0.874121  0.000000  1
