# generated using pymatgen
data_In(Sb3Pd10)2
_symmetry_space_group_name_H-M   'P 1'
_cell_length_a   7.83460680
_cell_length_b   7.83460656
_cell_length_c   7.83460590
_cell_angle_alpha   98.96388483
_cell_angle_beta   98.96388174
_cell_angle_gamma   98.96388014
_symmetry_Int_Tables_number   1
_chemical_formula_structural   In(Sb3Pd10)2
_chemical_formula_sum   'In1 Sb6 Pd20'
_cell_volume   461.16002836
_cell_formula_units_Z   1
loop_
 _symmetry_equiv_pos_site_id
 _symmetry_equiv_pos_as_xyz
  1  'x, y, z'
loop_
 _atom_site_type_symbol
 _atom_site_label
 _atom_site_symmetry_multiplicity
 _atom_site_fract_x
 _atom_site_fract_y
 _atom_site_fract_z
 _atom_site_occupancy
  In  In0  1  0.000000  0.000000  0.000000  1
  Sb  Sb1  1  0.455384  0.877846  0.726039  1
  Sb  Sb2  1  0.877846  0.726039  0.455384  1
  Sb  Sb3  1  0.726039  0.455384  0.877846  1
  Sb  Sb4  1  0.544616  0.122154  0.273961  1
  Sb  Sb5  1  0.122154  0.273961  0.544616  1
  Sb  Sb6  1  0.273961  0.544616  0.122154  1
  Pd  Pd7  1  0.377707  0.377707  0.377707  1
  Pd  Pd8  1  0.622293  0.622293  0.622293  1
  Pd  Pd9  1  0.997831  0.340845  0.226609  1
  Pd  Pd10  1  0.340845  0.226609  0.997831  1
  Pd  Pd11  1  0.226609  0.997830  0.340845  1
  Pd  Pd12  1  0.002169  0.659155  0.773391  1
  Pd  Pd13  1  0.659155  0.773391  0.002170  1
  Pd  Pd14  1  0.773391  0.002170  0.659155  1
  Pd  Pd15  1  0.688363  0.143880  0.987994  1
  Pd  Pd16  1  0.143880  0.987994  0.688363  1
  Pd  Pd17  1  0.987994  0.688363  0.143880  1
  Pd  Pd18  1  0.311637  0.856120  0.012006  1
  Pd  Pd19  1  0.856120  0.012006  0.311637  1
  Pd  Pd20  1  0.012006  0.311637  0.856120  1
  Pd  Pd21  1  0.208369  0.664466  0.477480  1
  Pd  Pd22  1  0.664466  0.477480  0.208369  1
  Pd  Pd23  1  0.477480  0.208369  0.664466  1
  Pd  Pd24  1  0.791631  0.335534  0.522520  1
  Pd  Pd25  1  0.335534  0.522520  0.791631  1
  Pd  Pd26  1  0.522520  0.791631  0.335534  1
