# generated using pymatgen
data_La6Cd(SiSe7)2
_symmetry_space_group_name_H-M   'P 1'
_cell_length_a   10.88321500
_cell_length_b   10.88321467
_cell_length_c   6.07985600
_cell_angle_alpha   90.00000000
_cell_angle_beta   90.00000000
_cell_angle_gamma   120.00000403
_symmetry_Int_Tables_number   1
_chemical_formula_structural   La6Cd(SiSe7)2
_chemical_formula_sum   'La6 Cd1 Si2 Se14'
_cell_volume   623.64624523
_cell_formula_units_Z   1
loop_
 _symmetry_equiv_pos_site_id
 _symmetry_equiv_pos_as_xyz
  1  'x, y, z'
loop_
 _atom_site_type_symbol
 _atom_site_label
 _atom_site_symmetry_multiplicity
 _atom_site_fract_x
 _atom_site_fract_y
 _atom_site_fract_z
 _atom_site_occupancy
  La  La0  1  0.877191  0.233429  0.248888  1
  La  La1  1  0.766571  0.643762  0.248888  1
  La  La2  1  0.356238  0.122809  0.248888  1
  La  La3  1  0.123228  0.766726  0.750406  1
  La  La4  1  0.233274  0.356503  0.750406  1
  La  La5  1  0.643497  0.876772  0.750406  1
  Cd  Cd6  1  0.000000  0.000000  0.490318  1
  Si  Si7  1  0.666667  0.333333  0.834622  1
  Si  Si8  1  0.333333  0.666667  0.339371  1
  Se  Se9  1  0.666667  0.333333  0.461896  1
  Se  Se10  1  0.333333  0.666667  0.966039  1
  Se  Se11  1  0.911909  0.167614  0.730608  1
  Se  Se12  1  0.832386  0.744295  0.730608  1
  Se  Se13  1  0.255705  0.088091  0.730608  1
  Se  Se14  1  0.085768  0.830509  0.241892  1
  Se  Se15  1  0.169491  0.255260  0.241892  1
  Se  Se16  1  0.744740  0.914232  0.241892  1
  Se  Se17  1  0.589816  0.111010  0.983067  1
  Se  Se18  1  0.888990  0.478807  0.983067  1
  Se  Se19  1  0.521193  0.410184  0.983067  1
  Se  Se20  1  0.410454  0.889231  0.486275  1
  Se  Se21  1  0.110769  0.521223  0.486275  1
  Se  Se22  1  0.478777  0.589546  0.486275  1
