# generated using pymatgen
data_HfZr5FeSi12Rh5
_symmetry_space_group_name_H-M   'P 1'
_cell_length_a   9.96802454
_cell_length_b   9.95789027
_cell_length_c   9.95016170
_cell_angle_alpha   148.63080832
_cell_angle_beta   133.72198319
_cell_angle_gamma   57.02243998
_symmetry_Int_Tables_number   1
_chemical_formula_structural   HfZr5FeSi12Rh5
_chemical_formula_sum   'Hf1 Zr5 Fe1 Si12 Rh5'
_cell_volume   368.79329383
_cell_formula_units_Z   1
loop_
 _symmetry_equiv_pos_site_id
 _symmetry_equiv_pos_as_xyz
  1  'x, y, z'
loop_
 _atom_site_type_symbol
 _atom_site_label
 _atom_site_symmetry_multiplicity
 _atom_site_fract_x
 _atom_site_fract_y
 _atom_site_fract_z
 _atom_site_occupancy
  Hf  Hf0  1  0.862084  0.859880  0.000836  1
  Zr  Zr1  1  0.848743  0.593964  0.253987  1
  Zr  Zr2  1  0.151029  0.405770  0.745445  1
  Zr  Zr3  1  0.660397  0.402389  0.252054  1
  Zr  Zr4  1  0.339985  0.597866  0.748458  1
  Zr  Zr5  1  0.137677  0.140045  0.000213  1
  Fe  Fe6  1  0.999438  0.000057  0.497919  1
  Si  Si7  1  0.488426  0.141256  0.357061  1
  Si  Si8  1  0.511803  0.859055  0.643292  1
  Si  Si9  1  0.211027  0.872100  0.365463  1
  Si  Si10  1  0.789251  0.127878  0.634306  1
  Si  Si11  1  0.709085  0.722050  0.025157  1
  Si  Si12  1  0.290310  0.277679  0.974993  1
  Si  Si13  1  0.498936  0.719071  0.219167  1
  Si  Si14  1  0.500692  0.280599  0.780732  1
  Si  Si15  1  0.999630  0.271483  0.271814  1
  Si  Si16  1  0.202256  0.719216  0.505499  1
  Si  Si17  1  0.999411  0.727735  0.727993  1
  Si  Si18  1  0.798250  0.280912  0.493836  1
  Rh  Rh19  1  0.744991  0.998733  0.742159  1
  Rh  Rh20  1  0.502742  0.501281  0.502486  1
  Rh  Rh21  1  0.501393  0.000383  0.000408  1
  Rh  Rh22  1  0.253084  0.999421  0.257564  1
  Rh  Rh23  1  0.999359  0.501176  0.999157  1
