# generated using pymatgen
data_CsThTlI6
_symmetry_space_group_name_H-M   'P 1'
_cell_length_a   9.13707500
_cell_length_b   8.43622872
_cell_length_c   14.52216100
_cell_angle_alpha   55.08032585
_cell_angle_beta   90.00000000
_cell_angle_gamma   90.00000000
_symmetry_Int_Tables_number   1
_chemical_formula_structural   CsThTlI6
_chemical_formula_sum   'Cs2 Th2 Tl2 I12'
_cell_volume   917.86116379
_cell_formula_units_Z   2
loop_
 _symmetry_equiv_pos_site_id
 _symmetry_equiv_pos_as_xyz
  1  'x, y, z'
loop_
 _atom_site_type_symbol
 _atom_site_label
 _atom_site_symmetry_multiplicity
 _atom_site_fract_x
 _atom_site_fract_y
 _atom_site_fract_z
 _atom_site_occupancy
  Cs  Cs0  1  0.419016  0.279093  0.749169  1
  Cs  Cs1  1  0.919016  0.720907  0.750831  1
  Th  Th2  1  0.998183  0.988356  0.014317  1
  Th  Th3  1  0.498183  0.011644  0.485683  1
  Tl  Tl4  1  0.604326  0.722404  0.259631  1
  Tl  Tl5  1  0.104326  0.277596  0.240369  1
  I  I6  1  0.972792  0.852095  0.260436  1
  I  I7  1  0.472792  0.147905  0.239564  1
  I  I8  1  0.008446  0.163258  0.761085  1
  I  I9  1  0.508446  0.836742  0.738915  1
  I  I10  1  0.682249  0.666425  0.530178  1
  I  I11  1  0.182249  0.333575  0.969822  1
  I  I12  1  0.323006  0.366121  0.434000  1
  I  I13  1  0.823006  0.633879  0.066000  1
  I  I14  1  0.708776  0.209085  0.969888  1
  I  I15  1  0.208776  0.790915  0.530112  1
  I  I16  1  0.283206  0.759838  0.059067  1
  I  I17  1  0.783206  0.240162  0.440933  1
