# generated using pymatgen
data_Ho7Er3(Cd2Pd)4
_symmetry_space_group_name_H-M   'P 1'
_cell_length_a   3.63233600
_cell_length_b   7.97673235
_cell_length_c   18.26650300
_cell_angle_alpha   90.05206083
_cell_angle_beta   90.00000000
_cell_angle_gamma   90.00000000
_symmetry_Int_Tables_number   1
_chemical_formula_structural   Ho7Er3(Cd2Pd)4
_chemical_formula_sum   'Ho7 Er3 Cd8 Pd4'
_cell_volume   529.25658243
_cell_formula_units_Z   1
loop_
 _symmetry_equiv_pos_site_id
 _symmetry_equiv_pos_as_xyz
  1  'x, y, z'
loop_
 _atom_site_type_symbol
 _atom_site_label
 _atom_site_symmetry_multiplicity
 _atom_site_fract_x
 _atom_site_fract_y
 _atom_site_fract_z
 _atom_site_occupancy
  Ho  Ho0  1  0.000000  0.500048  0.500090  1
  Ho  Ho1  1  0.000000  0.000084  0.999887  1
  Ho  Ho2  1  0.000000  0.741368  0.282062  1
  Ho  Ho3  1  0.000000  0.258706  0.717915  1
  Ho  Ho4  1  0.000000  0.758497  0.781786  1
  Ho  Ho5  1  0.000000  0.241636  0.218333  1
  Ho  Ho6  1  0.000000  0.614939  0.083996  1
  Er  Er7  1  0.000000  0.384851  0.915531  1
  Er  Er8  1  0.000000  0.885266  0.584282  1
  Er  Er9  1  0.000000  0.114813  0.415870  1
  Cd  Cd10  1  0.500000  0.711962  0.933311  1
  Cd  Cd11  1  0.500000  0.287234  0.066579  1
  Cd  Cd12  1  0.500000  0.787731  0.433724  1
  Cd  Cd13  1  0.500000  0.211910  0.566329  1
  Cd  Cd14  1  0.500000  0.574963  0.647715  1
  Cd  Cd15  1  0.500000  0.425101  0.352428  1
  Cd  Cd16  1  0.500000  0.925750  0.147886  1
  Cd  Cd17  1  0.500000  0.074969  0.852200  1
  Pd  Pd18  1  0.500000  0.526970  0.195838  1
  Pd  Pd19  1  0.500000  0.473125  0.804234  1
  Pd  Pd20  1  0.500000  0.973194  0.695767  1
  Pd  Pd21  1  0.500000  0.026886  0.304236  1
