# generated using pymatgen
data_Pr18Y2Si15Br
_symmetry_space_group_name_H-M   'P 1'
_cell_length_a   7.94481120
_cell_length_b   7.88982283
_cell_length_c   15.30640360
_cell_angle_alpha   89.63655807
_cell_angle_beta   89.13462196
_cell_angle_gamma   90.20359755
_symmetry_Int_Tables_number   1
_chemical_formula_structural   Pr18Y2Si15Br
_chemical_formula_sum   'Pr18 Y2 Si15 Br1'
_cell_volume   959.31851088
_cell_formula_units_Z   1
loop_
 _symmetry_equiv_pos_site_id
 _symmetry_equiv_pos_as_xyz
  1  'x, y, z'
loop_
 _atom_site_type_symbol
 _atom_site_label
 _atom_site_symmetry_multiplicity
 _atom_site_fract_x
 _atom_site_fract_y
 _atom_site_fract_z
 _atom_site_occupancy
  Pr  Pr0  1  0.795367  0.189590  0.752896  1
  Pr  Pr1  1  0.687921  0.689482  0.496848  1
  Pr  Pr2  1  0.381143  0.005234  0.442423  1
  Pr  Pr3  1  0.496706  0.868930  0.699481  1
  Pr  Pr4  1  0.510046  0.122232  0.196667  1
  Pr  Pr5  1  0.875256  0.485665  0.300218  1
  Pr  Pr6  1  0.122010  0.517146  0.804517  1
  Pr  Pr7  1  0.631863  0.985417  0.952945  1
  Pr  Pr8  1  0.997113  0.383526  0.544708  1
  Pr  Pr9  1  0.992161  0.623245  0.053290  1
  Pr  Pr10  1  0.138947  0.987017  0.875491  1
  Pr  Pr11  1  0.519031  0.630224  0.125709  1
  Pr  Pr12  1  0.481570  0.371958  0.630590  1
  Pr  Pr13  1  0.634405  0.521900  0.877066  1
  Pr  Pr14  1  0.368788  0.476283  0.374411  1
  Pr  Pr15  1  0.870194  0.019473  0.376030  1
  Pr  Pr16  1  0.983187  0.128401  0.124437  1
  Pr  Pr17  1  0.013199  0.862832  0.620639  1
  Y  Y18  1  0.311749  0.311251  0.999464  1
  Y  Y19  1  0.186692  0.809574  0.249888  1
  Si  Si20  1  0.330580  0.694651  0.952049  1
  Si  Si21  1  0.662258  0.304554  0.453195  1
  Si  Si22  1  0.698699  0.333850  0.050247  1
  Si  Si23  1  0.304246  0.667853  0.549015  1
  Si  Si24  1  0.806693  0.830956  0.202770  1
  Si  Si25  1  0.168368  0.191549  0.295931  1
  Si  Si26  1  0.842495  0.804674  0.797699  1
  Si  Si27  1  0.286753  0.923556  0.061208  1
  Si  Si28  1  0.572882  0.786528  0.307690  1
  Si  Si29  1  0.448639  0.211169  0.828338  1
  Si  Si30  1  0.790769  0.576559  0.689058  1
  Si  Si31  1  0.212219  0.425210  0.188646  1
  Si  Si32  1  0.704571  0.075425  0.560588  1
  Si  Si33  1  0.931015  0.290950  0.941297  1
  Si  Si34  1  0.079227  0.712565  0.437038  1
  Br  Br35  1  0.163239  0.180569  0.687516  1
