# generated using pymatgen
data_Th2(CdSn)3
_symmetry_space_group_name_H-M   'P 1'
_cell_length_a   4.72887300
_cell_length_b   4.87783000
_cell_length_c   9.18789400
_cell_angle_alpha   90.00000000
_cell_angle_beta   90.00000000
_cell_angle_gamma   90.00000000
_symmetry_Int_Tables_number   1
_chemical_formula_structural   Th2(CdSn)3
_chemical_formula_sum   'Th2 Cd3 Sn3'
_cell_volume   211.93383026
_cell_formula_units_Z   1
loop_
 _symmetry_equiv_pos_site_id
 _symmetry_equiv_pos_as_xyz
  1  'x, y, z'
loop_
 _atom_site_type_symbol
 _atom_site_label
 _atom_site_symmetry_multiplicity
 _atom_site_fract_x
 _atom_site_fract_y
 _atom_site_fract_z
 _atom_site_occupancy
  Th  Th0  1  0.000000  0.000000  0.244818  1
  Th  Th1  1  0.000000  0.000000  0.755182  1
  Cd  Cd2  1  0.500000  0.500000  0.257559  1
  Cd  Cd3  1  0.500000  0.500000  0.742441  1
  Cd  Cd4  1  0.000000  0.500000  0.500000  1
  Sn  Sn5  1  0.000000  0.500000  0.000000  1
  Sn  Sn6  1  0.500000  0.000000  0.500000  1
  Sn  Sn7  1  0.500000  0.000000  0.000000  1
