# generated using pymatgen
data_Ta4CuS8
_symmetry_space_group_name_H-M   'P 1'
_cell_length_a   13.14696501
_cell_length_b   13.14696414
_cell_length_c   5.76141798
_cell_angle_alpha   77.38496314
_cell_angle_beta   77.38496437
_cell_angle_gamma   14.73966969
_symmetry_Int_Tables_number   1
_chemical_formula_structural   Ta4CuS8
_chemical_formula_sum   'Ta4 Cu1 S8'
_cell_volume   247.14385950
_cell_formula_units_Z   1
loop_
 _symmetry_equiv_pos_site_id
 _symmetry_equiv_pos_as_xyz
  1  'x, y, z'
loop_
 _atom_site_type_symbol
 _atom_site_label
 _atom_site_symmetry_multiplicity
 _atom_site_fract_x
 _atom_site_fract_y
 _atom_site_fract_z
 _atom_site_occupancy
  Ta  Ta0  1  0.377987  0.377987  0.633411  1
  Ta  Ta1  1  0.878028  0.878028  0.120469  1
  Ta  Ta2  1  0.622013  0.622013  0.366589  1
  Ta  Ta3  1  0.121972  0.121972  0.879531  1
  Cu  Cu4  1  0.000000  0.000000  0.000000  1
  S  S5  1  0.940442  0.940442  0.721482  1
  S  S6  1  0.439459  0.439459  0.233038  1
  S  S7  1  0.560541  0.560541  0.766962  1
  S  S8  1  0.059558  0.059558  0.278518  1
  S  S9  1  0.682151  0.682151  0.649942  1
  S  S10  1  0.183728  0.183728  0.149055  1
  S  S11  1  0.816272  0.816272  0.850945  1
  S  S12  1  0.317849  0.317849  0.350058  1
