# generated using pymatgen
data_Nd8Cu3Si12H
_symmetry_space_group_name_H-M   'P 1'
_cell_length_a   8.10226000
_cell_length_b   8.10226088
_cell_length_c   8.51152600
_cell_angle_alpha   90.00000000
_cell_angle_beta   90.00000000
_cell_angle_gamma   119.99999642
_symmetry_Int_Tables_number   1
_chemical_formula_structural   Nd8Cu3Si12H
_chemical_formula_sum   'Nd8 Cu3 Si12 H1'
_cell_volume   483.89426551
_cell_formula_units_Z   1
loop_
 _symmetry_equiv_pos_site_id
 _symmetry_equiv_pos_as_xyz
  1  'x, y, z'
loop_
 _atom_site_type_symbol
 _atom_site_label
 _atom_site_symmetry_multiplicity
 _atom_site_fract_x
 _atom_site_fract_y
 _atom_site_fract_z
 _atom_site_occupancy
  Nd  Nd0  1  0.000000  0.000000  0.742624  1
  Nd  Nd1  1  0.000000  0.000000  0.235331  1
  Nd  Nd2  1  0.499275  0.500725  0.740113  1
  Nd  Nd3  1  0.499275  0.998551  0.740113  1
  Nd  Nd4  1  0.001449  0.500725  0.740113  1
  Nd  Nd5  1  0.498320  0.501680  0.235216  1
  Nd  Nd6  1  0.003361  0.501680  0.235216  1
  Nd  Nd7  1  0.498320  0.996639  0.235216  1
  Cu  Cu8  1  0.666667  0.333333  0.985621  1
  Cu  Cu9  1  0.666667  0.333333  0.493505  1
  Cu  Cu10  1  0.333333  0.666667  0.475721  1
  Si  Si11  1  0.832328  0.167672  0.986970  1
  Si  Si12  1  0.832328  0.664657  0.986970  1
  Si  Si13  1  0.335343  0.167672  0.986970  1
  Si  Si14  1  0.830267  0.169733  0.484216  1
  Si  Si15  1  0.830267  0.660534  0.484216  1
  Si  Si16  1  0.339466  0.169733  0.484216  1
  Si  Si17  1  0.167093  0.832907  0.497575  1
  Si  Si18  1  0.665815  0.832907  0.497575  1
  Si  Si19  1  0.167093  0.334185  0.497575  1
  Si  Si20  1  0.174129  0.825871  0.988946  1
  Si  Si21  1  0.651743  0.825871  0.988946  1
  Si  Si22  1  0.174129  0.348257  0.988946  1
  H  H23  1  0.333333  0.666667  0.268090  1
