# generated using pymatgen
data_Eu2B4OsRu3
_symmetry_space_group_name_H-M   'P 1'
_cell_length_a   6.85997873
_cell_length_b   6.00340600
_cell_length_c   5.67435169
_cell_angle_alpha   71.88834206
_cell_angle_beta   56.28140371
_cell_angle_gamma   51.88285601
_symmetry_Int_Tables_number   1
_chemical_formula_structural   Eu2B4OsRu3
_chemical_formula_sum   'Eu2 B4 Os1 Ru3'
_cell_volume   152.74467627
_cell_formula_units_Z   1
loop_
 _symmetry_equiv_pos_site_id
 _symmetry_equiv_pos_as_xyz
  1  'x, y, z'
loop_
 _atom_site_type_symbol
 _atom_site_label
 _atom_site_symmetry_multiplicity
 _atom_site_fract_x
 _atom_site_fract_y
 _atom_site_fract_z
 _atom_site_occupancy
  Eu  Eu0  1  0.998104  0.998104  0.001896  1
  Eu  Eu1  1  0.252064  0.252063  0.247935  1
  B  B2  1  0.321793  0.679324  0.322345  1
  B  B3  1  0.574782  0.926550  0.564455  1
  B  B4  1  0.679324  0.321793  0.676539  1
  B  B5  1  0.926551  0.574781  0.934212  1
  Os  Os6  1  0.634073  0.634075  0.365926  1
  Ru  Ru7  1  0.886296  0.886295  0.613704  1
  Ru  Ru8  1  0.362100  0.362101  0.637899  1
  Ru  Ru9  1  0.614914  0.614913  0.885087  1
