# generated using pymatgen
data_Lu3Al3Ge2Os
_symmetry_space_group_name_H-M   'P 1'
_cell_length_a   6.85517103
_cell_length_b   6.85517131
_cell_length_c   4.22290000
_cell_angle_alpha   90.00000000
_cell_angle_beta   90.00000000
_cell_angle_gamma   120.03684024
_symmetry_Int_Tables_number   1
_chemical_formula_structural   Lu3Al3Ge2Os
_chemical_formula_sum   'Lu3 Al3 Ge2 Os1'
_cell_volume   171.79744255
_cell_formula_units_Z   1
loop_
 _symmetry_equiv_pos_site_id
 _symmetry_equiv_pos_as_xyz
  1  'x, y, z'
loop_
 _atom_site_type_symbol
 _atom_site_label
 _atom_site_symmetry_multiplicity
 _atom_site_fract_x
 _atom_site_fract_y
 _atom_site_fract_z
 _atom_site_occupancy
  Lu  Lu0  1  0.581583  0.581583  0.000000  1
  Lu  Lu1  1  0.417357  0.999789  0.000000  1
  Lu  Lu2  1  0.999789  0.417357  0.000000  1
  Al  Al3  1  0.771888  0.999826  0.500001  1
  Al  Al4  1  0.228842  0.228843  0.500001  1
  Al  Al5  1  0.999826  0.771887  0.500001  1
  Ge  Ge6  1  0.667451  0.333318  0.500001  1
  Ge  Ge7  1  0.333318  0.667451  0.500001  1
  Os  Os8  1  0.999945  0.999945  0.000000  1
