# generated using pymatgen
data_SmP2Rh3
_symmetry_space_group_name_H-M   'P 1'
_cell_length_a   3.95519200
_cell_length_b   11.26705300
_cell_length_c   12.86559300
_cell_angle_alpha   90.00000000
_cell_angle_beta   90.00000000
_cell_angle_gamma   90.00000000
_symmetry_Int_Tables_number   1
_chemical_formula_structural   SmP2Rh3
_chemical_formula_sum   'Sm6 P12 Rh18'
_cell_volume   573.33402532
_cell_formula_units_Z   6
loop_
 _symmetry_equiv_pos_site_id
 _symmetry_equiv_pos_as_xyz
  1  'x, y, z'
loop_
 _atom_site_type_symbol
 _atom_site_label
 _atom_site_symmetry_multiplicity
 _atom_site_fract_x
 _atom_site_fract_y
 _atom_site_fract_z
 _atom_site_occupancy
  Sm  Sm0  1  0.000000  0.500000  0.520318  1
  Sm  Sm1  1  0.500000  0.000000  0.479682  1
  Sm  Sm2  1  0.500000  0.815009  0.204820  1
  Sm  Sm3  1  0.500000  0.184991  0.204820  1
  Sm  Sm4  1  0.000000  0.684991  0.795180  1
  Sm  Sm5  1  0.000000  0.315009  0.795180  1
  P  P6  1  0.500000  0.500000  0.879704  1
  P  P7  1  0.000000  0.000000  0.120296  1
  P  P8  1  0.500000  0.500000  0.349017  1
  P  P9  1  0.000000  0.000000  0.650983  1
  P  P10  1  0.500000  0.313829  0.617775  1
  P  P11  1  0.500000  0.686171  0.617775  1
  P  P12  1  0.000000  0.186171  0.382225  1
  P  P13  1  0.000000  0.813829  0.382225  1
  P  P14  1  0.500000  0.846926  0.893423  1
  P  P15  1  0.500000  0.153074  0.893423  1
  P  P16  1  0.000000  0.653074  0.106577  1
  P  P17  1  0.000000  0.346926  0.106577  1
  Rh  Rh18  1  0.500000  0.500000  0.168972  1
  Rh  Rh19  1  0.000000  0.000000  0.831028  1
  Rh  Rh20  1  0.500000  0.500000  0.701523  1
  Rh  Rh21  1  0.000000  0.000000  0.298477  1
  Rh  Rh22  1  0.000000  0.500000  0.980503  1
  Rh  Rh23  1  0.500000  0.000000  0.019497  1
  Rh  Rh24  1  0.500000  0.334464  0.994572  1
  Rh  Rh25  1  0.500000  0.665536  0.994572  1
  Rh  Rh26  1  0.000000  0.165536  0.005428  1
  Rh  Rh27  1  0.000000  0.834464  0.005428  1
  Rh  Rh28  1  0.500000  0.293970  0.430937  1
  Rh  Rh29  1  0.500000  0.706030  0.430937  1
  Rh  Rh30  1  0.000000  0.206030  0.569063  1
  Rh  Rh31  1  0.000000  0.793970  0.569063  1
  Rh  Rh32  1  0.500000  0.874075  0.710948  1
  Rh  Rh33  1  0.500000  0.125925  0.710948  1
  Rh  Rh34  1  0.000000  0.625925  0.289052  1
  Rh  Rh35  1  0.000000  0.374075  0.289052  1
