# generated using pymatgen
data_GaAsCl14
_symmetry_space_group_name_H-M   'P 1'
_cell_length_a   10.51663900
_cell_length_b   11.01826101
_cell_length_c   11.36856448
_cell_angle_alpha   81.56526592
_cell_angle_beta   90.00000000
_cell_angle_gamma   90.00000000
_symmetry_Int_Tables_number   1
_chemical_formula_structural   GaAsCl14
_chemical_formula_sum   'Ga2 As2 Cl28'
_cell_volume   1303.08442992
_cell_formula_units_Z   2
loop_
 _symmetry_equiv_pos_site_id
 _symmetry_equiv_pos_as_xyz
  1  'x, y, z'
loop_
 _atom_site_type_symbol
 _atom_site_label
 _atom_site_symmetry_multiplicity
 _atom_site_fract_x
 _atom_site_fract_y
 _atom_site_fract_z
 _atom_site_occupancy
  Ga  Ga0  1  0.249031  0.336547  0.078562  1
  Ga  Ga1  1  0.749031  0.663453  0.421438  1
  As  As2  1  0.755193  0.677640  0.912010  1
  As  As3  1  0.255193  0.322360  0.587990  1
  Cl  Cl4  1  0.229393  0.763918  0.365177  1
  Cl  Cl5  1  0.729393  0.236082  0.134823  1
  Cl  Cl6  1  0.747805  0.251670  0.640365  1
  Cl  Cl7  1  0.247805  0.748330  0.859635  1
  Cl  Cl8  1  0.569117  0.048003  0.034023  1
  Cl  Cl9  1  0.069117  0.951997  0.465977  1
  Cl  Cl10  1  0.443273  0.936017  0.967469  1
  Cl  Cl11  1  0.943273  0.063983  0.532531  1
  Cl  Cl12  1  0.810604  0.169584  0.290599  1
  Cl  Cl13  1  0.310604  0.830416  0.209401  1
  Cl  Cl14  1  0.182587  0.830971  0.700932  1
  Cl  Cl15  1  0.682587  0.169029  0.799068  1
  Cl  Cl16  1  0.332221  0.212252  0.223796  1
  Cl  Cl17  1  0.832221  0.787748  0.276204  1
  Cl  Cl18  1  0.670351  0.727655  0.736930  1
  Cl  Cl19  1  0.170351  0.272345  0.763070  1
  Cl  Cl20  1  0.388003  0.414047  0.945581  1
  Cl  Cl21  1  0.888003  0.585953  0.554419  1
  Cl  Cl22  1  0.633379  0.629259  0.060343  1
  Cl  Cl23  1  0.133379  0.370741  0.439657  1
  Cl  Cl24  1  0.875835  0.523727  0.907817  1
  Cl  Cl25  1  0.375835  0.476273  0.592183  1
  Cl  Cl26  1  0.130895  0.478747  0.138465  1
  Cl  Cl27  1  0.630895  0.521253  0.361535  1
  Cl  Cl28  1  0.109670  0.217357  0.987202  1
  Cl  Cl29  1  0.609670  0.782643  0.512798  1
  Cl  Cl30  1  0.872642  0.824305  0.950162  1
  Cl  Cl31  1  0.372642  0.175695  0.549838  1
