# generated using pymatgen
data_Lu4CdHgPd4
_symmetry_space_group_name_H-M   'P 1'
_cell_length_a   7.74576500
_cell_length_b   7.74576500
_cell_length_c   3.52783100
_cell_angle_alpha   90.00000000
_cell_angle_beta   90.00000000
_cell_angle_gamma   90.00000000
_symmetry_Int_Tables_number   1
_chemical_formula_structural   Lu4CdHgPd4
_chemical_formula_sum   'Lu4 Cd1 Hg1 Pd4'
_cell_volume   211.65883706
_cell_formula_units_Z   1
loop_
 _symmetry_equiv_pos_site_id
 _symmetry_equiv_pos_as_xyz
  1  'x, y, z'
loop_
 _atom_site_type_symbol
 _atom_site_label
 _atom_site_symmetry_multiplicity
 _atom_site_fract_x
 _atom_site_fract_y
 _atom_site_fract_z
 _atom_site_occupancy
  Lu  Lu0  1  0.675826  0.159384  0.500000  1
  Lu  Lu1  1  0.324174  0.840616  0.500000  1
  Lu  Lu2  1  0.159384  0.324174  0.500000  1
  Lu  Lu3  1  0.840616  0.675826  0.500000  1
  Cd  Cd4  1  0.500000  0.500000  0.000000  1
  Hg  Hg5  1  0.000000  0.000000  0.000000  1
  Pd  Pd6  1  0.138061  0.622787  0.000000  1
  Pd  Pd7  1  0.861939  0.377213  0.000000  1
  Pd  Pd8  1  0.622787  0.861939  0.000000  1
  Pd  Pd9  1  0.377213  0.138061  0.000000  1
