# generated using pymatgen
data_Tb2Er5Co4Sn23Os2
_symmetry_space_group_name_H-M   'P 1'
_cell_length_a   9.72382569
_cell_length_b   9.72995016
_cell_length_c   10.02871120
_cell_angle_alpha   90.45642241
_cell_angle_beta   89.52326092
_cell_angle_gamma   119.93429889
_symmetry_Int_Tables_number   1
_chemical_formula_structural   Tb2Er5Co4Sn23Os2
_chemical_formula_sum   'Tb2 Er5 Co4 Sn23 Os2'
_cell_volume   822.22644490
_cell_formula_units_Z   1
loop_
 _symmetry_equiv_pos_site_id
 _symmetry_equiv_pos_as_xyz
  1  'x, y, z'
loop_
 _atom_site_type_symbol
 _atom_site_label
 _atom_site_symmetry_multiplicity
 _atom_site_fract_x
 _atom_site_fract_y
 _atom_site_fract_z
 _atom_site_occupancy
  Tb  Tb0  1  0.000098  0.999989  0.000154  1
  Tb  Tb1  1  0.959447  0.481816  0.694754  1
  Er  Er2  1  0.480593  0.519395  0.307070  1
  Er  Er3  1  0.519561  0.480695  0.692906  1
  Er  Er4  1  0.483081  0.961000  0.304725  1
  Er  Er5  1  0.517091  0.039107  0.695210  1
  Er  Er6  1  0.038848  0.516875  0.304598  1
  Co  Co7  1  0.829890  0.661388  0.198451  1
  Co  Co8  1  0.170616  0.338364  0.801741  1
  Co  Co9  1  0.338634  0.170093  0.198557  1
  Co  Co10  1  0.661147  0.829838  0.801671  1
  Sn  Sn11  1  0.350427  0.003910  0.004464  1
  Sn  Sn12  1  0.649756  0.996257  0.995782  1
  Sn  Sn13  1  0.003904  0.350148  0.995889  1
  Sn  Sn14  1  0.996446  0.649957  0.004339  1
  Sn  Sn15  1  0.653740  0.653781  0.000070  1
  Sn  Sn16  1  0.346263  0.346155  0.999996  1
  Sn  Sn17  1  0.334877  0.665508  0.818788  1
  Sn  Sn18  1  0.665382  0.334567  0.181370  1
  Sn  Sn19  1  0.000157  0.000100  0.499887  1
  Sn  Sn20  1  0.779496  0.219524  0.459186  1
  Sn  Sn21  1  0.220979  0.780897  0.539980  1
  Sn  Sn22  1  0.781859  0.563983  0.451143  1
  Sn  Sn23  1  0.218717  0.435958  0.547808  1
  Sn  Sn24  1  0.436133  0.217819  0.451617  1
  Sn  Sn25  1  0.563943  0.782252  0.548315  1
  Sn  Sn26  1  0.334063  0.666051  0.119903  1
  Sn  Sn27  1  0.664086  0.333175  0.881156  1
  Sn  Sn28  1  0.117821  0.882179  0.270695  1
  Sn  Sn29  1  0.882130  0.117077  0.729430  1
  Sn  Sn30  1  0.124874  0.237527  0.276456  1
  Sn  Sn31  1  0.875209  0.763262  0.723722  1
  Sn  Sn32  1  0.762347  0.875095  0.276335  1
  Sn  Sn33  1  0.237668  0.125046  0.723628  1
  Os  Os34  1  0.831891  0.168050  0.199612  1
  Os  Os35  1  0.168828  0.833161  0.800592  1
