# generated using pymatgen
data_Nd20Si13Se3
_symmetry_space_group_name_H-M   'P 1'
_cell_length_a   7.79570621
_cell_length_b   7.93941410
_cell_length_c   15.26982489
_cell_angle_alpha   90.01288395
_cell_angle_beta   83.16674836
_cell_angle_gamma   90.31962886
_symmetry_Int_Tables_number   1
_chemical_formula_structural   Nd20Si13Se3
_chemical_formula_sum   'Nd20 Si13 Se3'
_cell_volume   938.37236512
_cell_formula_units_Z   1
loop_
 _symmetry_equiv_pos_site_id
 _symmetry_equiv_pos_as_xyz
  1  'x, y, z'
loop_
 _atom_site_type_symbol
 _atom_site_label
 _atom_site_symmetry_multiplicity
 _atom_site_fract_x
 _atom_site_fract_y
 _atom_site_fract_z
 _atom_site_occupancy
  Nd  Nd0  1  0.198162  0.994883  0.755603  1
  Nd  Nd1  1  0.802230  0.005347  0.243487  1
  Nd  Nd2  1  0.301293  0.496387  0.243625  1
  Nd  Nd3  1  0.699545  0.504399  0.751023  1
  Nd  Nd4  1  0.053741  0.666895  0.612826  1
  Nd  Nd5  1  0.938778  0.332666  0.388721  1
  Nd  Nd6  1  0.447072  0.174006  0.386895  1
  Nd  Nd7  1  0.011216  0.314865  0.101871  1
  Nd  Nd8  1  0.558111  0.825722  0.613579  1
  Nd  Nd9  1  0.988391  0.685123  0.897211  1
  Nd  Nd10  1  0.488516  0.813310  0.896641  1
  Nd  Nd11  1  0.510849  0.186190  0.103796  1
  Nd  Nd12  1  0.406080  0.335505  0.613059  1
  Nd  Nd13  1  0.599538  0.663335  0.388276  1
  Nd  Nd14  1  0.092226  0.829567  0.386996  1
  Nd  Nd15  1  0.657562  0.684301  0.121563  1
  Nd  Nd16  1  0.903696  0.172787  0.613554  1
  Nd  Nd17  1  0.342444  0.315906  0.878437  1
  Nd  Nd18  1  0.841535  0.182234  0.878135  1
  Nd  Nd19  1  0.159510  0.818087  0.122648  1
  Si  Si20  1  0.082232  0.390194  0.747603  1
  Si  Si21  1  0.918499  0.610114  0.253564  1
  Si  Si22  1  0.418001  0.890608  0.256095  1
  Si  Si23  1  0.582253  0.110674  0.745526  1
  Si  Si24  1  0.312975  0.618405  0.751605  1
  Si  Si25  1  0.685213  0.381025  0.249685  1
  Si  Si26  1  0.186232  0.118899  0.252113  1
  Si  Si27  1  0.814225  0.880942  0.749700  1
  Si  Si28  1  0.854213  0.973192  0.039357  1
  Si  Si29  1  0.742308  0.502036  0.549243  1
  Si  Si30  1  0.147217  0.025950  0.960551  1
  Si  Si31  1  0.646628  0.471523  0.961260  1
  Si  Si32  1  0.352870  0.526640  0.039440  1
  Se  Se33  1  0.243232  0.998616  0.549634  1
  Se  Se34  1  0.756713  0.000707  0.448410  1
  Se  Se35  1  0.256696  0.498958  0.448266  1
