# generated using pymatgen
data_Tb8Ta11Si16Ru
_symmetry_space_group_name_H-M   'P 1'
_cell_length_a   7.03398844
_cell_length_b   7.03398828
_cell_length_c   12.98224986
_cell_angle_alpha   90.14075967
_cell_angle_beta   89.85924150
_cell_angle_gamma   89.58517786
_symmetry_Int_Tables_number   1
_chemical_formula_structural   Tb8Ta11Si16Ru
_chemical_formula_sum   'Tb8 Ta11 Si16 Ru1'
_cell_volume   642.30193628
_cell_formula_units_Z   1
loop_
 _symmetry_equiv_pos_site_id
 _symmetry_equiv_pos_as_xyz
  1  'x, y, z'
loop_
 _atom_site_type_symbol
 _atom_site_label
 _atom_site_symmetry_multiplicity
 _atom_site_fract_x
 _atom_site_fract_y
 _atom_site_fract_z
 _atom_site_occupancy
  Tb  Tb0  1  0.340692  0.004528  0.468357  1
  Tb  Tb1  1  0.495580  0.841176  0.719068  1
  Tb  Tb2  1  0.501469  0.159473  0.216964  1
  Tb  Tb3  1  0.841176  0.495580  0.280932  1
  Tb  Tb4  1  0.159473  0.501469  0.783036  1
  Tb  Tb5  1  0.657677  0.997379  0.968921  1
  Tb  Tb6  1  0.004528  0.340692  0.531643  1
  Tb  Tb7  1  0.997379  0.657677  0.031079  1
  Ta  Ta8  1  0.173862  0.829569  0.247598  1
  Ta  Ta9  1  0.829569  0.173862  0.752402  1
  Ta  Ta10  1  0.671030  0.671030  0.500000  1
  Ta  Ta11  1  0.148887  0.003740  0.875120  1
  Ta  Ta12  1  0.494395  0.658175  0.124842  1
  Ta  Ta13  1  0.505227  0.346735  0.625719  1
  Ta  Ta14  1  0.658175  0.494395  0.875158  1
  Ta  Ta15  1  0.346735  0.505227  0.374281  1
  Ta  Ta16  1  0.846978  0.993415  0.374505  1
  Ta  Ta17  1  0.003740  0.148887  0.124880  1
  Ta  Ta18  1  0.993415  0.846978  0.625495  1
  Si  Si19  1  0.202345  0.134621  0.683621  1
  Si  Si20  1  0.369159  0.699826  0.933523  1
  Si  Si21  1  0.634205  0.297061  0.432990  1
  Si  Si22  1  0.699826  0.369159  0.066477  1
  Si  Si23  1  0.297061  0.634205  0.567010  1
  Si  Si24  1  0.796019  0.866609  0.182861  1
  Si  Si25  1  0.134621  0.202345  0.316379  1
  Si  Si26  1  0.866609  0.796019  0.817139  1
  Si  Si27  1  0.291192  0.956394  0.061411  1
  Si  Si28  1  0.544906  0.794495  0.314169  1
  Si  Si29  1  0.449689  0.208516  0.818200  1
  Si  Si30  1  0.794495  0.544906  0.685831  1
  Si  Si31  1  0.208516  0.449689  0.181800  1
  Si  Si32  1  0.706216  0.045634  0.565059  1
  Si  Si33  1  0.956394  0.291192  0.938589  1
  Si  Si34  1  0.045634  0.706216  0.434941  1
  Ru  Ru35  1  0.333125  0.333125  0.000000  1
