# generated using pymatgen
data_Y2Tm3(SnPb)2
_symmetry_space_group_name_H-M   'P 1'
_cell_length_a   8.07693700
_cell_length_b   8.19703200
_cell_length_c   15.50112500
_cell_angle_alpha   90.00000000
_cell_angle_beta   90.00000000
_cell_angle_gamma   90.00000000
_symmetry_Int_Tables_number   1
_chemical_formula_structural   Y2Tm3(SnPb)2
_chemical_formula_sum   'Y8 Tm12 Sn8 Pb8'
_cell_volume   1026.28160407
_cell_formula_units_Z   4
loop_
 _symmetry_equiv_pos_site_id
 _symmetry_equiv_pos_as_xyz
  1  'x, y, z'
loop_
 _atom_site_type_symbol
 _atom_site_label
 _atom_site_symmetry_multiplicity
 _atom_site_fract_x
 _atom_site_fract_y
 _atom_site_fract_z
 _atom_site_occupancy
  Y  Y0  1  0.523648  0.321047  0.899902  1
  Y  Y1  1  0.023648  0.178953  0.600098  1
  Y  Y2  1  0.476352  0.678953  0.399902  1
  Y  Y3  1  0.976352  0.821047  0.100098  1
  Y  Y4  1  0.476352  0.678953  0.100098  1
  Y  Y5  1  0.976352  0.821047  0.399902  1
  Y  Y6  1  0.523648  0.321047  0.600098  1
  Y  Y7  1  0.023648  0.178953  0.899902  1
  Tm  Tm8  1  0.367636  0.837412  0.874983  1
  Tm  Tm9  1  0.867636  0.662588  0.625017  1
  Tm  Tm10  1  0.632364  0.162588  0.374983  1
  Tm  Tm11  1  0.132364  0.337412  0.125017  1
  Tm  Tm12  1  0.632364  0.162588  0.125017  1
  Tm  Tm13  1  0.132364  0.337412  0.374983  1
  Tm  Tm14  1  0.367636  0.837412  0.625017  1
  Tm  Tm15  1  0.867636  0.662588  0.874983  1
  Tm  Tm16  1  0.197921  0.503718  0.750000  1
  Tm  Tm17  1  0.697921  0.996282  0.750000  1
  Tm  Tm18  1  0.802079  0.496282  0.250000  1
  Tm  Tm19  1  0.302079  0.003718  0.250000  1
  Sn  Sn20  1  0.563143  0.620549  0.750000  1
  Sn  Sn21  1  0.063143  0.879451  0.750000  1
  Sn  Sn22  1  0.436857  0.379451  0.250000  1
  Sn  Sn23  1  0.936857  0.120549  0.250000  1
  Sn  Sn24  1  0.331092  0.148393  0.750000  1
  Sn  Sn25  1  0.831092  0.351607  0.750000  1
  Sn  Sn26  1  0.668908  0.851607  0.250000  1
  Sn  Sn27  1  0.168908  0.648393  0.250000  1
  Pb  Pb28  1  0.293078  0.038010  0.040986  1
  Pb  Pb29  1  0.793078  0.461990  0.459014  1
  Pb  Pb30  1  0.706922  0.961990  0.540986  1
  Pb  Pb31  1  0.206922  0.538010  0.959014  1
  Pb  Pb32  1  0.706922  0.961990  0.959014  1
  Pb  Pb33  1  0.206922  0.538010  0.540986  1
  Pb  Pb34  1  0.293078  0.038010  0.459014  1
  Pb  Pb35  1  0.793078  0.461990  0.040986  1
