# generated using pymatgen
data_Ta4Mn5Al2V
_symmetry_space_group_name_H-M   'P 1'
_cell_length_a   4.87151618
_cell_length_b   4.91487663
_cell_length_c   8.11999100
_cell_angle_alpha   90.00000000
_cell_angle_beta   90.00000000
_cell_angle_gamma   120.29488525
_symmetry_Int_Tables_number   1
_chemical_formula_structural   Ta4Mn5Al2V
_chemical_formula_sum   'Ta4 Mn5 Al2 V1'
_cell_volume   167.86678653
_cell_formula_units_Z   1
loop_
 _symmetry_equiv_pos_site_id
 _symmetry_equiv_pos_as_xyz
  1  'x, y, z'
loop_
 _atom_site_type_symbol
 _atom_site_label
 _atom_site_symmetry_multiplicity
 _atom_site_fract_x
 _atom_site_fract_y
 _atom_site_fract_z
 _atom_site_occupancy
  Ta  Ta0  1  0.332435  0.666218  0.432063  1
  Ta  Ta1  1  0.668227  0.334113  0.563787  1
  Ta  Ta2  1  0.668227  0.334113  0.936213  1
  Ta  Ta3  1  0.332435  0.666218  0.067937  1
  Mn  Mn4  1  0.824131  0.170731  0.250000  1
  Mn  Mn5  1  0.824131  0.653401  0.250000  1
  Mn  Mn6  1  0.353313  0.176658  0.250000  1
  Mn  Mn7  1  0.169534  0.827813  0.750000  1
  Mn  Mn8  1  0.169534  0.341720  0.750000  1
  Al  Al9  1  0.005753  0.002877  0.495382  1
  Al  Al10  1  0.005753  0.002877  0.004618  1
  V  V11  1  0.646526  0.823263  0.750000  1
