# generated using pymatgen
data_Lu3Sc5IrAu3
_symmetry_space_group_name_H-M   'P 1'
_cell_length_a   4.64258700
_cell_length_b   6.84691519
_cell_length_c   8.45241900
_cell_angle_alpha   91.61816010
_cell_angle_beta   90.00000000
_cell_angle_gamma   90.00000000
_symmetry_Int_Tables_number   1
_chemical_formula_structural   Lu3Sc5IrAu3
_chemical_formula_sum   'Lu3 Sc5 Ir1 Au3'
_cell_volume   268.57327333
_cell_formula_units_Z   1
loop_
 _symmetry_equiv_pos_site_id
 _symmetry_equiv_pos_as_xyz
  1  'x, y, z'
loop_
 _atom_site_type_symbol
 _atom_site_label
 _atom_site_symmetry_multiplicity
 _atom_site_fract_x
 _atom_site_fract_y
 _atom_site_fract_z
 _atom_site_occupancy
  Lu  Lu0  1  0.250000  0.978618  0.313275  1
  Lu  Lu1  1  0.750000  0.509435  0.828890  1
  Lu  Lu2  1  0.750000  0.025229  0.686633  1
  Sc  Sc3  1  0.250000  0.859882  0.925237  1
  Sc  Sc4  1  0.250000  0.352224  0.580023  1
  Sc  Sc5  1  0.750000  0.156721  0.066417  1
  Sc  Sc6  1  0.750000  0.641754  0.423830  1
  Sc  Sc7  1  0.250000  0.474153  0.166818  1
  Ir  Ir8  1  0.250000  0.250369  0.901570  1
  Au  Au9  1  0.250000  0.752898  0.601383  1
  Au  Au10  1  0.750000  0.754463  0.109987  1
  Au  Au11  1  0.750000  0.244254  0.395937  1
