# generated using pymatgen
data_Hf6AlCoPb
_symmetry_space_group_name_H-M   'P 1'
_cell_length_a   3.34356300
_cell_length_b   7.97948603
_cell_length_c   7.97965500
_cell_angle_alpha   120.00125090
_cell_angle_beta   90.00000000
_cell_angle_gamma   90.00000000
_symmetry_Int_Tables_number   1
_chemical_formula_structural   Hf6AlCoPb
_chemical_formula_sum   'Hf6 Al1 Co1 Pb1'
_cell_volume   184.37146305
_cell_formula_units_Z   1
loop_
 _symmetry_equiv_pos_site_id
 _symmetry_equiv_pos_as_xyz
  1  'x, y, z'
loop_
 _atom_site_type_symbol
 _atom_site_label
 _atom_site_symmetry_multiplicity
 _atom_site_fract_x
 _atom_site_fract_y
 _atom_site_fract_z
 _atom_site_occupancy
  Hf  Hf0  1  0.500000  0.615277  0.017365  1
  Hf  Hf1  1  0.500000  0.402073  0.384717  1
  Hf  Hf2  1  0.500000  0.982622  0.597921  1
  Hf  Hf3  1  0.000000  0.246179  0.004867  1
  Hf  Hf4  1  0.000000  0.758662  0.753816  1
  Hf  Hf5  1  0.000000  0.995125  0.241325  1
  Al  Al6  1  0.000000  0.666652  0.333317  1
  Co  Co7  1  0.500000  0.999985  0.000002  1
  Pb  Pb8  1  0.000000  0.333327  0.666671  1
