# generated using pymatgen
data_Tm4Re2(OsRu)3
_symmetry_space_group_name_H-M   'P 1'
_cell_length_a   5.43641028
_cell_length_b   5.15346280
_cell_length_c   8.99905300
_cell_angle_alpha   90.00000000
_cell_angle_beta   90.00000000
_cell_angle_gamma   121.38928939
_symmetry_Int_Tables_number   1
_chemical_formula_structural   Tm4Re2(OsRu)3
_chemical_formula_sum   'Tm4 Re2 Os3 Ru3'
_cell_volume   215.22221510
_cell_formula_units_Z   1
loop_
 _symmetry_equiv_pos_site_id
 _symmetry_equiv_pos_as_xyz
  1  'x, y, z'
loop_
 _atom_site_type_symbol
 _atom_site_label
 _atom_site_symmetry_multiplicity
 _atom_site_fract_x
 _atom_site_fract_y
 _atom_site_fract_z
 _atom_site_occupancy
  Tm  Tm0  1  0.669135  0.337615  0.565457  1
  Tm  Tm1  1  0.330488  0.662105  0.434752  1
  Tm  Tm2  1  0.330488  0.662105  0.065248  1
  Tm  Tm3  1  0.669135  0.337615  0.934543  1
  Re  Re4  1  0.167370  0.333261  0.750000  1
  Re  Re5  1  0.837875  0.668256  0.250000  1
  Os  Os6  1  0.170251  0.826460  0.750000  1
  Os  Os7  1  0.655999  0.826003  0.750000  1
  Os  Os8  1  0.834401  0.175925  0.250000  1
  Ru  Ru9  1  0.992837  0.997109  0.499171  1
  Ru  Ru10  1  0.992837  0.997109  0.000829  1
  Ru  Ru11  1  0.349183  0.176435  0.250000  1
