# generated using pymatgen
data_Er3TmB16(MoIr)2
_symmetry_space_group_name_H-M   'P 1'
_cell_length_a   3.57492000
_cell_length_b   5.97662043
_cell_length_c   11.57599528
_cell_angle_alpha   89.67877230
_cell_angle_beta   90.00000000
_cell_angle_gamma   90.00000000
_symmetry_Int_Tables_number   1
_chemical_formula_structural   Er3TmB16(MoIr)2
_chemical_formula_sum   'Er3 Tm1 B16 Mo2 Ir2'
_cell_volume   247.32813220
_cell_formula_units_Z   1
loop_
 _symmetry_equiv_pos_site_id
 _symmetry_equiv_pos_as_xyz
  1  'x, y, z'
loop_
 _atom_site_type_symbol
 _atom_site_label
 _atom_site_symmetry_multiplicity
 _atom_site_fract_x
 _atom_site_fract_y
 _atom_site_fract_z
 _atom_site_occupancy
  Er  Er0  1  0.000000  0.372917  0.650033  1
  Er  Er1  1  0.000000  0.129298  0.148868  1
  Er  Er2  1  0.000000  0.870714  0.851206  1
  Tm  Tm3  1  0.000000  0.627117  0.350007  1
  B  B4  1  0.500000  0.789063  0.186340  1
  B  B5  1  0.500000  0.210895  0.813768  1
  B  B6  1  0.500000  0.290719  0.312017  1
  B  B7  1  0.500000  0.709560  0.687989  1
  B  B8  1  0.500000  0.864536  0.030453  1
  B  B9  1  0.500000  0.135466  0.969545  1
  B  B10  1  0.500000  0.367995  0.467670  1
  B  B11  1  0.500000  0.632182  0.532123  1
  B  B12  1  0.500000  0.884738  0.452931  1
  B  B13  1  0.500000  0.114993  0.546905  1
  B  B14  1  0.500000  0.386744  0.047165  1
  B  B15  1  0.500000  0.613265  0.952832  1
  B  B16  1  0.500000  0.975512  0.305536  1
  B  B17  1  0.500000  0.024300  0.694473  1
  B  B18  1  0.500000  0.474599  0.191779  1
  B  B19  1  0.500000  0.525485  0.808355  1
  Mo  Mo20  1  0.000000  0.128506  0.413848  1
  Mo  Mo21  1  0.000000  0.871420  0.585984  1
  Ir  Ir22  1  0.000000  0.645017  0.095058  1
  Ir  Ir23  1  0.000000  0.354959  0.905116  1
