# generated using pymatgen
data_Ho3Er3Si10
_symmetry_space_group_name_H-M   'P 1'
_cell_length_a   6.57969200
_cell_length_b   6.57969300
_cell_length_c   8.29261600
_cell_angle_alpha   90.00000000
_cell_angle_beta   90.00000000
_cell_angle_gamma   120.00000502
_symmetry_Int_Tables_number   1
_chemical_formula_structural   Ho3Er3Si10
_chemical_formula_sum   'Ho3 Er3 Si10'
_cell_volume   310.90904734
_cell_formula_units_Z   1
loop_
 _symmetry_equiv_pos_site_id
 _symmetry_equiv_pos_as_xyz
  1  'x, y, z'
loop_
 _atom_site_type_symbol
 _atom_site_label
 _atom_site_symmetry_multiplicity
 _atom_site_fract_x
 _atom_site_fract_y
 _atom_site_fract_z
 _atom_site_occupancy
  Ho  Ho0  1  0.000000  0.330030  0.000000  1
  Ho  Ho1  1  0.669970  0.669970  0.000000  1
  Ho  Ho2  1  0.330030  0.000000  0.000000  1
  Er  Er3  1  0.330250  0.000000  0.500000  1
  Er  Er4  1  0.669750  0.669750  0.500000  1
  Er  Er5  1  0.000000  0.330250  0.500000  1
  Si  Si6  1  0.000000  0.000000  0.749409  1
  Si  Si7  1  0.668407  0.062282  0.749217  1
  Si  Si8  1  0.393875  0.331593  0.749217  1
  Si  Si9  1  0.937718  0.606125  0.749217  1
  Si  Si10  1  0.333333  0.666667  0.749366  1
  Si  Si11  1  0.000000  0.000000  0.250591  1
  Si  Si12  1  0.666667  0.333333  0.250634  1
  Si  Si13  1  0.331593  0.393875  0.250783  1
  Si  Si14  1  0.062282  0.668407  0.250783  1
  Si  Si15  1  0.606125  0.937718  0.250783  1
