# generated using pymatgen
data_NdSc2SbO7
_symmetry_space_group_name_H-M   'P 1'
_cell_length_a   6.28612100
_cell_length_b   6.28612009
_cell_length_c   7.38599400
_cell_angle_alpha   90.00000000
_cell_angle_beta   90.00000000
_cell_angle_gamma   109.09552439
_symmetry_Int_Tables_number   1
_chemical_formula_structural   NdSc2SbO7
_chemical_formula_sum   'Nd2 Sc4 Sb2 O14'
_cell_volume   275.80011054
_cell_formula_units_Z   2
loop_
 _symmetry_equiv_pos_site_id
 _symmetry_equiv_pos_as_xyz
  1  'x, y, z'
loop_
 _atom_site_type_symbol
 _atom_site_label
 _atom_site_symmetry_multiplicity
 _atom_site_fract_x
 _atom_site_fract_y
 _atom_site_fract_z
 _atom_site_occupancy
  Nd  Nd0  1  0.500000  0.500000  0.500000  1
  Nd  Nd1  1  0.500000  0.500000  0.000000  1
  Sc  Sc2  1  0.525796  0.004292  0.750000  1
  Sc  Sc3  1  0.004292  0.525796  0.250000  1
  Sc  Sc4  1  0.474204  0.995708  0.250000  1
  Sc  Sc5  1  0.995708  0.474204  0.750000  1
  Sb  Sb6  1  0.000000  0.000000  0.500000  1
  Sb  Sb7  1  0.000000  0.000000  0.000000  1
  O  O8  1  0.671068  0.929662  0.464605  1
  O  O9  1  0.929662  0.671068  0.535395  1
  O  O10  1  0.671068  0.929662  0.035395  1
  O  O11  1  0.929662  0.671068  0.964605  1
  O  O12  1  0.328932  0.070338  0.535395  1
  O  O13  1  0.070338  0.328932  0.464605  1
  O  O14  1  0.328932  0.070338  0.964605  1
  O  O15  1  0.070338  0.328932  0.035395  1
  O  O16  1  0.923012  0.076988  0.750000  1
  O  O17  1  0.076988  0.923012  0.250000  1
  O  O18  1  0.352329  0.647671  0.750000  1
  O  O19  1  0.647671  0.352329  0.250000  1
  O  O20  1  0.653294  0.346706  0.750000  1
  O  O21  1  0.346706  0.653294  0.250000  1
