# generated using pymatgen
data_Tb2Sm2Y2NiI10
_symmetry_space_group_name_H-M   'P 1'
_cell_length_a   7.74233915
_cell_length_b   9.72887259
_cell_length_c   9.80176669
_cell_angle_alpha   107.26386724
_cell_angle_beta   96.82950876
_cell_angle_gamma   104.88521344
_symmetry_Int_Tables_number   1
_chemical_formula_structural   Tb2Sm2Y2NiI10
_chemical_formula_sum   'Tb2 Sm2 Y2 Ni1 I10'
_cell_volume   665.98097561
_cell_formula_units_Z   1
loop_
 _symmetry_equiv_pos_site_id
 _symmetry_equiv_pos_as_xyz
  1  'x, y, z'
loop_
 _atom_site_type_symbol
 _atom_site_label
 _atom_site_symmetry_multiplicity
 _atom_site_fract_x
 _atom_site_fract_y
 _atom_site_fract_z
 _atom_site_occupancy
  Tb  Tb0  1  0.029537  0.719856  0.915788  1
  Tb  Tb1  1  0.970463  0.280144  0.084212  1
  Sm  Sm2  1  0.885763  0.958953  0.238680  1
  Sm  Sm3  1  0.114237  0.041047  0.761320  1
  Y  Y4  1  0.658440  0.877941  0.838579  1
  Y  Y5  1  0.341560  0.122059  0.161421  1
  Ni  Ni6  1  0.000000  0.000000  0.000000  1
  I  I7  1  0.647512  0.549515  0.728470  1
  I  I8  1  0.352488  0.450485  0.271530  1
  I  I9  1  0.735247  0.910575  0.539312  1
  I  I10  1  0.264753  0.089425  0.460688  1
  I  I11  1  0.084101  0.374775  0.821566  1
  I  I12  1  0.915899  0.625225  0.178434  1
  I  I13  1  0.450727  0.815203  0.090612  1
  I  I14  1  0.549273  0.184797  0.909388  1
  I  I15  1  0.225339  0.739738  0.655598  1
  I  I16  1  0.774661  0.260262  0.344402  1
