# generated using pymatgen
data_Dy2Y3(TcB3)2
_symmetry_space_group_name_H-M   'P 1'
_cell_length_a   5.54317890
_cell_length_b   5.54318120
_cell_length_c   8.50628934
_cell_angle_alpha   70.98423078
_cell_angle_beta   70.98422518
_cell_angle_gamma   59.99998451
_symmetry_Int_Tables_number   1
_chemical_formula_structural   Dy2Y3(TcB3)2
_chemical_formula_sum   'Dy2 Y3 Tc2 B6'
_cell_volume   209.72279381
_cell_formula_units_Z   1
loop_
 _symmetry_equiv_pos_site_id
 _symmetry_equiv_pos_as_xyz
  1  'x, y, z'
loop_
 _atom_site_type_symbol
 _atom_site_label
 _atom_site_symmetry_multiplicity
 _atom_site_fract_x
 _atom_site_fract_y
 _atom_site_fract_z
 _atom_site_occupancy
  Dy  Dy0  1  0.999992  0.999992  0.000025  1
  Dy  Dy1  1  0.581369  0.581369  0.255894  1
  Y  Y2  1  0.247858  0.247858  0.256425  1
  Y  Y3  1  0.752141  0.752141  0.743576  1
  Y  Y4  1  0.418592  0.418592  0.744225  1
  Tc  Tc5  1  0.111144  0.111144  0.666569  1
  Tc  Tc6  1  0.888849  0.888849  0.333454  1
  B  B7  1  0.170968  0.829068  0.499972  1
  B  B8  1  0.829068  0.499992  0.499972  1
  B  B9  1  0.499992  0.170968  0.499972  1
  B  B10  1  0.170968  0.499992  0.499972  1
  B  B11  1  0.499992  0.829068  0.499972  1
  B  B12  1  0.829068  0.170968  0.499972  1
