# generated using pymatgen
data_Rb2Na2AuO4
_symmetry_space_group_name_H-M   'P 1'
_cell_length_a   11.32876300
_cell_length_b   6.29925249
_cell_length_c   9.92347240
_cell_angle_alpha   66.08640142
_cell_angle_beta   90.00000000
_cell_angle_gamma   90.00000000
_symmetry_Int_Tables_number   1
_chemical_formula_structural   Rb2Na2AuO4
_chemical_formula_sum   'Rb8 Na8 Au4 O16'
_cell_volume   647.37560497
_cell_formula_units_Z   4
loop_
 _symmetry_equiv_pos_site_id
 _symmetry_equiv_pos_as_xyz
  1  'x, y, z'
loop_
 _atom_site_type_symbol
 _atom_site_label
 _atom_site_symmetry_multiplicity
 _atom_site_fract_x
 _atom_site_fract_y
 _atom_site_fract_z
 _atom_site_occupancy
  Rb  Rb0  1  0.865439  0.350070  0.771568  1
  Rb  Rb1  1  0.136440  0.331253  0.002616  1
  Rb  Rb2  1  0.636440  0.668747  0.497384  1
  Rb  Rb3  1  0.363560  0.331253  0.502616  1
  Rb  Rb4  1  0.365439  0.649930  0.728432  1
  Rb  Rb5  1  0.134561  0.649930  0.228432  1
  Rb  Rb6  1  0.634561  0.350070  0.271568  1
  Rb  Rb7  1  0.863560  0.668747  0.997384  1
  Na  Na8  1  0.610001  0.936855  0.094061  1
  Na  Na9  1  0.608414  0.439122  0.910258  1
  Na  Na10  1  0.891586  0.439122  0.410258  1
  Na  Na11  1  0.889999  0.936855  0.594061  1
  Na  Na12  1  0.108414  0.560878  0.589742  1
  Na  Na13  1  0.110001  0.063145  0.405939  1
  Na  Na14  1  0.391586  0.560878  0.089742  1
  Na  Na15  1  0.389999  0.063145  0.905939  1
  Au  Au16  1  0.867344  0.011168  0.235411  1
  Au  Au17  1  0.632656  0.011168  0.735411  1
  Au  Au18  1  0.367344  0.988832  0.264589  1
  Au  Au19  1  0.132656  0.988832  0.764589  1
  O  O20  1  0.960371  0.791868  0.412193  1
  O  O21  1  0.460243  0.717472  0.263193  1
  O  O22  1  0.273863  0.262540  0.260233  1
  O  O23  1  0.732113  0.218039  0.562726  1
  O  O24  1  0.267887  0.781961  0.437274  1
  O  O25  1  0.539629  0.791868  0.912193  1
  O  O26  1  0.773863  0.737460  0.239767  1
  O  O27  1  0.767887  0.218039  0.062726  1
  O  O28  1  0.960243  0.282528  0.236807  1
  O  O29  1  0.232113  0.781961  0.937274  1
  O  O30  1  0.039629  0.208132  0.587807  1
  O  O31  1  0.226137  0.262540  0.760233  1
  O  O32  1  0.539757  0.282528  0.736807  1
  O  O33  1  0.039757  0.717472  0.763193  1
  O  O34  1  0.726137  0.737460  0.739767  1
  O  O35  1  0.460371  0.208132  0.087807  1
