# generated using pymatgen
data_Sc(NbS2)4
_symmetry_space_group_name_H-M   'P 1'
_cell_length_a   6.72055900
_cell_length_b   6.72055854
_cell_length_c   13.02306700
_cell_angle_alpha   90.00000000
_cell_angle_beta   90.00000000
_cell_angle_gamma   120.00000719
_symmetry_Int_Tables_number   1
_chemical_formula_structural   Sc(NbS2)4
_chemical_formula_sum   'Sc2 Nb8 S16'
_cell_volume   509.39495746
_cell_formula_units_Z   2
loop_
 _symmetry_equiv_pos_site_id
 _symmetry_equiv_pos_as_xyz
  1  'x, y, z'
loop_
 _atom_site_type_symbol
 _atom_site_label
 _atom_site_symmetry_multiplicity
 _atom_site_fract_x
 _atom_site_fract_y
 _atom_site_fract_z
 _atom_site_occupancy
  Sc  Sc0  1  0.000000  0.000000  0.500000  1
  Sc  Sc1  1  0.000000  0.000000  0.000000  1
  Nb  Nb2  1  0.504781  0.495219  0.750000  1
  Nb  Nb3  1  0.009562  0.504781  0.250000  1
  Nb  Nb4  1  0.495219  0.990438  0.250000  1
  Nb  Nb5  1  0.504781  0.009562  0.750000  1
  Nb  Nb6  1  0.990438  0.495219  0.750000  1
  Nb  Nb7  1  0.495219  0.504781  0.250000  1
  Nb  Nb8  1  0.000000  0.000000  0.750000  1
  Nb  Nb9  1  0.000000  0.000000  0.250000  1
  S  S10  1  0.832373  0.167627  0.370881  1
  S  S11  1  0.832373  0.664747  0.370881  1
  S  S12  1  0.335253  0.167627  0.370881  1
  S  S13  1  0.664747  0.832373  0.870881  1
  S  S14  1  0.167627  0.335253  0.629119  1
  S  S15  1  0.167627  0.832373  0.870881  1
  S  S16  1  0.167627  0.335253  0.870881  1
  S  S17  1  0.832373  0.167627  0.129119  1
  S  S18  1  0.335253  0.167627  0.129119  1
  S  S19  1  0.664747  0.832373  0.629119  1
  S  S20  1  0.333333  0.666667  0.127621  1
  S  S21  1  0.666667  0.333333  0.627621  1
  S  S22  1  0.666667  0.333333  0.872379  1
  S  S23  1  0.333333  0.666667  0.372379  1
  S  S24  1  0.832373  0.664747  0.129119  1
  S  S25  1  0.167627  0.832373  0.629119  1
