# generated using pymatgen
data_KSbCO5
_symmetry_space_group_name_H-M   'P 1'
_cell_length_a   6.78128730
_cell_length_b   6.78128718
_cell_length_c   5.90285600
_cell_angle_alpha   90.00000000
_cell_angle_beta   90.00000000
_cell_angle_gamma   107.64342628
_symmetry_Int_Tables_number   1
_chemical_formula_structural   KSbCO5
_chemical_formula_sum   'K2 Sb2 C2 O10'
_cell_volume   258.67931167
_cell_formula_units_Z   2
loop_
 _symmetry_equiv_pos_site_id
 _symmetry_equiv_pos_as_xyz
  1  'x, y, z'
loop_
 _atom_site_type_symbol
 _atom_site_label
 _atom_site_symmetry_multiplicity
 _atom_site_fract_x
 _atom_site_fract_y
 _atom_site_fract_z
 _atom_site_occupancy
  K  K0  1  0.392163  0.607837  0.250000  1
  K  K1  1  0.607837  0.392163  0.750000  1
  Sb  Sb2  1  0.000000  0.000000  0.000000  1
  Sb  Sb3  1  0.000000  0.000000  0.500000  1
  C  C4  1  0.751691  0.248309  0.250000  1
  C  C5  1  0.248309  0.751691  0.750000  1
  O  O6  1  0.638111  0.361889  0.250000  1
  O  O7  1  0.361889  0.638111  0.750000  1
  O  O8  1  0.811171  0.188829  0.052957  1
  O  O9  1  0.188829  0.811171  0.947043  1
  O  O10  1  0.188829  0.811171  0.552957  1
  O  O11  1  0.811171  0.188829  0.447043  1
  O  O12  1  0.851787  0.815868  0.250000  1
  O  O13  1  0.148213  0.184132  0.750000  1
  O  O14  1  0.184132  0.148213  0.250000  1
  O  O15  1  0.815868  0.851787  0.750000  1
