# generated using pymatgen
data_HoScV3Si7Pt9
_symmetry_space_group_name_H-M   'P 1'
_cell_length_a   9.86137000
_cell_length_b   9.86137142
_cell_length_c   3.89185400
_cell_angle_alpha   90.00000000
_cell_angle_beta   90.00000000
_cell_angle_gamma   120.00000194
_symmetry_Int_Tables_number   1
_chemical_formula_structural   HoScV3Si7Pt9
_chemical_formula_sum   'Ho1 Sc1 V3 Si7 Pt9'
_cell_volume   327.76436392
_cell_formula_units_Z   1
loop_
 _symmetry_equiv_pos_site_id
 _symmetry_equiv_pos_as_xyz
  1  'x, y, z'
loop_
 _atom_site_type_symbol
 _atom_site_label
 _atom_site_symmetry_multiplicity
 _atom_site_fract_x
 _atom_site_fract_y
 _atom_site_fract_z
 _atom_site_occupancy
  Ho  Ho0  1  0.333333  0.666667  0.500000  1
  Sc  Sc1  1  0.000000  0.000000  0.000000  1
  V  V2  1  0.881007  0.450831  0.500000  1
  V  V3  1  0.569825  0.118993  0.500000  1
  V  V4  1  0.549169  0.430175  0.500000  1
  Si  Si5  1  0.254362  0.209114  0.500000  1
  Si  Si6  1  0.790886  0.045249  0.500000  1
  Si  Si7  1  0.954751  0.745638  0.500000  1
  Si  Si8  1  0.554274  0.634040  0.000000  1
  Si  Si9  1  0.365960  0.920233  0.000000  1
  Si  Si10  1  0.079767  0.445726  0.000000  1
  Si  Si11  1  0.666667  0.333333  0.000000  1
  Pt  Pt12  1  0.220695  0.944824  0.500000  1
  Pt  Pt13  1  0.055176  0.275871  0.500000  1
  Pt  Pt14  1  0.724129  0.779305  0.500000  1
  Pt  Pt15  1  0.306552  0.409544  0.000000  1
  Pt  Pt16  1  0.590456  0.897008  0.000000  1
  Pt  Pt17  1  0.102992  0.693448  0.000000  1
  Pt  Pt18  1  0.390440  0.177302  0.000000  1
  Pt  Pt19  1  0.822698  0.213138  0.000000  1
  Pt  Pt20  1  0.786862  0.609560  0.000000  1
