# generated using pymatgen
data_Lu3(Ni10P3)2
_symmetry_space_group_name_H-M   'P 1'
_cell_length_a   7.93136152
_cell_length_b   7.93136154
_cell_length_c   7.93136200
_cell_angle_alpha   60.00000642
_cell_angle_beta   60.00000633
_cell_angle_gamma   60.00000431
_symmetry_Int_Tables_number   1
_chemical_formula_structural   Lu3(Ni10P3)2
_chemical_formula_sum   'Lu3 Ni20 P6'
_cell_volume   352.79979426
_cell_formula_units_Z   1
loop_
 _symmetry_equiv_pos_site_id
 _symmetry_equiv_pos_as_xyz
  1  'x, y, z'
loop_
 _atom_site_type_symbol
 _atom_site_label
 _atom_site_symmetry_multiplicity
 _atom_site_fract_x
 _atom_site_fract_y
 _atom_site_fract_z
 _atom_site_occupancy
  Lu  Lu0  1  0.000000  0.000000  0.000000  1
  Lu  Lu1  1  0.250000  0.250000  0.250000  1
  Lu  Lu2  1  0.750000  0.750000  0.750000  1
  Ni  Ni3  1  0.386191  0.386191  0.841427  1
  Ni  Ni4  1  0.613810  0.613810  0.613809  1
  Ni  Ni5  1  0.000000  0.351805  0.000000  1
  Ni  Ni6  1  0.351805  0.000000  0.000000  1
  Ni  Ni7  1  0.000000  0.351805  0.648195  1
  Ni  Ni8  1  0.841427  0.386191  0.386190  1
  Ni  Ni9  1  0.351805  0.000000  0.648195  1
  Ni  Ni10  1  0.000000  0.000000  0.351805  1
  Ni  Ni11  1  0.648195  0.351805  0.000000  1
  Ni  Ni12  1  0.000000  0.648195  0.351805  1
  Ni  Ni13  1  0.000000  0.000000  0.648195  1
  Ni  Ni14  1  0.351805  0.648195  0.000000  1
  Ni  Ni15  1  0.648195  0.000000  0.000000  1
  Ni  Ni16  1  0.000000  0.648195  0.000000  1
  Ni  Ni17  1  0.386191  0.841428  0.386191  1
  Ni  Ni18  1  0.613809  0.613810  0.158572  1
  Ni  Ni19  1  0.613809  0.158573  0.613809  1
  Ni  Ni20  1  0.158573  0.613810  0.613810  1
  Ni  Ni21  1  0.386190  0.386191  0.386190  1
  Ni  Ni22  1  0.648195  0.000000  0.351805  1
  P  P23  1  0.262220  0.262220  0.737780  1
  P  P24  1  0.737780  0.737780  0.262220  1
  P  P25  1  0.737780  0.262220  0.262220  1
  P  P26  1  0.262220  0.737780  0.737780  1
  P  P27  1  0.262220  0.737780  0.262220  1
  P  P28  1  0.737780  0.262220  0.737780  1
