# generated using pymatgen
data_Tm5Hf5(Si5Ir2)4
_symmetry_space_group_name_H-M   'P 1'
_cell_length_a   12.46754400
_cell_length_b   12.46754400
_cell_length_c   4.15824900
_cell_angle_alpha   90.00000000
_cell_angle_beta   90.00000000
_cell_angle_gamma   90.00000000
_symmetry_Int_Tables_number   1
_chemical_formula_structural   Tm5Hf5(Si5Ir2)4
_chemical_formula_sum   'Tm5 Hf5 Si20 Ir8'
_cell_volume   646.35678328
_cell_formula_units_Z   1
loop_
 _symmetry_equiv_pos_site_id
 _symmetry_equiv_pos_as_xyz
  1  'x, y, z'
loop_
 _atom_site_type_symbol
 _atom_site_label
 _atom_site_symmetry_multiplicity
 _atom_site_fract_x
 _atom_site_fract_y
 _atom_site_fract_z
 _atom_site_occupancy
  Tm  Tm0  1  0.000000  0.000000  0.000000  1
  Tm  Tm1  1  0.884091  0.384378  0.500000  1
  Tm  Tm2  1  0.115909  0.615622  0.500000  1
  Tm  Tm3  1  0.384378  0.115909  0.500000  1
  Tm  Tm4  1  0.615622  0.884091  0.500000  1
  Hf  Hf5  1  0.500000  0.500000  0.000000  1
  Hf  Hf6  1  0.673478  0.175055  0.500000  1
  Hf  Hf7  1  0.326522  0.824945  0.500000  1
  Hf  Hf8  1  0.175055  0.326522  0.500000  1
  Hf  Hf9  1  0.824945  0.673478  0.500000  1
  Si  Si10  1  0.565604  0.067453  0.000000  1
  Si  Si11  1  0.434396  0.932547  0.000000  1
  Si  Si12  1  0.067453  0.434396  0.000000  1
  Si  Si13  1  0.932547  0.565604  0.000000  1
  Si  Si14  1  0.665835  0.701437  0.000000  1
  Si  Si15  1  0.334165  0.298563  0.000000  1
  Si  Si16  1  0.164216  0.800699  0.000000  1
  Si  Si17  1  0.835784  0.199301  0.000000  1
  Si  Si18  1  0.298563  0.665835  0.000000  1
  Si  Si19  1  0.701437  0.334165  0.000000  1
  Si  Si20  1  0.199301  0.164216  0.000000  1
  Si  Si21  1  0.800699  0.835784  0.000000  1
  Si  Si22  1  0.651330  0.507686  0.500000  1
  Si  Si23  1  0.348670  0.492314  0.500000  1
  Si  Si24  1  0.155944  0.992781  0.500000  1
  Si  Si25  1  0.844056  0.007219  0.500000  1
  Si  Si26  1  0.492314  0.651330  0.500000  1
  Si  Si27  1  0.507686  0.348670  0.500000  1
  Si  Si28  1  0.007219  0.155944  0.500000  1
  Si  Si29  1  0.992781  0.844056  0.500000  1
  Ir  Ir30  1  0.742702  0.521035  0.000000  1
  Ir  Ir31  1  0.257298  0.478965  0.000000  1
  Ir  Ir32  1  0.246552  0.978649  0.000000  1
  Ir  Ir33  1  0.753448  0.021351  0.000000  1
  Ir  Ir34  1  0.478965  0.742702  0.000000  1
  Ir  Ir35  1  0.521035  0.257298  0.000000  1
  Ir  Ir36  1  0.021351  0.246552  0.000000  1
  Ir  Ir37  1  0.978649  0.753448  0.000000  1
