# generated using pymatgen
data_Tb12Sm7MgPb16
_symmetry_space_group_name_H-M   'P 1'
_cell_length_a   8.26621909
_cell_length_b   8.36629989
_cell_length_c   15.78227600
_cell_angle_alpha   90.01973709
_cell_angle_beta   90.10196665
_cell_angle_gamma   89.94835540
_symmetry_Int_Tables_number   1
_chemical_formula_structural   Tb12Sm7MgPb16
_chemical_formula_sum   'Tb12 Sm7 Mg1 Pb16'
_cell_volume   1091.46316585
_cell_formula_units_Z   1
loop_
 _symmetry_equiv_pos_site_id
 _symmetry_equiv_pos_as_xyz
  1  'x, y, z'
loop_
 _atom_site_type_symbol
 _atom_site_label
 _atom_site_symmetry_multiplicity
 _atom_site_fract_x
 _atom_site_fract_y
 _atom_site_fract_z
 _atom_site_occupancy
  Tb  Tb0  1  0.625639  0.160208  0.620718  1
  Tb  Tb1  1  0.126351  0.342137  0.879091  1
  Tb  Tb2  1  0.380988  0.842395  0.121486  1
  Tb  Tb3  1  0.873057  0.661885  0.379433  1
  Tb  Tb4  1  0.382161  0.842287  0.378988  1
  Tb  Tb5  1  0.872100  0.661864  0.120869  1
  Tb  Tb6  1  0.625992  0.159776  0.878694  1
  Tb  Tb7  1  0.125383  0.342075  0.620493  1
  Tb  Tb8  1  0.466566  0.676359  0.600439  1
  Tb  Tb9  1  0.792228  0.495592  0.749646  1
  Tb  Tb10  1  0.292523  0.003926  0.749677  1
  Tb  Tb11  1  0.205201  0.504892  0.250347  1
  Sm  Sm12  1  0.969165  0.823007  0.900685  1
  Sm  Sm13  1  0.532117  0.318030  0.098902  1
  Sm  Sm14  1  0.028542  0.175167  0.401274  1
  Sm  Sm15  1  0.532826  0.318850  0.401094  1
  Sm  Sm16  1  0.027334  0.175345  0.098525  1
  Sm  Sm17  1  0.469668  0.677387  0.900740  1
  Sm  Sm18  1  0.968827  0.822893  0.598923  1
  Mg  Mg19  1  0.708434  0.995582  0.250103  1
  Pb  Pb20  1  0.715539  0.963835  0.457363  1
  Pb  Pb21  1  0.214764  0.535573  0.044095  1
  Pb  Pb22  1  0.285827  0.036428  0.957242  1
  Pb  Pb23  1  0.782725  0.466862  0.543232  1
  Pb  Pb24  1  0.286058  0.034875  0.542955  1
  Pb  Pb25  1  0.785757  0.463949  0.957182  1
  Pb  Pb26  1  0.714651  0.962915  0.042207  1
  Pb  Pb27  1  0.216541  0.536334  0.456887  1
  Pb  Pb28  1  0.429700  0.373834  0.749823  1
  Pb  Pb29  1  0.929789  0.125672  0.749855  1
  Pb  Pb30  1  0.572155  0.622294  0.250142  1
  Pb  Pb31  1  0.067877  0.877272  0.250158  1
  Pb  Pb32  1  0.656370  0.849382  0.748941  1
  Pb  Pb33  1  0.158339  0.651312  0.749719  1
  Pb  Pb34  1  0.336928  0.149791  0.250046  1
  Pb  Pb35  1  0.841877  0.350013  0.250026  1
