# generated using pymatgen
data_Tm6Al24ZnFe5Ru2
_symmetry_space_group_name_H-M   'P 1'
_cell_length_a   8.67031825
_cell_length_b   8.67031843
_cell_length_c   9.35379417
_cell_angle_alpha   90.31999600
_cell_angle_beta   89.68000577
_cell_angle_gamma   119.74701989
_symmetry_Int_Tables_number   1
_chemical_formula_structural   Tm6Al24ZnFe5Ru2
_chemical_formula_sum   'Tm6 Al24 Zn1 Fe5 Ru2'
_cell_volume   610.49335304
_cell_formula_units_Z   1
loop_
 _symmetry_equiv_pos_site_id
 _symmetry_equiv_pos_as_xyz
  1  'x, y, z'
loop_
 _atom_site_type_symbol
 _atom_site_label
 _atom_site_symmetry_multiplicity
 _atom_site_fract_x
 _atom_site_fract_y
 _atom_site_fract_z
 _atom_site_occupancy
  Tm  Tm0  1  0.804384  0.195616  0.745943  1
  Tm  Tm1  1  0.195616  0.804384  0.254057  1
  Tm  Tm2  1  0.387168  0.192244  0.754563  1
  Tm  Tm3  1  0.612832  0.807756  0.245437  1
  Tm  Tm4  1  0.807756  0.612832  0.754563  1
  Tm  Tm5  1  0.192244  0.387168  0.245437  1
  Al  Al6  1  0.673795  0.326205  0.981792  1
  Al  Al7  1  0.326205  0.673795  0.018208  1
  Al  Al8  1  0.337187  0.662813  0.481962  1
  Al  Al9  1  0.662813  0.337187  0.518038  1
  Al  Al10  1  0.839761  0.160239  0.421447  1
  Al  Al11  1  0.160239  0.839761  0.578553  1
  Al  Al12  1  0.320238  0.162821  0.425765  1
  Al  Al13  1  0.161200  0.838800  0.923928  1
  Al  Al14  1  0.679762  0.837179  0.574235  1
  Al  Al15  1  0.838800  0.161200  0.076072  1
  Al  Al16  1  0.837179  0.679762  0.425765  1
  Al  Al17  1  0.681066  0.852603  0.921385  1
  Al  Al18  1  0.162821  0.320238  0.574235  1
  Al  Al19  1  0.318934  0.147397  0.078615  1
  Al  Al20  1  0.147397  0.318934  0.921385  1
  Al  Al21  1  0.852603  0.681066  0.078615  1
  Al  Al22  1  0.438121  0.561879  0.740623  1
  Al  Al23  1  0.561879  0.438121  0.259377  1
  Al  Al24  1  0.119728  0.560439  0.756125  1
  Al  Al25  1  0.880272  0.439561  0.243875  1
  Al  Al26  1  0.439561  0.880272  0.756125  1
  Al  Al27  1  0.560439  0.119728  0.243875  1
  Al  Al28  1  0.000642  0.999358  0.749508  1
  Al  Al29  1  0.999358  0.000642  0.250492  1
  Zn  Zn30  1  0.500000  0.500000  0.000000  1
  Fe  Fe31  1  0.000000  0.500000  0.000000  1
  Fe  Fe32  1  0.500000  0.500000  0.500000  1
  Fe  Fe33  1  0.500000  0.000000  0.000000  1
  Fe  Fe34  1  0.000000  0.000000  0.000000  1
  Fe  Fe35  1  0.000000  0.000000  0.500000  1
  Ru  Ru36  1  0.000000  0.500000  0.500000  1
  Ru  Ru37  1  0.500000  0.000000  0.500000  1
