# generated using pymatgen
data_Tb(YPt2)9
_symmetry_space_group_name_H-M   'P 1'
_cell_length_a   9.80954400
_cell_length_b   9.80954401
_cell_length_c   5.79275600
_cell_angle_alpha   90.00000000
_cell_angle_beta   90.00000000
_cell_angle_gamma   90.00239474
_symmetry_Int_Tables_number   1
_chemical_formula_structural   Tb(YPt2)9
_chemical_formula_sum   'Tb1 Y9 Pt18'
_cell_volume   557.42042073
_cell_formula_units_Z   1
loop_
 _symmetry_equiv_pos_site_id
 _symmetry_equiv_pos_as_xyz
  1  'x, y, z'
loop_
 _atom_site_type_symbol
 _atom_site_label
 _atom_site_symmetry_multiplicity
 _atom_site_fract_x
 _atom_site_fract_y
 _atom_site_fract_z
 _atom_site_occupancy
  Tb  Tb0  1  0.000000  0.000000  0.000000  1
  Y  Y1  1  0.453253  0.808885  0.000000  1
  Y  Y2  1  0.546747  0.191115  0.000000  1
  Y  Y3  1  0.191115  0.546747  0.000000  1
  Y  Y4  1  0.808885  0.453253  0.000000  1
  Y  Y5  1  0.500000  0.500000  0.500000  1
  Y  Y6  1  0.308968  0.046995  0.500000  1
  Y  Y7  1  0.691032  0.953005  0.500000  1
  Y  Y8  1  0.953005  0.691032  0.500000  1
  Y  Y9  1  0.046995  0.308968  0.500000  1
  Pt  Pt10  1  0.192170  0.807830  0.250877  1
  Pt  Pt11  1  0.807830  0.192170  0.749123  1
  Pt  Pt12  1  0.807830  0.192170  0.250877  1
  Pt  Pt13  1  0.192170  0.807830  0.749123  1
  Pt  Pt14  1  0.440460  0.781227  0.500000  1
  Pt  Pt15  1  0.559540  0.218773  0.500000  1
  Pt  Pt16  1  0.218773  0.559540  0.500000  1
  Pt  Pt17  1  0.781227  0.440460  0.500000  1
  Pt  Pt18  1  0.307931  0.307931  0.249185  1
  Pt  Pt19  1  0.692069  0.692069  0.750815  1
  Pt  Pt20  1  0.692069  0.692069  0.249185  1
  Pt  Pt21  1  0.307931  0.307931  0.750815  1
  Pt  Pt22  1  0.281044  0.059606  0.000000  1
  Pt  Pt23  1  0.718956  0.940394  0.000000  1
  Pt  Pt24  1  0.940394  0.718956  0.000000  1
  Pt  Pt25  1  0.059606  0.281044  0.000000  1
  Pt  Pt26  1  0.000000  0.000000  0.500000  1
  Pt  Pt27  1  0.500000  0.500000  0.000000  1
