# generated using pymatgen
data_ZnAs2PbO7
_symmetry_space_group_name_H-M   'P 1'
_cell_length_a   8.51009700
_cell_length_b   5.70385700
_cell_length_c   14.19540600
_cell_angle_alpha   68.52254733
_cell_angle_beta   90.00000000
_cell_angle_gamma   90.00000000
_symmetry_Int_Tables_number   1
_chemical_formula_structural   ZnAs2PbO7
_chemical_formula_sum   'Zn4 As8 Pb4 O28'
_cell_volume   641.20388084
_cell_formula_units_Z   4
loop_
 _symmetry_equiv_pos_site_id
 _symmetry_equiv_pos_as_xyz
  1  'x, y, z'
loop_
 _atom_site_type_symbol
 _atom_site_label
 _atom_site_symmetry_multiplicity
 _atom_site_fract_x
 _atom_site_fract_y
 _atom_site_fract_z
 _atom_site_occupancy
  Zn  Zn0  1  0.356895  0.727001  0.610283  1
  Zn  Zn1  1  0.856895  0.272999  0.889717  1
  Zn  Zn2  1  0.643105  0.272999  0.389717  1
  Zn  Zn3  1  0.143105  0.727001  0.110283  1
  As  As4  1  0.692658  0.661798  0.511667  1
  As  As5  1  0.192658  0.338202  0.988333  1
  As  As6  1  0.307342  0.338202  0.488333  1
  As  As7  1  0.807342  0.661798  0.011667  1
  As  As8  1  0.974812  0.584157  0.660348  1
  As  As9  1  0.474812  0.415843  0.839652  1
  As  As10  1  0.025188  0.415843  0.339652  1
  As  As11  1  0.525188  0.584157  0.160348  1
  Pb  Pb12  1  0.186662  0.022123  0.776829  1
  Pb  Pb13  1  0.686662  0.977877  0.723171  1
  Pb  Pb14  1  0.813338  0.977877  0.223171  1
  Pb  Pb15  1  0.313338  0.022123  0.276829  1
  O  O16  1  0.664782  0.502822  0.846988  1
  O  O17  1  0.164782  0.497178  0.653012  1
  O  O18  1  0.335218  0.497178  0.153012  1
  O  O19  1  0.835218  0.502822  0.346988  1
  O  O20  1  0.454332  0.167967  0.801252  1
  O  O21  1  0.954332  0.832033  0.698748  1
  O  O22  1  0.545668  0.832033  0.198748  1
  O  O23  1  0.045668  0.167967  0.301252  1
  O  O24  1  0.377335  0.681736  0.765211  1
  O  O25  1  0.877335  0.318264  0.734789  1
  O  O26  1  0.622665  0.318264  0.234789  1
  O  O27  1  0.122665  0.681736  0.265211  1
  O  O28  1  0.151496  0.638096  0.980795  1
  O  O29  1  0.651496  0.361904  0.519205  1
  O  O30  1  0.848504  0.361904  0.019205  1
  O  O31  1  0.348504  0.638096  0.480795  1
  O  O32  1  0.100749  0.321911  0.465112  1
  O  O33  1  0.600749  0.678089  0.034888  1
  O  O34  1  0.899251  0.678089  0.534888  1
  O  O35  1  0.399251  0.321911  0.965112  1
  O  O36  1  0.401281  0.273905  0.393513  1
  O  O37  1  0.901281  0.726095  0.106487  1
  O  O38  1  0.598719  0.726095  0.606487  1
  O  O39  1  0.098719  0.273905  0.893513  1
  O  O40  1  0.176084  0.090375  0.101664  1
  O  O41  1  0.676084  0.909625  0.398336  1
  O  O42  1  0.823916  0.909625  0.898336  1
  O  O43  1  0.323916  0.090375  0.601664  1
