# generated using pymatgen
data_Er2ThCo9(NiB2)2
_symmetry_space_group_name_H-M   'P 1'
_cell_length_a   5.00589600
_cell_length_b   5.00589591
_cell_length_c   9.83353000
_cell_angle_alpha   90.00000000
_cell_angle_beta   90.00000000
_cell_angle_gamma   120.00000060
_symmetry_Int_Tables_number   1
_chemical_formula_structural   Er2ThCo9(NiB2)2
_chemical_formula_sum   'Er2 Th1 Co9 Ni2 B4'
_cell_volume   213.40456909
_cell_formula_units_Z   1
loop_
 _symmetry_equiv_pos_site_id
 _symmetry_equiv_pos_as_xyz
  1  'x, y, z'
loop_
 _atom_site_type_symbol
 _atom_site_label
 _atom_site_symmetry_multiplicity
 _atom_site_fract_x
 _atom_site_fract_y
 _atom_site_fract_z
 _atom_site_occupancy
  Er  Er0  1  0.000000  0.000000  0.655397  1
  Er  Er1  1  0.000000  0.000000  0.344603  1
  Th  Th2  1  0.000000  0.000000  0.000000  1
  Co  Co3  1  0.500000  0.500000  0.500000  1
  Co  Co4  1  0.500000  0.000000  0.500000  1
  Co  Co5  1  0.000000  0.500000  0.500000  1
  Co  Co6  1  0.500000  0.500000  0.794061  1
  Co  Co7  1  0.500000  0.000000  0.794061  1
  Co  Co8  1  0.000000  0.500000  0.794061  1
  Co  Co9  1  0.500000  0.500000  0.205939  1
  Co  Co10  1  0.500000  0.000000  0.205939  1
  Co  Co11  1  0.000000  0.500000  0.205939  1
  Ni  Ni12  1  0.666667  0.333333  0.000000  1
  Ni  Ni13  1  0.333333  0.666667  0.000000  1
  B  B14  1  0.666667  0.333333  0.649727  1
  B  B15  1  0.333333  0.666667  0.649727  1
  B  B16  1  0.333333  0.666667  0.350273  1
  B  B17  1  0.666667  0.333333  0.350273  1
