# generated using pymatgen
data_Dy5Er3(TmSn3)2
_symmetry_space_group_name_H-M   'P 1'
_cell_length_a   8.92849100
_cell_length_b   8.92269295
_cell_length_c   6.49466700
_cell_angle_alpha   90.00111626
_cell_angle_beta   90.00000000
_cell_angle_gamma   120.02150155
_symmetry_Int_Tables_number   1
_chemical_formula_structural   Dy5Er3(TmSn3)2
_chemical_formula_sum   'Dy5 Er3 Tm2 Sn6'
_cell_volume   447.98904794
_cell_formula_units_Z   1
loop_
 _symmetry_equiv_pos_site_id
 _symmetry_equiv_pos_as_xyz
  1  'x, y, z'
loop_
 _atom_site_type_symbol
 _atom_site_label
 _atom_site_symmetry_multiplicity
 _atom_site_fract_x
 _atom_site_fract_y
 _atom_site_fract_z
 _atom_site_occupancy
  Dy  Dy0  1  0.000148  0.761480  0.750006  1
  Dy  Dy1  1  0.000088  0.238647  0.249993  1
  Dy  Dy2  1  0.761441  0.761353  0.250007  1
  Dy  Dy3  1  0.761030  0.000000  0.750000  1
  Dy  Dy4  1  0.238669  0.238520  0.749994  1
  Er  Er5  1  0.238841  0.000000  0.250000  1
  Er  Er6  1  0.666641  0.333304  0.499900  1
  Er  Er7  1  0.333337  0.666696  0.000100  1
  Tm  Tm8  1  0.333301  0.666688  0.499934  1
  Tm  Tm9  1  0.666613  0.333312  0.000066  1
  Sn  Sn10  1  0.396023  0.000000  0.750000  1
  Sn  Sn11  1  0.395658  0.395131  0.249995  1
  Sn  Sn12  1  0.000528  0.604869  0.250005  1
  Sn  Sn13  1  0.000041  0.395982  0.750003  1
  Sn  Sn14  1  0.604059  0.604018  0.749997  1
  Sn  Sn15  1  0.603584  0.000000  0.250000  1
