# generated using pymatgen
data_Rb4BaCr2O8
_symmetry_space_group_name_H-M   'P 1'
_cell_length_a   8.34221744
_cell_length_b   8.72958273
_cell_length_c   10.46163000
_cell_angle_alpha   114.65914426
_cell_angle_beta   113.49727063
_cell_angle_gamma   89.99999302
_symmetry_Int_Tables_number   1
_chemical_formula_structural   Rb4BaCr2O8
_chemical_formula_sum   'Rb8 Ba2 Cr4 O16'
_cell_volume   622.19278768
_cell_formula_units_Z   2
loop_
 _symmetry_equiv_pos_site_id
 _symmetry_equiv_pos_as_xyz
  1  'x, y, z'
loop_
 _atom_site_type_symbol
 _atom_site_label
 _atom_site_symmetry_multiplicity
 _atom_site_fract_x
 _atom_site_fract_y
 _atom_site_fract_z
 _atom_site_occupancy
  Rb  Rb0  1  0.726634  0.078903  0.157804  1
  Rb  Rb1  1  0.431172  0.578903  0.157804  1
  Rb  Rb2  1  0.254291  0.504291  0.508581  1
  Rb  Rb3  1  0.254291  0.004290  0.508581  1
  Rb  Rb4  1  0.745709  0.995710  0.491419  1
  Rb  Rb5  1  0.745709  0.495709  0.491419  1
  Rb  Rb6  1  0.568829  0.421097  0.842196  1
  Rb  Rb7  1  0.273366  0.921097  0.842196  1
  Ba  Ba8  1  0.000000  0.250000  0.000000  1
  Ba  Ba9  1  0.000000  0.750000  0.000000  1
  Cr  Cr10  1  0.329971  0.126559  0.253118  1
  Cr  Cr11  1  0.923147  0.626559  0.253118  1
  Cr  Cr12  1  0.076853  0.373441  0.746883  1
  Cr  Cr13  1  0.670029  0.873441  0.746883  1
  O  O14  1  0.368006  0.242461  0.164994  1
  O  O15  1  0.796987  0.422533  0.164994  1
  O  O16  1  0.796987  0.742462  0.164994  1
  O  O17  1  0.368006  0.922533  0.164994  1
  O  O18  1  0.100576  0.102495  0.204991  1
  O  O19  1  0.104414  0.602495  0.204991  1
  O  O20  1  0.450540  0.226685  0.453372  1
  O  O21  1  0.002831  0.726685  0.453372  1
  O  O22  1  0.997169  0.273315  0.546629  1
  O  O23  1  0.549462  0.773315  0.546629  1
  O  O24  1  0.895586  0.397505  0.795009  1
  O  O25  1  0.899424  0.897505  0.795009  1
  O  O26  1  0.631992  0.077467  0.835005  1
  O  O27  1  0.203012  0.257539  0.835005  1
  O  O28  1  0.203012  0.577467  0.835005  1
  O  O29  1  0.631992  0.757539  0.835005  1
