# generated using pymatgen
data_DyHo2Er9Ir4
_symmetry_space_group_name_H-M   'P 1'
_cell_length_a   6.35603300
_cell_length_b   7.21421009
_cell_length_c   9.10842400
_cell_angle_alpha   90.00000000
_cell_angle_beta   90.00000000
_cell_angle_gamma   90.03046375
_symmetry_Int_Tables_number   1
_chemical_formula_structural   DyHo2Er9Ir4
_chemical_formula_sum   'Dy1 Ho2 Er9 Ir4'
_cell_volume   417.65540538
_cell_formula_units_Z   1
loop_
 _symmetry_equiv_pos_site_id
 _symmetry_equiv_pos_as_xyz
  1  'x, y, z'
loop_
 _atom_site_type_symbol
 _atom_site_label
 _atom_site_symmetry_multiplicity
 _atom_site_fract_x
 _atom_site_fract_y
 _atom_site_fract_z
 _atom_site_occupancy
  Dy  Dy0  1  0.870918  0.533957  0.250000  1
  Ho  Ho1  1  0.629609  0.034247  0.250000  1
  Ho  Ho2  1  0.128897  0.465960  0.750000  1
  Er  Er3  1  0.328708  0.677139  0.061968  1
  Er  Er4  1  0.171970  0.176704  0.437991  1
  Er  Er5  1  0.671631  0.322723  0.562590  1
  Er  Er6  1  0.827743  0.823302  0.937407  1
  Er  Er7  1  0.671631  0.322723  0.937410  1
  Er  Er8  1  0.827743  0.823302  0.562593  1
  Er  Er9  1  0.328708  0.677139  0.438032  1
  Er  Er10  1  0.171970  0.176704  0.062009  1
  Er  Er11  1  0.370531  0.965483  0.750000  1
  Ir  Ir12  1  0.044926  0.883972  0.250000  1
  Ir  Ir13  1  0.454661  0.383122  0.250000  1
  Ir  Ir14  1  0.956468  0.116357  0.750000  1
  Ir  Ir15  1  0.543886  0.617168  0.750000  1
