# generated using pymatgen
data_Li2Dy5P12Ir8Rh9
_symmetry_space_group_name_H-M   'P 1'
_cell_length_a   12.68384747
_cell_length_b   12.75961492
_cell_length_c   3.93566300
_cell_angle_alpha   90.00000000
_cell_angle_beta   90.00000000
_cell_angle_gamma   119.73213213
_symmetry_Int_Tables_number   1
_chemical_formula_structural   Li2Dy5P12Ir8Rh9
_chemical_formula_sum   'Li2 Dy5 P12 Ir8 Rh9'
_cell_volume   553.09922634
_cell_formula_units_Z   1
loop_
 _symmetry_equiv_pos_site_id
 _symmetry_equiv_pos_as_xyz
  1  'x, y, z'
loop_
 _atom_site_type_symbol
 _atom_site_label
 _atom_site_symmetry_multiplicity
 _atom_site_fract_x
 _atom_site_fract_y
 _atom_site_fract_z
 _atom_site_occupancy
  Li  Li0  1  0.999243  0.442634  0.500000  1
  Li  Li1  1  0.556057  0.557602  0.500000  1
  Dy  Dy2  1  0.332628  0.663579  0.500000  1
  Dy  Dy3  1  0.669206  0.337028  0.500000  1
  Dy  Dy4  1  0.001955  0.809238  0.000000  1
  Dy  Dy5  1  0.192703  0.190624  0.000000  1
  Dy  Dy6  1  0.810637  0.999737  0.000000  1
  P  P7  1  0.999202  0.631495  0.500000  1
  P  P8  1  0.367780  0.367168  0.500000  1
  P  P9  1  0.635664  0.000526  0.500000  1
  P  P10  1  0.513797  0.685453  0.000000  1
  P  P11  1  0.309419  0.826167  0.000000  1
  P  P12  1  0.170913  0.481218  0.000000  1
  P  P13  1  0.483728  0.174974  0.000000  1
  P  P14  1  0.689188  0.518968  0.000000  1
  P  P15  1  0.827981  0.314331  0.000000  1
  P  P16  1  0.998134  0.178218  0.500000  1
  P  P17  1  0.819632  0.821453  0.500000  1
  P  P18  1  0.178652  0.999984  0.500000  1
  Ir  Ir19  1  0.997358  0.277999  0.000000  1
  Ir  Ir20  1  0.718778  0.722181  0.000000  1
  Ir  Ir21  1  0.283334  0.999782  0.000000  1
  Ir  Ir22  1  0.177941  0.372788  0.500000  1
  Ir  Ir23  1  0.376873  0.177916  0.500000  1
  Ir  Ir24  1  0.804529  0.626726  0.500000  1
  Ir  Ir25  1  0.816213  0.195039  0.500000  1
  Ir  Ir26  1  0.998153  0.999729  0.500000  1
  Rh  Rh27  1  0.507228  0.867997  0.000000  1
  Rh  Rh28  1  0.130131  0.639604  0.000000  1
  Rh  Rh29  1  0.358837  0.487650  0.000000  1
  Rh  Rh30  1  0.490859  0.361180  0.000000  1
  Rh  Rh31  1  0.871559  0.512971  0.000000  1
  Rh  Rh32  1  0.638110  0.131473  0.000000  1
  Rh  Rh33  1  0.453111  0.999262  0.500000  1
  Rh  Rh34  1  0.621686  0.805499  0.500000  1
  Rh  Rh35  1  0.198776  0.821809  0.500000  1
