# generated using pymatgen
data_Dy6TaCo17P12
_symmetry_space_group_name_H-M   'P 1'
_cell_length_a   3.69771400
_cell_length_b   10.56148200
_cell_length_c   12.25411200
_cell_angle_alpha   90.00000000
_cell_angle_beta   90.00000000
_cell_angle_gamma   90.00000000
_symmetry_Int_Tables_number   1
_chemical_formula_structural   Dy6TaCo17P12
_chemical_formula_sum   'Dy6 Ta1 Co17 P12'
_cell_volume   478.56400052
_cell_formula_units_Z   1
loop_
 _symmetry_equiv_pos_site_id
 _symmetry_equiv_pos_as_xyz
  1  'x, y, z'
loop_
 _atom_site_type_symbol
 _atom_site_label
 _atom_site_symmetry_multiplicity
 _atom_site_fract_x
 _atom_site_fract_y
 _atom_site_fract_z
 _atom_site_occupancy
  Dy  Dy0  1  0.000000  0.500000  0.526612  1
  Dy  Dy1  1  0.500000  0.000000  0.477866  1
  Dy  Dy2  1  0.500000  0.819934  0.207110  1
  Dy  Dy3  1  0.500000  0.180066  0.207110  1
  Dy  Dy4  1  0.000000  0.682787  0.795993  1
  Dy  Dy5  1  0.000000  0.317213  0.795993  1
  Ta  Ta6  1  0.500000  0.500000  0.154195  1
  Co  Co7  1  0.000000  0.000000  0.838876  1
  Co  Co8  1  0.500000  0.500000  0.701926  1
  Co  Co9  1  0.000000  0.000000  0.296709  1
  Co  Co10  1  0.000000  0.500000  0.985299  1
  Co  Co11  1  0.500000  0.000000  0.014253  1
  Co  Co12  1  0.500000  0.330289  0.990147  1
  Co  Co13  1  0.500000  0.669711  0.990147  1
  Co  Co14  1  0.000000  0.163882  0.004039  1
  Co  Co15  1  0.000000  0.836118  0.004039  1
  Co  Co16  1  0.500000  0.295330  0.432491  1
  Co  Co17  1  0.500000  0.704670  0.432491  1
  Co  Co18  1  0.000000  0.202516  0.569712  1
  Co  Co19  1  0.000000  0.797484  0.569712  1
  Co  Co20  1  0.500000  0.879714  0.708414  1
  Co  Co21  1  0.500000  0.120286  0.708414  1
  Co  Co22  1  0.000000  0.622333  0.293143  1
  Co  Co23  1  0.000000  0.377667  0.293143  1
  P  P24  1  0.500000  0.500000  0.880705  1
  P  P25  1  0.000000  0.000000  0.117071  1
  P  P26  1  0.500000  0.500000  0.355998  1
  P  P27  1  0.000000  0.000000  0.656023  1
  P  P28  1  0.500000  0.309697  0.617013  1
  P  P29  1  0.500000  0.690303  0.617013  1
  P  P30  1  0.000000  0.188501  0.385721  1
  P  P31  1  0.000000  0.811499  0.385721  1
  P  P32  1  0.500000  0.851185  0.890239  1
  P  P33  1  0.500000  0.148815  0.890239  1
  P  P34  1  0.000000  0.661116  0.103212  1
  P  P35  1  0.000000  0.338884  0.103212  1
