# generated using pymatgen
data_Dy8Y4ZnCo4Bi
_symmetry_space_group_name_H-M   'P 1'
_cell_length_a   8.38875275
_cell_length_b   8.38875265
_cell_length_c   8.38875244
_cell_angle_alpha   109.62532776
_cell_angle_beta   111.44422863
_cell_angle_gamma   107.36973012
_symmetry_Int_Tables_number   1
_chemical_formula_structural   Dy8Y4ZnCo4Bi
_chemical_formula_sum   'Dy8 Y4 Zn1 Co4 Bi1'
_cell_volume   453.85804490
_cell_formula_units_Z   1
loop_
 _symmetry_equiv_pos_site_id
 _symmetry_equiv_pos_as_xyz
  1  'x, y, z'
loop_
 _atom_site_type_symbol
 _atom_site_label
 _atom_site_symmetry_multiplicity
 _atom_site_fract_x
 _atom_site_fract_y
 _atom_site_fract_z
 _atom_site_occupancy
  Dy  Dy0  1  0.286756  0.182217  0.468973  1
  Dy  Dy1  1  0.713244  0.817783  0.531027  1
  Dy  Dy2  1  0.286756  0.817783  0.104541  1
  Dy  Dy3  1  0.713244  0.182217  0.895459  1
  Dy  Dy4  1  0.621410  0.313076  0.308334  1
  Dy  Dy5  1  0.378590  0.686924  0.691666  1
  Dy  Dy6  1  0.004742  0.313076  0.691666  1
  Dy  Dy7  1  0.995258  0.686924  0.308334  1
  Y  Y8  1  0.218501  0.424587  0.206086  1
  Y  Y9  1  0.781499  0.575413  0.793914  1
  Y  Y10  1  0.218501  0.012415  0.793914  1
  Y  Y11  1  0.781499  0.987585  0.206086  1
  Zn  Zn12  1  0.000000  0.000000  0.000000  1
  Co  Co13  1  0.000000  0.379700  0.379700  1
  Co  Co14  1  0.000000  0.620300  0.620300  1
  Co  Co15  1  0.388767  0.888767  0.500000  1
  Co  Co16  1  0.611233  0.111233  0.500000  1
  Bi  Bi17  1  0.500000  0.500000  0.000000  1
