# generated using pymatgen
data_Zr5Tl2Sb
_symmetry_space_group_name_H-M   'P 1'
_cell_length_a   7.57505100
_cell_length_b   9.02541600
_cell_length_c   11.04753100
_cell_angle_alpha   90.00000000
_cell_angle_beta   90.00000000
_cell_angle_gamma   90.00000000
_symmetry_Int_Tables_number   1
_chemical_formula_structural   Zr5Tl2Sb
_chemical_formula_sum   'Zr20 Tl8 Sb4'
_cell_volume   755.29745022
_cell_formula_units_Z   4
loop_
 _symmetry_equiv_pos_site_id
 _symmetry_equiv_pos_as_xyz
  1  'x, y, z'
loop_
 _atom_site_type_symbol
 _atom_site_label
 _atom_site_symmetry_multiplicity
 _atom_site_fract_x
 _atom_site_fract_y
 _atom_site_fract_z
 _atom_site_occupancy
  Zr  Zr0  1  0.489892  0.750000  0.502843  1
  Zr  Zr1  1  0.989892  0.250000  0.997157  1
  Zr  Zr2  1  0.510108  0.250000  0.497157  1
  Zr  Zr3  1  0.010108  0.750000  0.002843  1
  Zr  Zr4  1  0.330987  0.750000  0.221920  1
  Zr  Zr5  1  0.830987  0.250000  0.278080  1
  Zr  Zr6  1  0.669013  0.250000  0.778080  1
  Zr  Zr7  1  0.169013  0.750000  0.721920  1
  Zr  Zr8  1  0.177559  0.250000  0.714974  1
  Zr  Zr9  1  0.677559  0.750000  0.785026  1
  Zr  Zr10  1  0.822441  0.750000  0.285026  1
  Zr  Zr11  1  0.322441  0.250000  0.214974  1
  Zr  Zr12  1  0.179850  0.435284  0.441287  1
  Zr  Zr13  1  0.679850  0.564716  0.058713  1
  Zr  Zr14  1  0.820150  0.935284  0.558713  1
  Zr  Zr15  1  0.320150  0.064716  0.941287  1
  Zr  Zr16  1  0.820150  0.564716  0.558713  1
  Zr  Zr17  1  0.320150  0.435284  0.941287  1
  Zr  Zr18  1  0.179850  0.064716  0.441287  1
  Zr  Zr19  1  0.679850  0.935284  0.058713  1
  Tl  Tl20  1  0.058821  0.001419  0.175948  1
  Tl  Tl21  1  0.558821  0.998581  0.324052  1
  Tl  Tl22  1  0.941179  0.501419  0.824052  1
  Tl  Tl23  1  0.441179  0.498581  0.675948  1
  Tl  Tl24  1  0.941179  0.998581  0.824052  1
  Tl  Tl25  1  0.441179  0.001419  0.675948  1
  Tl  Tl26  1  0.058821  0.498581  0.175948  1
  Tl  Tl27  1  0.558821  0.501419  0.324052  1
  Sb  Sb28  1  0.110619  0.750000  0.460234  1
  Sb  Sb29  1  0.610619  0.250000  0.039766  1
  Sb  Sb30  1  0.889381  0.250000  0.539766  1
  Sb  Sb31  1  0.389381  0.750000  0.960234  1
