# generated using pymatgen
data_Ca3PBr3
_symmetry_space_group_name_H-M   'P 1'
_cell_length_a   10.29956838
_cell_length_b   10.29956869
_cell_length_c   10.29956800
_cell_angle_alpha   109.47122322
_cell_angle_beta   109.47122382
_cell_angle_gamma   109.47122240
_symmetry_Int_Tables_number   1
_chemical_formula_structural   Ca3PBr3
_chemical_formula_sum   'Ca12 P4 Br12'
_cell_volume   841.07580796
_cell_formula_units_Z   4
loop_
 _symmetry_equiv_pos_site_id
 _symmetry_equiv_pos_as_xyz
  1  'x, y, z'
loop_
 _atom_site_type_symbol
 _atom_site_label
 _atom_site_symmetry_multiplicity
 _atom_site_fract_x
 _atom_site_fract_y
 _atom_site_fract_z
 _atom_site_occupancy
  Ca  Ca0  1  0.477827  0.488913  0.238913  1
  Ca  Ca1  1  0.750000  0.238913  0.261087  1
  Ca  Ca2  1  0.750000  0.011087  0.488913  1
  Ca  Ca3  1  0.238913  0.477827  0.488913  1
  Ca  Ca4  1  0.261087  0.750000  0.238913  1
  Ca  Ca5  1  0.022173  0.261087  0.011087  1
  Ca  Ca6  1  0.011087  0.022173  0.261087  1
  Ca  Ca7  1  0.488913  0.750000  0.011087  1
  Ca  Ca8  1  0.488913  0.238913  0.477827  1
  Ca  Ca9  1  0.011087  0.488913  0.750000  1
  Ca  Ca10  1  0.261087  0.011087  0.022173  1
  Ca  Ca11  1  0.238913  0.261087  0.750000  1
  P  P12  1  0.250000  0.250000  0.250000  1
  P  P13  1  0.500000  0.000000  0.250000  1
  P  P14  1  0.000000  0.250000  0.500000  1
  P  P15  1  0.250000  0.500000  0.000000  1
  Br  Br16  1  0.250000  0.748747  0.751253  1
  Br  Br17  1  0.497494  0.498747  0.748747  1
  Br  Br18  1  0.002506  0.751253  0.001253  1
  Br  Br19  1  0.751253  0.250000  0.748747  1
  Br  Br20  1  0.001253  0.002506  0.751253  1
  Br  Br21  1  0.250000  0.001253  0.498747  1
  Br  Br22  1  0.748747  0.497494  0.498747  1
  Br  Br23  1  0.498747  0.250000  0.001253  1
  Br  Br24  1  0.748747  0.751253  0.250000  1
  Br  Br25  1  0.751253  0.001253  0.002506  1
  Br  Br26  1  0.001253  0.498747  0.250000  1
  Br  Br27  1  0.498747  0.748747  0.497494  1
