# generated using pymatgen
data_CeU3(PO4)6
_symmetry_space_group_name_H-M   'P 1'
_cell_length_a   9.15841246
_cell_length_b   9.15841308
_cell_length_c   9.39610100
_cell_angle_alpha   60.83332953
_cell_angle_beta   60.83332736
_cell_angle_gamma   60.00000040
_symmetry_Int_Tables_number   1
_chemical_formula_structural   CeU3(PO4)6
_chemical_formula_sum   'Ce1 U3 P6 O24'
_cell_volume   564.19605737
_cell_formula_units_Z   1
loop_
 _symmetry_equiv_pos_site_id
 _symmetry_equiv_pos_as_xyz
  1  'x, y, z'
loop_
 _atom_site_type_symbol
 _atom_site_label
 _atom_site_symmetry_multiplicity
 _atom_site_fract_x
 _atom_site_fract_y
 _atom_site_fract_z
 _atom_site_occupancy
  Ce  Ce0  1  0.862927  0.862927  0.411219  1
  U  U1  1  0.141320  0.141320  0.576041  1
  U  U2  1  0.359629  0.359629  0.921115  1
  U  U3  1  0.641403  0.641403  0.075791  1
  P  P4  1  0.754332  0.035241  0.749376  1
  P  P5  1  0.035241  0.461052  0.749376  1
  P  P6  1  0.461052  0.754332  0.749376  1
  P  P7  1  0.529063  0.259007  0.249286  1
  P  P8  1  0.962645  0.529063  0.249286  1
  P  P9  1  0.259007  0.962645  0.249286  1
  O  O10  1  0.328016  0.107648  0.087139  1
  O  O11  1  0.477196  0.328016  0.087139  1
  O  O12  1  0.929589  0.033555  0.738582  1
  O  O13  1  0.107648  0.477196  0.087139  1
  O  O14  1  0.608394  0.215815  0.769744  1
  O  O15  1  0.772353  0.014919  0.590610  1
  O  O16  1  0.033555  0.298273  0.738582  1
  O  O17  1  0.215815  0.406046  0.769744  1
  O  O18  1  0.406046  0.608394  0.769744  1
  O  O19  1  0.365569  0.231610  0.412308  1
  O  O20  1  0.688522  0.088852  0.248871  1
  O  O21  1  0.990513  0.365569  0.412308  1
  O  O22  1  0.014919  0.622119  0.590610  1
  O  O23  1  0.298273  0.929589  0.738582  1
  O  O24  1  0.622119  0.772353  0.590610  1
  O  O25  1  0.570004  0.406393  0.244420  1
  O  O26  1  0.779184  0.570004  0.244420  1
  O  O27  1  0.973755  0.688522  0.248871  1
  O  O28  1  0.231610  0.990513  0.412308  1
  O  O29  1  0.406393  0.779184  0.244420  1
  O  O30  1  0.880909  0.498248  0.914944  1
  O  O31  1  0.088852  0.973755  0.248871  1
  O  O32  1  0.498248  0.705900  0.914944  1
  O  O33  1  0.705900  0.880909  0.914944  1
