# generated using pymatgen
data_Ac5DyCd23P
_symmetry_space_group_name_H-M   'P 1'
_cell_length_a   10.31360189
_cell_length_b   10.31360154
_cell_length_c   10.23025200
_cell_angle_alpha   60.26697625
_cell_angle_beta   60.26697739
_cell_angle_gamma   59.46605615
_symmetry_Int_Tables_number   1
_chemical_formula_structural   Ac5DyCd23P
_chemical_formula_sum   'Ac5 Dy1 Cd23 P1'
_cell_volume   769.37098009
_cell_formula_units_Z   1
loop_
 _symmetry_equiv_pos_site_id
 _symmetry_equiv_pos_as_xyz
  1  'x, y, z'
loop_
 _atom_site_type_symbol
 _atom_site_label
 _atom_site_symmetry_multiplicity
 _atom_site_fract_x
 _atom_site_fract_y
 _atom_site_fract_z
 _atom_site_occupancy
  Ac  Ac0  1  0.209656  0.789568  0.210416  1
  Ac  Ac1  1  0.789566  0.209614  0.210413  1
  Ac  Ac2  1  0.203161  0.203161  0.796830  1
  Ac  Ac3  1  0.789578  0.209647  0.790361  1
  Ac  Ac4  1  0.209621  0.789581  0.790394  1
  Dy  Dy5  1  0.803127  0.803117  0.196884  1
  Cd  Cd6  1  0.830667  0.830752  0.503019  1
  Cd  Cd7  1  0.825237  0.513291  0.830771  1
  Cd  Cd8  1  0.513273  0.825242  0.830709  1
  Cd  Cd9  1  0.830748  0.830672  0.835558  1
  Cd  Cd10  1  0.169297  0.169224  0.486728  1
  Cd  Cd11  1  0.164445  0.496972  0.169248  1
  Cd  Cd12  1  0.496984  0.164442  0.169325  1
  Cd  Cd13  1  0.169227  0.169292  0.174760  1
  Cd  Cd14  1  0.627394  0.627438  0.138099  1
  Cd  Cd15  1  0.620158  0.130321  0.624764  1
  Cd  Cd16  1  0.130325  0.620158  0.624746  1
  Cd  Cd17  1  0.627441  0.627398  0.607066  1
  Cd  Cd18  1  0.375258  0.375240  0.869672  1
  Cd  Cd19  1  0.392938  0.861906  0.372564  1
  Cd  Cd20  1  0.861899  0.392940  0.372602  1
  Cd  Cd21  1  0.375234  0.375262  0.379834  1
  Cd  Cd22  1  0.998130  0.998127  0.501871  1
  Cd  Cd23  1  0.501114  0.998210  0.498892  1
  Cd  Cd24  1  0.998188  0.501109  0.498895  1
  Cd  Cd25  1  0.498130  0.498131  0.001871  1
  Cd  Cd26  1  0.998210  0.501111  0.001786  1
  Cd  Cd27  1  0.501106  0.998186  0.001810  1
  Cd  Cd28  1  0.496562  0.496564  0.503437  1
  P  P29  1  0.993326  0.993327  0.006673  1
