# generated using pymatgen
data_Li2Mn2AlFeO8
_symmetry_space_group_name_H-M   'P 1'
_cell_length_a   5.90385877
_cell_length_b   5.85367033
_cell_length_c   5.90385808
_cell_angle_alpha   58.85298145
_cell_angle_beta   59.12032466
_cell_angle_gamma   58.85298267
_symmetry_Int_Tables_number   1
_chemical_formula_structural   Li2Mn2AlFeO8
_chemical_formula_sum   'Li2 Mn2 Al1 Fe1 O8'
_cell_volume   140.78824087
_cell_formula_units_Z   1
loop_
 _symmetry_equiv_pos_site_id
 _symmetry_equiv_pos_as_xyz
  1  'x, y, z'
loop_
 _atom_site_type_symbol
 _atom_site_label
 _atom_site_symmetry_multiplicity
 _atom_site_fract_x
 _atom_site_fract_y
 _atom_site_fract_z
 _atom_site_occupancy
  Li  Li0  1  0.114449  0.133011  0.114449  1
  Li  Li1  1  0.885551  0.866989  0.885551  1
  Mn  Mn2  1  0.500000  0.500000  0.000000  1
  Mn  Mn3  1  0.000000  0.500000  0.500000  1
  Al  Al4  1  0.500000  0.000000  0.500000  1
  Fe  Fe5  1  0.500000  0.500000  0.500000  1
  O  O6  1  0.263722  0.262938  0.263722  1
  O  O7  1  0.709254  0.255379  0.257807  1
  O  O8  1  0.257807  0.255379  0.709254  1
  O  O9  1  0.254022  0.715981  0.254022  1
  O  O10  1  0.745978  0.284019  0.745978  1
  O  O11  1  0.742193  0.744621  0.290746  1
  O  O12  1  0.290746  0.744621  0.742193  1
  O  O13  1  0.736278  0.737062  0.736278  1
