# generated using pymatgen
data_SrHo2Bi(Ir2O7)2
_symmetry_space_group_name_H-M   'P 1'
_cell_length_a   7.30073081
_cell_length_b   7.31108407
_cell_length_c   7.31730239
_cell_angle_alpha   60.04400450
_cell_angle_beta   60.07488308
_cell_angle_gamma   60.04682989
_symmetry_Int_Tables_number   1
_chemical_formula_structural   SrHo2Bi(Ir2O7)2
_chemical_formula_sum   'Sr1 Ho2 Bi1 Ir4 O14'
_cell_volume   276.52055923
_cell_formula_units_Z   1
loop_
 _symmetry_equiv_pos_site_id
 _symmetry_equiv_pos_as_xyz
  1  'x, y, z'
loop_
 _atom_site_type_symbol
 _atom_site_label
 _atom_site_symmetry_multiplicity
 _atom_site_fract_x
 _atom_site_fract_y
 _atom_site_fract_z
 _atom_site_occupancy
  Sr  Sr0  1  0.125000  0.125000  0.625000  1
  Ho  Ho1  1  0.625000  0.125000  0.125000  1
  Ho  Ho2  1  0.125000  0.125000  0.125000  1
  Bi  Bi3  1  0.125000  0.625000  0.125000  1
  Ir  Ir4  1  0.125000  0.625000  0.625000  1
  Ir  Ir5  1  0.625000  0.125000  0.625000  1
  Ir  Ir6  1  0.625000  0.625000  0.125000  1
  Ir  Ir7  1  0.625000  0.625000  0.625000  1
  O  O8  1  0.703220  0.713456  0.290193  1
  O  O9  1  0.295082  0.293786  0.720761  1
  O  O10  1  0.690370  0.293786  0.720761  1
  O  O11  1  0.293132  0.713456  0.290193  1
  O  O12  1  0.297454  0.694901  0.710191  1
  O  O13  1  0.708251  0.293034  0.290463  1
  O  O14  1  0.546780  0.536544  0.959807  1
  O  O15  1  0.954918  0.956214  0.529239  1
  O  O16  1  0.559630  0.956214  0.529239  1
  O  O17  1  0.956868  0.536544  0.959807  1
  O  O18  1  0.952546  0.555099  0.539809  1
  O  O19  1  0.541749  0.956966  0.959537  1
  O  O20  1  0.261595  0.246936  0.229873  1
  O  O21  1  0.988405  0.003064  0.020127  1
