# generated using pymatgen
data_ErTm2Sn3RuPt2
_symmetry_space_group_name_H-M   'P 1'
_cell_length_a   7.71835003
_cell_length_b   7.71726652
_cell_length_c   3.68620900
_cell_angle_alpha   90.00000000
_cell_angle_beta   90.00000000
_cell_angle_gamma   119.99535079
_symmetry_Int_Tables_number   1
_chemical_formula_structural   ErTm2Sn3RuPt2
_chemical_formula_sum   'Er1 Tm2 Sn3 Ru1 Pt2'
_cell_volume   190.15988221
_cell_formula_units_Z   1
loop_
 _symmetry_equiv_pos_site_id
 _symmetry_equiv_pos_as_xyz
  1  'x, y, z'
loop_
 _atom_site_type_symbol
 _atom_site_label
 _atom_site_symmetry_multiplicity
 _atom_site_fract_x
 _atom_site_fract_y
 _atom_site_fract_z
 _atom_site_occupancy
  Er  Er0  1  0.000000  0.398729  0.000000  1
  Tm  Tm1  1  0.601113  0.601354  0.000000  1
  Tm  Tm2  1  0.398887  0.000241  0.000000  1
  Sn  Sn3  1  0.000000  0.736572  0.500000  1
  Sn  Sn4  1  0.263987  0.263539  0.500000  1
  Sn  Sn5  1  0.736013  0.999552  0.500000  1
  Ru  Ru6  1  0.000000  0.999894  0.000000  1
  Pt  Pt7  1  0.334226  0.667173  0.500000  1
  Pt  Pt8  1  0.665774  0.332946  0.500000  1
