# generated using pymatgen
data_CeLu3(ReB6)2
_symmetry_space_group_name_H-M   'P 1'
_cell_length_a   3.65702300
_cell_length_b   9.10384355
_cell_length_c   11.47468949
_cell_angle_alpha   90.10125414
_cell_angle_beta   90.00000000
_cell_angle_gamma   90.00000000
_symmetry_Int_Tables_number   1
_chemical_formula_structural   CeLu3(ReB6)2
_chemical_formula_sum   'Ce2 Lu6 Re4 B24'
_cell_volume   382.02584173
_cell_formula_units_Z   2
loop_
 _symmetry_equiv_pos_site_id
 _symmetry_equiv_pos_as_xyz
  1  'x, y, z'
loop_
 _atom_site_type_symbol
 _atom_site_label
 _atom_site_symmetry_multiplicity
 _atom_site_fract_x
 _atom_site_fract_y
 _atom_site_fract_z
 _atom_site_occupancy
  Ce  Ce0  1  0.000000  0.321548  0.413482  1
  Ce  Ce1  1  0.000000  0.678452  0.586518  1
  Lu  Lu2  1  0.000000  0.824000  0.085365  1
  Lu  Lu3  1  0.000000  0.176000  0.914635  1
  Lu  Lu4  1  0.000000  0.943929  0.370026  1
  Lu  Lu5  1  0.000000  0.056071  0.629974  1
  Lu  Lu6  1  0.000000  0.443302  0.127795  1
  Lu  Lu7  1  0.000000  0.556698  0.872205  1
  Re  Re8  1  0.000000  0.639214  0.320143  1
  Re  Re9  1  0.000000  0.360786  0.679857  1
  Re  Re10  1  0.000000  0.139217  0.178744  1
  Re  Re11  1  0.000000  0.860783  0.821256  1
  B  B12  1  0.500000  0.554727  0.431016  1
  B  B13  1  0.500000  0.445273  0.568984  1
  B  B14  1  0.500000  0.053229  0.065718  1
  B  B15  1  0.500000  0.946771  0.934282  1
  B  B16  1  0.500000  0.751558  0.416958  1
  B  B17  1  0.500000  0.248442  0.583042  1
  B  B18  1  0.500000  0.249888  0.079426  1
  B  B19  1  0.500000  0.750112  0.920574  1
  B  B20  1  0.500000  0.793761  0.263625  1
  B  B21  1  0.500000  0.206239  0.736375  1
  B  B22  1  0.500000  0.292134  0.232718  1
  B  B23  1  0.500000  0.707866  0.767282  1
  B  B24  1  0.500000  0.631535  0.183246  1
  B  B25  1  0.500000  0.368465  0.816754  1
  B  B26  1  0.500000  0.130144  0.313475  1
  B  B27  1  0.500000  0.869856  0.686525  1
  B  B28  1  0.500000  0.981367  0.210884  1
  B  B29  1  0.500000  0.018633  0.789116  1
  B  B30  1  0.500000  0.483238  0.285460  1
  B  B31  1  0.500000  0.516762  0.714540  1
  B  B32  1  0.500000  0.600885  0.027985  1
  B  B33  1  0.500000  0.399115  0.972015  1
  B  B34  1  0.500000  0.099771  0.472257  1
  B  B35  1  0.500000  0.900229  0.527743  1
