# generated using pymatgen
data_Zr5BeP3
_symmetry_space_group_name_H-M   'P 1'
_cell_length_a   3.59444700
_cell_length_b   10.21632300
_cell_length_c   17.24700800
_cell_angle_alpha   90.00000000
_cell_angle_beta   90.00000000
_cell_angle_gamma   90.00000000
_symmetry_Int_Tables_number   1
_chemical_formula_structural   Zr5BeP3
_chemical_formula_sum   'Zr20 Be4 P12'
_cell_volume   633.34517206
_cell_formula_units_Z   4
loop_
 _symmetry_equiv_pos_site_id
 _symmetry_equiv_pos_as_xyz
  1  'x, y, z'
loop_
 _atom_site_type_symbol
 _atom_site_label
 _atom_site_symmetry_multiplicity
 _atom_site_fract_x
 _atom_site_fract_y
 _atom_site_fract_z
 _atom_site_occupancy
  Zr  Zr0  1  0.250000  0.123039  0.476285  1
  Zr  Zr1  1  0.750000  0.876961  0.523715  1
  Zr  Zr2  1  0.750000  0.623039  0.023715  1
  Zr  Zr3  1  0.250000  0.376961  0.976285  1
  Zr  Zr4  1  0.250000  0.062809  0.077059  1
  Zr  Zr5  1  0.750000  0.937191  0.922941  1
  Zr  Zr6  1  0.750000  0.562809  0.422941  1
  Zr  Zr7  1  0.250000  0.437191  0.577059  1
  Zr  Zr8  1  0.250000  0.486164  0.269919  1
  Zr  Zr9  1  0.750000  0.513836  0.730081  1
  Zr  Zr10  1  0.750000  0.986164  0.230081  1
  Zr  Zr11  1  0.250000  0.013836  0.769919  1
  Zr  Zr12  1  0.250000  0.813558  0.369620  1
  Zr  Zr13  1  0.750000  0.186442  0.630380  1
  Zr  Zr14  1  0.750000  0.313558  0.130380  1
  Zr  Zr15  1  0.250000  0.686442  0.869620  1
  Zr  Zr16  1  0.250000  0.750123  0.169135  1
  Zr  Zr17  1  0.750000  0.249877  0.830865  1
  Zr  Zr18  1  0.750000  0.250123  0.330865  1
  Zr  Zr19  1  0.250000  0.749877  0.669135  1
  Be  Be20  1  0.250000  0.370160  0.417920  1
  Be  Be21  1  0.750000  0.629840  0.582080  1
  Be  Be22  1  0.750000  0.870160  0.082080  1
  Be  Be23  1  0.250000  0.129840  0.917920  1
  P  P24  1  0.250000  0.816925  0.012812  1
  P  P25  1  0.750000  0.183075  0.987188  1
  P  P26  1  0.750000  0.316925  0.487188  1
  P  P27  1  0.250000  0.683075  0.512812  1
  P  P28  1  0.250000  0.506062  0.114726  1
  P  P29  1  0.750000  0.493938  0.885274  1
  P  P30  1  0.750000  0.006062  0.385274  1
  P  P31  1  0.250000  0.993938  0.614726  1
  P  P32  1  0.250000  0.190481  0.219492  1
  P  P33  1  0.750000  0.809519  0.780508  1
  P  P34  1  0.750000  0.690481  0.280508  1
  P  P35  1  0.250000  0.309519  0.719492  1
