# generated using pymatgen
data_Nb12AlCu(Au3N2)2
_symmetry_space_group_name_H-M   'P 1'
_cell_length_a   7.13213320
_cell_length_b   7.13213336
_cell_length_c   7.13213405
_cell_angle_alpha   90.10030799
_cell_angle_beta   90.10030553
_cell_angle_gamma   90.10031112
_symmetry_Int_Tables_number   1
_chemical_formula_structural   Nb12AlCu(Au3N2)2
_chemical_formula_sum   'Nb12 Al1 Cu1 Au6 N4'
_cell_volume   362.79091113
_cell_formula_units_Z   1
loop_
 _symmetry_equiv_pos_site_id
 _symmetry_equiv_pos_as_xyz
  1  'x, y, z'
loop_
 _atom_site_type_symbol
 _atom_site_label
 _atom_site_symmetry_multiplicity
 _atom_site_fract_x
 _atom_site_fract_y
 _atom_site_fract_z
 _atom_site_occupancy
  Nb  Nb0  1  0.787508  0.954763  0.378388  1
  Nb  Nb1  1  0.708170  0.038561  0.873706  1
  Nb  Nb2  1  0.209463  0.459453  0.127723  1
  Nb  Nb3  1  0.295463  0.540597  0.627033  1
  Nb  Nb4  1  0.954763  0.378388  0.787508  1
  Nb  Nb5  1  0.038561  0.873706  0.708170  1
  Nb  Nb6  1  0.459453  0.127723  0.209463  1
  Nb  Nb7  1  0.540597  0.627033  0.295463  1
  Nb  Nb8  1  0.378388  0.787508  0.954763  1
  Nb  Nb9  1  0.873706  0.708170  0.038561  1
  Nb  Nb10  1  0.127723  0.209463  0.459453  1
  Nb  Nb11  1  0.627033  0.295463  0.540597  1
  Al  Al12  1  0.069711  0.069711  0.069711  1
  Cu  Cu13  1  0.683403  0.683403  0.683403  1
  Au  Au14  1  0.178143  0.828093  0.304037  1
  Au  Au15  1  0.304037  0.178143  0.828093  1
  Au  Au16  1  0.828093  0.304037  0.178143  1
  Au  Au17  1  0.570865  0.439066  0.927313  1
  Au  Au18  1  0.439066  0.927313  0.570865  1
  Au  Au19  1  0.927313  0.570865  0.439066  1
  N  N20  1  0.873535  0.126060  0.621735  1
  N  N21  1  0.621735  0.873535  0.126060  1
  N  N22  1  0.126060  0.621735  0.873535  1
  N  N23  1  0.377214  0.377214  0.377214  1
