# generated using pymatgen
data_Dy3Sc9Tc4
_symmetry_space_group_name_H-M   'P 1'
_cell_length_a   7.32303916
_cell_length_b   8.50588400
_cell_length_c   5.85639745
_cell_angle_alpha   90.00000000
_cell_angle_beta   88.32004232
_cell_angle_gamma   90.00000000
_symmetry_Int_Tables_number   1
_chemical_formula_structural   Dy3Sc9Tc4
_chemical_formula_sum   'Dy3 Sc9 Tc4'
_cell_volume   364.63188704
_cell_formula_units_Z   1
loop_
 _symmetry_equiv_pos_site_id
 _symmetry_equiv_pos_as_xyz
  1  'x, y, z'
loop_
 _atom_site_type_symbol
 _atom_site_label
 _atom_site_symmetry_multiplicity
 _atom_site_fract_x
 _atom_site_fract_y
 _atom_site_fract_z
 _atom_site_occupancy
  Dy  Dy0  1  0.528126  0.250000  0.881343  1
  Dy  Dy1  1  0.044582  0.250000  0.620803  1
  Dy  Dy2  1  0.469872  0.750000  0.117224  1
  Sc  Sc3  1  0.686986  0.060899  0.366444  1
  Sc  Sc4  1  0.160862  0.440814  0.150929  1
  Sc  Sc5  1  0.315427  0.565576  0.628081  1
  Sc  Sc6  1  0.836141  0.935116  0.850375  1
  Sc  Sc7  1  0.315427  0.934424  0.628081  1
  Sc  Sc8  1  0.836141  0.564884  0.850375  1
  Sc  Sc9  1  0.686986  0.439101  0.366444  1
  Sc  Sc10  1  0.160862  0.059186  0.150929  1
  Sc  Sc11  1  0.955176  0.750000  0.383764  1
  Tc  Tc12  1  0.877155  0.250000  0.061226  1
  Tc  Tc13  1  0.391283  0.250000  0.408672  1
  Tc  Tc14  1  0.119339  0.750000  0.954135  1
  Tc  Tc15  1  0.615632  0.750000  0.581176  1
