# generated using pymatgen
data_AcNdP7Ru12
_symmetry_space_group_name_H-M   'P 1'
_cell_length_a   9.54814900
_cell_length_b   9.54814860
_cell_length_c   3.99488100
_cell_angle_alpha   90.00000000
_cell_angle_beta   90.00000000
_cell_angle_gamma   119.99999698
_symmetry_Int_Tables_number   1
_chemical_formula_structural   AcNdP7Ru12
_chemical_formula_sum   'Ac1 Nd1 P7 Ru12'
_cell_volume   315.40810492
_cell_formula_units_Z   1
loop_
 _symmetry_equiv_pos_site_id
 _symmetry_equiv_pos_as_xyz
  1  'x, y, z'
loop_
 _atom_site_type_symbol
 _atom_site_label
 _atom_site_symmetry_multiplicity
 _atom_site_fract_x
 _atom_site_fract_y
 _atom_site_fract_z
 _atom_site_occupancy
  Ac  Ac0  1  0.333333  0.666667  0.000000  1
  Nd  Nd1  1  0.666667  0.333333  0.500000  1
  P  P2  1  0.611685  0.717244  0.500000  1
  P  P3  1  0.000000  0.000000  0.000000  1
  P  P4  1  0.282756  0.894441  0.500000  1
  P  P5  1  0.105559  0.388315  0.500000  1
  P  P6  1  0.891671  0.573721  0.000000  1
  P  P7  1  0.426279  0.317950  0.000000  1
  P  P8  1  0.682050  0.108329  0.000000  1
  Ru  Ru9  1  0.561513  0.957588  0.500000  1
  Ru  Ru10  1  0.396077  0.438487  0.500000  1
  Ru  Ru11  1  0.914420  0.117345  0.500000  1
  Ru  Ru12  1  0.202925  0.085580  0.500000  1
  Ru  Ru13  1  0.882655  0.797075  0.500000  1
  Ru  Ru14  1  0.730875  0.893171  0.000000  1
  Ru  Ru15  1  0.106829  0.837704  0.000000  1
  Ru  Ru16  1  0.162296  0.269125  0.000000  1
  Ru  Ru17  1  0.418869  0.069159  0.000000  1
  Ru  Ru18  1  0.930841  0.349711  0.000000  1
  Ru  Ru19  1  0.650289  0.581131  0.000000  1
  Ru  Ru20  1  0.042412  0.603923  0.500000  1
