# generated using pymatgen
data_CaDy2Y2Rh5
_symmetry_space_group_name_H-M   'P 1'
_cell_length_a   3.43101900
_cell_length_b   3.43101900
_cell_length_c   17.31732800
_cell_angle_alpha   90.00000000
_cell_angle_beta   90.00000000
_cell_angle_gamma   90.00000000
_symmetry_Int_Tables_number   1
_chemical_formula_structural   CaDy2Y2Rh5
_chemical_formula_sum   'Ca1 Dy2 Y2 Rh5'
_cell_volume   203.85770418
_cell_formula_units_Z   1
loop_
 _symmetry_equiv_pos_site_id
 _symmetry_equiv_pos_as_xyz
  1  'x, y, z'
loop_
 _atom_site_type_symbol
 _atom_site_label
 _atom_site_symmetry_multiplicity
 _atom_site_fract_x
 _atom_site_fract_y
 _atom_site_fract_z
 _atom_site_occupancy
  Ca  Ca0  1  0.000000  0.000000  0.000381  1
  Dy  Dy1  1  0.000000  0.000000  0.199101  1
  Dy  Dy2  1  0.000000  0.000000  0.399249  1
  Y  Y3  1  0.000000  0.000000  0.599613  1
  Y  Y4  1  0.000000  0.000000  0.801485  1
  Rh  Rh5  1  0.500000  0.500000  0.109423  1
  Rh  Rh6  1  0.500000  0.500000  0.301311  1
  Rh  Rh7  1  0.500000  0.500000  0.497693  1
  Rh  Rh8  1  0.500000  0.500000  0.698529  1
  Rh  Rh9  1  0.500000  0.500000  0.893216  1
