# generated using pymatgen
data_YbPr9InSi4Ge
_symmetry_space_group_name_H-M   'P 1'
_cell_length_a   7.84334900
_cell_length_b   9.23716640
_cell_length_c   7.84334900
_cell_angle_alpha   115.12242988
_cell_angle_beta   90.00000000
_cell_angle_gamma   115.12242988
_symmetry_Int_Tables_number   1
_chemical_formula_structural   YbPr9InSi4Ge
_chemical_formula_sum   'Yb1 Pr9 In1 Si4 Ge1'
_cell_volume   454.42773460
_cell_formula_units_Z   1
loop_
 _symmetry_equiv_pos_site_id
 _symmetry_equiv_pos_as_xyz
  1  'x, y, z'
loop_
 _atom_site_type_symbol
 _atom_site_label
 _atom_site_symmetry_multiplicity
 _atom_site_fract_x
 _atom_site_fract_y
 _atom_site_fract_z
 _atom_site_occupancy
  Yb  Yb0  1  0.982622  0.965244  0.982622  1
  Pr  Pr1  1  0.524044  0.048087  0.524044  1
  Pr  Pr2  1  0.526979  0.719771  0.673142  1
  Pr  Pr3  1  0.192794  0.719771  0.046631  1
  Pr  Pr4  1  0.673142  0.719771  0.192794  1
  Pr  Pr5  1  0.046631  0.719771  0.526979  1
  Pr  Pr6  1  0.450234  0.279048  0.304738  1
  Pr  Pr7  1  0.828813  0.279048  0.974308  1
  Pr  Pr8  1  0.304738  0.279048  0.828813  1
  Pr  Pr9  1  0.974308  0.279048  0.450234  1
  In  In10  1  0.750775  0.501549  0.750775  1
  Si  Si11  1  0.884197  0.997751  0.611859  1
  Si  Si12  1  0.113554  0.997751  0.385892  1
  Si  Si13  1  0.611859  0.997751  0.113554  1
  Si  Si14  1  0.385892  0.997751  0.884197  1
  Ge  Ge15  1  0.249420  0.498840  0.249420  1
