# generated using pymatgen
data_Y2Lu3SiSn3
_symmetry_space_group_name_H-M   'P 1'
_cell_length_a   7.69971400
_cell_length_b   8.00609000
_cell_length_c   15.13227300
_cell_angle_alpha   90.00000000
_cell_angle_beta   90.00000000
_cell_angle_gamma   90.00000000
_symmetry_Int_Tables_number   1
_chemical_formula_structural   Y2Lu3SiSn3
_chemical_formula_sum   'Y8 Lu12 Si4 Sn12'
_cell_volume   932.82296548
_cell_formula_units_Z   4
loop_
 _symmetry_equiv_pos_site_id
 _symmetry_equiv_pos_as_xyz
  1  'x, y, z'
loop_
 _atom_site_type_symbol
 _atom_site_label
 _atom_site_symmetry_multiplicity
 _atom_site_fract_x
 _atom_site_fract_y
 _atom_site_fract_z
 _atom_site_occupancy
  Y  Y0  1  0.514802  0.327882  0.900780  1
  Y  Y1  1  0.014802  0.172118  0.599220  1
  Y  Y2  1  0.485198  0.672118  0.400780  1
  Y  Y3  1  0.985198  0.827882  0.099220  1
  Y  Y4  1  0.485198  0.672118  0.099220  1
  Y  Y5  1  0.985198  0.827882  0.400780  1
  Y  Y6  1  0.514802  0.327882  0.599220  1
  Y  Y7  1  0.014802  0.172118  0.900780  1
  Lu  Lu8  1  0.355477  0.826275  0.868918  1
  Lu  Lu9  1  0.855477  0.673725  0.631082  1
  Lu  Lu10  1  0.644523  0.173725  0.368918  1
  Lu  Lu11  1  0.144523  0.326275  0.131082  1
  Lu  Lu12  1  0.644523  0.173725  0.131082  1
  Lu  Lu13  1  0.144523  0.326275  0.368918  1
  Lu  Lu14  1  0.355477  0.826275  0.631082  1
  Lu  Lu15  1  0.855477  0.673725  0.868918  1
  Lu  Lu16  1  0.195002  0.508005  0.750000  1
  Lu  Lu17  1  0.695002  0.991995  0.750000  1
  Lu  Lu18  1  0.804998  0.491995  0.250000  1
  Lu  Lu19  1  0.304998  0.008005  0.250000  1
  Si  Si20  1  0.554041  0.626590  0.750000  1
  Si  Si21  1  0.054041  0.873410  0.750000  1
  Si  Si22  1  0.445959  0.373410  0.250000  1
  Si  Si23  1  0.945959  0.126590  0.250000  1
  Sn  Sn24  1  0.310576  0.037978  0.038320  1
  Sn  Sn25  1  0.810576  0.462022  0.461680  1
  Sn  Sn26  1  0.689424  0.962022  0.538320  1
  Sn  Sn27  1  0.189424  0.537978  0.961680  1
  Sn  Sn28  1  0.689424  0.962022  0.961680  1
  Sn  Sn29  1  0.189424  0.537978  0.538320  1
  Sn  Sn30  1  0.310576  0.037978  0.461680  1
  Sn  Sn31  1  0.810576  0.462022  0.038320  1
  Sn  Sn32  1  0.317513  0.143356  0.750000  1
  Sn  Sn33  1  0.817513  0.356644  0.750000  1
  Sn  Sn34  1  0.682487  0.856644  0.250000  1
  Sn  Sn35  1  0.182487  0.643356  0.250000  1
