# generated using pymatgen
data_Er8Ta3V(Si2W)8
_symmetry_space_group_name_H-M   'P 1'
_cell_length_a   6.88123353
_cell_length_b   6.87741626
_cell_length_c   12.79524299
_cell_angle_alpha   89.95965480
_cell_angle_beta   90.06277641
_cell_angle_gamma   89.75432623
_symmetry_Int_Tables_number   1
_chemical_formula_structural   Er8Ta3V(Si2W)8
_chemical_formula_sum   'Er8 Ta3 V1 Si16 W8'
_cell_volume   605.53016632
_cell_formula_units_Z   1
loop_
 _symmetry_equiv_pos_site_id
 _symmetry_equiv_pos_as_xyz
  1  'x, y, z'
loop_
 _atom_site_type_symbol
 _atom_site_label
 _atom_site_symmetry_multiplicity
 _atom_site_fract_x
 _atom_site_fract_y
 _atom_site_fract_z
 _atom_site_occupancy
  Er  Er0  1  0.338741  0.998107  0.469167  1
  Er  Er1  1  0.502461  0.836249  0.718683  1
  Er  Er2  1  0.500319  0.163692  0.220433  1
  Er  Er3  1  0.836856  0.503169  0.282026  1
  Er  Er4  1  0.163053  0.499157  0.779251  1
  Er  Er5  1  0.663576  0.000002  0.968548  1
  Er  Er6  1  0.998777  0.336427  0.531446  1
  Er  Er7  1  0.000231  0.663837  0.030740  1
  Ta  Ta8  1  0.333204  0.333995  0.999866  1
  Ta  Ta9  1  0.166234  0.831988  0.252049  1
  Ta  Ta10  1  0.832238  0.165982  0.748280  1
  V  V11  1  0.994913  0.841515  0.625877  1
  Si  Si12  1  0.203589  0.120622  0.681170  1
  Si  Si13  1  0.372008  0.704685  0.931797  1
  Si  Si14  1  0.626681  0.299520  0.433923  1
  Si  Si15  1  0.704133  0.372322  0.067870  1
  Si  Si16  1  0.298520  0.627782  0.567078  1
  Si  Si17  1  0.794715  0.872908  0.182108  1
  Si  Si18  1  0.126928  0.206563  0.318055  1
  Si  Si19  1  0.874032  0.795364  0.815194  1
  Si  Si20  1  0.293714  0.961682  0.063601  1
  Si  Si21  1  0.540259  0.790367  0.315644  1
  Si  Si22  1  0.461362  0.208852  0.812725  1
  Si  Si23  1  0.791644  0.542129  0.684022  1
  Si  Si24  1  0.208511  0.462263  0.186690  1
  Si  Si25  1  0.712310  0.031470  0.561348  1
  Si  Si26  1  0.960516  0.294391  0.936441  1
  Si  Si27  1  0.033025  0.710027  0.442322  1
  W  W28  1  0.665516  0.665205  0.500269  1
  W  W29  1  0.159691  0.006531  0.874715  1
  W  W30  1  0.498415  0.663118  0.123966  1
  W  W31  1  0.502283  0.331739  0.623732  1
  W  W32  1  0.662332  0.498230  0.876325  1
  W  W33  1  0.332286  0.502424  0.376085  1
  W  W34  1  0.842227  0.997904  0.372732  1
  W  W35  1  0.004701  0.159779  0.125814  1
