# generated using pymatgen
data_NbNiSbF12
_symmetry_space_group_name_H-M   'P 1'
_cell_length_a   5.22334713
_cell_length_b   5.50133178
_cell_length_c   9.16828560
_cell_angle_alpha   74.02328861
_cell_angle_beta   88.75198156
_cell_angle_gamma   62.30386214
_symmetry_Int_Tables_number   1
_chemical_formula_structural   NbNiSbF12
_chemical_formula_sum   'Nb1 Ni1 Sb1 F12'
_cell_volume   222.50794905
_cell_formula_units_Z   1
loop_
 _symmetry_equiv_pos_site_id
 _symmetry_equiv_pos_as_xyz
  1  'x, y, z'
loop_
 _atom_site_type_symbol
 _atom_site_label
 _atom_site_symmetry_multiplicity
 _atom_site_fract_x
 _atom_site_fract_y
 _atom_site_fract_z
 _atom_site_occupancy
  Nb  Nb0  1  0.771748  0.005363  0.238473  1
  Ni  Ni1  1  0.495425  0.499770  0.500709  1
  Sb  Sb2  1  0.223927  0.997637  0.755471  1
  F  F3  1  0.950834  0.239318  0.206326  1
  F  F4  1  0.046691  0.759523  0.793876  1
  F  F5  1  0.027927  0.753242  0.137175  1
  F  F6  1  0.468374  0.771669  0.624724  1
  F  F7  1  0.535304  0.235638  0.377299  1
  F  F8  1  0.939013  0.247325  0.569993  1
  F  F9  1  0.069938  0.747604  0.428769  1
  F  F10  1  0.408424  0.242482  0.682953  1
  F  F11  1  0.591026  0.752174  0.326128  1
  F  F12  1  0.518639  0.774710  0.922848  1
  F  F13  1  0.478242  0.226570  0.073093  1
  F  F14  1  0.974489  0.246975  0.862164  1
