# generated using pymatgen
data_Pa4CrFe19P12
_symmetry_space_group_name_H-M   'P 1'
_cell_length_a   3.69031500
_cell_length_b   10.32456798
_cell_length_c   11.79824024
_cell_angle_alpha   90.23577343
_cell_angle_beta   90.00000000
_cell_angle_gamma   90.00000000
_symmetry_Int_Tables_number   1
_chemical_formula_structural   Pa4CrFe19P12
_chemical_formula_sum   'Pa4 Cr1 Fe19 P12'
_cell_volume   449.51986109
_cell_formula_units_Z   1
loop_
 _symmetry_equiv_pos_site_id
 _symmetry_equiv_pos_as_xyz
  1  'x, y, z'
loop_
 _atom_site_type_symbol
 _atom_site_label
 _atom_site_symmetry_multiplicity
 _atom_site_fract_x
 _atom_site_fract_y
 _atom_site_fract_z
 _atom_site_occupancy
  Pa  Pa0  1  0.250000  0.578377  0.702791  1
  Pa  Pa1  1  0.250000  0.923264  0.200749  1
  Pa  Pa2  1  0.750000  0.422244  0.297853  1
  Pa  Pa3  1  0.750000  0.077540  0.796620  1
  Cr  Cr4  1  0.250000  0.700279  0.994596  1
  Fe  Fe5  1  0.250000  0.793378  0.493300  1
  Fe  Fe6  1  0.750000  0.295002  0.006460  1
  Fe  Fe7  1  0.750000  0.206526  0.507208  1
  Fe  Fe8  1  0.250000  0.403331  0.483377  1
  Fe  Fe9  1  0.250000  0.097819  0.981524  1
  Fe  Fe10  1  0.750000  0.595985  0.518151  1
  Fe  Fe11  1  0.750000  0.905156  0.018619  1
  Fe  Fe12  1  0.250000  0.224704  0.169834  1
  Fe  Fe13  1  0.250000  0.275238  0.670526  1
  Fe  Fe14  1  0.750000  0.776491  0.828554  1
  Fe  Fe15  1  0.750000  0.724250  0.330646  1
  Fe  Fe16  1  0.250000  0.885250  0.701716  1
  Fe  Fe17  1  0.250000  0.615395  0.204885  1
  Fe  Fe18  1  0.750000  0.116830  0.296851  1
  Fe  Fe19  1  0.750000  0.384526  0.797209  1
  Fe  Fe20  1  0.250000  0.464199  0.932958  1
  Fe  Fe21  1  0.250000  0.034092  0.431390  1
  Fe  Fe22  1  0.750000  0.531107  0.068303  1
  Fe  Fe23  1  0.750000  0.966055  0.566594  1
  P  P24  1  0.250000  0.421401  0.111774  1
  P  P25  1  0.250000  0.078207  0.609850  1
  P  P26  1  0.750000  0.578422  0.889208  1
  P  P27  1  0.750000  0.922457  0.387936  1
  P  P28  1  0.250000  0.273688  0.861611  1
  P  P29  1  0.250000  0.225375  0.361575  1
  P  P30  1  0.750000  0.724616  0.139915  1
  P  P31  1  0.750000  0.775227  0.637686  1
  P  P32  1  0.250000  0.607330  0.397747  1
  P  P33  1  0.250000  0.894632  0.894685  1
  P  P34  1  0.750000  0.391899  0.604095  1
  P  P35  1  0.750000  0.109707  0.103204  1
