# generated using pymatgen
data_Pr2Tm18(Bi3Sb)3
_symmetry_space_group_name_H-M   'P 1'
_cell_length_a   8.11241761
_cell_length_b   9.39877200
_cell_length_c   11.84919200
_cell_angle_alpha   90.00000000
_cell_angle_beta   90.02226877
_cell_angle_gamma   90.00000000
_symmetry_Int_Tables_number   1
_chemical_formula_structural   Pr2Tm18(Bi3Sb)3
_chemical_formula_sum   'Pr2 Tm18 Bi9 Sb3'
_cell_volume   903.46247198
_cell_formula_units_Z   1
loop_
 _symmetry_equiv_pos_site_id
 _symmetry_equiv_pos_as_xyz
  1  'x, y, z'
loop_
 _atom_site_type_symbol
 _atom_site_label
 _atom_site_symmetry_multiplicity
 _atom_site_fract_x
 _atom_site_fract_y
 _atom_site_fract_z
 _atom_site_occupancy
  Pr  Pr0  1  0.681007  0.750000  0.780132  1
  Pr  Pr1  1  0.181596  0.750000  0.719885  1
  Tm  Tm2  1  0.352987  0.750000  0.216604  1
  Tm  Tm3  1  0.853451  0.750000  0.282839  1
  Tm  Tm4  1  0.647760  0.250000  0.785816  1
  Tm  Tm5  1  0.148779  0.250000  0.717492  1
  Tm  Tm6  1  0.688394  0.564012  0.059483  1
  Tm  Tm7  1  0.189555  0.932615  0.440371  1
  Tm  Tm8  1  0.312494  0.063874  0.942408  1
  Tm  Tm9  1  0.809936  0.438290  0.559340  1
  Tm  Tm10  1  0.312494  0.436126  0.942408  1
  Tm  Tm11  1  0.809936  0.061710  0.559340  1
  Tm  Tm12  1  0.688394  0.935988  0.059483  1
  Tm  Tm13  1  0.189555  0.567385  0.440371  1
  Tm  Tm14  1  0.477679  0.250000  0.486841  1
  Tm  Tm15  1  0.974745  0.250000  0.013060  1
  Tm  Tm16  1  0.526207  0.750000  0.510197  1
  Tm  Tm17  1  0.025326  0.750000  0.990364  1
  Tm  Tm18  1  0.318174  0.250000  0.214613  1
  Tm  Tm19  1  0.811623  0.250000  0.280446  1
  Bi  Bi20  1  0.095228  0.250000  0.456667  1
  Bi  Bi21  1  0.566132  0.996194  0.325344  1
  Bi  Bi22  1  0.066448  0.503116  0.174594  1
  Bi  Bi23  1  0.434322  0.489510  0.671695  1
  Bi  Bi24  1  0.934514  0.010036  0.828701  1
  Bi  Bi25  1  0.434322  0.010490  0.671695  1
  Bi  Bi26  1  0.934514  0.489964  0.828701  1
  Bi  Bi27  1  0.566132  0.503806  0.325344  1
  Bi  Bi28  1  0.066448  0.996884  0.174594  1
  Sb  Sb29  1  0.402610  0.750000  0.964740  1
  Sb  Sb30  1  0.903058  0.750000  0.535107  1
  Sb  Sb31  1  0.596178  0.250000  0.041322  1
