# generated using pymatgen
data_Cs8Na4DyY3Sb8
_symmetry_space_group_name_H-M   'P 1'
_cell_length_a   11.65554266
_cell_length_b   11.65554180
_cell_length_c   7.59688300
_cell_angle_alpha   89.99744438
_cell_angle_beta   90.00255117
_cell_angle_gamma   99.60177861
_symmetry_Int_Tables_number   1
_chemical_formula_structural   Cs8Na4DyY3Sb8
_chemical_formula_sum   'Cs8 Na4 Dy1 Y3 Sb8'
_cell_volume   1017.59107816
_cell_formula_units_Z   1
loop_
 _symmetry_equiv_pos_site_id
 _symmetry_equiv_pos_as_xyz
  1  'x, y, z'
loop_
 _atom_site_type_symbol
 _atom_site_label
 _atom_site_symmetry_multiplicity
 _atom_site_fract_x
 _atom_site_fract_y
 _atom_site_fract_z
 _atom_site_occupancy
  Cs  Cs0  1  0.070655  0.429332  0.249984  1
  Cs  Cs1  1  0.429332  0.070655  0.750016  1
  Cs  Cs2  1  0.929369  0.570643  0.749997  1
  Cs  Cs3  1  0.570643  0.929369  0.250003  1
  Cs  Cs4  1  0.677027  0.322952  0.213080  1
  Cs  Cs5  1  0.822974  0.177035  0.713075  1
  Cs  Cs6  1  0.322952  0.677027  0.786920  1
  Cs  Cs7  1  0.177035  0.822974  0.286925  1
  Na  Na8  1  0.381967  0.381967  0.000000  1
  Na  Na9  1  0.118023  0.118023  0.500000  1
  Na  Na10  1  0.618016  0.618016  0.000000  1
  Na  Na11  1  0.881984  0.881984  0.500000  1
  Dy  Dy12  1  0.131313  0.131313  0.000000  1
  Y  Y13  1  0.368640  0.368640  0.500000  1
  Y  Y14  1  0.868642  0.868642  0.000000  1
  Y  Y15  1  0.631323  0.631323  0.500000  1
  Sb  Sb16  1  0.842296  0.657714  0.249999  1
  Sb  Sb17  1  0.657714  0.842296  0.750001  1
  Sb  Sb18  1  0.157669  0.342173  0.750138  1
  Sb  Sb19  1  0.342173  0.157669  0.249862  1
  Sb  Sb20  1  0.904672  0.095567  0.210929  1
  Sb  Sb21  1  0.595485  0.404529  0.711017  1
  Sb  Sb22  1  0.095567  0.904672  0.789071  1
  Sb  Sb23  1  0.404529  0.595485  0.288983  1
