# generated using pymatgen
data_Sr4Si3GePd4
_symmetry_space_group_name_H-M   'P 1'
_cell_length_a   6.60145848
_cell_length_b   6.60145848
_cell_length_c   6.60145848
_cell_angle_alpha   89.87806930
_cell_angle_beta   90.12193070
_cell_angle_gamma   89.87806930
_symmetry_Int_Tables_number   1
_chemical_formula_structural   Sr4Si3GePd4
_chemical_formula_sum   'Sr4 Si3 Ge1 Pd4'
_cell_volume   287.68467948
_cell_formula_units_Z   1
loop_
 _symmetry_equiv_pos_site_id
 _symmetry_equiv_pos_as_xyz
  1  'x, y, z'
loop_
 _atom_site_type_symbol
 _atom_site_label
 _atom_site_symmetry_multiplicity
 _atom_site_fract_x
 _atom_site_fract_y
 _atom_site_fract_z
 _atom_site_occupancy
  Sr  Sr0  1  0.629226  0.371162  0.871930  1
  Sr  Sr1  1  0.371930  0.870774  0.628838  1
  Sr  Sr2  1  0.128838  0.128070  0.129226  1
  Sr  Sr3  1  0.871203  0.628797  0.371203  1
  Si  Si4  1  0.663588  0.161856  0.333314  1
  Si  Si5  1  0.338144  0.666686  0.163588  1
  Si  Si6  1  0.833314  0.836412  0.838144  1
  Ge  Ge7  1  0.167037  0.332963  0.667037  1
  Pd  Pd8  1  0.589309  0.910691  0.089309  1
  Pd  Pd9  1  0.088036  0.597644  0.917019  1
  Pd  Pd10  1  0.417019  0.411964  0.402356  1
  Pd  Pd11  1  0.902356  0.082981  0.588036  1
