# generated using pymatgen
data_LaHo2P4Pd7
_symmetry_space_group_name_H-M   'P 1'
_cell_length_a   7.96560479
_cell_length_b   7.96560442
_cell_length_c   9.53105864
_cell_angle_alpha   55.94172873
_cell_angle_beta   55.94172920
_cell_angle_gamma   29.27531076
_symmetry_Int_Tables_number   1
_chemical_formula_structural   LaHo2P4Pd7
_chemical_formula_sum   'La1 Ho2 P4 Pd7'
_cell_volume   241.15298135
_cell_formula_units_Z   1
loop_
 _symmetry_equiv_pos_site_id
 _symmetry_equiv_pos_as_xyz
  1  'x, y, z'
loop_
 _atom_site_type_symbol
 _atom_site_label
 _atom_site_symmetry_multiplicity
 _atom_site_fract_x
 _atom_site_fract_y
 _atom_site_fract_z
 _atom_site_occupancy
  La  La0  1  0.500000  0.500000  0.500000  1
  Ho  Ho1  1  0.820979  0.820979  0.175349  1
  Ho  Ho2  1  0.179021  0.179021  0.824651  1
  P  P3  1  0.392725  0.392725  0.315625  1
  P  P4  1  0.607275  0.607275  0.684375  1
  P  P5  1  0.836092  0.836092  0.760567  1
  P  P6  1  0.163908  0.163908  0.239433  1
  Pd  Pd7  1  0.670309  0.670309  0.072360  1
  Pd  Pd8  1  0.009804  0.009804  0.210690  1
  Pd  Pd9  1  0.990196  0.990196  0.789310  1
  Pd  Pd10  1  0.500000  0.500000  0.000000  1
  Pd  Pd11  1  0.195534  0.195534  0.469521  1
  Pd  Pd12  1  0.804466  0.804466  0.530479  1
  Pd  Pd13  1  0.329691  0.329691  0.927640  1
