# generated using pymatgen
data_Y4Sn5AsRh7
_symmetry_space_group_name_H-M   'P 1'
_cell_length_a   7.56670741
_cell_length_b   7.56670855
_cell_length_c   7.56670725
_cell_angle_alpha   109.73494261
_cell_angle_beta   108.94505514
_cell_angle_gamma   109.73494568
_symmetry_Int_Tables_number   1
_chemical_formula_structural   Y4Sn5AsRh7
_chemical_formula_sum   'Y4 Sn5 As1 Rh7'
_cell_volume   333.48133280
_cell_formula_units_Z   1
loop_
 _symmetry_equiv_pos_site_id
 _symmetry_equiv_pos_as_xyz
  1  'x, y, z'
loop_
 _atom_site_type_symbol
 _atom_site_label
 _atom_site_symmetry_multiplicity
 _atom_site_fract_x
 _atom_site_fract_y
 _atom_site_fract_z
 _atom_site_occupancy
  Y  Y0  1  0.479290  0.471623  0.479290  1
  Y  Y1  1  0.007667  0.528377  0.007667  1
  Y  Y2  1  0.479290  0.000000  0.007667  1
  Y  Y3  1  0.007667  0.000000  0.479290  1
  Sn  Sn4  1  0.703737  0.000000  0.703737  1
  Sn  Sn5  1  0.672341  0.683335  0.989008  1
  Sn  Sn6  1  0.305673  0.316665  0.989008  1
  Sn  Sn7  1  0.989008  0.683335  0.672341  1
  Sn  Sn8  1  0.989008  0.316665  0.305673  1
  As  As9  1  0.339768  0.000000  0.339768  1
  Rh  Rh10  1  0.503522  0.755389  0.258911  1
  Rh  Rh11  1  0.748133  0.244611  0.503522  1
  Rh  Rh12  1  0.258911  0.755389  0.503522  1
  Rh  Rh13  1  0.242289  0.500000  0.742289  1
  Rh  Rh14  1  0.027882  0.000000  0.027882  1
  Rh  Rh15  1  0.503522  0.244611  0.748133  1
  Rh  Rh16  1  0.742289  0.500000  0.242289  1
