# generated using pymatgen
data_La5Pr4Nd3(IrBr3)4
_symmetry_space_group_name_H-M   'P 1'
_cell_length_a   10.58897541
_cell_length_b   10.63124488
_cell_length_c   10.59294077
_cell_angle_alpha   109.01074973
_cell_angle_beta   109.72841634
_cell_angle_gamma   109.74031632
_symmetry_Int_Tables_number   1
_chemical_formula_structural   La5Pr4Nd3(IrBr3)4
_chemical_formula_sum   'La5 Pr4 Nd3 Ir4 Br12'
_cell_volume   917.19598814
_cell_formula_units_Z   1
loop_
 _symmetry_equiv_pos_site_id
 _symmetry_equiv_pos_as_xyz
  1  'x, y, z'
loop_
 _atom_site_type_symbol
 _atom_site_label
 _atom_site_symmetry_multiplicity
 _atom_site_fract_x
 _atom_site_fract_y
 _atom_site_fract_z
 _atom_site_occupancy
  La  La0  1  0.268657  0.013839  0.033122  1
  La  La1  1  0.752296  0.234824  0.267575  1
  La  La2  1  0.746812  0.015697  0.481624  1
  La  La3  1  0.468232  0.484202  0.234560  1
  La  La4  1  0.032293  0.267410  0.015075  1
  Pr  Pr5  1  0.266989  0.752123  0.235247  1
  Pr  Pr6  1  0.480896  0.743820  0.012907  1
  Pr  Pr7  1  0.233280  0.466862  0.485043  1
  Pr  Pr8  1  0.017807  0.032864  0.265706  1
  Nd  Nd9  1  0.231461  0.265434  0.745796  1
  Nd  Nd10  1  0.018183  0.483963  0.752348  1
  Nd  Nd11  1  0.482036  0.235852  0.468719  1
  Ir  Ir12  1  0.501647  0.002362  0.250735  1
  Ir  Ir13  1  0.249441  0.497329  0.000906  1
  Ir  Ir14  1  0.996628  0.248665  0.498834  1
  Ir  Ir15  1  0.250883  0.250839  0.247926  1
  Br  Br16  1  0.250851  0.998091  0.504561  1
  Br  Br17  1  0.507444  0.503273  0.753843  1
  Br  Br18  1  0.249866  0.750354  0.744446  1
  Br  Br19  1  0.991611  0.744234  0.998968  1
  Br  Br20  1  0.001591  0.509849  0.254445  1
  Br  Br21  1  0.744598  0.990329  0.991697  1
  Br  Br22  1  0.755367  0.747317  0.246004  1
  Br  Br23  1  0.498721  0.753338  0.508814  1
  Br  Br24  1  0.502522  0.250502  0.992435  1
  Br  Br25  1  0.755856  0.507985  0.510874  1
  Br  Br26  1  0.744335  0.255153  0.752763  1
  Br  Br27  1  0.999699  0.993490  0.745027  1
