# generated using pymatgen
data_Ta3Cd3HgSbO14
_symmetry_space_group_name_H-M   'P 1'
_cell_length_a   7.48566235
_cell_length_b   7.48566116
_cell_length_c   7.40011579
_cell_angle_alpha   59.61686116
_cell_angle_beta   59.61685758
_cell_angle_gamma   59.99999875
_symmetry_Int_Tables_number   1
_chemical_formula_structural   Ta3Cd3HgSbO14
_chemical_formula_sum   'Ta3 Cd3 Hg1 Sb1 O14'
_cell_volume   291.50392865
_cell_formula_units_Z   1
loop_
 _symmetry_equiv_pos_site_id
 _symmetry_equiv_pos_as_xyz
  1  'x, y, z'
loop_
 _atom_site_type_symbol
 _atom_site_label
 _atom_site_symmetry_multiplicity
 _atom_site_fract_x
 _atom_site_fract_y
 _atom_site_fract_z
 _atom_site_occupancy
  Ta  Ta0  1  0.125000  0.625000  0.125000  1
  Ta  Ta1  1  0.125000  0.125000  0.125000  1
  Ta  Ta2  1  0.625000  0.125000  0.125000  1
  Cd  Cd3  1  0.625000  0.625000  0.625000  1
  Cd  Cd4  1  0.625000  0.125000  0.625000  1
  Cd  Cd5  1  0.125000  0.625000  0.625000  1
  Hg  Hg6  1  0.625000  0.625000  0.125000  1
  Sb  Sb7  1  0.125000  0.125000  0.625000  1
  O  O8  1  0.811831  0.811831  0.192054  1
  O  O9  1  0.805468  0.196225  0.802082  1
  O  O10  1  0.053775  0.053775  0.447918  1
  O  O11  1  0.811831  0.184285  0.192054  1
  O  O12  1  0.438169  0.438169  0.057946  1
  O  O13  1  0.065715  0.438169  0.057946  1
  O  O14  1  0.196225  0.805468  0.802082  1
  O  O15  1  0.444532  0.053775  0.447918  1
  O  O16  1  0.501878  0.501878  0.494366  1
  O  O17  1  0.184285  0.811831  0.192054  1
  O  O18  1  0.196225  0.196225  0.802082  1
  O  O19  1  0.748122  0.748122  0.755634  1
  O  O20  1  0.438169  0.065715  0.057946  1
  O  O21  1  0.053775  0.444532  0.447918  1
