# generated using pymatgen
data_La2Np(AsRh2)6
_symmetry_space_group_name_H-M   'P 1'
_cell_length_a   10.07707200
_cell_length_b   10.07707152
_cell_length_c   4.06348500
_cell_angle_alpha   90.00000000
_cell_angle_beta   90.00000000
_cell_angle_gamma   120.00000491
_symmetry_Int_Tables_number   1
_chemical_formula_structural   La2Np(AsRh2)6
_chemical_formula_sum   'La2 Np1 As6 Rh12'
_cell_volume   357.35344534
_cell_formula_units_Z   1
loop_
 _symmetry_equiv_pos_site_id
 _symmetry_equiv_pos_as_xyz
  1  'x, y, z'
loop_
 _atom_site_type_symbol
 _atom_site_label
 _atom_site_symmetry_multiplicity
 _atom_site_fract_x
 _atom_site_fract_y
 _atom_site_fract_z
 _atom_site_occupancy
  La  La0  1  0.000000  0.000000  0.758808  1
  La  La1  1  0.333333  0.666667  0.244616  1
  Np  Np2  1  0.666667  0.333333  0.503532  1
  As  As3  1  0.071220  0.623718  0.743437  1
  As  As4  1  0.376282  0.447502  0.743437  1
  As  As5  1  0.552498  0.928780  0.743437  1
  As  As6  1  0.261980  0.042803  0.260115  1
  As  As7  1  0.957197  0.219177  0.260115  1
  As  As8  1  0.780823  0.738020  0.260115  1
  Rh  Rh9  1  0.821664  0.609114  0.769740  1
  Rh  Rh10  1  0.390886  0.212550  0.769740  1
  Rh  Rh11  1  0.787450  0.178336  0.769740  1
  Rh  Rh12  1  0.511929  0.058171  0.234196  1
  Rh  Rh13  1  0.941829  0.453758  0.234196  1
  Rh  Rh14  1  0.546242  0.488071  0.234196  1
  Rh  Rh15  1  0.109417  0.394701  0.743582  1
  Rh  Rh16  1  0.605299  0.714717  0.743582  1
  Rh  Rh17  1  0.285283  0.890583  0.743582  1
  Rh  Rh18  1  0.224022  0.272134  0.259924  1
  Rh  Rh19  1  0.727866  0.951889  0.259924  1
  Rh  Rh20  1  0.048111  0.775978  0.259924  1
