# generated using pymatgen
data_Dy12Th4MgZn3Ru4
_symmetry_space_group_name_H-M   'P 1'
_cell_length_a   9.59750312
_cell_length_b   9.65184552
_cell_length_c   9.65184600
_cell_angle_alpha   59.99999834
_cell_angle_beta   59.81251886
_cell_angle_gamma   59.81252212
_symmetry_Int_Tables_number   1
_chemical_formula_structural   Dy12Th4MgZn3Ru4
_chemical_formula_sum   'Dy12 Th4 Mg1 Zn3 Ru4'
_cell_volume   630.41638466
_cell_formula_units_Z   1
loop_
 _symmetry_equiv_pos_site_id
 _symmetry_equiv_pos_as_xyz
  1  'x, y, z'
loop_
 _atom_site_type_symbol
 _atom_site_label
 _atom_site_symmetry_multiplicity
 _atom_site_fract_x
 _atom_site_fract_y
 _atom_site_fract_z
 _atom_site_occupancy
  Dy  Dy0  1  0.810553  0.189869  0.189869  1
  Dy  Dy1  1  0.187872  0.811862  0.811862  1
  Dy  Dy2  1  0.187872  0.811862  0.188405  1
  Dy  Dy3  1  0.810553  0.189869  0.809709  1
  Dy  Dy4  1  0.187872  0.188405  0.811862  1
  Dy  Dy5  1  0.810553  0.809709  0.189869  1
  Dy  Dy6  1  0.929426  0.564921  0.564921  1
  Dy  Dy7  1  0.563532  0.935741  0.935741  1
  Dy  Dy8  1  0.563532  0.935741  0.564987  1
  Dy  Dy9  1  0.929426  0.564921  0.940732  1
  Dy  Dy10  1  0.563532  0.564987  0.935741  1
  Dy  Dy11  1  0.929426  0.940732  0.564921  1
  Th  Th12  1  0.351202  0.347718  0.347718  1
  Th  Th13  1  0.351202  0.347718  0.953362  1
  Th  Th14  1  0.351202  0.953362  0.347718  1
  Th  Th15  1  0.944236  0.351921  0.351921  1
  Mg  Mg16  1  0.283930  0.572023  0.572023  1
  Zn  Zn17  1  0.581698  0.580783  0.580783  1
  Zn  Zn18  1  0.581698  0.580783  0.256736  1
  Zn  Zn19  1  0.581698  0.256736  0.580783  1
  Ru  Ru20  1  0.142752  0.143983  0.143983  1
  Ru  Ru21  1  0.142752  0.143983  0.569282  1
  Ru  Ru22  1  0.142752  0.569282  0.143983  1
  Ru  Ru23  1  0.570732  0.143089  0.143089  1
