# generated using pymatgen
data_PrSm(GaRu)2
_symmetry_space_group_name_H-M   'P 1'
_cell_length_a   4.28526200
_cell_length_b   7.13107977
_cell_length_c   7.95068858
_cell_angle_alpha   90.27820975
_cell_angle_beta   90.00000000
_cell_angle_gamma   90.00000000
_symmetry_Int_Tables_number   1
_chemical_formula_structural   PrSm(GaRu)2
_chemical_formula_sum   'Pr2 Sm2 Ga4 Ru4'
_cell_volume   242.95861155
_cell_formula_units_Z   2
loop_
 _symmetry_equiv_pos_site_id
 _symmetry_equiv_pos_as_xyz
  1  'x, y, z'
loop_
 _atom_site_type_symbol
 _atom_site_label
 _atom_site_symmetry_multiplicity
 _atom_site_fract_x
 _atom_site_fract_y
 _atom_site_fract_z
 _atom_site_occupancy
  Pr  Pr0  1  0.750000  0.982570  0.690776  1
  Pr  Pr1  1  0.250000  0.017430  0.309224  1
  Sm  Sm2  1  0.250000  0.518355  0.188716  1
  Sm  Sm3  1  0.750000  0.481645  0.811284  1
  Ga  Ga4  1  0.250000  0.657358  0.569948  1
  Ga  Ga5  1  0.750000  0.342642  0.430052  1
  Ga  Ga6  1  0.750000  0.834294  0.069919  1
  Ga  Ga7  1  0.250000  0.165706  0.930081  1
  Ru  Ru8  1  0.250000  0.780772  0.890616  1
  Ru  Ru9  1  0.750000  0.219228  0.109384  1
  Ru  Ru10  1  0.750000  0.713408  0.387860  1
  Ru  Ru11  1  0.250000  0.286592  0.612140  1
