# generated using pymatgen
data_Tm3Sc9In2Tc3
_symmetry_space_group_name_H-M   'P 1'
_cell_length_a   8.04887402
_cell_length_b   8.04887466
_cell_length_c   8.00266489
_cell_angle_alpha   109.37026407
_cell_angle_beta   109.37026391
_cell_angle_gamma   109.90522257
_symmetry_Int_Tables_number   1
_chemical_formula_structural   Tm3Sc9In2Tc3
_chemical_formula_sum   'Tm3 Sc9 In2 Tc3'
_cell_volume   397.94527969
_cell_formula_units_Z   1
loop_
 _symmetry_equiv_pos_site_id
 _symmetry_equiv_pos_as_xyz
  1  'x, y, z'
loop_
 _atom_site_type_symbol
 _atom_site_label
 _atom_site_symmetry_multiplicity
 _atom_site_fract_x
 _atom_site_fract_y
 _atom_site_fract_z
 _atom_site_occupancy
  Tm  Tm0  1  0.689279  0.689279  0.378557  1
  Tm  Tm1  1  0.689777  0.309110  0.998887  1
  Tm  Tm2  1  0.309110  0.689777  0.998887  1
  Sc  Sc3  1  0.186356  0.424168  0.242337  1
  Sc  Sc4  1  0.809496  0.570747  0.756362  1
  Sc  Sc5  1  0.185614  0.946866  0.756362  1
  Sc  Sc6  1  0.946866  0.185614  0.756362  1
  Sc  Sc7  1  0.818169  0.055980  0.242337  1
  Sc  Sc8  1  0.055980  0.818169  0.242337  1
  Sc  Sc9  1  0.424168  0.186356  0.242337  1
  Sc  Sc10  1  0.570747  0.809496  0.756362  1
  Sc  Sc11  1  0.314195  0.314195  0.628391  1
  In  In12  1  0.003766  0.500346  0.504111  1
  In  In13  1  0.500346  0.003766  0.504111  1
  Tc  Tc14  1  0.338688  0.338688  0.997320  1
  Tc  Tc15  1  0.658632  0.658632  0.997320  1
  Tc  Tc16  1  0.998810  0.998810  0.997620  1
