# generated using pymatgen
data_Dy4Ho6Ir3Os
_symmetry_space_group_name_H-M   'P 1'
_cell_length_a   6.46977644
_cell_length_b   7.23626306
_cell_length_c   8.43924349
_cell_angle_alpha   96.52083794
_cell_angle_beta   112.28946608
_cell_angle_gamma   89.95708662
_symmetry_Int_Tables_number   1
_chemical_formula_structural   Dy4Ho6Ir3Os
_chemical_formula_sum   'Dy4 Ho6 Ir3 Os1'
_cell_volume   362.82778925
_cell_formula_units_Z   1
loop_
 _symmetry_equiv_pos_site_id
 _symmetry_equiv_pos_as_xyz
  1  'x, y, z'
loop_
 _atom_site_type_symbol
 _atom_site_label
 _atom_site_symmetry_multiplicity
 _atom_site_fract_x
 _atom_site_fract_y
 _atom_site_fract_z
 _atom_site_occupancy
  Dy  Dy0  1  0.971618  0.916461  0.183590  1
  Dy  Dy1  1  0.789977  0.582761  0.821181  1
  Dy  Dy2  1  0.028486  0.083044  0.817775  1
  Dy  Dy3  1  0.210746  0.417851  0.183578  1
  Ho  Ho4  1  0.655913  0.817140  0.439631  1
  Ho  Ho5  1  0.210919  0.681553  0.557691  1
  Ho  Ho6  1  0.346068  0.181718  0.559606  1
  Ho  Ho7  1  0.786261  0.319037  0.439309  1
  Ho  Ho8  1  0.426951  0.749607  0.000359  1
  Ho  Ho9  1  0.574870  0.251378  0.000574  1
  Ir  Ir10  1  0.605348  0.927055  0.779005  1
  Ir  Ir11  1  0.173508  0.425533  0.779905  1
  Ir  Ir12  1  0.393728  0.073503  0.220383  1
  Os  Os13  1  0.825607  0.573361  0.217412  1
