# generated using pymatgen
data_Tb3Sm2YCoI10
_symmetry_space_group_name_H-M   'P 1'
_cell_length_a   7.76200482
_cell_length_b   9.76317549
_cell_length_c   9.72765427
_cell_angle_alpha   106.95034719
_cell_angle_beta   96.57527005
_cell_angle_gamma   104.91226045
_symmetry_Int_Tables_number   1
_chemical_formula_structural   Tb3Sm2YCoI10
_chemical_formula_sum   'Tb3 Sm2 Y1 Co1 I10'
_cell_volume   666.92722971
_cell_formula_units_Z   1
loop_
 _symmetry_equiv_pos_site_id
 _symmetry_equiv_pos_as_xyz
  1  'x, y, z'
loop_
 _atom_site_type_symbol
 _atom_site_label
 _atom_site_symmetry_multiplicity
 _atom_site_fract_x
 _atom_site_fract_y
 _atom_site_fract_z
 _atom_site_occupancy
  Tb  Tb0  1  0.030617  0.717334  0.915400  1
  Tb  Tb1  1  0.969664  0.282740  0.084598  1
  Tb  Tb2  1  0.656165  0.877404  0.836386  1
  Sm  Sm3  1  0.889028  0.959177  0.229673  1
  Sm  Sm4  1  0.111136  0.040750  0.770346  1
  Y  Y5  1  0.343785  0.122690  0.163589  1
  Co  Co6  1  0.999835  0.999920  0.999902  1
  I  I7  1  0.649040  0.550350  0.728492  1
  I  I8  1  0.351054  0.449437  0.271500  1
  I  I9  1  0.738820  0.911588  0.540188  1
  I  I10  1  0.261307  0.088462  0.459704  1
  I  I11  1  0.085288  0.374008  0.820450  1
  I  I12  1  0.914762  0.625981  0.179567  1
  I  I13  1  0.452293  0.816253  0.092303  1
  I  I14  1  0.547647  0.183960  0.907948  1
  I  I15  1  0.222827  0.741491  0.655173  1
  I  I16  1  0.776729  0.258454  0.344782  1
