# generated using pymatgen
data_Er2Tm3Zn2Sb
_symmetry_space_group_name_H-M   'P 1'
_cell_length_a   8.47222189
_cell_length_b   8.47222072
_cell_length_c   8.47222214
_cell_angle_alpha   123.72818766
_cell_angle_beta   123.72818628
_cell_angle_gamma   83.65544536
_symmetry_Int_Tables_number   1
_chemical_formula_structural   Er2Tm3Zn2Sb
_chemical_formula_sum   'Er4 Tm6 Zn4 Sb2'
_cell_volume   403.06956237
_cell_formula_units_Z   2
loop_
 _symmetry_equiv_pos_site_id
 _symmetry_equiv_pos_as_xyz
  1  'x, y, z'
loop_
 _atom_site_type_symbol
 _atom_site_label
 _atom_site_symmetry_multiplicity
 _atom_site_fract_x
 _atom_site_fract_y
 _atom_site_fract_z
 _atom_site_occupancy
  Er  Er0  1  0.989395  0.489395  0.190267  1
  Er  Er1  1  0.299127  0.799127  0.809733  1
  Er  Er2  1  0.489395  0.299127  0.500000  1
  Er  Er3  1  0.799127  0.989395  0.500000  1
  Tm  Tm4  1  0.999801  0.999801  0.000000  1
  Tm  Tm5  1  0.499801  0.499801  0.000000  1
  Tm  Tm6  1  0.010715  0.510715  0.809197  1
  Tm  Tm7  1  0.701518  0.201518  0.190803  1
  Tm  Tm8  1  0.510715  0.701518  0.500000  1
  Tm  Tm9  1  0.201518  0.010715  0.500000  1
  Zn  Zn10  1  0.635871  0.135871  0.772281  1
  Zn  Zn11  1  0.363589  0.863589  0.227719  1
  Zn  Zn12  1  0.135871  0.363589  0.500000  1
  Zn  Zn13  1  0.863589  0.635871  0.500000  1
  Sb  Sb14  1  0.749985  0.749985  0.000000  1
  Sb  Sb15  1  0.249985  0.249985  0.000000  1
