# generated using pymatgen
data_Y5Ho3Tc2(B12Rh)2
_symmetry_space_group_name_H-M   'P 1'
_cell_length_a   3.68107300
_cell_length_b   9.14677881
_cell_length_c   11.54178819
_cell_angle_alpha   90.36351224
_cell_angle_beta   90.00000000
_cell_angle_gamma   90.00000000
_symmetry_Int_Tables_number   1
_chemical_formula_structural   Y5Ho3Tc2(B12Rh)2
_chemical_formula_sum   'Y5 Ho3 Tc2 B24 Rh2'
_cell_volume   388.60373141
_cell_formula_units_Z   1
loop_
 _symmetry_equiv_pos_site_id
 _symmetry_equiv_pos_as_xyz
  1  'x, y, z'
loop_
 _atom_site_type_symbol
 _atom_site_label
 _atom_site_symmetry_multiplicity
 _atom_site_fract_x
 _atom_site_fract_y
 _atom_site_fract_z
 _atom_site_occupancy
  Y  Y0  1  0.500000  0.318584  0.411248  1
  Y  Y1  1  0.500000  0.681436  0.588832  1
  Y  Y2  1  0.500000  0.173448  0.917009  1
  Y  Y3  1  0.500000  0.826460  0.082788  1
  Y  Y4  1  0.500000  0.441784  0.126602  1
  Ho  Ho5  1  0.500000  0.558458  0.872824  1
  Ho  Ho6  1  0.500000  0.054222  0.628724  1
  Ho  Ho7  1  0.500000  0.945762  0.371405  1
  Tc  Tc8  1  0.500000  0.138604  0.180156  1
  Tc  Tc9  1  0.500000  0.860945  0.819815  1
  B  B10  1  0.000000  0.107234  0.471234  1
  B  B11  1  0.000000  0.892824  0.528888  1
  B  B12  1  0.000000  0.393323  0.969914  1
  B  B13  1  0.000000  0.606963  0.029354  1
  B  B14  1  0.000000  0.131781  0.314895  1
  B  B15  1  0.000000  0.868134  0.685184  1
  B  B16  1  0.000000  0.367846  0.816261  1
  B  B17  1  0.000000  0.632647  0.183715  1
  B  B18  1  0.000000  0.052976  0.067675  1
  B  B19  1  0.000000  0.946657  0.932219  1
  B  B20  1  0.000000  0.445421  0.566288  1
  B  B21  1  0.000000  0.554648  0.433951  1
  B  B22  1  0.000000  0.483785  0.287945  1
  B  B23  1  0.000000  0.516426  0.712394  1
  B  B24  1  0.000000  0.016469  0.786865  1
  B  B25  1  0.000000  0.983395  0.213184  1
  B  B26  1  0.000000  0.247525  0.081455  1
  B  B27  1  0.000000  0.751929  0.918295  1
  B  B28  1  0.000000  0.250752  0.579183  1
  B  B29  1  0.000000  0.749364  0.420974  1
  B  B30  1  0.000000  0.292087  0.234837  1
  B  B31  1  0.000000  0.707587  0.765291  1
  B  B32  1  0.000000  0.208777  0.734588  1
  B  B33  1  0.000000  0.791358  0.265480  1
  Rh  Rh34  1  0.500000  0.362150  0.678972  1
  Rh  Rh35  1  0.500000  0.638237  0.321557  1
