# generated using pymatgen
data_Er20Co3Bi8Ir
_symmetry_space_group_name_H-M   'P 1'
_cell_length_a   7.94545823
_cell_length_b   8.90323900
_cell_length_c   12.37538777
_cell_angle_alpha   90.00000000
_cell_angle_beta   90.15101079
_cell_angle_gamma   90.00000000
_symmetry_Int_Tables_number   1
_chemical_formula_structural   Er20Co3Bi8Ir
_chemical_formula_sum   'Er20 Co3 Bi8 Ir1'
_cell_volume   875.43577073
_cell_formula_units_Z   1
loop_
 _symmetry_equiv_pos_site_id
 _symmetry_equiv_pos_as_xyz
  1  'x, y, z'
loop_
 _atom_site_type_symbol
 _atom_site_label
 _atom_site_symmetry_multiplicity
 _atom_site_fract_x
 _atom_site_fract_y
 _atom_site_fract_z
 _atom_site_occupancy
  Er  Er0  1  0.653329  0.750000  0.698934  1
  Er  Er1  1  0.346249  0.250000  0.300903  1
  Er  Er2  1  0.154835  0.250000  0.799643  1
  Er  Er3  1  0.842110  0.750000  0.206386  1
  Er  Er4  1  0.120667  0.750000  0.807445  1
  Er  Er5  1  0.884739  0.250000  0.187346  1
  Er  Er6  1  0.616054  0.250000  0.688374  1
  Er  Er7  1  0.383209  0.750000  0.311773  1
  Er  Er8  1  0.554365  0.750000  0.998088  1
  Er  Er9  1  0.446100  0.250000  0.001586  1
  Er  Er10  1  0.054539  0.250000  0.502707  1
  Er  Er11  1  0.946782  0.750000  0.498565  1
  Er  Er12  1  0.824460  0.455689  0.935184  1
  Er  Er13  1  0.174467  0.535536  0.064469  1
  Er  Er14  1  0.326381  0.537924  0.562718  1
  Er  Er15  1  0.174467  0.964464  0.064469  1
  Er  Er16  1  0.674396  0.462749  0.436941  1
  Er  Er17  1  0.824460  0.044311  0.935184  1
  Er  Er18  1  0.674396  0.037251  0.436941  1
  Er  Er19  1  0.326381  0.962076  0.562718  1
  Co  Co20  1  0.067685  0.250000  0.007745  1
  Co  Co21  1  0.435366  0.250000  0.508060  1
  Co  Co22  1  0.565798  0.750000  0.491217  1
  Bi  Bi23  1  0.929605  0.009273  0.672916  1
  Bi  Bi24  1  0.070030  0.991539  0.327436  1
  Bi  Bi25  1  0.429913  0.990729  0.826623  1
  Bi  Bi26  1  0.070030  0.508461  0.327436  1
  Bi  Bi27  1  0.569525  0.009899  0.173358  1
  Bi  Bi28  1  0.929605  0.490727  0.672916  1
  Bi  Bi29  1  0.569525  0.490101  0.173358  1
  Bi  Bi30  1  0.429913  0.509271  0.826623  1
  Ir  Ir31  1  0.930624  0.750000  0.991938  1
