# generated using pymatgen
data_Nd4ErP12Ru17Rh2
_symmetry_space_group_name_H-M   'P 1'
_cell_length_a   12.61461948
_cell_length_b   12.65810919
_cell_length_c   4.01504000
_cell_angle_alpha   90.00000000
_cell_angle_beta   90.00000000
_cell_angle_gamma   120.10088814
_symmetry_Int_Tables_number   1
_chemical_formula_structural   Nd4ErP12Ru17Rh2
_chemical_formula_sum   'Nd4 Er1 P12 Ru17 Rh2'
_cell_volume   554.65264878
_cell_formula_units_Z   1
loop_
 _symmetry_equiv_pos_site_id
 _symmetry_equiv_pos_as_xyz
  1  'x, y, z'
loop_
 _atom_site_type_symbol
 _atom_site_label
 _atom_site_symmetry_multiplicity
 _atom_site_fract_x
 _atom_site_fract_y
 _atom_site_fract_z
 _atom_site_occupancy
  Nd  Nd0  1  0.183731  0.182989  0.500000  1
  Nd  Nd1  1  0.816150  0.999093  0.500000  1
  Nd  Nd2  1  0.000092  0.815714  0.500000  1
  Nd  Nd3  1  0.331655  0.666026  0.000000  1
  Er  Er4  1  0.668713  0.334239  0.000000  1
  P  P5  1  0.811702  0.811051  0.000000  1
  P  P6  1  0.189847  0.002238  0.000000  1
  P  P7  1  0.998750  0.186464  0.000000  1
  P  P8  1  0.170351  0.475794  0.500000  1
  P  P9  1  0.521984  0.697490  0.500000  1
  P  P10  1  0.301728  0.825965  0.500000  1
  P  P11  1  0.698227  0.520811  0.500000  1
  P  P12  1  0.826174  0.304960  0.500000  1
  P  P13  1  0.481656  0.179096  0.500000  1
  P  P14  1  0.371781  0.372174  0.000000  1
  P  P15  1  0.627859  0.999617  0.000000  1
  P  P16  1  0.000196  0.625735  0.000000  1
  Ru  Ru17  1  0.999542  0.445338  0.000000  1
  Ru  Ru18  1  0.712340  0.711537  0.500000  1
  Ru  Ru19  1  0.289470  0.002633  0.500000  1
  Ru  Ru20  1  0.998206  0.284267  0.500000  1
  Ru  Ru21  1  0.183850  0.378118  0.000000  1
  Ru  Ru22  1  0.620345  0.805194  0.000000  1
  Ru  Ru23  1  0.193866  0.816481  0.000000  1
  Ru  Ru24  1  0.805450  0.619278  0.000000  1
  Ru  Ru25  1  0.813455  0.194547  0.000000  1
  Ru  Ru26  1  0.383081  0.187641  0.000000  1
  Ru  Ru27  1  0.366629  0.490768  0.500000  1
  Ru  Ru28  1  0.508805  0.877589  0.500000  1
  Ru  Ru29  1  0.123135  0.632265  0.500000  1
  Ru  Ru30  1  0.873661  0.505060  0.500000  1
  Ru  Ru31  1  0.632474  0.127314  0.500000  1
  Ru  Ru32  1  0.495138  0.369745  0.500000  1
  Ru  Ru33  1  0.000011  0.999324  0.000000  1
  Rh  Rh34  1  0.552735  0.553174  0.000000  1
  Rh  Rh35  1  0.447210  0.000264  0.000000  1
