# generated using pymatgen
data_AlVCl8
_symmetry_space_group_name_H-M   'P 1'
_cell_length_a   7.70744000
_cell_length_b   10.54897977
_cell_length_c   8.32249451
_cell_angle_alpha   77.16398736
_cell_angle_beta   90.00000000
_cell_angle_gamma   90.00000000
_symmetry_Int_Tables_number   1
_chemical_formula_structural   AlVCl8
_chemical_formula_sum   'Al2 V2 Cl16'
_cell_volume   659.75571233
_cell_formula_units_Z   2
loop_
 _symmetry_equiv_pos_site_id
 _symmetry_equiv_pos_as_xyz
  1  'x, y, z'
loop_
 _atom_site_type_symbol
 _atom_site_label
 _atom_site_symmetry_multiplicity
 _atom_site_fract_x
 _atom_site_fract_y
 _atom_site_fract_z
 _atom_site_occupancy
  Al  Al0  1  0.057816  0.244089  0.623533  1
  Al  Al1  1  0.557816  0.755911  0.876467  1
  V  V2  1  0.940544  0.745836  0.387823  1
  V  V3  1  0.440544  0.254164  0.112177  1
  Cl  Cl4  1  0.311776  0.328213  0.557569  1
  Cl  Cl5  1  0.811776  0.671787  0.942431  1
  Cl  Cl6  1  0.690929  0.675382  0.450118  1
  Cl  Cl7  1  0.190929  0.324618  0.049882  1
  Cl  Cl8  1  0.942894  0.198794  0.405628  1
  Cl  Cl9  1  0.442894  0.801206  0.094372  1
  Cl  Cl10  1  0.054395  0.796984  0.591278  1
  Cl  Cl11  1  0.554395  0.203016  0.908722  1
  Cl  Cl12  1  0.899182  0.385661  0.707548  1
  Cl  Cl13  1  0.399182  0.614339  0.792452  1
  Cl  Cl14  1  0.094562  0.605561  0.314809  1
  Cl  Cl15  1  0.594562  0.394439  0.185191  1
  Cl  Cl16  1  0.081934  0.071355  0.816346  1
  Cl  Cl17  1  0.581934  0.928645  0.683654  1
  Cl  Cl18  1  0.925967  0.910776  0.195099  1
  Cl  Cl19  1  0.425967  0.089224  0.304901  1
