# generated using pymatgen
data_Lu2VOs3
_symmetry_space_group_name_H-M   'P 1'
_cell_length_a   5.40201900
_cell_length_b   5.40201989
_cell_length_c   8.30713500
_cell_angle_alpha   90.00000000
_cell_angle_beta   90.00000000
_cell_angle_gamma   119.99998844
_symmetry_Int_Tables_number   1
_chemical_formula_structural   Lu2VOs3
_chemical_formula_sum   'Lu4 V2 Os6'
_cell_volume   209.93953778
_cell_formula_units_Z   2
loop_
 _symmetry_equiv_pos_site_id
 _symmetry_equiv_pos_as_xyz
  1  'x, y, z'
loop_
 _atom_site_type_symbol
 _atom_site_label
 _atom_site_symmetry_multiplicity
 _atom_site_fract_x
 _atom_site_fract_y
 _atom_site_fract_z
 _atom_site_occupancy
  Lu  Lu0  1  0.333333  0.666667  0.436005  1
  Lu  Lu1  1  0.666667  0.333333  0.563995  1
  Lu  Lu2  1  0.666667  0.333333  0.936005  1
  Lu  Lu3  1  0.333333  0.666667  0.063995  1
  V  V4  1  0.000000  0.000000  0.000000  1
  V  V5  1  0.000000  0.000000  0.500000  1
  Os  Os6  1  0.170360  0.340721  0.750000  1
  Os  Os7  1  0.170360  0.829640  0.750000  1
  Os  Os8  1  0.340721  0.170360  0.250000  1
  Os  Os9  1  0.829640  0.659279  0.250000  1
  Os  Os10  1  0.659279  0.829640  0.750000  1
  Os  Os11  1  0.829640  0.170360  0.250000  1
