# generated using pymatgen
data_Dy8Y4Co4BiRu
_symmetry_space_group_name_H-M   'P 1'
_cell_length_a   8.33860149
_cell_length_b   8.33860242
_cell_length_c   8.33860157
_cell_angle_alpha   111.04803703
_cell_angle_beta   110.53853721
_cell_angle_gamma   106.85869059
_symmetry_Int_Tables_number   1
_chemical_formula_structural   Dy8Y4Co4BiRu
_chemical_formula_sum   'Dy8 Y4 Co4 Bi1 Ru1'
_cell_volume   445.63050894
_cell_formula_units_Z   1
loop_
 _symmetry_equiv_pos_site_id
 _symmetry_equiv_pos_as_xyz
  1  'x, y, z'
loop_
 _atom_site_type_symbol
 _atom_site_label
 _atom_site_symmetry_multiplicity
 _atom_site_fract_x
 _atom_site_fract_y
 _atom_site_fract_z
 _atom_site_occupancy
  Dy  Dy0  1  0.688270  0.379066  0.690796  1
  Dy  Dy1  1  0.311730  0.620934  0.309204  1
  Dy  Dy2  1  0.688270  0.997473  0.309204  1
  Dy  Dy3  1  0.311730  0.002527  0.690796  1
  Dy  Dy4  1  0.594428  0.789798  0.804631  1
  Dy  Dy5  1  0.405572  0.210202  0.195369  1
  Dy  Dy6  1  0.985167  0.789798  0.195369  1
  Dy  Dy7  1  0.014833  0.210202  0.804631  1
  Y  Y8  1  0.816822  0.713654  0.530477  1
  Y  Y9  1  0.183178  0.286346  0.469523  1
  Y  Y10  1  0.183178  0.713654  0.896831  1
  Y  Y11  1  0.816822  0.286346  0.103169  1
  Co  Co12  1  0.622685  0.000000  0.622685  1
  Co  Co13  1  0.377315  0.000000  0.377315  1
  Co  Co14  1  0.111125  0.611125  0.500000  1
  Co  Co15  1  0.888875  0.388875  0.500000  1
  Bi  Bi16  1  0.500000  0.500000  0.000000  1
  Ru  Ru17  1  0.000000  0.000000  0.000000  1
