# generated using pymatgen
data_Er2Tm8IrRu3
_symmetry_space_group_name_H-M   'P 1'
_cell_length_a   6.26575236
_cell_length_b   7.26744126
_cell_length_c   8.34549747
_cell_angle_alpha   96.85409746
_cell_angle_beta   111.94732167
_cell_angle_gamma   90.11946609
_symmetry_Int_Tables_number   1
_chemical_formula_structural   Er2Tm8IrRu3
_chemical_formula_sum   'Er2 Tm8 Ir1 Ru3'
_cell_volume   349.51043063
_cell_formula_units_Z   1
loop_
 _symmetry_equiv_pos_site_id
 _symmetry_equiv_pos_as_xyz
  1  'x, y, z'
loop_
 _atom_site_type_symbol
 _atom_site_label
 _atom_site_symmetry_multiplicity
 _atom_site_fract_x
 _atom_site_fract_y
 _atom_site_fract_z
 _atom_site_occupancy
  Er  Er0  1  0.792420  0.081989  0.814834  1
  Er  Er1  1  0.978133  0.415117  0.187042  1
  Tm  Tm2  1  0.208458  0.915515  0.185824  1
  Tm  Tm3  1  0.024819  0.585556  0.814879  1
  Tm  Tm4  1  0.204531  0.183399  0.564168  1
  Tm  Tm5  1  0.642094  0.316454  0.434689  1
  Tm  Tm6  1  0.793753  0.815465  0.434861  1
  Tm  Tm7  1  0.356727  0.685363  0.563592  1
  Tm  Tm8  1  0.419466  0.249683  0.000408  1
  Tm  Tm9  1  0.580187  0.751338  0.000783  1
  Ir  Ir10  1  0.601433  0.423172  0.778711  1
  Ru  Ru11  1  0.824040  0.076736  0.220080  1
  Ru  Ru12  1  0.396027  0.576481  0.220462  1
  Ru  Ru13  1  0.177912  0.923736  0.779667  1
