# generated using pymatgen
data_Sm8Ho12Si15Ag
_symmetry_space_group_name_H-M   'P 1'
_cell_length_a   7.46981797
_cell_length_b   7.73845785
_cell_length_c   14.76454764
_cell_angle_alpha   89.79294509
_cell_angle_beta   89.40997828
_cell_angle_gamma   90.16528199
_symmetry_Int_Tables_number   1
_chemical_formula_structural   Sm8Ho12Si15Ag
_chemical_formula_sum   'Sm8 Ho12 Si15 Ag1'
_cell_volume   853.40831033
_cell_formula_units_Z   1
loop_
 _symmetry_equiv_pos_site_id
 _symmetry_equiv_pos_as_xyz
  1  'x, y, z'
loop_
 _atom_site_type_symbol
 _atom_site_label
 _atom_site_symmetry_multiplicity
 _atom_site_fract_x
 _atom_site_fract_y
 _atom_site_fract_z
 _atom_site_occupancy
  Sm  Sm0  1  0.018801  0.180711  0.099668  1
  Sm  Sm1  1  0.981498  0.821333  0.903092  1
  Sm  Sm2  1  0.481322  0.680407  0.902933  1
  Sm  Sm3  1  0.984562  0.829438  0.598852  1
  Sm  Sm4  1  0.517206  0.319530  0.097628  1
  Sm  Sm5  1  0.012166  0.173002  0.397838  1
  Sm  Sm6  1  0.516904  0.317345  0.398762  1
  Sm  Sm7  1  0.489802  0.683700  0.601144  1
  Ho  Ho8  1  0.163827  0.509611  0.751630  1
  Ho  Ho9  1  0.838079  0.490841  0.251602  1
  Ho  Ho10  1  0.337794  0.006557  0.249180  1
  Ho  Ho11  1  0.665972  0.989285  0.751038  1
  Ho  Ho12  1  0.338610  0.174380  0.624145  1
  Ho  Ho13  1  0.665322  0.822066  0.376012  1
  Ho  Ho14  1  0.168609  0.674716  0.374519  1
  Ho  Ho15  1  0.672816  0.822256  0.123098  1
  Ho  Ho16  1  0.826806  0.325326  0.622208  1
  Ho  Ho17  1  0.326843  0.178431  0.877788  1
  Ho  Ho18  1  0.827272  0.320318  0.878453  1
  Ho  Ho19  1  0.171847  0.678460  0.122996  1
  Si  Si20  1  0.037474  0.115030  0.750832  1
  Si  Si21  1  0.964337  0.888867  0.249207  1
  Si  Si22  1  0.464910  0.608176  0.248021  1
  Si  Si23  1  0.536748  0.392176  0.751961  1
  Si  Si24  1  0.279059  0.877867  0.751133  1
  Si  Si25  1  0.719102  0.124569  0.248107  1
  Si  Si26  1  0.221611  0.373059  0.248498  1
  Si  Si27  1  0.781020  0.623855  0.753000  1
  Si  Si28  1  0.835906  0.534127  0.458623  1
  Si  Si29  1  0.338033  0.965485  0.460891  1
  Si  Si30  1  0.847107  0.533024  0.038556  1
  Si  Si31  1  0.659281  0.033643  0.537730  1
  Si  Si32  1  0.150917  0.467442  0.962517  1
  Si  Si33  1  0.651696  0.031278  0.961081  1
  Si  Si34  1  0.347424  0.968100  0.039563  1
  Ag  Ag35  1  0.159316  0.465589  0.537695  1
