# generated using pymatgen
data_Nd3Ni2As6Rh7
_symmetry_space_group_name_H-M   'P 1'
_cell_length_a   4.07724000
_cell_length_b   11.30595100
_cell_length_c   13.35595000
_cell_angle_alpha   90.00000000
_cell_angle_beta   90.00000000
_cell_angle_gamma   90.00000000
_symmetry_Int_Tables_number   1
_chemical_formula_structural   Nd3Ni2As6Rh7
_chemical_formula_sum   'Nd6 Ni4 As12 Rh14'
_cell_volume   615.67023760
_cell_formula_units_Z   2
loop_
 _symmetry_equiv_pos_site_id
 _symmetry_equiv_pos_as_xyz
  1  'x, y, z'
loop_
 _atom_site_type_symbol
 _atom_site_label
 _atom_site_symmetry_multiplicity
 _atom_site_fract_x
 _atom_site_fract_y
 _atom_site_fract_z
 _atom_site_occupancy
  Nd  Nd0  1  0.000000  0.500000  0.521827  1
  Nd  Nd1  1  0.500000  0.000000  0.478173  1
  Nd  Nd2  1  0.500000  0.810582  0.203689  1
  Nd  Nd3  1  0.500000  0.189418  0.203689  1
  Nd  Nd4  1  0.000000  0.689418  0.796311  1
  Nd  Nd5  1  0.000000  0.310582  0.796311  1
  Ni  Ni6  1  0.500000  0.500000  0.698759  1
  Ni  Ni7  1  0.000000  0.000000  0.301241  1
  Ni  Ni8  1  0.000000  0.500000  0.970801  1
  Ni  Ni9  1  0.500000  0.000000  0.029199  1
  As  As10  1  0.500000  0.500000  0.867806  1
  As  As11  1  0.000000  0.000000  0.132194  1
  As  As12  1  0.500000  0.500000  0.349714  1
  As  As13  1  0.000000  0.000000  0.650286  1
  As  As14  1  0.500000  0.320489  0.619101  1
  As  As15  1  0.500000  0.679511  0.619101  1
  As  As16  1  0.000000  0.179511  0.380899  1
  As  As17  1  0.000000  0.820489  0.380899  1
  As  As18  1  0.500000  0.858271  0.897221  1
  As  As19  1  0.500000  0.141729  0.897221  1
  As  As20  1  0.000000  0.641729  0.102779  1
  As  As21  1  0.000000  0.358271  0.102779  1
  Rh  Rh22  1  0.500000  0.500000  0.168648  1
  Rh  Rh23  1  0.000000  0.000000  0.831352  1
  Rh  Rh24  1  0.500000  0.337578  0.992595  1
  Rh  Rh25  1  0.500000  0.662422  0.992595  1
  Rh  Rh26  1  0.000000  0.162422  0.007405  1
  Rh  Rh27  1  0.000000  0.837578  0.007405  1
  Rh  Rh28  1  0.500000  0.297106  0.432159  1
  Rh  Rh29  1  0.500000  0.702894  0.432159  1
  Rh  Rh30  1  0.000000  0.202894  0.567841  1
  Rh  Rh31  1  0.000000  0.797106  0.567841  1
  Rh  Rh32  1  0.500000  0.874376  0.709644  1
  Rh  Rh33  1  0.500000  0.125624  0.709644  1
  Rh  Rh34  1  0.000000  0.625624  0.290356  1
  Rh  Rh35  1  0.000000  0.374376  0.290356  1
