# generated using pymatgen
data_TbDyLuGa2
_symmetry_space_group_name_H-M   'P 1'
_cell_length_a   7.58042200
_cell_length_b   7.58123700
_cell_length_c   4.32831500
_cell_angle_alpha   90.00000000
_cell_angle_beta   90.00000000
_cell_angle_gamma   90.00000000
_symmetry_Int_Tables_number   1
_chemical_formula_structural   TbDyLuGa2
_chemical_formula_sum   'Tb2 Dy2 Lu2 Ga4'
_cell_volume   248.74382974
_cell_formula_units_Z   2
loop_
 _symmetry_equiv_pos_site_id
 _symmetry_equiv_pos_as_xyz
  1  'x, y, z'
loop_
 _atom_site_type_symbol
 _atom_site_label
 _atom_site_symmetry_multiplicity
 _atom_site_fract_x
 _atom_site_fract_y
 _atom_site_fract_z
 _atom_site_occupancy
  Tb  Tb0  1  0.174303  0.674222  0.500000  1
  Tb  Tb1  1  0.674304  0.825778  0.500000  1
  Dy  Dy2  1  0.325575  0.174523  0.500000  1
  Dy  Dy3  1  0.825575  0.325476  0.500000  1
  Lu  Lu4  1  0.000053  0.000172  0.000000  1
  Lu  Lu5  1  0.500053  0.499828  0.000000  1
  Ga  Ga6  1  0.621036  0.121249  0.000000  1
  Ga  Ga7  1  0.121037  0.378751  0.000000  1
  Ga  Ga8  1  0.879031  0.620749  0.000000  1
  Ga  Ga9  1  0.379030  0.879251  0.000000  1
