# generated using pymatgen
data_LiAcCeZn3Ru
_symmetry_space_group_name_H-M   'P 1'
_cell_length_a   7.34651400
_cell_length_b   7.43960881
_cell_length_c   5.23563853
_cell_angle_alpha   89.94744058
_cell_angle_beta   90.00000000
_cell_angle_gamma   90.00000000
_symmetry_Int_Tables_number   1
_chemical_formula_structural   LiAcCeZn3Ru
_chemical_formula_sum   'Li2 Ac2 Ce2 Zn6 Ru2'
_cell_volume   286.15469978
_cell_formula_units_Z   2
loop_
 _symmetry_equiv_pos_site_id
 _symmetry_equiv_pos_as_xyz
  1  'x, y, z'
loop_
 _atom_site_type_symbol
 _atom_site_label
 _atom_site_symmetry_multiplicity
 _atom_site_fract_x
 _atom_site_fract_y
 _atom_site_fract_z
 _atom_site_occupancy
  Li  Li0  1  0.192431  0.686667  0.295878  1
  Li  Li1  1  0.807569  0.686667  0.295878  1
  Ac  Ac2  1  0.000000  0.499092  0.761202  1
  Ac  Ac3  1  0.500000  0.001036  0.232590  1
  Ce  Ce4  1  0.000000  0.000362  0.016675  1
  Ce  Ce5  1  0.500000  0.500742  0.007666  1
  Zn  Zn6  1  0.813546  0.316151  0.285551  1
  Zn  Zn7  1  0.311209  0.186849  0.711757  1
  Zn  Zn8  1  0.186454  0.316151  0.285551  1
  Zn  Zn9  1  0.688791  0.186849  0.711757  1
  Zn  Zn10  1  0.691739  0.809787  0.717137  1
  Zn  Zn11  1  0.308261  0.809787  0.717137  1
  Ru  Ru12  1  0.500000  0.492400  0.483071  1
  Ru  Ru13  1  0.000000  0.007457  0.478149  1
