# generated using pymatgen
data_PmGa2Pd3
_symmetry_space_group_name_H-M   'P 1'
_cell_length_a   5.59362301
_cell_length_b   5.59362159
_cell_length_c   4.05712700
_cell_angle_alpha   90.00000000
_cell_angle_beta   90.00000000
_cell_angle_gamma   60.00448866
_symmetry_Int_Tables_number   1
_chemical_formula_structural   PmGa2Pd3
_chemical_formula_sum   'Pm1 Ga2 Pd3'
_cell_volume   109.93985291
_cell_formula_units_Z   1
loop_
 _symmetry_equiv_pos_site_id
 _symmetry_equiv_pos_as_xyz
  1  'x, y, z'
loop_
 _atom_site_type_symbol
 _atom_site_label
 _atom_site_symmetry_multiplicity
 _atom_site_fract_x
 _atom_site_fract_y
 _atom_site_fract_z
 _atom_site_occupancy
  Pm  Pm0  1  0.000000  0.000000  0.000000  1
  Ga  Ga1  1  0.333357  0.333361  0.000000  1
  Ga  Ga2  1  0.666639  0.666643  0.000000  1
  Pd  Pd3  1  0.500313  0.000001  0.499999  1
  Pd  Pd4  1  0.999999  0.499686  0.499999  1
  Pd  Pd5  1  0.499687  0.500312  0.499999  1
