# generated using pymatgen
data_LiCa2InSn2
_symmetry_space_group_name_H-M   'P 1'
_cell_length_a   4.76490300
_cell_length_b   7.41932100
_cell_length_c   18.00094600
_cell_angle_alpha   90.00000000
_cell_angle_beta   90.00000000
_cell_angle_gamma   90.00000000
_symmetry_Int_Tables_number   1
_chemical_formula_structural   LiCa2InSn2
_chemical_formula_sum   'Li4 Ca8 In4 Sn8'
_cell_volume   636.37565135
_cell_formula_units_Z   4
loop_
 _symmetry_equiv_pos_site_id
 _symmetry_equiv_pos_as_xyz
  1  'x, y, z'
loop_
 _atom_site_type_symbol
 _atom_site_label
 _atom_site_symmetry_multiplicity
 _atom_site_fract_x
 _atom_site_fract_y
 _atom_site_fract_z
 _atom_site_occupancy
  Li  Li0  1  0.250000  0.987529  0.070856  1
  Li  Li1  1  0.750000  0.512471  0.570856  1
  Li  Li2  1  0.750000  0.012471  0.929144  1
  Li  Li3  1  0.250000  0.487529  0.429144  1
  Ca  Ca4  1  0.250000  0.337197  0.938078  1
  Ca  Ca5  1  0.250000  0.837197  0.561922  1
  Ca  Ca6  1  0.750000  0.162803  0.438078  1
  Ca  Ca7  1  0.750000  0.504006  0.275606  1
  Ca  Ca8  1  0.750000  0.004006  0.224394  1
  Ca  Ca9  1  0.750000  0.662803  0.061922  1
  Ca  Ca10  1  0.250000  0.495994  0.724394  1
  Ca  Ca11  1  0.250000  0.995994  0.775606  1
  In  In12  1  0.750000  0.169119  0.654029  1
  In  In13  1  0.250000  0.830881  0.345971  1
  In  In14  1  0.750000  0.669119  0.845971  1
  In  In15  1  0.250000  0.330881  0.154029  1
  Sn  Sn16  1  0.750000  0.214820  0.063321  1
  Sn  Sn17  1  0.750000  0.776945  0.684851  1
  Sn  Sn18  1  0.250000  0.223055  0.315149  1
  Sn  Sn19  1  0.250000  0.723055  0.184851  1
  Sn  Sn20  1  0.250000  0.285180  0.563321  1
  Sn  Sn21  1  0.750000  0.276945  0.815149  1
  Sn  Sn22  1  0.250000  0.785180  0.936679  1
  Sn  Sn23  1  0.750000  0.714820  0.436679  1
