# generated using pymatgen
data_TbNdPa2(Al8Pt3)3
_symmetry_space_group_name_H-M   'P 1'
_cell_length_a   7.58444647
_cell_length_b   7.59079478
_cell_length_c   13.15275135
_cell_angle_alpha   84.49769830
_cell_angle_beta   78.93399510
_cell_angle_gamma   59.90817803
_symmetry_Int_Tables_number   1
_chemical_formula_structural   TbNdPa2(Al8Pt3)3
_chemical_formula_sum   'Tb1 Nd1 Pa2 Al24 Pt9'
_cell_volume   642.99085135
_cell_formula_units_Z   1
loop_
 _symmetry_equiv_pos_site_id
 _symmetry_equiv_pos_as_xyz
  1  'x, y, z'
loop_
 _atom_site_type_symbol
 _atom_site_label
 _atom_site_symmetry_multiplicity
 _atom_site_fract_x
 _atom_site_fract_y
 _atom_site_fract_z
 _atom_site_occupancy
  Tb  Tb0  1  0.266209  0.501469  0.191850  1
  Nd  Nd1  1  0.733152  0.498461  0.809599  1
  Pa  Pa2  1  0.395990  0.167912  0.803762  1
  Pa  Pa3  1  0.604078  0.832129  0.196304  1
  Al  Al4  1  0.683476  0.835277  0.946908  1
  Al  Al5  1  0.316213  0.165824  0.055536  1
  Al  Al6  1  0.145802  0.832673  0.560701  1
  Al  Al7  1  0.854513  0.167109  0.438641  1
  Al  Al8  1  0.480931  0.167738  0.557361  1
  Al  Al9  1  0.519166  0.832348  0.441975  1
  Al  Al10  1  0.213984  0.168383  0.331470  1
  Al  Al11  1  0.786810  0.832204  0.667052  1
  Al  Al12  1  0.437165  0.509832  0.668008  1
  Al  Al13  1  0.562359  0.490470  0.330526  1
  Al  Al14  1  0.108955  0.158601  0.666135  1
  Al  Al15  1  0.892312  0.840414  0.332318  1
  Al  Al16  1  0.351073  0.499467  0.944673  1
  Al  Al17  1  0.646317  0.501111  0.058008  1
  Al  Al18  1  0.016588  0.166399  0.954040  1
  Al  Al19  1  0.983591  0.832331  0.048024  1
  Al  Al20  1  0.185881  0.500388  0.440906  1
  Al  Al21  1  0.814579  0.499625  0.558108  1
  Al  Al22  1  0.736909  0.161338  0.182954  1
  Al  Al23  1  0.261391  0.839695  0.816956  1
  Al  Al24  1  0.064126  0.631252  0.815737  1
  Al  Al25  1  0.937267  0.369278  0.184172  1
  Al  Al26  1  0.855141  0.037752  0.816759  1
  Al  Al27  1  0.145303  0.960070  0.183236  1
  Pt  Pt28  1  0.122523  0.490678  0.638792  1
  Pt  Pt29  1  0.878933  0.509341  0.360262  1
  Pt  Pt30  1  0.656651  0.172487  0.000423  1
  Pt  Pt31  1  0.342073  0.828060  0.000270  1
  Pt  Pt32  1  0.537720  0.165687  0.360253  1
  Pt  Pt33  1  0.461550  0.835432  0.638769  1
  Pt  Pt34  1  0.778161  0.173864  0.637719  1
  Pt  Pt35  1  0.222257  0.825029  0.361353  1
  Pt  Pt36  1  0.000853  0.499875  0.000440  1
