# generated using pymatgen
data_CeUInIr2
_symmetry_space_group_name_H-M   'P 1'
_cell_length_a   7.72692014
_cell_length_b   7.72692014
_cell_length_c   3.61421800
_cell_angle_alpha   90.00000000
_cell_angle_beta   90.00000000
_cell_angle_gamma   87.09245516
_symmetry_Int_Tables_number   1
_chemical_formula_structural   CeUInIr2
_chemical_formula_sum   'Ce2 U2 In2 Ir4'
_cell_volume   215.51016472
_cell_formula_units_Z   2
loop_
 _symmetry_equiv_pos_site_id
 _symmetry_equiv_pos_as_xyz
  1  'x, y, z'
loop_
 _atom_site_type_symbol
 _atom_site_label
 _atom_site_symmetry_multiplicity
 _atom_site_fract_x
 _atom_site_fract_y
 _atom_site_fract_z
 _atom_site_occupancy
  Ce  Ce0  1  0.667926  0.167926  0.500000  1
  Ce  Ce1  1  0.332074  0.832074  0.500000  1
  U  U2  1  0.164955  0.335045  0.500000  1
  U  U3  1  0.835045  0.664955  0.500000  1
  In  In4  1  0.500000  0.500000  0.000000  1
  In  In5  1  0.000000  0.000000  0.000000  1
  Ir  Ir6  1  0.127619  0.627619  0.000000  1
  Ir  Ir7  1  0.872381  0.372381  0.000000  1
  Ir  Ir8  1  0.647003  0.852997  0.000000  1
  Ir  Ir9  1  0.352997  0.147003  0.000000  1
