# generated using pymatgen
data_Dy2Ho2MgSn4
_symmetry_space_group_name_H-M   'P 1'
_cell_length_a   7.64822900
_cell_length_b   8.21365300
_cell_length_c   15.21457200
_cell_angle_alpha   90.00000000
_cell_angle_beta   90.00000000
_cell_angle_gamma   90.00000000
_symmetry_Int_Tables_number   1
_chemical_formula_structural   Dy2Ho2MgSn4
_chemical_formula_sum   'Dy8 Ho8 Mg4 Sn16'
_cell_volume   955.77787744
_cell_formula_units_Z   4
loop_
 _symmetry_equiv_pos_site_id
 _symmetry_equiv_pos_as_xyz
  1  'x, y, z'
loop_
 _atom_site_type_symbol
 _atom_site_label
 _atom_site_symmetry_multiplicity
 _atom_site_fract_x
 _atom_site_fract_y
 _atom_site_fract_z
 _atom_site_occupancy
  Dy  Dy0  1  0.998901  0.184577  0.091009  1
  Dy  Dy1  1  0.001099  0.815423  0.908991  1
  Dy  Dy2  1  0.501099  0.684577  0.908991  1
  Dy  Dy3  1  0.001099  0.815423  0.591009  1
  Dy  Dy4  1  0.498901  0.315423  0.091009  1
  Dy  Dy5  1  0.998901  0.184577  0.408991  1
  Dy  Dy6  1  0.498901  0.315423  0.408991  1
  Dy  Dy7  1  0.501099  0.684577  0.591009  1
  Ho  Ho8  1  0.335505  0.169189  0.628807  1
  Ho  Ho9  1  0.664495  0.830811  0.371193  1
  Ho  Ho10  1  0.164495  0.669189  0.371193  1
  Ho  Ho11  1  0.664495  0.830811  0.128807  1
  Ho  Ho12  1  0.835505  0.330811  0.628807  1
  Ho  Ho13  1  0.335505  0.169189  0.871193  1
  Ho  Ho14  1  0.835505  0.330811  0.871193  1
  Ho  Ho15  1  0.164495  0.669189  0.128807  1
  Mg  Mg16  1  0.159305  0.505134  0.750000  1
  Mg  Mg17  1  0.840695  0.494866  0.250000  1
  Mg  Mg18  1  0.340695  0.005134  0.250000  1
  Mg  Mg19  1  0.659305  0.994866  0.750000  1
  Sn  Sn20  1  0.022153  0.091769  0.750000  1
  Sn  Sn21  1  0.977847  0.908231  0.250000  1
  Sn  Sn22  1  0.477847  0.591769  0.250000  1
  Sn  Sn23  1  0.522153  0.408231  0.750000  1
  Sn  Sn24  1  0.181636  0.462736  0.538570  1
  Sn  Sn25  1  0.818364  0.537264  0.461430  1
  Sn  Sn26  1  0.318364  0.962736  0.461430  1
  Sn  Sn27  1  0.818364  0.537264  0.038570  1
  Sn  Sn28  1  0.681636  0.037264  0.538570  1
  Sn  Sn29  1  0.181636  0.462736  0.961430  1
  Sn  Sn30  1  0.681636  0.037264  0.961430  1
  Sn  Sn31  1  0.318364  0.962736  0.038570  1
  Sn  Sn32  1  0.302358  0.847732  0.750000  1
  Sn  Sn33  1  0.697642  0.152268  0.250000  1
  Sn  Sn34  1  0.197642  0.347732  0.250000  1
  Sn  Sn35  1  0.802358  0.652268  0.750000  1
