# generated using pymatgen
data_Ca8TaAlN8
_symmetry_space_group_name_H-M   'P 1'
_cell_length_a   6.01407044
_cell_length_b   6.02988039
_cell_length_c   9.14320983
_cell_angle_alpha   70.70403738
_cell_angle_beta   80.27295163
_cell_angle_gamma   68.41965648
_symmetry_Int_Tables_number   1
_chemical_formula_structural   Ca8TaAlN8
_chemical_formula_sum   'Ca8 Ta1 Al1 N8'
_cell_volume   290.58277870
_cell_formula_units_Z   1
loop_
 _symmetry_equiv_pos_site_id
 _symmetry_equiv_pos_as_xyz
  1  'x, y, z'
loop_
 _atom_site_type_symbol
 _atom_site_label
 _atom_site_symmetry_multiplicity
 _atom_site_fract_x
 _atom_site_fract_y
 _atom_site_fract_z
 _atom_site_occupancy
  Ca  Ca0  1  0.235577  0.949739  0.617163  1
  Ca  Ca1  1  0.745503  0.611718  0.178208  1
  Ca  Ca2  1  0.752618  0.240991  0.980432  1
  Ca  Ca3  1  0.263428  0.523443  0.434225  1
  Ca  Ca4  1  0.755805  0.047416  0.415070  1
  Ca  Ca5  1  0.252923  0.398031  0.810838  1
  Ca  Ca6  1  0.731857  0.478284  0.582801  1
  Ca  Ca7  1  0.253775  0.762139  0.003968  1
  Ta  Ta8  1  0.284098  0.154816  0.242393  1
  Al  Al9  1  0.717002  0.842362  0.756948  1
  N  N10  1  0.976871  0.698718  0.613308  1
  N  N11  1  0.510395  0.171319  0.628378  1
  N  N12  1  0.022454  0.298844  0.381261  1
  N  N13  1  0.516649  0.626423  0.801396  1
  N  N14  1  0.147627  0.149528  0.063986  1
  N  N15  1  0.485633  0.825014  0.368547  1
  N  N16  1  0.484568  0.370360  0.194772  1
  N  N17  1  0.863217  0.850854  0.926305  1
