# generated using pymatgen
data_Dy5Ho3Tc2(B12Os)2
_symmetry_space_group_name_H-M   'P 1'
_cell_length_a   3.66697700
_cell_length_b   9.15070089
_cell_length_c   11.53873002
_cell_angle_alpha   89.92327590
_cell_angle_beta   90.00000000
_cell_angle_gamma   90.00000000
_symmetry_Int_Tables_number   1
_chemical_formula_structural   Dy5Ho3Tc2(B12Os)2
_chemical_formula_sum   'Dy5 Ho3 Tc2 B24 Os2'
_cell_volume   387.18646589
_cell_formula_units_Z   1
loop_
 _symmetry_equiv_pos_site_id
 _symmetry_equiv_pos_as_xyz
  1  'x, y, z'
loop_
 _atom_site_type_symbol
 _atom_site_label
 _atom_site_symmetry_multiplicity
 _atom_site_fract_x
 _atom_site_fract_y
 _atom_site_fract_z
 _atom_site_occupancy
  Dy  Dy0  1  0.000000  0.324725  0.415369  1
  Dy  Dy1  1  0.000000  0.675264  0.584723  1
  Dy  Dy2  1  0.000000  0.820855  0.087200  1
  Dy  Dy3  1  0.000000  0.179130  0.912710  1
  Dy  Dy4  1  0.000000  0.941700  0.371015  1
  Ho  Ho5  1  0.000000  0.058376  0.629193  1
  Ho  Ho6  1  0.000000  0.443610  0.129869  1
  Ho  Ho7  1  0.000000  0.556389  0.870078  1
  Tc  Tc8  1  0.000000  0.637965  0.320200  1
  Tc  Tc9  1  0.000000  0.361741  0.679812  1
  B  B10  1  0.500000  0.553085  0.432892  1
  B  B11  1  0.500000  0.446805  0.567149  1
  B  B12  1  0.500000  0.053758  0.066970  1
  B  B13  1  0.500000  0.946264  0.932959  1
  B  B14  1  0.500000  0.747891  0.418728  1
  B  B15  1  0.500000  0.251800  0.581305  1
  B  B16  1  0.500000  0.248749  0.081390  1
  B  B17  1  0.500000  0.751297  0.918584  1
  B  B18  1  0.500000  0.790881  0.265312  1
  B  B19  1  0.500000  0.208840  0.734603  1
  B  B20  1  0.500000  0.290569  0.234227  1
  B  B21  1  0.500000  0.709540  0.765738  1
  B  B22  1  0.500000  0.630918  0.185268  1
  B  B23  1  0.500000  0.369009  0.814684  1
  B  B24  1  0.500000  0.130763  0.313850  1
  B  B25  1  0.500000  0.869487  0.686039  1
  B  B26  1  0.500000  0.982847  0.211850  1
  B  B27  1  0.500000  0.017310  0.787948  1
  B  B28  1  0.500000  0.482563  0.287549  1
  B  B29  1  0.500000  0.517396  0.712435  1
  B  B30  1  0.500000  0.603041  0.028341  1
  B  B31  1  0.500000  0.396955  0.971636  1
  B  B32  1  0.500000  0.103487  0.471329  1
  B  B33  1  0.500000  0.896793  0.529215  1
  Os  Os34  1  0.000000  0.137527  0.178051  1
  Os  Os35  1  0.000000  0.862672  0.821778  1
