# generated using pymatgen
data_Th14Tc2Ni3Ru
_symmetry_space_group_name_H-M   'P 1'
_cell_length_a   9.88430474
_cell_length_b   9.91586219
_cell_length_c   6.24327376
_cell_angle_alpha   90.16021215
_cell_angle_beta   89.87936537
_cell_angle_gamma   119.62304422
_symmetry_Int_Tables_number   1
_chemical_formula_structural   Th14Tc2Ni3Ru
_chemical_formula_sum   'Th14 Tc2 Ni3 Ru1'
_cell_volume   531.93053245
_cell_formula_units_Z   1
loop_
 _symmetry_equiv_pos_site_id
 _symmetry_equiv_pos_as_xyz
  1  'x, y, z'
loop_
 _atom_site_type_symbol
 _atom_site_label
 _atom_site_symmetry_multiplicity
 _atom_site_fract_x
 _atom_site_fract_y
 _atom_site_fract_z
 _atom_site_occupancy
  Th  Th0  1  0.460072  0.545832  0.290922  1
  Th  Th1  1  0.083935  0.540430  0.295056  1
  Th  Th2  1  0.914275  0.459942  0.796213  1
  Th  Th3  1  0.251536  0.127195  0.496897  1
  Th  Th4  1  0.540710  0.085395  0.794111  1
  Th  Th5  1  0.753411  0.876358  0.000393  1
  Th  Th6  1  0.665720  0.333850  0.298566  1
  Th  Th7  1  0.128598  0.873012  0.001236  1
  Th  Th8  1  0.460590  0.914270  0.293906  1
  Th  Th9  1  0.540144  0.454231  0.791460  1
  Th  Th10  1  0.872087  0.128098  0.505331  1
  Th  Th11  1  0.124032  0.249751  0.999155  1
  Th  Th12  1  0.873951  0.747716  0.504104  1
  Th  Th13  1  0.335458  0.665830  0.801864  1
  Tc  Tc14  1  0.808363  0.629028  0.050622  1
  Tc  Tc15  1  0.812171  0.181187  0.050648  1
  Ni  Ni16  1  0.624827  0.811973  0.553347  1
  Ni  Ni17  1  0.370966  0.186132  0.054720  1
  Ni  Ni18  1  0.189017  0.374056  0.554251  1
  Ru  Ru19  1  0.190135  0.815716  0.551195  1
