# generated using pymatgen
data_Ce2BeIr2Ru
_symmetry_space_group_name_H-M   'P 1'
_cell_length_a   4.86564558
_cell_length_b   5.61849354
_cell_length_c   4.86564533
_cell_angle_alpha   120.82339044
_cell_angle_beta   109.62908334
_cell_angle_gamma   93.59448421
_symmetry_Int_Tables_number   1
_chemical_formula_structural   Ce2BeIr2Ru
_chemical_formula_sum   'Ce2 Be1 Ir2 Ru1'
_cell_volume   102.95490792
_cell_formula_units_Z   1
loop_
 _symmetry_equiv_pos_site_id
 _symmetry_equiv_pos_as_xyz
  1  'x, y, z'
loop_
 _atom_site_type_symbol
 _atom_site_label
 _atom_site_symmetry_multiplicity
 _atom_site_fract_x
 _atom_site_fract_y
 _atom_site_fract_z
 _atom_site_occupancy
  Ce  Ce0  1  0.367525  0.125737  0.258212  1
  Ce  Ce1  1  0.632475  0.874263  0.741788  1
  Be  Be2  1  0.000000  0.500000  0.000000  1
  Ir  Ir3  1  0.500000  0.500000  0.000000  1
  Ir  Ir4  1  0.000000  0.500000  0.500000  1
  Ru  Ru5  1  0.000000  0.000000  0.500000  1
