# generated using pymatgen
data_Ba4MnNbO7F
_symmetry_space_group_name_H-M   'P 1'
_cell_length_a   7.49215272
_cell_length_b   7.49215126
_cell_length_c   5.90555900
_cell_angle_alpha   90.00000000
_cell_angle_beta   90.00000000
_cell_angle_gamma   133.73350210
_symmetry_Int_Tables_number   1
_chemical_formula_structural   Ba4MnNbO7F
_chemical_formula_sum   'Ba4 Mn1 Nb1 O7 F1'
_cell_volume   239.52448696
_cell_formula_units_Z   1
loop_
 _symmetry_equiv_pos_site_id
 _symmetry_equiv_pos_as_xyz
  1  'x, y, z'
loop_
 _atom_site_type_symbol
 _atom_site_label
 _atom_site_symmetry_multiplicity
 _atom_site_fract_x
 _atom_site_fract_y
 _atom_site_fract_z
 _atom_site_occupancy
  Ba  Ba0  1  0.646126  0.353874  0.000000  1
  Ba  Ba1  1  0.136425  0.863575  0.500000  1
  Ba  Ba2  1  0.858237  0.141763  0.500000  1
  Ba  Ba3  1  0.360894  0.639106  0.000000  1
  Mn  Mn4  1  0.518544  0.481456  0.500000  1
  Nb  Nb5  1  0.999060  0.000940  0.000000  1
  O  O6  1  0.752956  0.760077  0.759182  1
  O  O7  1  0.239923  0.247044  0.240818  1
  O  O8  1  0.239923  0.247044  0.759182  1
  O  O9  1  0.752956  0.760077  0.240818  1
  O  O10  1  0.847778  0.152222  0.000000  1
  O  O11  1  0.670647  0.329353  0.500000  1
  O  O12  1  0.148924  0.851076  0.000000  1
  F  F13  1  0.327607  0.672393  0.500000  1
