# generated using pymatgen
data_LaNd2In2SnPt3
_symmetry_space_group_name_H-M   'P 1'
_cell_length_a   7.79303695
_cell_length_b   7.77566859
_cell_length_c   4.07625800
_cell_angle_alpha   90.00000000
_cell_angle_beta   90.00000000
_cell_angle_gamma   119.99261001
_symmetry_Int_Tables_number   1
_chemical_formula_structural   LaNd2In2SnPt3
_chemical_formula_sum   'La1 Nd2 In2 Sn1 Pt3'
_cell_volume   213.92872803
_cell_formula_units_Z   1
loop_
 _symmetry_equiv_pos_site_id
 _symmetry_equiv_pos_as_xyz
  1  'x, y, z'
loop_
 _atom_site_type_symbol
 _atom_site_label
 _atom_site_symmetry_multiplicity
 _atom_site_fract_x
 _atom_site_fract_y
 _atom_site_fract_z
 _atom_site_occupancy
  La  La0  1  0.589648  0.588025  0.000000  1
  Nd  Nd1  1  0.408061  0.000204  0.000000  1
  Nd  Nd2  1  0.001613  0.410359  0.000000  1
  In  In3  1  0.002564  0.747213  0.500000  1
  In  In4  1  0.251460  0.250836  0.500000  1
  Sn  Sn5  1  0.748808  0.002521  0.500000  1
  Pt  Pt6  1  0.998475  0.000841  0.000000  1
  Pt  Pt7  1  0.333511  0.667921  0.500000  1
  Pt  Pt8  1  0.665860  0.332081  0.500000  1
