# generated using pymatgen
data_TbYbRh2O7
_symmetry_space_group_name_H-M   'P 1'
_cell_length_a   7.21938247
_cell_length_b   7.21938352
_cell_length_c   7.22086500
_cell_angle_alpha   59.99321611
_cell_angle_beta   59.99321128
_cell_angle_gamma   59.98721651
_symmetry_Int_Tables_number   1
_chemical_formula_structural   TbYbRh2O7
_chemical_formula_sum   'Tb2 Yb2 Rh4 O14'
_cell_volume   266.06507466
_cell_formula_units_Z   2
loop_
 _symmetry_equiv_pos_site_id
 _symmetry_equiv_pos_as_xyz
  1  'x, y, z'
loop_
 _atom_site_type_symbol
 _atom_site_label
 _atom_site_symmetry_multiplicity
 _atom_site_fract_x
 _atom_site_fract_y
 _atom_site_fract_z
 _atom_site_occupancy
  Tb  Tb0  1  0.125000  0.125000  0.125000  1
  Tb  Tb1  1  0.125000  0.125000  0.625000  1
  Yb  Yb2  1  0.125000  0.625000  0.125000  1
  Yb  Yb3  1  0.625000  0.125000  0.125000  1
  Rh  Rh4  1  0.625000  0.625000  0.625000  1
  Rh  Rh5  1  0.625000  0.625000  0.125000  1
  Rh  Rh6  1  0.125000  0.625000  0.625000  1
  Rh  Rh7  1  0.625000  0.125000  0.625000  1
  O  O8  1  0.246612  0.246612  0.253388  1
  O  O9  1  0.293180  0.710196  0.293926  1
  O  O10  1  0.958100  0.958100  0.541900  1
  O  O11  1  0.539804  0.956820  0.547301  1
  O  O12  1  0.704222  0.704222  0.295778  1
  O  O13  1  0.956820  0.539804  0.547301  1
  O  O14  1  0.710196  0.293180  0.702699  1
  O  O15  1  0.291900  0.291900  0.708100  1
  O  O16  1  0.710196  0.293180  0.293926  1
  O  O17  1  0.293180  0.710196  0.702699  1
  O  O18  1  0.956820  0.539804  0.956074  1
  O  O19  1  0.545778  0.545778  0.954222  1
  O  O20  1  0.003388  0.003388  0.996612  1
  O  O21  1  0.539804  0.956820  0.956074  1
