# generated using pymatgen
data_LiNd6(HoPt3)2
_symmetry_space_group_name_H-M   'P 1'
_cell_length_a   7.73559526
_cell_length_b   7.73559417
_cell_length_c   7.73559528
_cell_angle_alpha   68.59902752
_cell_angle_beta   68.59903210
_cell_angle_gamma   68.59903409
_symmetry_Int_Tables_number   1
_chemical_formula_structural   LiNd6(HoPt3)2
_chemical_formula_sum   'Li1 Nd6 Ho2 Pt6'
_cell_volume   386.65572851
_cell_formula_units_Z   1
loop_
 _symmetry_equiv_pos_site_id
 _symmetry_equiv_pos_as_xyz
  1  'x, y, z'
loop_
 _atom_site_type_symbol
 _atom_site_label
 _atom_site_symmetry_multiplicity
 _atom_site_fract_x
 _atom_site_fract_y
 _atom_site_fract_z
 _atom_site_occupancy
  Li  Li0  1  0.000000  0.000000  0.000000  1
  Nd  Nd1  1  0.321906  0.610101  0.861133  1
  Nd  Nd2  1  0.861133  0.321906  0.610101  1
  Nd  Nd3  1  0.610101  0.861133  0.321906  1
  Nd  Nd4  1  0.678094  0.389899  0.138867  1
  Nd  Nd5  1  0.138867  0.678094  0.389899  1
  Nd  Nd6  1  0.389899  0.138867  0.678094  1
  Ho  Ho7  1  0.819542  0.819542  0.819542  1
  Ho  Ho8  1  0.180458  0.180458  0.180458  1
  Pt  Pt9  1  0.177309  0.954170  0.572562  1
  Pt  Pt10  1  0.572562  0.177309  0.954170  1
  Pt  Pt11  1  0.954170  0.572562  0.177309  1
  Pt  Pt12  1  0.822691  0.045830  0.427438  1
  Pt  Pt13  1  0.427438  0.822691  0.045830  1
  Pt  Pt14  1  0.045830  0.427438  0.822691  1
