# generated using pymatgen
data_Pr20Ir5Pd3Ru4
_symmetry_space_group_name_H-M   'P 1'
_cell_length_a   11.34515583
_cell_length_b   11.34515583
_cell_length_c   6.69662093
_cell_angle_alpha   90.04278753
_cell_angle_beta   90.04278753
_cell_angle_gamma   90.00909254
_symmetry_Int_Tables_number   1
_chemical_formula_structural   Pr20Ir5Pd3Ru4
_chemical_formula_sum   'Pr20 Ir5 Pd3 Ru4'
_cell_volume   861.93873701
_cell_formula_units_Z   1
loop_
 _symmetry_equiv_pos_site_id
 _symmetry_equiv_pos_as_xyz
  1  'x, y, z'
loop_
 _atom_site_type_symbol
 _atom_site_label
 _atom_site_symmetry_multiplicity
 _atom_site_fract_x
 _atom_site_fract_y
 _atom_site_fract_z
 _atom_site_occupancy
  Pr  Pr0  1  0.296789  0.086399  0.371470  1
  Pr  Pr1  1  0.294991  0.907300  0.881255  1
  Pr  Pr2  1  0.702371  0.090467  0.874388  1
  Pr  Pr3  1  0.700899  0.908672  0.373316  1
  Pr  Pr4  1  0.583904  0.792063  0.883335  1
  Pr  Pr5  1  0.583359  0.208388  0.383777  1
  Pr  Pr6  1  0.410437  0.792074  0.384127  1
  Pr  Pr7  1  0.415463  0.207822  0.883185  1
  Pr  Pr8  1  0.207937  0.416096  0.616665  1
  Pr  Pr9  1  0.207926  0.589563  0.115873  1
  Pr  Pr10  1  0.791612  0.416641  0.116223  1
  Pr  Pr11  1  0.792178  0.584537  0.616815  1
  Pr  Pr12  1  0.913601  0.703211  0.128530  1
  Pr  Pr13  1  0.909533  0.297629  0.625612  1
  Pr  Pr14  1  0.092700  0.705009  0.618745  1
  Pr  Pr15  1  0.091328  0.299101  0.126684  1
  Pr  Pr16  1  0.002248  0.997446  0.499143  1
  Pr  Pr17  1  0.002554  0.997752  0.000857  1
  Pr  Pr18  1  0.499671  0.500040  0.000286  1
  Pr  Pr19  1  0.499960  0.500329  0.499714  1
  Ir  Ir20  1  0.150522  0.849478  0.250000  1
  Ir  Ir21  1  0.653712  0.346288  0.750000  1
  Ir  Ir22  1  0.653927  0.653916  0.250145  1
  Ir  Ir23  1  0.346084  0.346073  0.249855  1
  Ir  Ir24  1  0.347072  0.652928  0.750000  1
  Pd  Pd25  1  0.847480  0.152520  0.250000  1
  Pd  Pd26  1  0.846058  0.845937  0.749745  1
  Pd  Pd27  1  0.154063  0.153942  0.750255  1
  Ru  Ru28  1  0.501628  0.000597  0.116524  1
  Ru  Ru29  1  0.501211  0.000621  0.617242  1
  Ru  Ru30  1  0.999379  0.498789  0.882758  1
  Ru  Ru31  1  0.999403  0.498372  0.383476  1
