# generated using pymatgen
data_Dy6GaSi5Ni2
_symmetry_space_group_name_H-M   'P 1'
_cell_length_a   5.62085832
_cell_length_b   5.62085746
_cell_length_c   13.68546499
_cell_angle_alpha   108.95641848
_cell_angle_beta   108.95641529
_cell_angle_gamma   43.96156983
_symmetry_Int_Tables_number   1
_chemical_formula_structural   Dy6GaSi5Ni2
_chemical_formula_sum   'Dy6 Ga1 Si5 Ni2'
_cell_volume   281.12757909
_cell_formula_units_Z   1
loop_
 _symmetry_equiv_pos_site_id
 _symmetry_equiv_pos_as_xyz
  1  'x, y, z'
loop_
 _atom_site_type_symbol
 _atom_site_label
 _atom_site_symmetry_multiplicity
 _atom_site_fract_x
 _atom_site_fract_y
 _atom_site_fract_z
 _atom_site_occupancy
  Dy  Dy0  1  0.399961  0.399961  0.078808  1
  Dy  Dy1  1  0.748838  0.748838  0.232596  1
  Dy  Dy2  1  0.531160  0.531160  0.382229  1
  Dy  Dy3  1  0.468393  0.468393  0.618928  1
  Dy  Dy4  1  0.250910  0.250910  0.770571  1
  Dy  Dy5  1  0.599724  0.599724  0.916148  1
  Ga  Ga6  1  0.114914  0.114914  0.075309  1
  Si  Si7  1  0.047341  0.047341  0.238927  1
  Si  Si8  1  0.862143  0.862143  0.458502  1
  Si  Si9  1  0.138230  0.138230  0.543826  1
  Si  Si10  1  0.950630  0.950630  0.762223  1
  Si  Si11  1  0.886785  0.886785  0.921487  1
  Ni  Ni12  1  0.249345  0.249345  0.403820  1
  Ni  Ni13  1  0.751626  0.751626  0.596626  1
