# generated using pymatgen
data_Li2Fe3Co7Ni2P7
_symmetry_space_group_name_H-M   'P 1'
_cell_length_a   8.89382737
_cell_length_b   8.93715669
_cell_length_c   3.52212600
_cell_angle_alpha   90.00000000
_cell_angle_beta   90.00000000
_cell_angle_gamma   120.14546290
_symmetry_Int_Tables_number   1
_chemical_formula_structural   Li2Fe3Co7Ni2P7
_chemical_formula_sum   'Li2 Fe3 Co7 Ni2 P7'
_cell_volume   242.09462059
_cell_formula_units_Z   1
loop_
 _symmetry_equiv_pos_site_id
 _symmetry_equiv_pos_as_xyz
  1  'x, y, z'
loop_
 _atom_site_type_symbol
 _atom_site_label
 _atom_site_symmetry_multiplicity
 _atom_site_fract_x
 _atom_site_fract_y
 _atom_site_fract_z
 _atom_site_occupancy
  Li  Li0  1  0.998381  0.999893  0.000000  1
  Li  Li1  1  0.334573  0.667274  0.500000  1
  Fe  Fe2  1  0.887642  0.462632  0.500000  1
  Fe  Fe3  1  0.537625  0.424602  0.500000  1
  Fe  Fe4  1  0.573198  0.111475  0.500000  1
  Co  Co5  1  0.607150  0.900177  0.000000  1
  Co  Co6  1  0.825210  0.216471  0.000000  1
  Co  Co7  1  0.784930  0.611661  0.000000  1
  Co  Co8  1  0.388286  0.172637  0.000000  1
  Co  Co9  1  0.055020  0.283828  0.500000  1
  Co  Co10  1  0.716233  0.771792  0.500000  1
  Co  Co11  1  0.228705  0.943688  0.500000  1
  Ni  Ni12  1  0.103709  0.705901  0.000000  1
  Ni  Ni13  1  0.294345  0.394257  0.000000  1
  P  P14  1  0.079185  0.450330  0.000000  1
  P  P15  1  0.549210  0.631173  0.000000  1
  P  P16  1  0.376386  0.922094  0.000000  1
  P  P17  1  0.787735  0.045071  0.500000  1
  P  P18  1  0.953108  0.745397  0.500000  1
  P  P19  1  0.253201  0.205494  0.500000  1
  P  P20  1  0.666168  0.334156  0.000000  1
