# generated using pymatgen
data_Yb4ScIr2
_symmetry_space_group_name_H-M   'P 1'
_cell_length_a   6.40204034
_cell_length_b   7.21311034
_cell_length_c   8.42520115
_cell_angle_alpha   97.68860192
_cell_angle_beta   112.32958919
_cell_angle_gamma   89.99999703
_symmetry_Int_Tables_number   1
_chemical_formula_structural   Yb4ScIr2
_chemical_formula_sum   'Yb8 Sc2 Ir4'
_cell_volume   356.10548630
_cell_formula_units_Z   2
loop_
 _symmetry_equiv_pos_site_id
 _symmetry_equiv_pos_as_xyz
  1  'x, y, z'
loop_
 _atom_site_type_symbol
 _atom_site_label
 _atom_site_symmetry_multiplicity
 _atom_site_fract_x
 _atom_site_fract_y
 _atom_site_fract_z
 _atom_site_occupancy
  Yb  Yb0  1  0.964297  0.926080  0.169692  1
  Yb  Yb1  1  0.794604  0.573920  0.830308  1
  Yb  Yb2  1  0.035703  0.073920  0.830308  1
  Yb  Yb3  1  0.205396  0.426080  0.169692  1
  Yb  Yb4  1  0.637604  0.818008  0.433751  1
  Yb  Yb5  1  0.203854  0.681992  0.566249  1
  Yb  Yb6  1  0.362396  0.181992  0.566249  1
  Yb  Yb7  1  0.796146  0.318008  0.433751  1
  Sc  Sc8  1  0.441545  0.750000  0.000000  1
  Sc  Sc9  1  0.558455  0.250000  0.000000  1
  Ir  Ir10  1  0.797622  0.569302  0.201316  1
  Ir  Ir11  1  0.596307  0.930698  0.798684  1
  Ir  Ir12  1  0.202379  0.430698  0.798684  1
  Ir  Ir13  1  0.403693  0.069302  0.201316  1
