# generated using pymatgen
data_Li2TbDy4P12Ir16Rh
_symmetry_space_group_name_H-M   'P 1'
_cell_length_a   12.69894100
_cell_length_b   12.69878250
_cell_length_c   3.97788000
_cell_angle_alpha   90.00000000
_cell_angle_beta   90.00000000
_cell_angle_gamma   119.99958711
_symmetry_Int_Tables_number   1
_chemical_formula_structural   Li2TbDy4P12Ir16Rh
_chemical_formula_sum   'Li2 Tb1 Dy4 P12 Ir16 Rh1'
_cell_volume   555.53791773
_cell_formula_units_Z   1
loop_
 _symmetry_equiv_pos_site_id
 _symmetry_equiv_pos_as_xyz
  1  'x, y, z'
loop_
 _atom_site_type_symbol
 _atom_site_label
 _atom_site_symmetry_multiplicity
 _atom_site_fract_x
 _atom_site_fract_y
 _atom_site_fract_z
 _atom_site_occupancy
  Li  Li0  1  0.558465  0.558695  0.500000  1
  Li  Li1  1  0.441535  0.000230  0.500000  1
  Tb  Tb2  1  0.000000  0.810528  0.000000  1
  Dy  Dy3  1  0.335463  0.668822  0.500000  1
  Dy  Dy4  1  0.664537  0.333360  0.500000  1
  Dy  Dy5  1  0.191161  0.192081  0.000000  1
  Dy  Dy6  1  0.808839  0.000919  0.000000  1
  P  P7  1  0.000000  0.637382  0.500000  1
  P  P8  1  0.369649  0.369957  0.500000  1
  P  P9  1  0.630351  0.000308  0.500000  1
  P  P10  1  0.518753  0.687690  0.000000  1
  P  P11  1  0.316071  0.829739  0.000000  1
  P  P12  1  0.173531  0.482492  0.000000  1
  P  P13  1  0.481247  0.168938  0.000000  1
  P  P14  1  0.683929  0.513669  0.000000  1
  P  P15  1  0.826469  0.308961  0.000000  1
  P  P16  1  0.000000  0.177923  0.500000  1
  P  P17  1  0.821233  0.819603  0.500000  1
  P  P18  1  0.178767  0.998370  0.500000  1
  Ir  Ir19  1  0.512814  0.869453  0.000000  1
  Ir  Ir20  1  0.133229  0.638506  0.000000  1
  Ir  Ir21  1  0.360452  0.491432  0.000000  1
  Ir  Ir22  1  0.487186  0.356638  0.000000  1
  Ir  Ir23  1  0.866771  0.505276  0.000000  1
  Ir  Ir24  1  0.639548  0.130980  0.000000  1
  Ir  Ir25  1  0.000000  0.282112  0.000000  1
  Ir  Ir26  1  0.721223  0.718234  0.000000  1
  Ir  Ir27  1  0.278777  0.997011  0.000000  1
  Ir  Ir28  1  0.628155  0.806586  0.500000  1
  Ir  Ir29  1  0.193349  0.816257  0.500000  1
  Ir  Ir30  1  0.178134  0.374346  0.500000  1
  Ir  Ir31  1  0.371845  0.178431  0.500000  1
  Ir  Ir32  1  0.806651  0.622908  0.500000  1
  Ir  Ir33  1  0.821866  0.196212  0.500000  1
  Ir  Ir34  1  0.000000  0.998590  0.500000  1
  Rh  Rh35  1  0.000000  0.457361  0.500000  1
