# generated using pymatgen
data_CeErPa(SnRh)3
_symmetry_space_group_name_H-M   'P 1'
_cell_length_a   7.43789406
_cell_length_b   7.55141679
_cell_length_c   4.01305100
_cell_angle_alpha   90.00000000
_cell_angle_beta   90.00000000
_cell_angle_gamma   120.41927699
_symmetry_Int_Tables_number   1
_chemical_formula_structural   CeErPa(SnRh)3
_chemical_formula_sum   'Ce1 Er1 Pa1 Sn3 Rh3'
_cell_volume   194.37183528
_cell_formula_units_Z   1
loop_
 _symmetry_equiv_pos_site_id
 _symmetry_equiv_pos_as_xyz
  1  'x, y, z'
loop_
 _atom_site_type_symbol
 _atom_site_label
 _atom_site_symmetry_multiplicity
 _atom_site_fract_x
 _atom_site_fract_y
 _atom_site_fract_z
 _atom_site_occupancy
  Ce  Ce0  1  0.412376  0.999923  0.000000  1
  Er  Er1  1  0.592136  0.592246  0.000000  1
  Pa  Pa2  1  0.000018  0.414874  0.000000  1
  Sn  Sn3  1  0.267270  0.258383  0.500000  1
  Sn  Sn4  1  0.995086  0.753639  0.500000  1
  Sn  Sn5  1  0.735157  0.986655  0.500000  1
  Rh  Rh6  1  0.691922  0.332591  0.500000  1
  Rh  Rh7  1  0.306906  0.646179  0.500000  1
  Rh  Rh8  1  0.999130  0.015509  0.000000  1
