# generated using pymatgen
data_Er4Co9B4Ru
_symmetry_space_group_name_H-M   'P 1'
_cell_length_a   5.08610800
_cell_length_b   5.08610736
_cell_length_c   20.25432700
_cell_angle_alpha   90.00000000
_cell_angle_beta   90.00000000
_cell_angle_gamma   120.00000414
_symmetry_Int_Tables_number   1
_chemical_formula_structural   Er4Co9B4Ru
_chemical_formula_sum   'Er8 Co18 B8 Ru2'
_cell_volume   453.75302393
_cell_formula_units_Z   2
loop_
 _symmetry_equiv_pos_site_id
 _symmetry_equiv_pos_as_xyz
  1  'x, y, z'
loop_
 _atom_site_type_symbol
 _atom_site_label
 _atom_site_symmetry_multiplicity
 _atom_site_fract_x
 _atom_site_fract_y
 _atom_site_fract_z
 _atom_site_occupancy
  Er  Er0  1  0.666667  0.333333  0.824215  1
  Er  Er1  1  0.666667  0.333333  0.976686  1
  Er  Er2  1  0.333333  0.666667  0.476686  1
  Er  Er3  1  0.333333  0.666667  0.023314  1
  Er  Er4  1  0.333333  0.666667  0.175785  1
  Er  Er5  1  0.666667  0.333333  0.523314  1
  Er  Er6  1  0.666667  0.333333  0.675785  1
  Er  Er7  1  0.333333  0.666667  0.324215  1
  Co  Co8  1  0.164438  0.328876  0.892180  1
  Co  Co9  1  0.164438  0.835562  0.607820  1
  Co  Co10  1  0.835562  0.164438  0.392180  1
  Co  Co11  1  0.333943  0.166972  0.250000  1
  Co  Co12  1  0.328876  0.164438  0.392180  1
  Co  Co13  1  0.835562  0.671124  0.107820  1
  Co  Co14  1  0.835562  0.671124  0.392180  1
  Co  Co15  1  0.833028  0.666057  0.250000  1
  Co  Co16  1  0.671124  0.835562  0.607820  1
  Co  Co17  1  0.666057  0.833028  0.750000  1
  Co  Co18  1  0.835562  0.164438  0.107820  1
  Co  Co19  1  0.671124  0.835562  0.892180  1
  Co  Co20  1  0.166972  0.333943  0.750000  1
  Co  Co21  1  0.166972  0.833028  0.750000  1
  Co  Co22  1  0.833028  0.166972  0.250000  1
  Co  Co23  1  0.328876  0.164438  0.107820  1
  Co  Co24  1  0.164438  0.835562  0.892180  1
  Co  Co25  1  0.164438  0.328876  0.607820  1
  B  B26  1  0.333333  0.666667  0.823259  1
  B  B27  1  0.333333  0.666667  0.676741  1
  B  B28  1  0.666667  0.333333  0.323259  1
  B  B29  1  0.000000  0.000000  0.822033  1
  B  B30  1  0.666667  0.333333  0.176741  1
  B  B31  1  0.000000  0.000000  0.677967  1
  B  B32  1  0.000000  0.000000  0.322033  1
  B  B33  1  0.000000  0.000000  0.177967  1
  Ru  Ru34  1  0.000000  0.000000  0.000000  1
  Ru  Ru35  1  0.000000  0.000000  0.500000  1
