# generated using pymatgen
data_Hf6Sc2Ta4Nb8Si15Ge
_symmetry_space_group_name_H-M   'P 1'
_cell_length_a   6.67871259
_cell_length_b   6.87437898
_cell_length_c   13.08974619
_cell_angle_alpha   90.04838688
_cell_angle_beta   90.00741640
_cell_angle_gamma   90.04255929
_symmetry_Int_Tables_number   1
_chemical_formula_structural   Hf6Sc2Ta4Nb8Si15Ge
_chemical_formula_sum   'Hf6 Sc2 Ta4 Nb8 Si15 Ge1'
_cell_volume   600.97606117
_cell_formula_units_Z   1
loop_
 _symmetry_equiv_pos_site_id
 _symmetry_equiv_pos_as_xyz
  1  'x, y, z'
loop_
 _atom_site_type_symbol
 _atom_site_label
 _atom_site_symmetry_multiplicity
 _atom_site_fract_x
 _atom_site_fract_y
 _atom_site_fract_z
 _atom_site_occupancy
  Hf  Hf0  1  0.501646  0.326737  0.092509  1
  Hf  Hf1  1  0.006725  0.170679  0.408765  1
  Hf  Hf2  1  0.501527  0.325235  0.406228  1
  Hf  Hf3  1  0.007755  0.171837  0.091859  1
  Hf  Hf4  1  0.499517  0.674194  0.904630  1
  Hf  Hf5  1  0.998277  0.826383  0.594397  1
  Sc  Sc6  1  0.497672  0.673365  0.593389  1
  Sc  Sc7  1  0.997150  0.826643  0.906960  1
  Ta  Ta8  1  0.837445  0.496083  0.749341  1
  Ta  Ta9  1  0.338139  0.004759  0.750900  1
  Ta  Ta10  1  0.165013  0.503162  0.249820  1
  Ta  Ta11  1  0.659668  0.993703  0.250487  1
  Nb  Nb12  1  0.665310  0.170945  0.624160  1
  Nb  Nb13  1  0.165329  0.328831  0.876104  1
  Nb  Nb14  1  0.334327  0.831608  0.123712  1
  Nb  Nb15  1  0.835508  0.672167  0.376948  1
  Nb  Nb16  1  0.332757  0.832043  0.376407  1
  Nb  Nb17  1  0.833826  0.671553  0.123309  1
  Nb  Nb18  1  0.663827  0.172458  0.876662  1
  Nb  Nb19  1  0.164109  0.327318  0.623422  1
  Si  Si20  1  0.670255  0.965330  0.460431  1
  Si  Si21  1  0.170477  0.535858  0.039648  1
  Si  Si22  1  0.328967  0.034611  0.960098  1
  Si  Si23  1  0.828682  0.464859  0.539167  1
  Si  Si24  1  0.329336  0.034807  0.540015  1
  Si  Si25  1  0.828884  0.465299  0.960738  1
  Si  Si26  1  0.669734  0.965325  0.039760  1
  Si  Si27  1  0.169738  0.535135  0.460124  1
  Si  Si28  1  0.461761  0.388361  0.749487  1
  Si  Si29  1  0.961329  0.113091  0.750696  1
  Si  Si30  1  0.536231  0.614805  0.250509  1
  Si  Si31  1  0.037100  0.886864  0.249670  1
  Si  Si32  1  0.704441  0.860363  0.749897  1
  Si  Si33  1  0.204137  0.640226  0.749919  1
  Si  Si34  1  0.295230  0.140407  0.249829  1
  Ge  Ge35  1  0.798171  0.354953  0.250001  1
