# generated using pymatgen
data_Nd10Sn6AsAu
_symmetry_space_group_name_H-M   'P 1'
_cell_length_a   9.48863600
_cell_length_b   9.48863615
_cell_length_c   6.96978300
_cell_angle_alpha   90.00000000
_cell_angle_beta   90.00000000
_cell_angle_gamma   119.99999947
_symmetry_Int_Tables_number   1
_chemical_formula_structural   Nd10Sn6AsAu
_chemical_formula_sum   'Nd10 Sn6 As1 Au1'
_cell_volume   543.44734483
_cell_formula_units_Z   1
loop_
 _symmetry_equiv_pos_site_id
 _symmetry_equiv_pos_as_xyz
  1  'x, y, z'
loop_
 _atom_site_type_symbol
 _atom_site_label
 _atom_site_symmetry_multiplicity
 _atom_site_fract_x
 _atom_site_fract_y
 _atom_site_fract_z
 _atom_site_occupancy
  Nd  Nd0  1  0.255239  0.000000  0.737612  1
  Nd  Nd1  1  0.744761  0.000000  0.262388  1
  Nd  Nd2  1  0.000000  0.255239  0.737612  1
  Nd  Nd3  1  0.000000  0.744761  0.262388  1
  Nd  Nd4  1  0.744761  0.744761  0.737612  1
  Nd  Nd5  1  0.255239  0.255239  0.262388  1
  Nd  Nd6  1  0.333333  0.666667  0.500000  1
  Nd  Nd7  1  0.666667  0.333333  0.500000  1
  Nd  Nd8  1  0.666667  0.333333  0.000000  1
  Nd  Nd9  1  0.333333  0.666667  0.000000  1
  Sn  Sn10  1  0.607565  0.000000  0.750112  1
  Sn  Sn11  1  0.392435  0.000000  0.249888  1
  Sn  Sn12  1  0.000000  0.607565  0.750112  1
  Sn  Sn13  1  0.000000  0.392435  0.249888  1
  Sn  Sn14  1  0.392435  0.392435  0.750112  1
  Sn  Sn15  1  0.607565  0.607565  0.249888  1
  As  As16  1  0.000000  0.000000  0.500000  1
  Au  Au17  1  0.000000  0.000000  0.000000  1
