# generated using pymatgen
data_Nd3BOsO9
_symmetry_space_group_name_H-M   'P 1'
_cell_length_a   8.75307100
_cell_length_b   8.75306942
_cell_length_c   5.60077300
_cell_angle_alpha   90.00000000
_cell_angle_beta   90.00000000
_cell_angle_gamma   120.00003243
_symmetry_Int_Tables_number   1
_chemical_formula_structural   Nd3BOsO9
_chemical_formula_sum   'Nd6 B2 Os2 O18'
_cell_volume   371.62017609
_cell_formula_units_Z   2
loop_
 _symmetry_equiv_pos_site_id
 _symmetry_equiv_pos_as_xyz
  1  'x, y, z'
loop_
 _atom_site_type_symbol
 _atom_site_label
 _atom_site_symmetry_multiplicity
 _atom_site_fract_x
 _atom_site_fract_y
 _atom_site_fract_z
 _atom_site_occupancy
  Nd  Nd0  1  0.357065  0.079995  0.202069  1
  Nd  Nd1  1  0.920006  0.277071  0.202069  1
  Nd  Nd2  1  0.722930  0.642935  0.202069  1
  Nd  Nd3  1  0.277071  0.357066  0.702068  1
  Nd  Nd4  1  0.079994  0.722930  0.702068  1
  Nd  Nd5  1  0.642935  0.920006  0.702068  1
  B  B6  1  0.000000  0.000000  0.366640  1
  B  B7  1  0.000000  0.000000  0.866639  1
  Os  Os8  1  0.333334  0.666667  0.250683  1
  Os  Os9  1  0.666666  0.333334  0.750684  1
  O  O10  1  0.532899  0.743129  0.046942  1
  O  O11  1  0.256871  0.789769  0.046942  1
  O  O12  1  0.210232  0.467102  0.046944  1
  O  O13  1  0.129911  0.175738  0.358395  1
  O  O14  1  0.045826  0.870089  0.358395  1
  O  O15  1  0.824261  0.954173  0.358395  1
  O  O16  1  0.133606  0.519681  0.471586  1
  O  O17  1  0.480319  0.613925  0.471586  1
  O  O18  1  0.386075  0.866393  0.471586  1
  O  O19  1  0.743129  0.210231  0.546943  1
  O  O20  1  0.467101  0.256870  0.546943  1
  O  O21  1  0.789768  0.532899  0.546943  1
  O  O22  1  0.175738  0.045826  0.858396  1
  O  O23  1  0.954173  0.129911  0.858396  1
  O  O24  1  0.870089  0.824261  0.858396  1
  O  O25  1  0.613924  0.133606  0.971584  1
  O  O26  1  0.866393  0.480318  0.971584  1
  O  O27  1  0.519681  0.386074  0.971586  1
