# generated using pymatgen
data_Ce4Nd6AgSn6Hg
_symmetry_space_group_name_H-M   'P 1'
_cell_length_a   6.59273500
_cell_length_b   9.66129037
_cell_length_c   9.66128900
_cell_angle_alpha   119.99999873
_cell_angle_beta   90.00000000
_cell_angle_gamma   90.00000000
_symmetry_Int_Tables_number   1
_chemical_formula_structural   Ce4Nd6AgSn6Hg
_chemical_formula_sum   'Ce4 Nd6 Ag1 Sn6 Hg1'
_cell_volume   532.92545538
_cell_formula_units_Z   1
loop_
 _symmetry_equiv_pos_site_id
 _symmetry_equiv_pos_as_xyz
  1  'x, y, z'
loop_
 _atom_site_type_symbol
 _atom_site_label
 _atom_site_symmetry_multiplicity
 _atom_site_fract_x
 _atom_site_fract_y
 _atom_site_fract_z
 _atom_site_occupancy
  Ce  Ce0  1  0.000000  0.666667  0.333333  1
  Ce  Ce1  1  0.000000  0.333333  0.666667  1
  Ce  Ce2  1  0.500000  0.333333  0.666667  1
  Ce  Ce3  1  0.500000  0.666667  0.333333  1
  Nd  Nd4  1  0.746687  0.713469  0.713469  1
  Nd  Nd5  1  0.253313  0.286531  0.286531  1
  Nd  Nd6  1  0.746687  0.000000  0.286531  1
  Nd  Nd7  1  0.253313  0.000000  0.713469  1
  Nd  Nd8  1  0.746687  0.286531  0.000000  1
  Nd  Nd9  1  0.253313  0.713469  0.000000  1
  Ag  Ag10  1  0.500000  0.000000  0.000000  1
  Sn  Sn11  1  0.750929  0.371055  0.371055  1
  Sn  Sn12  1  0.249071  0.628945  0.628945  1
  Sn  Sn13  1  0.750929  0.000000  0.628945  1
  Sn  Sn14  1  0.249071  0.000000  0.371055  1
  Sn  Sn15  1  0.750929  0.628945  0.000000  1
  Sn  Sn16  1  0.249071  0.371055  0.000000  1
  Hg  Hg17  1  0.000000  0.000000  0.000000  1
