# generated using pymatgen
data_SbAsPb2F14
_symmetry_space_group_name_H-M   'P 1'
_cell_length_a   4.81224932
_cell_length_b   7.54171916
_cell_length_c   7.86648400
_cell_angle_alpha   105.05258084
_cell_angle_beta   99.48275914
_cell_angle_gamma   92.11717290
_symmetry_Int_Tables_number   1
_chemical_formula_structural   SbAsPb2F14
_chemical_formula_sum   'Sb1 As1 Pb2 F14'
_cell_volume   270.97773468
_cell_formula_units_Z   1
loop_
 _symmetry_equiv_pos_site_id
 _symmetry_equiv_pos_as_xyz
  1  'x, y, z'
loop_
 _atom_site_type_symbol
 _atom_site_label
 _atom_site_symmetry_multiplicity
 _atom_site_fract_x
 _atom_site_fract_y
 _atom_site_fract_z
 _atom_site_occupancy
  Sb  Sb0  1  0.645839  0.809989  0.710462  1
  As  As1  1  0.349907  0.190520  0.288373  1
  Pb  Pb2  1  0.204528  0.347628  0.816524  1
  Pb  Pb3  1  0.822138  0.647517  0.187740  1
  F  F4  1  0.147870  0.188240  0.073431  1
  F  F5  1  0.435195  0.791397  0.476575  1
  F  F6  1  0.547818  0.202878  0.502669  1
  F  F7  1  0.495063  0.034961  0.817020  1
  F  F8  1  0.494706  0.985864  0.189645  1
  F  F9  1  0.345517  0.667537  0.762179  1
  F  F10  1  0.854950  0.811169  0.944024  1
  F  F11  1  0.279933  0.576621  0.085753  1
  F  F12  1  0.072028  0.057981  0.330407  1
  F  F13  1  0.200365  0.396378  0.384451  1
  F  F14  1  0.724917  0.424312  0.916701  1
  F  F15  1  0.807319  0.587940  0.607605  1
  F  F16  1  0.627004  0.323388  0.240886  1
  F  F17  1  0.944901  0.955680  0.665557  1
