# generated using pymatgen
data_YTmNi7
_symmetry_space_group_name_H-M   'P 1'
_cell_length_a   4.92026116
_cell_length_b   4.92026013
_cell_length_c   12.31261029
_cell_angle_alpha   78.47441483
_cell_angle_beta   78.47441570
_cell_angle_gamma   60.00000949
_symmetry_Int_Tables_number   1
_chemical_formula_structural   YTmNi7
_chemical_formula_sum   'Y2 Tm2 Ni14'
_cell_volume   251.17670006
_cell_formula_units_Z   2
loop_
 _symmetry_equiv_pos_site_id
 _symmetry_equiv_pos_as_xyz
  1  'x, y, z'
loop_
 _atom_site_type_symbol
 _atom_site_label
 _atom_site_symmetry_multiplicity
 _atom_site_fract_x
 _atom_site_fract_y
 _atom_site_fract_z
 _atom_site_occupancy
  Y  Y0  1  0.949075  0.949075  0.152776  1
  Y  Y1  1  0.050925  0.050925  0.847224  1
  Tm  Tm2  1  0.852559  0.852559  0.442321  1
  Tm  Tm3  1  0.147441  0.147441  0.557679  1
  Ni  Ni4  1  0.500000  0.500000  0.500000  1
  Ni  Ni5  1  0.721951  0.721951  0.834149  1
  Ni  Ni6  1  0.278049  0.278049  0.165851  1
  Ni  Ni7  1  0.611531  0.611531  0.165405  1
  Ni  Ni8  1  0.388469  0.388469  0.834595  1
  Ni  Ni9  1  0.000000  0.500000  0.000000  1
  Ni  Ni10  1  0.500000  0.000000  0.000000  1
  Ni  Ni11  1  0.500000  0.500000  0.000000  1
  Ni  Ni12  1  0.388992  0.388992  0.330610  1
  Ni  Ni13  1  0.891405  0.388992  0.330610  1
  Ni  Ni14  1  0.388992  0.891405  0.330610  1
  Ni  Ni15  1  0.611008  0.611008  0.669390  1
  Ni  Ni16  1  0.108595  0.611008  0.669390  1
  Ni  Ni17  1  0.611008  0.108595  0.669390  1
