# generated using pymatgen
data_U4Mn4(Ge2Rh)3
_symmetry_space_group_name_H-M   'P 1'
_cell_length_a   7.12484740
_cell_length_b   7.16454758
_cell_length_c   7.16454746
_cell_angle_alpha   109.38706045
_cell_angle_beta   109.62648255
_cell_angle_gamma   109.62649782
_symmetry_Int_Tables_number   1
_chemical_formula_structural   U4Mn4(Ge2Rh)3
_chemical_formula_sum   'U4 Mn4 Ge6 Rh3'
_cell_volume   280.74369968
_cell_formula_units_Z   1
loop_
 _symmetry_equiv_pos_site_id
 _symmetry_equiv_pos_as_xyz
  1  'x, y, z'
loop_
 _atom_site_type_symbol
 _atom_site_label
 _atom_site_symmetry_multiplicity
 _atom_site_fract_x
 _atom_site_fract_y
 _atom_site_fract_z
 _atom_site_occupancy
  U  U0  1  0.500000  0.492712  0.507288  1
  U  U1  1  0.000000  0.017192  0.505676  1
  U  U2  1  0.500000  0.992712  0.007288  1
  U  U3  1  0.000000  0.494324  0.982808  1
  Mn  Mn4  1  0.751200  0.250122  0.501077  1
  Mn  Mn5  1  0.500000  0.251450  0.748550  1
  Mn  Mn6  1  0.500000  0.751450  0.248550  1
  Mn  Mn7  1  0.248800  0.498923  0.749878  1
  Ge  Ge8  1  0.317058  0.318294  0.998764  1
  Ge  Ge9  1  0.000000  0.314284  0.315609  1
  Ge  Ge10  1  0.000000  0.684391  0.685716  1
  Ge  Ge11  1  0.682942  0.001236  0.681706  1
  Ge  Ge12  1  0.318096  0.000212  0.317883  1
  Ge  Ge13  1  0.681904  0.682117  0.999788  1
  Rh  Rh14  1  0.750374  0.500422  0.249952  1
  Rh  Rh15  1  0.249626  0.750048  0.499578  1
  Rh  Rh16  1  0.000000  0.000115  0.999885  1
