# generated using pymatgen
data_Er4Lu(InSb)2
_symmetry_space_group_name_H-M   'P 1'
_cell_length_a   8.72450026
_cell_length_b   8.72450100
_cell_length_c   8.02119600
_cell_angle_alpha   90.00000000
_cell_angle_beta   90.00000000
_cell_angle_gamma   125.21464609
_symmetry_Int_Tables_number   1
_chemical_formula_structural   Er4Lu(InSb)2
_chemical_formula_sum   'Er8 Lu2 In4 Sb4'
_cell_volume   498.81674600
_cell_formula_units_Z   2
loop_
 _symmetry_equiv_pos_site_id
 _symmetry_equiv_pos_as_xyz
  1  'x, y, z'
loop_
 _atom_site_type_symbol
 _atom_site_label
 _atom_site_symmetry_multiplicity
 _atom_site_fract_x
 _atom_site_fract_y
 _atom_site_fract_z
 _atom_site_occupancy
  Er  Er0  1  0.031212  0.305667  0.334620  1
  Er  Er1  1  0.968788  0.694333  0.665380  1
  Er  Er2  1  0.468788  0.194333  0.834620  1
  Er  Er3  1  0.805667  0.531212  0.165380  1
  Er  Er4  1  0.531212  0.805667  0.165380  1
  Er  Er5  1  0.194333  0.468788  0.834620  1
  Er  Er6  1  0.694333  0.968788  0.665380  1
  Er  Er7  1  0.305667  0.031212  0.334620  1
  Lu  Lu8  1  0.000000  0.000000  0.000000  1
  Lu  Lu9  1  0.500000  0.500000  0.500000  1
  In  In10  1  0.369184  0.369184  0.130267  1
  In  In11  1  0.630816  0.630816  0.869733  1
  In  In12  1  0.130816  0.130816  0.630267  1
  In  In13  1  0.869184  0.869184  0.369733  1
  Sb  Sb14  1  0.797075  0.202925  0.000000  1
  Sb  Sb15  1  0.202925  0.797075  0.000000  1
  Sb  Sb16  1  0.702925  0.297075  0.500000  1
  Sb  Sb17  1  0.297075  0.702925  0.500000  1
