# generated using pymatgen
data_Tb3DyV3FeB16
_symmetry_space_group_name_H-M   'P 1'
_cell_length_a   3.44773300
_cell_length_b   5.98331497
_cell_length_c   11.56703726
_cell_angle_alpha   89.97954657
_cell_angle_beta   89.99999185
_cell_angle_gamma   90.00000959
_symmetry_Int_Tables_number   1
_chemical_formula_structural   Tb3DyV3FeB16
_chemical_formula_sum   'Tb3 Dy1 V3 Fe1 B16'
_cell_volume   238.61492145
_cell_formula_units_Z   1
loop_
 _symmetry_equiv_pos_site_id
 _symmetry_equiv_pos_as_xyz
  1  'x, y, z'
loop_
 _atom_site_type_symbol
 _atom_site_label
 _atom_site_symmetry_multiplicity
 _atom_site_fract_x
 _atom_site_fract_y
 _atom_site_fract_z
 _atom_site_occupancy
  Tb  Tb0  1  0.500001  0.625476  0.849057  1
  Tb  Tb1  1  0.499999  0.123960  0.650465  1
  Tb  Tb2  1  0.500001  0.876178  0.348888  1
  Dy  Dy3  1  0.500003  0.376293  0.151299  1
  V  V4  1  0.500000  0.373501  0.414307  1
  V  V5  1  0.500000  0.626468  0.582611  1
  V  V6  1  0.500000  0.126480  0.920379  1
  Fe  Fe7  1  0.499994  0.874125  0.081652  1
  B  B8  1  0.000001  0.108981  0.049552  1
  B  B9  1  0.000000  0.883900  0.956060  1
  B  B10  1  0.999999  0.385479  0.546171  1
  B  B11  1  0.000000  0.614145  0.452311  1
  B  B12  1  0.999999  0.135567  0.466644  1
  B  B13  1  0.999999  0.864111  0.532624  1
  B  B14  1  0.000001  0.364139  0.969892  1
  B  B15  1  0.000002  0.638954  0.033176  1
  B  B16  1  0.000002  0.022092  0.190447  1
  B  B17  1  0.999999  0.974985  0.809599  1
  B  B18  1  0.999999  0.474278  0.692232  1
  B  B19  1  0.000002  0.527388  0.305923  1
  B  B20  1  0.000000  0.214655  0.312426  1
  B  B21  1  0.999999  0.784456  0.686283  1
  B  B22  1  0.999999  0.282893  0.815927  1
  B  B23  1  0.000002  0.721495  0.182079  1
