# generated using pymatgen
data_Dy5Ho7GaNi4Pb
_symmetry_space_group_name_H-M   'P 1'
_cell_length_a   8.36591261
_cell_length_b   8.36591181
_cell_length_c   8.36421948
_cell_angle_alpha   112.73527393
_cell_angle_beta   109.64259909
_cell_angle_gamma   106.11225966
_symmetry_Int_Tables_number   1
_chemical_formula_structural   Dy5Ho7GaNi4Pb
_chemical_formula_sum   'Dy5 Ho7 Ga1 Ni4 Pb1'
_cell_volume   449.08726113
_cell_formula_units_Z   1
loop_
 _symmetry_equiv_pos_site_id
 _symmetry_equiv_pos_as_xyz
  1  'x, y, z'
loop_
 _atom_site_type_symbol
 _atom_site_label
 _atom_site_symmetry_multiplicity
 _atom_site_fract_x
 _atom_site_fract_y
 _atom_site_fract_z
 _atom_site_occupancy
  Dy  Dy0  1  0.428443  0.229185  0.198981  1
  Dy  Dy1  1  0.571983  0.771183  0.801121  1
  Dy  Dy2  1  0.029938  0.229139  0.801121  1
  Dy  Dy3  1  0.969796  0.770538  0.198981  1
  Dy  Dy4  1  0.179682  0.284962  0.464642  1
  Ho  Ho5  1  0.820380  0.715047  0.535430  1
  Ho  Ho6  1  0.179557  0.715132  0.894689  1
  Ho  Ho7  1  0.820128  0.284911  0.105039  1
  Ho  Ho8  1  0.322505  0.632600  0.310056  1
  Ho  Ho9  1  0.677958  0.367683  0.690114  1
  Ho  Ho10  1  0.322432  0.012155  0.690114  1
  Ho  Ho11  1  0.677454  0.987551  0.310056  1
  Ga  Ga12  1  0.999883  0.999644  0.999527  1
  Ni  Ni13  1  0.351760  0.999744  0.351504  1
  Ni  Ni14  1  0.648397  0.000019  0.648416  1
  Ni  Ni15  1  0.121013  0.621427  0.500100  1
  Ni  Ni16  1  0.878673  0.379087  0.500100  1
  Pb  Pb17  1  0.500016  0.499993  0.000009  1
