# generated using pymatgen
data_Dy3Bi3SbRuO14
_symmetry_space_group_name_H-M   'P 1'
_cell_length_a   6.44228970
_cell_length_b   6.67095388
_cell_length_c   7.60359971
_cell_angle_alpha   106.57313225
_cell_angle_beta   89.33249107
_cell_angle_gamma   98.22039340
_symmetry_Int_Tables_number   1
_chemical_formula_structural   Dy3Bi3SbRuO14
_chemical_formula_sum   'Dy3 Bi3 Sb1 Ru1 O14'
_cell_volume   309.83438349
_cell_formula_units_Z   1
loop_
 _symmetry_equiv_pos_site_id
 _symmetry_equiv_pos_as_xyz
  1  'x, y, z'
loop_
 _atom_site_type_symbol
 _atom_site_label
 _atom_site_symmetry_multiplicity
 _atom_site_fract_x
 _atom_site_fract_y
 _atom_site_fract_z
 _atom_site_occupancy
  Dy  Dy0  1  0.548252  0.994653  0.749666  1
  Dy  Dy1  1  0.454131  0.003279  0.253571  1
  Dy  Dy2  1  0.256782  0.532372  0.882637  1
  Bi  Bi3  1  0.741614  0.480626  0.116511  1
  Bi  Bi4  1  0.733018  0.460868  0.611711  1
  Bi  Bi5  1  0.257974  0.532972  0.390496  1
  Sb  Sb6  1  0.004087  0.001180  0.999091  1
  Ru  Ru7  1  0.002219  0.005565  0.501020  1
  O  O8  1  0.441520  0.650241  0.165812  1
  O  O9  1  0.546648  0.346675  0.826866  1
  O  O10  1  0.295334  0.930356  0.953207  1
  O  O11  1  0.707167  0.043667  0.045912  1
  O  O12  1  0.286330  0.924380  0.514029  1
  O  O13  1  0.714155  0.081202  0.488659  1
  O  O14  1  0.530401  0.354555  0.347211  1
  O  O15  1  0.455729  0.643556  0.659280  1
  O  O16  1  0.936331  0.681245  0.953449  1
  O  O17  1  0.085806  0.311801  0.035464  1
  O  O18  1  0.093373  0.309460  0.621295  1
  O  O19  1  0.905176  0.704210  0.383403  1
  O  O20  1  0.903344  0.944897  0.733770  1
  O  O21  1  0.100607  0.062241  0.266940  1
