# generated using pymatgen
data_Tb2YAl3Ga2Pd
_symmetry_space_group_name_H-M   'P 1'
_cell_length_a   6.98370137
_cell_length_b   6.98766353
_cell_length_c   4.34911500
_cell_angle_alpha   90.00000000
_cell_angle_beta   90.00000000
_cell_angle_gamma   120.01876524
_symmetry_Int_Tables_number   1
_chemical_formula_structural   Tb2YAl3Ga2Pd
_chemical_formula_sum   'Tb2 Y1 Al3 Ga2 Pd1'
_cell_volume   183.76678459
_cell_formula_units_Z   1
loop_
 _symmetry_equiv_pos_site_id
 _symmetry_equiv_pos_as_xyz
  1  'x, y, z'
loop_
 _atom_site_type_symbol
 _atom_site_label
 _atom_site_symmetry_multiplicity
 _atom_site_fract_x
 _atom_site_fract_y
 _atom_site_fract_z
 _atom_site_occupancy
  Tb  Tb0  1  0.417824  0.417908  0.500000  1
  Tb  Tb1  1  0.582176  0.000084  0.500000  1
  Y  Y2  1  0.000000  0.582074  0.500000  1
  Al  Al3  1  0.000000  0.235902  0.000000  1
  Al  Al4  1  0.764214  0.764207  0.000000  1
  Al  Al5  1  0.235786  0.999994  0.000000  1
  Ga  Ga6  1  0.666790  0.333340  0.000000  1
  Ga  Ga7  1  0.333210  0.666552  0.000000  1
  Pd  Pd8  1  0.000000  0.999939  0.500000  1
