# generated using pymatgen
data_Tb7UAlPd24
_symmetry_space_group_name_H-M   'P 1'
_cell_length_a   8.33519898
_cell_length_b   8.33519822
_cell_length_c   8.33519800
_cell_angle_alpha   89.74278948
_cell_angle_beta   90.25720362
_cell_angle_gamma   90.25720774
_symmetry_Int_Tables_number   1
_chemical_formula_structural   Tb7UAlPd24
_chemical_formula_sum   'Tb7 U1 Al1 Pd24'
_cell_volume   579.07489409
_cell_formula_units_Z   1
loop_
 _symmetry_equiv_pos_site_id
 _symmetry_equiv_pos_as_xyz
  1  'x, y, z'
loop_
 _atom_site_type_symbol
 _atom_site_label
 _atom_site_symmetry_multiplicity
 _atom_site_fract_x
 _atom_site_fract_y
 _atom_site_fract_z
 _atom_site_occupancy
  Tb  Tb0  1  0.250638  0.252335  0.252335  1
  Tb  Tb1  1  0.748109  0.747878  0.747878  1
  Tb  Tb2  1  0.747665  0.749362  0.252335  1
  Tb  Tb3  1  0.747665  0.252335  0.749362  1
  Tb  Tb4  1  0.252122  0.251891  0.747878  1
  Tb  Tb5  1  0.252122  0.747878  0.251891  1
  Tb  Tb6  1  0.253002  0.746998  0.746998  1
  U  U7  1  0.745285  0.254715  0.254715  1
  Al  Al8  1  0.002923  0.997077  0.997077  1
  Pd  Pd9  1  0.259033  0.498609  0.000138  1
  Pd  Pd10  1  0.740516  0.497169  0.005353  1
  Pd  Pd11  1  0.994647  0.259484  0.497169  1
  Pd  Pd12  1  0.502831  0.259484  0.005353  1
  Pd  Pd13  1  0.999862  0.740967  0.498609  1
  Pd  Pd14  1  0.501391  0.740967  0.000138  1
  Pd  Pd15  1  0.502831  0.005353  0.259484  1
  Pd  Pd16  1  0.259033  0.000138  0.498609  1
  Pd  Pd17  1  0.501391  0.000138  0.740967  1
  Pd  Pd18  1  0.740516  0.005353  0.497169  1
  Pd  Pd19  1  0.994647  0.497169  0.259484  1
  Pd  Pd20  1  0.999862  0.498609  0.740967  1
  Pd  Pd21  1  0.252318  0.499284  0.499284  1
  Pd  Pd22  1  0.746786  0.497085  0.497085  1
  Pd  Pd23  1  0.502915  0.253214  0.497085  1
  Pd  Pd24  1  0.500716  0.747682  0.499284  1
  Pd  Pd25  1  0.502915  0.497085  0.253214  1
  Pd  Pd26  1  0.500716  0.499284  0.747682  1
  Pd  Pd27  1  0.290086  0.999523  0.999523  1
  Pd  Pd28  1  0.713786  0.003640  0.003640  1
  Pd  Pd29  1  0.996360  0.286214  0.003640  1
  Pd  Pd30  1  0.000477  0.709914  0.999523  1
  Pd  Pd31  1  0.996360  0.003640  0.286214  1
  Pd  Pd32  1  0.000477  0.999523  0.709914  1
