# generated using pymatgen
data_ErTm3Ga12Tc
_symmetry_space_group_name_H-M   'P 1'
_cell_length_a   7.44077938
_cell_length_b   7.44653337
_cell_length_c   7.44653328
_cell_angle_alpha   109.48687007
_cell_angle_beta   109.45557215
_cell_angle_gamma   109.45556552
_symmetry_Int_Tables_number   1
_chemical_formula_structural   ErTm3Ga12Tc
_chemical_formula_sum   'Er1 Tm3 Ga12 Tc1'
_cell_volume   317.67910751
_cell_formula_units_Z   1
loop_
 _symmetry_equiv_pos_site_id
 _symmetry_equiv_pos_as_xyz
  1  'x, y, z'
loop_
 _atom_site_type_symbol
 _atom_site_label
 _atom_site_symmetry_multiplicity
 _atom_site_fract_x
 _atom_site_fract_y
 _atom_site_fract_z
 _atom_site_occupancy
  Er  Er0  1  0.500000  0.000000  0.000000  1
  Tm  Tm1  1  0.000000  0.000000  0.500000  1
  Tm  Tm2  1  0.000000  0.500000  0.000000  1
  Tm  Tm3  1  0.500000  0.500000  0.500000  1
  Ga  Ga4  1  0.750078  0.250078  0.500155  1
  Ga  Ga5  1  0.750078  0.500155  0.250078  1
  Ga  Ga6  1  0.500000  0.250078  0.749922  1
  Ga  Ga7  1  0.249922  0.499845  0.749922  1
  Ga  Ga8  1  0.249922  0.749922  0.499845  1
  Ga  Ga9  1  0.500000  0.749922  0.250078  1
  Ga  Ga10  1  0.708850  0.708727  0.000000  1
  Ga  Ga11  1  0.291150  0.000000  0.291273  1
  Ga  Ga12  1  0.000123  0.291273  0.291273  1
  Ga  Ga13  1  0.291150  0.291273  0.000000  1
  Ga  Ga14  1  0.708850  0.000000  0.708727  1
  Ga  Ga15  1  0.999877  0.708727  0.708727  1
  Tc  Tc16  1  0.000000  0.000000  0.000000  1
