# generated using pymatgen
data_Li4DyY3(SiO4)4
_symmetry_space_group_name_H-M   'P 1'
_cell_length_a   5.45083002
_cell_length_b   10.94754056
_cell_length_c   6.24580910
_cell_angle_alpha   90.02034086
_cell_angle_beta   89.98987131
_cell_angle_gamma   113.61881969
_symmetry_Int_Tables_number   1
_chemical_formula_structural   Li4DyY3(SiO4)4
_chemical_formula_sum   'Li4 Dy1 Y3 Si4 O16'
_cell_volume   341.48603414
_cell_formula_units_Z   1
loop_
 _symmetry_equiv_pos_site_id
 _symmetry_equiv_pos_as_xyz
  1  'x, y, z'
loop_
 _atom_site_type_symbol
 _atom_site_label
 _atom_site_symmetry_multiplicity
 _atom_site_fract_x
 _atom_site_fract_y
 _atom_site_fract_z
 _atom_site_occupancy
  Li  Li0  1  0.919158  0.569997  0.134114  1
  Li  Li1  1  0.919127  0.070062  0.365788  1
  Li  Li2  1  0.080989  0.930078  0.634031  1
  Li  Li3  1  0.080657  0.429950  0.865961  1
  Dy  Dy4  1  0.445235  0.151999  0.116569  1
  Y  Y5  1  0.445549  0.652060  0.383267  1
  Y  Y6  1  0.554347  0.347629  0.616577  1
  Y  Y7  1  0.554522  0.848015  0.883417  1
  Si  Si8  1  0.095988  0.859285  0.152097  1
  Si  Si9  1  0.095488  0.358812  0.347617  1
  Si  Si10  1  0.904293  0.640946  0.652120  1
  Si  Si11  1  0.904268  0.140966  0.848361  1
  O  O12  1  0.773112  0.055368  0.070905  1
  O  O13  1  0.769595  0.776487  0.141412  1
  O  O14  1  0.184650  0.475300  0.163191  1
  O  O15  1  0.241228  0.752611  0.162055  1
  O  O16  1  0.241489  0.252406  0.337249  1
  O  O17  1  0.185417  0.975827  0.336516  1
  O  O18  1  0.768977  0.276005  0.357862  1
  O  O19  1  0.773848  0.555238  0.429394  1
  O  O20  1  0.225733  0.444349  0.570566  1
  O  O21  1  0.230702  0.723740  0.641355  1
  O  O22  1  0.815579  0.024761  0.663377  1
  O  O23  1  0.758878  0.747549  0.662130  1
  O  O24  1  0.758470  0.247412  0.838334  1
  O  O25  1  0.815288  0.524635  0.836748  1
  O  O26  1  0.230844  0.223401  0.859404  1
  O  O27  1  0.226569  0.945112  0.929585  1
