# generated using pymatgen
data_CaNd3(SeO)4
_symmetry_space_group_name_H-M   'P 1'
_cell_length_a   7.62229316
_cell_length_b   7.62229220
_cell_length_c   5.90459023
_cell_angle_alpha   90.01245623
_cell_angle_beta   90.01245545
_cell_angle_gamma   134.46383301
_symmetry_Int_Tables_number   1
_chemical_formula_structural   CaNd3(SeO)4
_chemical_formula_sum   'Ca1 Nd3 Se4 O4'
_cell_volume   244.83427632
_cell_formula_units_Z   1
loop_
 _symmetry_equiv_pos_site_id
 _symmetry_equiv_pos_as_xyz
  1  'x, y, z'
loop_
 _atom_site_type_symbol
 _atom_site_label
 _atom_site_symmetry_multiplicity
 _atom_site_fract_x
 _atom_site_fract_y
 _atom_site_fract_z
 _atom_site_occupancy
  Ca  Ca0  1  0.324044  0.675956  0.000000  1
  Nd  Nd1  1  0.174634  0.825366  0.500000  1
  Nd  Nd2  1  0.827685  0.172315  0.500000  1
  Nd  Nd3  1  0.674724  0.325276  0.000000  1
  Se  Se4  1  0.851597  0.851426  0.858017  1
  Se  Se5  1  0.352411  0.352280  0.642675  1
  Se  Se6  1  0.148574  0.148403  0.141983  1
  Se  Se7  1  0.647720  0.647589  0.357325  1
  O  O8  1  0.499207  0.999267  0.747918  1
  O  O9  1  0.000733  0.500793  0.252082  1
  O  O10  1  0.505838  0.007165  0.253574  1
  O  O11  1  0.992835  0.494162  0.746426  1
