# generated using pymatgen
data_Y4TmRu2
_symmetry_space_group_name_H-M   'P 1'
_cell_length_a   6.37100617
_cell_length_b   7.27852529
_cell_length_c   8.49438697
_cell_angle_alpha   96.61839994
_cell_angle_beta   112.02510478
_cell_angle_gamma   90.00000410
_symmetry_Int_Tables_number   1
_chemical_formula_structural   Y4TmRu2
_chemical_formula_sum   'Y8 Tm2 Ru4'
_cell_volume   362.31768915
_cell_formula_units_Z   2
loop_
 _symmetry_equiv_pos_site_id
 _symmetry_equiv_pos_as_xyz
  1  'x, y, z'
loop_
 _atom_site_type_symbol
 _atom_site_label
 _atom_site_symmetry_multiplicity
 _atom_site_fract_x
 _atom_site_fract_y
 _atom_site_fract_z
 _atom_site_occupancy
  Y  Y0  1  0.977547  0.915320  0.185479  1
  Y  Y1  1  0.792067  0.584680  0.814521  1
  Y  Y2  1  0.022453  0.084680  0.814521  1
  Y  Y3  1  0.207933  0.415320  0.185479  1
  Y  Y4  1  0.641073  0.815523  0.434125  1
  Y  Y5  1  0.206946  0.684477  0.565875  1
  Y  Y6  1  0.358927  0.184477  0.565875  1
  Y  Y7  1  0.793054  0.315523  0.434125  1
  Tm  Tm8  1  0.422530  0.750000  0.000000  1
  Tm  Tm9  1  0.577470  0.250000  0.000000  1
  Ru  Ru10  1  0.818023  0.574403  0.216013  1
  Ru  Ru11  1  0.602010  0.925597  0.783987  1
  Ru  Ru12  1  0.181978  0.425597  0.783987  1
  Ru  Ru13  1  0.397990  0.074403  0.216013  1
