# generated using pymatgen
data_Pr16Mg4Ir3Pt
_symmetry_space_group_name_H-M   'P 1'
_cell_length_a   10.12445137
_cell_length_b   10.12652360
_cell_length_c   10.12616505
_cell_angle_alpha   60.06586530
_cell_angle_beta   59.95837212
_cell_angle_gamma   60.04613657
_symmetry_Int_Tables_number   1
_chemical_formula_structural   Pr16Mg4Ir3Pt
_chemical_formula_sum   'Pr16 Mg4 Ir3 Pt1'
_cell_volume   734.50017010
_cell_formula_units_Z   1
loop_
 _symmetry_equiv_pos_site_id
 _symmetry_equiv_pos_as_xyz
  1  'x, y, z'
loop_
 _atom_site_type_symbol
 _atom_site_label
 _atom_site_symmetry_multiplicity
 _atom_site_fract_x
 _atom_site_fract_y
 _atom_site_fract_z
 _atom_site_occupancy
  Pr  Pr0  1  0.346060  0.345506  0.345988  1
  Pr  Pr1  1  0.349887  0.350141  0.957322  1
  Pr  Pr2  1  0.350289  0.956952  0.350249  1
  Pr  Pr3  1  0.957424  0.350106  0.349802  1
  Pr  Pr4  1  0.807148  0.188965  0.188548  1
  Pr  Pr5  1  0.186400  0.810649  0.810530  1
  Pr  Pr6  1  0.188922  0.807052  0.188897  1
  Pr  Pr7  1  0.810505  0.186870  0.810611  1
  Pr  Pr8  1  0.188578  0.188985  0.807181  1
  Pr  Pr9  1  0.810488  0.810716  0.186486  1
  Pr  Pr10  1  0.939424  0.562315  0.562670  1
  Pr  Pr11  1  0.561395  0.938588  0.938369  1
  Pr  Pr12  1  0.562531  0.939721  0.562530  1
  Pr  Pr13  1  0.938614  0.561119  0.938653  1
  Pr  Pr14  1  0.562731  0.562355  0.939459  1
  Pr  Pr15  1  0.938367  0.938613  0.561412  1
  Mg  Mg16  1  0.579680  0.579644  0.579668  1
  Mg  Mg17  1  0.578641  0.578675  0.262372  1
  Mg  Mg18  1  0.578692  0.262295  0.578706  1
  Mg  Mg19  1  0.262367  0.578663  0.578640  1
  Ir  Ir20  1  0.142239  0.142084  0.574886  1
  Ir  Ir21  1  0.142137  0.574919  0.142164  1
  Ir  Ir22  1  0.574899  0.142050  0.142233  1
  Pt  Pt23  1  0.142581  0.143016  0.142625  1
