# generated using pymatgen
data_Mn21(CrC3)2
_symmetry_space_group_name_H-M   'P 1'
_cell_length_a   7.36117787
_cell_length_b   7.36117744
_cell_length_c   7.36117800
_cell_angle_alpha   59.99999748
_cell_angle_beta   59.99999942
_cell_angle_gamma   59.99999768
_symmetry_Int_Tables_number   1
_chemical_formula_structural   Mn21(CrC3)2
_chemical_formula_sum   'Mn21 Cr2 C6'
_cell_volume   282.05051831
_cell_formula_units_Z   1
loop_
 _symmetry_equiv_pos_site_id
 _symmetry_equiv_pos_as_xyz
  1  'x, y, z'
loop_
 _atom_site_type_symbol
 _atom_site_label
 _atom_site_symmetry_multiplicity
 _atom_site_fract_x
 _atom_site_fract_y
 _atom_site_fract_z
 _atom_site_occupancy
  Mn  Mn0  1  0.000000  0.000000  0.000000  1
  Mn  Mn1  1  0.618889  0.618889  0.143333  1
  Mn  Mn2  1  0.618889  0.143333  0.618889  1
  Mn  Mn3  1  0.143333  0.618889  0.618889  1
  Mn  Mn4  1  0.618889  0.618889  0.618889  1
  Mn  Mn5  1  0.381111  0.381111  0.856667  1
  Mn  Mn6  1  0.381111  0.856667  0.381111  1
  Mn  Mn7  1  0.856667  0.381111  0.381111  1
  Mn  Mn8  1  0.381111  0.381111  0.381111  1
  Mn  Mn9  1  0.000000  0.000000  0.333869  1
  Mn  Mn10  1  0.666131  0.000000  0.333869  1
  Mn  Mn11  1  0.000000  0.666131  0.333869  1
  Mn  Mn12  1  0.666131  0.333869  0.000000  1
  Mn  Mn13  1  0.000000  0.333869  0.000000  1
  Mn  Mn14  1  0.000000  0.333869  0.666131  1
  Mn  Mn15  1  0.333869  0.666131  0.000000  1
  Mn  Mn16  1  0.333869  0.000000  0.666131  1
  Mn  Mn17  1  0.333869  0.000000  0.000000  1
  Mn  Mn18  1  0.000000  0.000000  0.666131  1
  Mn  Mn19  1  0.000000  0.666131  0.000000  1
  Mn  Mn20  1  0.666131  0.000000  0.000000  1
  Cr  Cr21  1  0.750000  0.750000  0.750000  1
  Cr  Cr22  1  0.250000  0.250000  0.250000  1
  C  C23  1  0.724793  0.724793  0.275207  1
  C  C24  1  0.275207  0.724793  0.275207  1
  C  C25  1  0.724793  0.275207  0.275207  1
  C  C26  1  0.275207  0.275207  0.724793  1
  C  C27  1  0.724793  0.275207  0.724793  1
  C  C28  1  0.275207  0.724793  0.724793  1
