# generated using pymatgen
data_Dy3ErGa5Tc3
_symmetry_space_group_name_H-M   'P 1'
_cell_length_a   5.47435933
_cell_length_b   5.54123034
_cell_length_c   8.70259500
_cell_angle_alpha   89.99999955
_cell_angle_beta   89.99825602
_cell_angle_gamma   120.40492778
_symmetry_Int_Tables_number   1
_chemical_formula_structural   Dy3ErGa5Tc3
_chemical_formula_sum   'Dy3 Er1 Ga5 Tc3'
_cell_volume   227.68391306
_cell_formula_units_Z   1
loop_
 _symmetry_equiv_pos_site_id
 _symmetry_equiv_pos_as_xyz
  1  'x, y, z'
loop_
 _atom_site_type_symbol
 _atom_site_label
 _atom_site_symmetry_multiplicity
 _atom_site_fract_x
 _atom_site_fract_y
 _atom_site_fract_z
 _atom_site_occupancy
  Dy  Dy0  1  0.334478  0.667240  0.443325  1
  Dy  Dy1  1  0.662630  0.331315  0.552259  1
  Dy  Dy2  1  0.662659  0.331329  0.947781  1
  Er  Er3  1  0.334682  0.667342  0.056445  1
  Ga  Ga4  1  0.835603  0.164481  0.249891  1
  Ga  Ga5  1  0.835603  0.671123  0.249891  1
  Ga  Ga6  1  0.325985  0.162993  0.249957  1
  Ga  Ga7  1  0.189000  0.841130  0.750147  1
  Ga  Ga8  1  0.189000  0.347870  0.750147  1
  Tc  Tc9  1  0.975756  0.987878  0.510081  1
  Tc  Tc10  1  0.975600  0.987801  0.990040  1
  Tc  Tc11  1  0.679001  0.839500  0.750035  1
