# generated using pymatgen
data_CsHCl36
_symmetry_space_group_name_H-M   'P 1'
_cell_length_a   9.15947098
_cell_length_b   11.50648090
_cell_length_c   18.63147027
_cell_angle_alpha   101.37558188
_cell_angle_beta   86.20075951
_cell_angle_gamma   110.99003480
_symmetry_Int_Tables_number   1
_chemical_formula_structural   CsHCl36
_chemical_formula_sum   'Cs1 H1 Cl36'
_cell_volume   1797.29463040
_cell_formula_units_Z   1
loop_
 _symmetry_equiv_pos_site_id
 _symmetry_equiv_pos_as_xyz
  1  'x, y, z'
loop_
 _atom_site_type_symbol
 _atom_site_label
 _atom_site_symmetry_multiplicity
 _atom_site_fract_x
 _atom_site_fract_y
 _atom_site_fract_z
 _atom_site_occupancy
  Cs  Cs0  1  0.807925  0.090857  0.727378  1
  H  H1  1  0.046976  0.811262  0.247208  1
  Cl  Cl2  1  0.708785  0.603641  0.332672  1
  Cl  Cl3  1  0.284390  0.396437  0.659714  1
  Cl  Cl4  1  0.063603  0.320392  0.353296  1
  Cl  Cl5  1  0.963453  0.723089  0.674829  1
  Cl  Cl6  1  0.199657  0.909328  0.977460  1
  Cl  Cl7  1  0.905993  0.079501  0.092991  1
  Cl  Cl8  1  0.888356  0.962975  0.357710  1
  Cl  Cl9  1  0.122800  0.119307  0.604158  1
  Cl  Cl10  1  0.999608  0.691678  0.220571  1
  Cl  Cl11  1  0.069832  0.384969  0.743491  1
  Cl  Cl12  1  0.551211  0.536585  0.408265  1
  Cl  Cl13  1  0.486236  0.427966  0.584746  1
  Cl  Cl14  1  0.969677  0.158429  0.197955  1
  Cl  Cl15  1  0.912738  0.904610  0.850108  1
  Cl  Cl16  1  0.092442  0.086964  0.399771  1
  Cl  Cl17  1  0.975928  0.937821  0.570221  1
  Cl  Cl18  1  0.028855  0.468109  0.325132  1
  Cl  Cl19  1  0.002160  0.571925  0.705342  1
  Cl  Cl20  1  0.742029  0.723934  0.061274  1
  Cl  Cl21  1  0.238727  0.270615  0.916731  1
  Cl  Cl22  1  0.813022  0.586070  0.007154  1
  Cl  Cl23  1  0.162858  0.394032  0.984712  1
  Cl  Cl24  1  0.534820  0.606541  0.855149  1
  Cl  Cl25  1  0.470639  0.385049  0.135941  1
  Cl  Cl26  1  0.479795  0.013272  0.262486  1
  Cl  Cl27  1  0.356767  0.963450  0.732478  1
  Cl  Cl28  1  0.288230  0.864574  0.460389  1
  Cl  Cl29  1  0.710683  0.111549  0.552249  1
  Cl  Cl30  1  0.335751  0.904104  0.055224  1
  Cl  Cl31  1  0.800763  0.998881  0.921088  1
  Cl  Cl32  1  0.534169  0.857008  0.236904  1
  Cl  Cl33  1  0.435767  0.148559  0.775733  1
  Cl  Cl34  1  0.628955  0.304857  0.141421  1
  Cl  Cl35  1  0.384133  0.695434  0.853677  1
  Cl  Cl36  1  0.393897  0.735662  0.443466  1
  Cl  Cl37  1  0.608369  0.250569  0.570900  1
