# generated using pymatgen
data_Y3MgCd2Ga2Ag
_symmetry_space_group_name_H-M   'P 1'
_cell_length_a   7.37049600
_cell_length_b   7.38474306
_cell_length_c   4.36365200
_cell_angle_alpha   90.00000000
_cell_angle_beta   90.00000000
_cell_angle_gamma   119.93621017
_symmetry_Int_Tables_number   1
_chemical_formula_structural   Y3MgCd2Ga2Ag
_chemical_formula_sum   'Y3 Mg1 Cd2 Ga2 Ag1'
_cell_volume   205.82192945
_cell_formula_units_Z   1
loop_
 _symmetry_equiv_pos_site_id
 _symmetry_equiv_pos_as_xyz
  1  'x, y, z'
loop_
 _atom_site_type_symbol
 _atom_site_label
 _atom_site_symmetry_multiplicity
 _atom_site_fract_x
 _atom_site_fract_y
 _atom_site_fract_z
 _atom_site_occupancy
  Y  Y0  1  0.999860  0.576328  0.500000  1
  Y  Y1  1  0.423532  0.423672  0.500000  1
  Y  Y2  1  0.580155  0.000000  0.500000  1
  Mg  Mg3  1  0.240757  0.000000  0.000000  1
  Cd  Cd4  1  0.001289  0.251183  0.000000  1
  Cd  Cd5  1  0.750106  0.748817  0.000000  1
  Ga  Ga6  1  0.334063  0.671189  0.000000  1
  Ga  Ga7  1  0.662875  0.328811  0.000000  1
  Ag  Ag8  1  0.007362  0.000000  0.500000  1
