# generated using pymatgen
data_Mn4Al2Co8SiAs
_symmetry_space_group_name_H-M   'P 1'
_cell_length_a   13.36637757
_cell_length_b   13.36637645
_cell_length_c   13.36637600
_cell_angle_alpha   17.33958431
_cell_angle_beta   17.33958423
_cell_angle_gamma   17.33958123
_symmetry_Int_Tables_number   1
_chemical_formula_structural   Mn4Al2Co8SiAs
_chemical_formula_sum   'Mn4 Al2 Co8 Si1 As1'
_cell_volume   185.09984887
_cell_formula_units_Z   1
loop_
 _symmetry_equiv_pos_site_id
 _symmetry_equiv_pos_as_xyz
  1  'x, y, z'
loop_
 _atom_site_type_symbol
 _atom_site_label
 _atom_site_symmetry_multiplicity
 _atom_site_fract_x
 _atom_site_fract_y
 _atom_site_fract_z
 _atom_site_occupancy
  Mn  Mn0  1  0.124710  0.124710  0.124710  1
  Mn  Mn1  1  0.376943  0.376943  0.376943  1
  Mn  Mn2  1  0.623057  0.623057  0.623057  1
  Mn  Mn3  1  0.875290  0.875290  0.875290  1
  Al  Al4  1  0.249377  0.249377  0.249377  1
  Al  Al5  1  0.750623  0.750623  0.750623  1
  Co  Co6  1  0.186166  0.186166  0.186166  1
  Co  Co7  1  0.439333  0.439333  0.439333  1
  Co  Co8  1  0.686693  0.686693  0.686693  1
  Co  Co9  1  0.938200  0.938200  0.938200  1
  Co  Co10  1  0.813834  0.813834  0.813834  1
  Co  Co11  1  0.061800  0.061800  0.061800  1
  Co  Co12  1  0.313307  0.313307  0.313307  1
  Co  Co13  1  0.560667  0.560667  0.560667  1
  Si  Si14  1  0.500000  0.500000  0.500000  1
  As  As15  1  0.000000  0.000000  0.000000  1
