# generated using pymatgen
data_Tb5Eu3(WO6)4
_symmetry_space_group_name_H-M   'P 1'
_cell_length_a   5.46723200
_cell_length_b   7.77517182
_cell_length_c   11.60187379
_cell_angle_alpha   75.65111933
_cell_angle_beta   90.00000000
_cell_angle_gamma   90.00000000
_symmetry_Int_Tables_number   1
_chemical_formula_structural   Tb5Eu3(WO6)4
_chemical_formula_sum   'Tb5 Eu3 W4 O24'
_cell_volume   477.79527750
_cell_formula_units_Z   1
loop_
 _symmetry_equiv_pos_site_id
 _symmetry_equiv_pos_as_xyz
  1  'x, y, z'
loop_
 _atom_site_type_symbol
 _atom_site_label
 _atom_site_symmetry_multiplicity
 _atom_site_fract_x
 _atom_site_fract_y
 _atom_site_fract_z
 _atom_site_occupancy
  Tb  Tb0  1  0.258098  0.000000  0.250000  1
  Tb  Tb1  1  0.186299  0.795871  0.576028  1
  Tb  Tb2  1  0.814500  0.793651  0.078083  1
  Tb  Tb3  1  0.186299  0.204129  0.923972  1
  Tb  Tb4  1  0.814500  0.206349  0.421917  1
  Eu  Eu5  1  0.743158  0.000000  0.750000  1
  Eu  Eu6  1  0.681866  0.500000  0.750000  1
  Eu  Eu7  1  0.317454  0.500000  0.250000  1
  W  W8  1  0.253499  0.722844  0.886059  1
  W  W9  1  0.746300  0.726690  0.384424  1
  W  W10  1  0.253499  0.277156  0.613941  1
  W  W11  1  0.746300  0.273310  0.115576  1
  O  O12  1  0.045642  0.936327  0.899168  1
  O  O13  1  0.527564  0.844722  0.932217  1
  O  O14  1  0.956668  0.940406  0.396031  1
  O  O15  1  0.454173  0.787004  0.729842  1
  O  O16  1  0.469760  0.848568  0.429784  1
  O  O17  1  0.987966  0.714835  0.770996  1
  O  O18  1  0.544368  0.790820  0.228414  1
  O  O19  1  0.851447  0.640029  0.545233  1
  O  O20  1  0.354301  0.489809  0.888579  1
  O  O21  1  0.014807  0.716783  0.270803  1
  O  O22  1  0.354301  0.510191  0.611421  1
  O  O23  1  0.851447  0.359971  0.954767  1
  O  O24  1  0.146656  0.634556  0.046202  1
  O  O25  1  0.645765  0.493317  0.387692  1
  O  O26  1  0.987966  0.285165  0.729004  1
  O  O27  1  0.645765  0.506683  0.112308  1
  O  O28  1  0.146656  0.365444  0.453798  1
  O  O29  1  0.454173  0.212996  0.770158  1
  O  O30  1  0.014807  0.283217  0.229197  1
  O  O31  1  0.527564  0.155278  0.567783  1
  O  O32  1  0.544368  0.209180  0.271586  1
  O  O33  1  0.045642  0.063673  0.600832  1
  O  O34  1  0.469760  0.151432  0.070216  1
  O  O35  1  0.956668  0.059594  0.103969  1
