# generated using pymatgen
data_Er3Al12NiRu3
_symmetry_space_group_name_H-M   'P 1'
_cell_length_a   8.78152359
_cell_length_b   8.78152218
_cell_length_c   9.47997572
_cell_angle_alpha   90.31852582
_cell_angle_beta   89.68147193
_cell_angle_gamma   120.17871176
_symmetry_Int_Tables_number   1
_chemical_formula_structural   Er3Al12NiRu3
_chemical_formula_sum   'Er6 Al24 Ni2 Ru6'
_cell_volume   631.95141986
_cell_formula_units_Z   2
loop_
 _symmetry_equiv_pos_site_id
 _symmetry_equiv_pos_as_xyz
  1  'x, y, z'
loop_
 _atom_site_type_symbol
 _atom_site_label
 _atom_site_symmetry_multiplicity
 _atom_site_fract_x
 _atom_site_fract_y
 _atom_site_fract_z
 _atom_site_occupancy
  Er  Er0  1  0.196077  0.388894  0.249521  1
  Er  Er1  1  0.803923  0.611106  0.750479  1
  Er  Er2  1  0.611106  0.803923  0.249521  1
  Er  Er3  1  0.388894  0.196077  0.750479  1
  Er  Er4  1  0.193349  0.806651  0.250366  1
  Er  Er5  1  0.806651  0.193349  0.749634  1
  Al  Al6  1  0.332244  0.667756  0.022599  1
  Al  Al7  1  0.667756  0.332244  0.977401  1
  Al  Al8  1  0.666841  0.333159  0.516274  1
  Al  Al9  1  0.333159  0.666841  0.483726  1
  Al  Al10  1  0.161780  0.325153  0.578812  1
  Al  Al11  1  0.838220  0.674847  0.421188  1
  Al  Al12  1  0.674847  0.838220  0.578812  1
  Al  Al13  1  0.836426  0.673401  0.076453  1
  Al  Al14  1  0.325153  0.161780  0.421188  1
  Al  Al15  1  0.163574  0.326599  0.923547  1
  Al  Al16  1  0.162386  0.837614  0.579385  1
  Al  Al17  1  0.326599  0.163574  0.076453  1
  Al  Al18  1  0.837614  0.162386  0.420615  1
  Al  Al19  1  0.673401  0.836426  0.923547  1
  Al  Al20  1  0.837523  0.162477  0.077182  1
  Al  Al21  1  0.162477  0.837523  0.922818  1
  Al  Al22  1  0.560925  0.120324  0.245174  1
  Al  Al23  1  0.439075  0.879676  0.754826  1
  Al  Al24  1  0.879676  0.439075  0.245174  1
  Al  Al25  1  0.120324  0.560925  0.754826  1
  Al  Al26  1  0.561871  0.438129  0.247604  1
  Al  Al27  1  0.438129  0.561871  0.752396  1
  Al  Al28  1  0.000555  0.999445  0.249999  1
  Al  Al29  1  0.999445  0.000555  0.750001  1
  Ni  Ni30  1  0.500000  0.000000  0.000000  1
  Ni  Ni31  1  0.000000  0.500000  0.000000  1
  Ru  Ru32  1  0.500000  0.000000  0.500000  1
  Ru  Ru33  1  0.500000  0.500000  0.000000  1
  Ru  Ru34  1  0.000000  0.500000  0.500000  1
  Ru  Ru35  1  0.500000  0.500000  0.500000  1
  Ru  Ru36  1  0.000000  0.000000  0.000000  1
  Ru  Ru37  1  0.000000  0.000000  0.500000  1
