# generated using pymatgen
data_Ce5Zr3(P3Pd4)4
_symmetry_space_group_name_H-M   'P 1'
_cell_length_a   13.13725100
_cell_length_b   13.13724980
_cell_length_c   3.98423400
_cell_angle_alpha   90.00000000
_cell_angle_beta   90.00000000
_cell_angle_gamma   120.00000051
_symmetry_Int_Tables_number   1
_chemical_formula_structural   Ce5Zr3(P3Pd4)4
_chemical_formula_sum   'Ce5 Zr3 P12 Pd16'
_cell_volume   595.50364230
_cell_formula_units_Z   1
loop_
 _symmetry_equiv_pos_site_id
 _symmetry_equiv_pos_as_xyz
  1  'x, y, z'
loop_
 _atom_site_type_symbol
 _atom_site_label
 _atom_site_symmetry_multiplicity
 _atom_site_fract_x
 _atom_site_fract_y
 _atom_site_fract_z
 _atom_site_occupancy
  Ce  Ce0  1  0.187688  0.187688  0.500000  1
  Ce  Ce1  1  0.812312  0.000000  0.500000  1
  Ce  Ce2  1  0.000000  0.812312  0.500000  1
  Ce  Ce3  1  0.333333  0.666667  0.000000  1
  Ce  Ce4  1  0.666667  0.333333  0.000000  1
  Zr  Zr5  1  0.555265  0.555265  0.000000  1
  Zr  Zr6  1  0.444735  0.000000  0.000000  1
  Zr  Zr7  1  0.000000  0.444735  0.000000  1
  P  P8  1  0.824649  0.824649  0.000000  1
  P  P9  1  0.175351  0.000000  0.000000  1
  P  P10  1  0.000000  0.175351  0.000000  1
  P  P11  1  0.167164  0.483774  0.500000  1
  P  P12  1  0.516226  0.683390  0.500000  1
  P  P13  1  0.316610  0.832836  0.500000  1
  P  P14  1  0.683390  0.516226  0.500000  1
  P  P15  1  0.832836  0.316610  0.500000  1
  P  P16  1  0.483774  0.167164  0.500000  1
  P  P17  1  0.358160  0.358160  0.000000  1
  P  P18  1  0.641840  0.000000  0.000000  1
  P  P19  1  0.000000  0.641840  0.000000  1
  Pd  Pd20  1  0.723817  0.723817  0.500000  1
  Pd  Pd21  1  0.276183  0.000000  0.500000  1
  Pd  Pd22  1  0.000000  0.276183  0.500000  1
  Pd  Pd23  1  0.181377  0.375595  0.000000  1
  Pd  Pd24  1  0.624405  0.805784  0.000000  1
  Pd  Pd25  1  0.194216  0.818623  0.000000  1
  Pd  Pd26  1  0.805784  0.624405  0.000000  1
  Pd  Pd27  1  0.818623  0.194216  0.000000  1
  Pd  Pd28  1  0.375595  0.181377  0.000000  1
  Pd  Pd29  1  0.358851  0.483933  0.500000  1
  Pd  Pd30  1  0.516067  0.874918  0.500000  1
  Pd  Pd31  1  0.125082  0.641149  0.500000  1
  Pd  Pd32  1  0.874918  0.516067  0.500000  1
  Pd  Pd33  1  0.641149  0.125082  0.500000  1
  Pd  Pd34  1  0.483933  0.358851  0.500000  1
  Pd  Pd35  1  0.000000  0.000000  0.000000  1
