# generated using pymatgen
data_Zr3Nb(Ni4As3)2
_symmetry_space_group_name_H-M   'P 1'
_cell_length_a   12.65952584
_cell_length_b   12.62406767
_cell_length_c   3.79929000
_cell_angle_alpha   90.00000000
_cell_angle_beta   90.00000000
_cell_angle_gamma   119.90738535
_symmetry_Int_Tables_number   1
_chemical_formula_structural   Zr3Nb(Ni4As3)2
_chemical_formula_sum   'Zr6 Nb2 Ni16 As12'
_cell_volume   526.32545838
_cell_formula_units_Z   2
loop_
 _symmetry_equiv_pos_site_id
 _symmetry_equiv_pos_as_xyz
  1  'x, y, z'
loop_
 _atom_site_type_symbol
 _atom_site_label
 _atom_site_symmetry_multiplicity
 _atom_site_fract_x
 _atom_site_fract_y
 _atom_site_fract_z
 _atom_site_occupancy
  Zr  Zr0  1  0.000000  0.556840  0.000000  1
  Zr  Zr1  1  0.665170  0.333032  0.000000  1
  Zr  Zr2  1  0.334830  0.667862  0.000000  1
  Zr  Zr3  1  0.823232  0.821817  0.500000  1
  Zr  Zr4  1  0.176768  0.998586  0.500000  1
  Zr  Zr5  1  0.000000  0.174910  0.500000  1
  Nb  Nb6  1  0.444206  0.444706  0.000000  1
  Nb  Nb7  1  0.555794  0.000501  0.000000  1
  Ni  Ni8  1  0.193863  0.371853  0.000000  1
  Ni  Ni9  1  0.181612  0.810591  0.000000  1
  Ni  Ni10  1  0.818388  0.628980  0.000000  1
  Ni  Ni11  1  0.806137  0.177991  0.000000  1
  Ni  Ni12  1  0.372292  0.192997  0.000000  1
  Ni  Ni13  1  0.123574  0.477068  0.500000  1
  Ni  Ni14  1  0.357704  0.878955  0.500000  1
  Ni  Ni15  1  0.520608  0.645303  0.500000  1
  Ni  Ni16  1  0.642296  0.521252  0.500000  1
  Ni  Ni17  1  0.876426  0.353494  0.500000  1
  Ni  Ni18  1  0.479392  0.124694  0.500000  1
  Ni  Ni19  1  0.000000  0.000053  0.000000  1
  Ni  Ni20  1  0.721204  0.000392  0.500000  1
  Ni  Ni21  1  0.000000  0.721932  0.500000  1
  Ni  Ni22  1  0.627708  0.820705  0.000000  1
  Ni  Ni23  1  0.278796  0.279188  0.500000  1
  As  As24  1  0.645025  0.646700  0.000000  1
  As  As25  1  0.354975  0.001676  0.000000  1
  As  As26  1  0.000000  0.347408  0.000000  1
  As  As27  1  0.485312  0.315231  0.500000  1
  As  As28  1  0.684477  0.170803  0.500000  1
  As  As29  1  0.824391  0.512437  0.500000  1
  As  As30  1  0.514688  0.829920  0.500000  1
  As  As31  1  0.175609  0.688046  0.500000  1
  As  As32  1  0.822779  0.998697  0.000000  1
  As  As33  1  0.000000  0.823135  0.000000  1
  As  As34  1  0.315523  0.486326  0.500000  1
  As  As35  1  0.177221  0.175917  0.000000  1
