# generated using pymatgen
data_TmLu2In3GePt2
_symmetry_space_group_name_H-M   'P 1'
_cell_length_a   7.42537800
_cell_length_b   7.41399510
_cell_length_c   4.08494400
_cell_angle_alpha   90.00000000
_cell_angle_beta   90.00000000
_cell_angle_gamma   120.04916188
_symmetry_Int_Tables_number   1
_chemical_formula_structural   TmLu2In3GePt2
_chemical_formula_sum   'Tm1 Lu2 In3 Ge1 Pt2'
_cell_volume   194.65799388
_cell_formula_units_Z   1
loop_
 _symmetry_equiv_pos_site_id
 _symmetry_equiv_pos_as_xyz
  1  'x, y, z'
loop_
 _atom_site_type_symbol
 _atom_site_label
 _atom_site_symmetry_multiplicity
 _atom_site_fract_x
 _atom_site_fract_y
 _atom_site_fract_z
 _atom_site_occupancy
  Tm  Tm0  1  0.010370  0.597513  0.500000  1
  Lu  Lu1  1  0.587125  0.987920  0.500000  1
  Lu  Lu2  1  0.401032  0.412966  0.500000  1
  In  In3  1  0.005711  0.257474  0.000000  1
  In  In4  1  0.252377  0.994796  0.000000  1
  In  In5  1  0.742465  0.748215  0.000000  1
  Ge  Ge6  1  0.665922  0.332862  0.000000  1
  Pt  Pt7  1  0.000115  0.001178  0.500000  1
  Pt  Pt8  1  0.334883  0.667077  0.000000  1
