# generated using pymatgen
data_NdEuReC2
_symmetry_space_group_name_H-M   'P 1'
_cell_length_a   5.40190100
_cell_length_b   6.67610700
_cell_length_c   10.47395500
_cell_angle_alpha   90.00000000
_cell_angle_beta   90.00000000
_cell_angle_gamma   90.00000000
_symmetry_Int_Tables_number   1
_chemical_formula_structural   NdEuReC2
_chemical_formula_sum   'Nd4 Eu4 Re4 C8'
_cell_volume   377.72924707
_cell_formula_units_Z   4
loop_
 _symmetry_equiv_pos_site_id
 _symmetry_equiv_pos_as_xyz
  1  'x, y, z'
loop_
 _atom_site_type_symbol
 _atom_site_label
 _atom_site_symmetry_multiplicity
 _atom_site_fract_x
 _atom_site_fract_y
 _atom_site_fract_z
 _atom_site_occupancy
  Nd  Nd0  1  0.750000  0.806758  0.049336  1
  Nd  Nd1  1  0.250000  0.193242  0.950664  1
  Nd  Nd2  1  0.750000  0.306758  0.450664  1
  Nd  Nd3  1  0.250000  0.693242  0.549336  1
  Eu  Eu4  1  0.750000  0.466277  0.777720  1
  Eu  Eu5  1  0.250000  0.033723  0.277720  1
  Eu  Eu6  1  0.750000  0.966277  0.722280  1
  Eu  Eu7  1  0.250000  0.533723  0.222280  1
  Re  Re8  1  0.750000  0.769117  0.354008  1
  Re  Re9  1  0.250000  0.730883  0.854008  1
  Re  Re10  1  0.250000  0.230883  0.645992  1
  Re  Re11  1  0.750000  0.269117  0.145992  1
  C  C12  1  0.250000  0.966962  0.741899  1
  C  C13  1  0.750000  0.533038  0.241899  1
  C  C14  1  0.250000  0.466962  0.758101  1
  C  C15  1  0.750000  0.033038  0.258101  1
  C  C16  1  0.250000  0.306949  0.470253  1
  C  C17  1  0.750000  0.193051  0.970253  1
  C  C18  1  0.250000  0.806949  0.029747  1
  C  C19  1  0.750000  0.693051  0.529747  1
