# generated using pymatgen
data_Sm8Ti5Si16Mo7
_symmetry_space_group_name_H-M   'P 1'
_cell_length_a   7.01701007
_cell_length_b   7.00943666
_cell_length_c   12.99309206
_cell_angle_alpha   89.87737372
_cell_angle_beta   90.00151571
_cell_angle_gamma   90.04168188
_symmetry_Int_Tables_number   1
_chemical_formula_structural   Sm8Ti5Si16Mo7
_chemical_formula_sum   'Sm8 Ti5 Si16 Mo7'
_cell_volume   639.06733652
_cell_formula_units_Z   1
loop_
 _symmetry_equiv_pos_site_id
 _symmetry_equiv_pos_as_xyz
  1  'x, y, z'
loop_
 _atom_site_type_symbol
 _atom_site_label
 _atom_site_symmetry_multiplicity
 _atom_site_fract_x
 _atom_site_fract_y
 _atom_site_fract_z
 _atom_site_occupancy
  Sm  Sm0  1  0.339721  0.004623  0.466877  1
  Sm  Sm1  1  0.495866  0.839336  0.718576  1
  Sm  Sm2  1  0.503589  0.161077  0.218282  1
  Sm  Sm3  1  0.838778  0.495111  0.281065  1
  Sm  Sm4  1  0.160749  0.503805  0.783133  1
  Sm  Sm5  1  0.660536  0.996092  0.968365  1
  Sm  Sm6  1  0.004333  0.338995  0.531960  1
  Sm  Sm7  1  0.995007  0.661906  0.031409  1
  Ti  Ti8  1  0.329111  0.329550  0.999374  1
  Ti  Ti9  1  0.170256  0.828557  0.249982  1
  Ti  Ti10  1  0.827468  0.172489  0.750436  1
  Ti  Ti11  1  0.670143  0.668338  0.499197  1
  Ti  Ti12  1  0.992693  0.839645  0.625211  1
  Si  Si13  1  0.201526  0.126745  0.686516  1
  Si  Si14  1  0.374589  0.700212  0.936334  1
  Si  Si15  1  0.627034  0.300808  0.436243  1
  Si  Si16  1  0.698125  0.374002  0.063957  1
  Si  Si17  1  0.302343  0.625779  0.562919  1
  Si  Si18  1  0.800469  0.874521  0.186042  1
  Si  Si19  1  0.124501  0.199467  0.314058  1
  Si  Si20  1  0.875273  0.801266  0.813867  1
  Si  Si21  1  0.286176  0.959028  0.062682  1
  Si  Si22  1  0.541310  0.785689  0.312407  1
  Si  Si23  1  0.458391  0.213731  0.812622  1
  Si  Si24  1  0.786258  0.542019  0.687708  1
  Si  Si25  1  0.213636  0.458473  0.186997  1
  Si  Si26  1  0.712957  0.042864  0.563111  1
  Si  Si27  1  0.958404  0.286543  0.937754  1
  Si  Si28  1  0.043158  0.713121  0.436821  1
  Mo  Mo29  1  0.161266  0.010828  0.875989  1
  Mo  Mo30  1  0.490304  0.659815  0.124723  1
  Mo  Mo31  1  0.508818  0.339646  0.623971  1
  Mo  Mo32  1  0.658796  0.489672  0.877207  1
  Mo  Mo33  1  0.341199  0.506786  0.374222  1
  Mo  Mo34  1  0.838669  0.989349  0.374015  1
  Mo  Mo35  1  0.008547  0.160115  0.125968  1
