# generated using pymatgen
data_Ca2ZnNi2
_symmetry_space_group_name_H-M   'P 1'
_cell_length_a   5.53252383
_cell_length_b   5.53252485
_cell_length_c   5.53252431
_cell_angle_alpha   135.61032946
_cell_angle_beta   122.82104964
_cell_angle_gamma   75.13065381
_symmetry_Int_Tables_number   1
_chemical_formula_structural   Ca2ZnNi2
_chemical_formula_sum   'Ca2 Zn1 Ni2'
_cell_volume   97.05967249
_cell_formula_units_Z   1
loop_
 _symmetry_equiv_pos_site_id
 _symmetry_equiv_pos_as_xyz
  1  'x, y, z'
loop_
 _atom_site_type_symbol
 _atom_site_label
 _atom_site_symmetry_multiplicity
 _atom_site_fract_x
 _atom_site_fract_y
 _atom_site_fract_z
 _atom_site_occupancy
  Ca  Ca0  1  0.697502  0.197502  0.500000  1
  Ca  Ca1  1  0.302499  0.802499  0.500000  1
  Zn  Zn2  1  0.000000  0.000000  0.000000  1
  Ni  Ni3  1  0.738931  0.500000  0.238931  1
  Ni  Ni4  1  0.261070  0.500000  0.761070  1
