# generated using pymatgen
data_TbHoHfIr3
_symmetry_space_group_name_H-M   'P 1'
_cell_length_a   5.30019899
_cell_length_b   5.30019972
_cell_length_c   5.30019786
_cell_angle_alpha   65.33044557
_cell_angle_beta   65.33045491
_cell_angle_gamma   65.33044881
_symmetry_Int_Tables_number   1
_chemical_formula_structural   TbHoHfIr3
_chemical_formula_sum   'Tb1 Ho1 Hf1 Ir3'
_cell_volume   117.50311532
_cell_formula_units_Z   1
loop_
 _symmetry_equiv_pos_site_id
 _symmetry_equiv_pos_as_xyz
  1  'x, y, z'
loop_
 _atom_site_type_symbol
 _atom_site_label
 _atom_site_symmetry_multiplicity
 _atom_site_fract_x
 _atom_site_fract_y
 _atom_site_fract_z
 _atom_site_occupancy
  Tb  Tb0  1  0.998911  0.998911  0.998911  1
  Ho  Ho1  1  0.252775  0.252775  0.252775  1
  Hf  Hf2  1  0.624695  0.624695  0.624695  1
  Ir  Ir3  1  0.624593  0.624593  0.124432  1
  Ir  Ir4  1  0.624593  0.124432  0.624593  1
  Ir  Ir5  1  0.124432  0.624593  0.624593  1
