# generated using pymatgen
data_Ac6Cu5NiP17
_symmetry_space_group_name_H-M   'P 1'
_cell_length_a   9.11354541
_cell_length_b   9.11353112
_cell_length_c   9.11352364
_cell_angle_alpha   109.56801257
_cell_angle_beta   109.28032708
_cell_angle_gamma   109.56663260
_symmetry_Int_Tables_number   1
_chemical_formula_structural   Ac6Cu5NiP17
_chemical_formula_sum   'Ac6 Cu5 Ni1 P17'
_cell_volume   582.67814823
_cell_formula_units_Z   1
loop_
 _symmetry_equiv_pos_site_id
 _symmetry_equiv_pos_as_xyz
  1  'x, y, z'
loop_
 _atom_site_type_symbol
 _atom_site_label
 _atom_site_symmetry_multiplicity
 _atom_site_fract_x
 _atom_site_fract_y
 _atom_site_fract_z
 _atom_site_occupancy
  Ac  Ac0  1  0.708298  0.000008  0.708295  1
  Ac  Ac1  1  0.291629  0.292717  0.999408  1
  Ac  Ac2  1  0.706700  0.707291  0.998909  1
  Ac  Ac3  1  0.000580  0.292204  0.293323  1
  Ac  Ac4  1  0.001118  0.707806  0.708384  1
  Ac  Ac5  1  0.291712  0.999996  0.291707  1
  Cu  Cu6  1  0.750025  0.500014  0.250026  1
  Cu  Cu7  1  0.250087  0.749039  0.500870  1
  Cu  Cu8  1  0.751707  0.250930  0.501056  1
  Cu  Cu9  1  0.499013  0.250927  0.749886  1
  Cu  Cu10  1  0.499078  0.748994  0.248056  1
  Ni  Ni11  1  0.249913  0.499833  0.749913  1
  P  P12  1  0.000008  0.000011  0.000007  1
  P  P13  1  0.566600  0.568580  0.568043  1
  P  P14  1  0.999480  0.431440  0.998039  1
  P  P15  1  0.431994  0.998572  0.000544  1
  P  P16  1  0.001982  0.001458  0.433432  1
  P  P17  1  0.368034  0.376352  0.603816  1
  P  P18  1  0.008240  0.235805  0.631948  1
  P  P19  1  0.227812  0.999349  0.627536  1
  P  P20  1  0.771630  0.399874  0.772314  1
  P  P21  1  0.396188  0.764231  0.772501  1
  P  P22  1  0.599146  0.372643  0.373404  1
  P  P23  1  0.000792  0.627376  0.226544  1
  P  P24  1  0.773485  0.774240  0.400854  1
  P  P25  1  0.626581  0.225772  0.999180  1
  P  P26  1  0.227516  0.623687  0.991733  1
  P  P27  1  0.372458  0.600182  0.371788  1
  P  P28  1  0.628195  0.000667  0.228486  1
