# generated using pymatgen
data_Li3Dy3HgGeTe
_symmetry_space_group_name_H-M   'P 1'
_cell_length_a   7.37589600
_cell_length_b   7.37589660
_cell_length_c   4.32951500
_cell_angle_alpha   90.00000000
_cell_angle_beta   90.00000000
_cell_angle_gamma   119.99999733
_symmetry_Int_Tables_number   1
_chemical_formula_structural   Li3Dy3HgGeTe
_chemical_formula_sum   'Li3 Dy3 Hg1 Ge1 Te1'
_cell_volume   203.98559340
_cell_formula_units_Z   1
loop_
 _symmetry_equiv_pos_site_id
 _symmetry_equiv_pos_as_xyz
  1  'x, y, z'
loop_
 _atom_site_type_symbol
 _atom_site_label
 _atom_site_symmetry_multiplicity
 _atom_site_fract_x
 _atom_site_fract_y
 _atom_site_fract_z
 _atom_site_occupancy
  Li  Li0  1  0.754402  0.760480  0.500000  1
  Li  Li1  1  0.239520  0.993923  0.500000  1
  Li  Li2  1  0.006077  0.245598  0.500000  1
  Dy  Dy3  1  0.405924  0.429016  0.000000  1
  Dy  Dy4  1  0.570984  0.976908  0.000000  1
  Dy  Dy5  1  0.023092  0.594076  0.000000  1
  Hg  Hg6  1  0.000000  0.000000  0.000000  1
  Ge  Ge7  1  0.333333  0.666667  0.500000  1
  Te  Te8  1  0.666667  0.333333  0.500000  1
