# generated using pymatgen
data_Er2Fe8Ni4P7
_symmetry_space_group_name_H-M   'P 1'
_cell_length_a   8.99915262
_cell_length_b   9.04251550
_cell_length_c   3.62969800
_cell_angle_alpha   90.00000000
_cell_angle_beta   90.00000000
_cell_angle_gamma   119.94561248
_symmetry_Int_Tables_number   1
_chemical_formula_structural   Er2Fe8Ni4P7
_chemical_formula_sum   'Er2 Fe8 Ni4 P7'
_cell_volume   255.93504349
_cell_formula_units_Z   1
loop_
 _symmetry_equiv_pos_site_id
 _symmetry_equiv_pos_as_xyz
  1  'x, y, z'
loop_
 _atom_site_type_symbol
 _atom_site_label
 _atom_site_symmetry_multiplicity
 _atom_site_fract_x
 _atom_site_fract_y
 _atom_site_fract_z
 _atom_site_occupancy
  Er  Er0  1  0.999262  0.997517  0.000000  1
  Er  Er1  1  0.333605  0.669420  0.500000  1
  Fe  Fe2  1  0.826249  0.214648  0.000000  1
  Fe  Fe3  1  0.782825  0.604835  0.000000  1
  Fe  Fe4  1  0.393786  0.179035  0.000000  1
  Fe  Fe5  1  0.712451  0.767427  0.500000  1
  Fe  Fe6  1  0.230641  0.946631  0.500000  1
  Fe  Fe7  1  0.888381  0.458156  0.500000  1
  Fe  Fe8  1  0.547756  0.428512  0.500000  1
  Fe  Fe9  1  0.570585  0.115254  0.500000  1
  Ni  Ni10  1  0.097069  0.703462  0.000000  1
  Ni  Ni11  1  0.296057  0.396710  0.000000  1
  Ni  Ni12  1  0.601517  0.902225  0.000000  1
  Ni  Ni13  1  0.056839  0.284359  0.500000  1
  P  P14  1  0.073237  0.447157  0.000000  1
  P  P15  1  0.557394  0.633037  0.000000  1
  P  P16  1  0.365706  0.926601  0.000000  1
  P  P17  1  0.779920  0.043860  0.500000  1
  P  P18  1  0.949152  0.736477  0.500000  1
  P  P19  1  0.268378  0.212810  0.500000  1
  P  P20  1  0.669192  0.331867  0.000000  1
