# generated using pymatgen
data_Y3Hg5Au
_symmetry_space_group_name_H-M   'P 1'
_cell_length_a   8.12596300
_cell_length_b   8.12596378
_cell_length_c   3.80735200
_cell_angle_alpha   90.00000000
_cell_angle_beta   90.00000000
_cell_angle_gamma   120.00000090
_symmetry_Int_Tables_number   1
_chemical_formula_structural   Y3Hg5Au
_chemical_formula_sum   'Y3 Hg5 Au1'
_cell_volume   217.72253429
_cell_formula_units_Z   1
loop_
 _symmetry_equiv_pos_site_id
 _symmetry_equiv_pos_as_xyz
  1  'x, y, z'
loop_
 _atom_site_type_symbol
 _atom_site_label
 _atom_site_symmetry_multiplicity
 _atom_site_fract_x
 _atom_site_fract_y
 _atom_site_fract_z
 _atom_site_occupancy
  Y  Y0  1  0.606729  0.013681  0.000000  1
  Y  Y1  1  0.986319  0.593046  0.000000  1
  Y  Y2  1  0.406954  0.393271  0.000000  1
  Hg  Hg3  1  0.280768  0.001402  0.500000  1
  Hg  Hg4  1  0.998598  0.279366  0.500000  1
  Hg  Hg5  1  0.720634  0.719232  0.500000  1
  Hg  Hg6  1  0.333333  0.666667  0.500000  1
  Hg  Hg7  1  0.000000  0.000000  0.000000  1
  Au  Au8  1  0.666667  0.333333  0.500000  1
