# generated using pymatgen
data_Ca6TaGa6(SnO8)3
_symmetry_space_group_name_H-M   'P 1'
_cell_length_a   11.03929160
_cell_length_b   11.01743585
_cell_length_c   11.03659272
_cell_angle_alpha   109.52581145
_cell_angle_beta   109.52423685
_cell_angle_gamma   109.44044972
_symmetry_Int_Tables_number   1
_chemical_formula_structural   Ca6TaGa6(SnO8)3
_chemical_formula_sum   'Ca12 Ta2 Ga12 Sn6 O48'
_cell_volume   1032.33848028
_cell_formula_units_Z   2
loop_
 _symmetry_equiv_pos_site_id
 _symmetry_equiv_pos_as_xyz
  1  'x, y, z'
loop_
 _atom_site_type_symbol
 _atom_site_label
 _atom_site_symmetry_multiplicity
 _atom_site_fract_x
 _atom_site_fract_y
 _atom_site_fract_z
 _atom_site_occupancy
  Ca  Ca0  1  0.250406  0.375860  0.124748  1
  Ca  Ca1  1  0.749594  0.624140  0.875252  1
  Ca  Ca2  1  0.748940  0.124272  0.374354  1
  Ca  Ca3  1  0.125075  0.250065  0.375028  1
  Ca  Ca4  1  0.374416  0.749816  0.124293  1
  Ca  Ca5  1  0.251060  0.875728  0.625646  1
  Ca  Ca6  1  0.874925  0.749935  0.624972  1
  Ca  Ca7  1  0.625584  0.250184  0.875707  1
  Ca  Ca8  1  0.375972  0.124850  0.250614  1
  Ca  Ca9  1  0.624028  0.875150  0.749386  1
  Ca  Ca10  1  0.126026  0.375381  0.751307  1
  Ca  Ca11  1  0.873974  0.624619  0.248693  1
  Ta  Ta12  1  0.000000  0.000000  0.000000  1
  Ta  Ta13  1  0.000000  0.500000  0.500000  1
  Ga  Ga14  1  0.250728  0.624981  0.374921  1
  Ga  Ga15  1  0.749272  0.375019  0.625079  1
  Ga  Ga16  1  0.749862  0.874903  0.125641  1
  Ga  Ga17  1  0.374269  0.250077  0.624265  1
  Ga  Ga18  1  0.625731  0.749923  0.375735  1
  Ga  Ga19  1  0.250138  0.125097  0.874359  1
  Ga  Ga20  1  0.125518  0.750022  0.875520  1
  Ga  Ga21  1  0.874482  0.249978  0.124480  1
  Ga  Ga22  1  0.623794  0.374157  0.248678  1
  Ga  Ga23  1  0.376206  0.625843  0.751322  1
  Ga  Ga24  1  0.874492  0.125812  0.749683  1
  Ga  Ga25  1  0.125508  0.874188  0.250317  1
  Sn  Sn26  1  0.500000  0.000000  0.500000  1
  Sn  Sn27  1  0.500000  0.000000  0.000000  1
  Sn  Sn28  1  0.500000  0.500000  0.000000  1
  Sn  Sn29  1  0.500000  0.500000  0.500000  1
  Sn  Sn30  1  0.000000  0.000000  0.500000  1
  Sn  Sn31  1  0.000000  0.500000  0.000000  1
  O  O32  1  0.475929  0.377800  0.293776  1
  O  O33  1  0.524071  0.622200  0.706224  1
  O  O34  1  0.583952  0.181951  0.205931  1
  O  O35  1  0.915934  0.122238  0.598084  1
  O  O36  1  0.293081  0.474658  0.377275  1
  O  O37  1  0.318658  0.919046  0.295159  1
  O  O38  1  0.416048  0.818049  0.794069  1
  O  O39  1  0.084066  0.877762  0.401916  1
  O  O40  1  0.706919  0.525342  0.622725  1
  O  O41  1  0.681342  0.080954  0.704841  1
  O  O42  1  0.024066  0.318040  0.902025  1
  O  O43  1  0.204786  0.583159  0.182068  1
  O  O44  1  0.115171  0.017083  0.195028  1
  O  O45  1  0.975934  0.681960  0.097975  1
  O  O46  1  0.795214  0.416841  0.817932  1
  O  O47  1  0.884829  0.982917  0.804972  1
  O  O48  1  0.598971  0.916865  0.121610  1
  O  O49  1  0.177959  0.482941  0.598134  1
  O  O50  1  0.401029  0.083135  0.878390  1
  O  O51  1  0.822041  0.517059  0.401866  1
  O  O52  1  0.902639  0.025346  0.318396  1
  O  O53  1  0.376124  0.580980  0.899604  1
  O  O54  1  0.097361  0.974654  0.681604  1
  O  O55  1  0.623876  0.419020  0.100396  1
  O  O56  1  0.376368  0.293356  0.474641  1
  O  O57  1  0.583567  0.901473  0.377847  1
  O  O58  1  0.623632  0.706644  0.525359  1
  O  O59  1  0.416433  0.098527  0.622153  1
  O  O60  1  0.120935  0.597912  0.915589  1
  O  O61  1  0.017017  0.195230  0.116900  1
  O  O62  1  0.879065  0.402088  0.084411  1
  O  O63  1  0.982983  0.804770  0.883100  1
  O  O64  1  0.317664  0.902052  0.022991  1
  O  O65  1  0.921681  0.304758  0.321795  1
  O  O66  1  0.682336  0.097948  0.977009  1
  O  O67  1  0.078319  0.695242  0.678205  1
  O  O68  1  0.181265  0.206648  0.583031  1
  O  O69  1  0.476372  0.598548  0.182094  1
  O  O70  1  0.818735  0.793352  0.416969  1
  O  O71  1  0.523628  0.401452  0.817906  1
  O  O72  1  0.294791  0.318295  0.918183  1
  O  O73  1  0.705209  0.681705  0.081817  1
  O  O74  1  0.194922  0.115707  0.017394  1
  O  O75  1  0.805078  0.884293  0.982606  1
  O  O76  1  0.901720  0.384354  0.579277  1
  O  O77  1  0.098280  0.615646  0.420723  1
  O  O78  1  0.599827  0.181757  0.476429  1
  O  O79  1  0.400173  0.818243  0.523571  1
