# generated using pymatgen
data_Er5ReRuO12
_symmetry_space_group_name_H-M   'P 1'
_cell_length_a   6.80319981
_cell_length_b   6.80320129
_cell_length_c   7.45124262
_cell_angle_alpha   73.85346336
_cell_angle_beta   73.85345833
_cell_angle_gamma   48.99888984
_symmetry_Int_Tables_number   1
_chemical_formula_structural   Er5ReRuO12
_chemical_formula_sum   'Er5 Re1 Ru1 O12'
_cell_volume   247.81990520
_cell_formula_units_Z   1
loop_
 _symmetry_equiv_pos_site_id
 _symmetry_equiv_pos_as_xyz
  1  'x, y, z'
loop_
 _atom_site_type_symbol
 _atom_site_label
 _atom_site_symmetry_multiplicity
 _atom_site_fract_x
 _atom_site_fract_y
 _atom_site_fract_z
 _atom_site_occupancy
  Er  Er0  1  0.709472  0.686363  0.641763  1
  Er  Er1  1  0.313637  0.290528  0.358237  1
  Er  Er2  1  0.688938  0.682924  0.174099  1
  Er  Er3  1  0.317076  0.311062  0.825901  1
  Er  Er4  1  0.003759  0.996241  0.500000  1
  Re  Re5  1  0.207460  0.792540  0.000000  1
  Ru  Ru6  1  0.772478  0.227522  0.000000  1
  O  O7  1  0.008343  0.995282  0.204657  1
  O  O8  1  0.004718  0.991657  0.795343  1
  O  O9  1  0.566092  0.085806  0.086939  1
  O  O10  1  0.410114  0.909834  0.915056  1
  O  O11  1  0.914194  0.433908  0.913061  1
  O  O12  1  0.090166  0.589886  0.084944  1
  O  O13  1  0.489845  0.508641  0.177968  1
  O  O14  1  0.491359  0.510155  0.822032  1
  O  O15  1  0.405038  0.896166  0.431371  1
  O  O16  1  0.596312  0.092835  0.576410  1
  O  O17  1  0.103834  0.594962  0.568629  1
  O  O18  1  0.907165  0.403688  0.423590  1
