# generated using pymatgen
data_La2Y17HoSi15Pt
_symmetry_space_group_name_H-M   'P 1'
_cell_length_a   7.44805387
_cell_length_b   7.77702580
_cell_length_c   14.72674980
_cell_angle_alpha   89.62628841
_cell_angle_beta   89.94069860
_cell_angle_gamma   89.89530651
_symmetry_Int_Tables_number   1
_chemical_formula_structural   La2Y17HoSi15Pt
_chemical_formula_sum   'La2 Y17 Ho1 Si15 Pt1'
_cell_volume   853.00792601
_cell_formula_units_Z   1
loop_
 _symmetry_equiv_pos_site_id
 _symmetry_equiv_pos_as_xyz
  1  'x, y, z'
loop_
 _atom_site_type_symbol
 _atom_site_label
 _atom_site_symmetry_multiplicity
 _atom_site_fract_x
 _atom_site_fract_y
 _atom_site_fract_z
 _atom_site_occupancy
  La  La0  1  0.523178  0.570380  0.342379  1
  La  La1  1  0.023316  0.428732  0.657066  1
  Y  Y2  1  0.318287  0.426333  0.125501  1
  Y  Y3  1  0.182370  0.928272  0.373059  1
  Y  Y4  1  0.681976  0.069662  0.627333  1
  Y  Y5  1  0.182786  0.928015  0.628605  1
  Y  Y6  1  0.682375  0.070739  0.371176  1
  Y  Y7  1  0.815720  0.571685  0.126189  1
  Y  Y8  1  0.321935  0.430727  0.873433  1
  Y  Y9  1  0.644725  0.235859  0.999398  1
  Y  Y10  1  0.155366  0.758940  0.000599  1
  Y  Y11  1  0.350384  0.263137  0.500074  1
  Y  Y12  1  0.850161  0.736137  0.499905  1
  Y  Y13  1  0.475122  0.932296  0.847187  1
  Y  Y14  1  0.972964  0.066306  0.152068  1
  Y  Y15  1  0.473116  0.933317  0.151837  1
  Y  Y16  1  0.971399  0.066997  0.849171  1
  Y  Y17  1  0.527817  0.565726  0.651816  1
  Y  Y18  1  0.027791  0.433855  0.347916  1
  Ho  Ho19  1  0.810978  0.575844  0.875178  1
  Si  Si20  1  0.020066  0.351191  0.999704  1
  Si  Si21  1  0.476405  0.858908  0.501155  1
  Si  Si22  1  0.976605  0.140447  0.499064  1
  Si  Si23  1  0.650597  0.276949  0.790802  1
  Si  Si24  1  0.149935  0.722583  0.209207  1
  Si  Si25  1  0.351750  0.216328  0.287637  1
  Si  Si26  1  0.851984  0.783179  0.713243  1
  Si  Si27  1  0.361353  0.220290  0.710821  1
  Si  Si28  1  0.861102  0.779882  0.288612  1
  Si  Si29  1  0.645914  0.269346  0.206311  1
  Si  Si30  1  0.144852  0.728586  0.793542  1
  Si  Si31  1  0.770466  0.880023  0.000522  1
  Si  Si32  1  0.259426  0.125585  0.999547  1
  Si  Si33  1  0.234248  0.627278  0.501765  1
  Si  Si34  1  0.733312  0.373287  0.498480  1
  Pt  Pt35  1  0.520223  0.653177  0.999702  1
