# generated using pymatgen
data_NdDySbTe
_symmetry_space_group_name_H-M   'P 1'
_cell_length_a   7.73889490
_cell_length_b   7.73889576
_cell_length_c   7.73889447
_cell_angle_alpha   33.28907820
_cell_angle_beta   33.28906793
_cell_angle_gamma   33.28907599
_symmetry_Int_Tables_number   1
_chemical_formula_structural   NdDySbTe
_chemical_formula_sum   'Nd1 Dy1 Sb1 Te1'
_cell_volume   124.31327599
_cell_formula_units_Z   1
loop_
 _symmetry_equiv_pos_site_id
 _symmetry_equiv_pos_as_xyz
  1  'x, y, z'
loop_
 _atom_site_type_symbol
 _atom_site_label
 _atom_site_symmetry_multiplicity
 _atom_site_fract_x
 _atom_site_fract_y
 _atom_site_fract_z
 _atom_site_occupancy
  Nd  Nd0  1  0.253952  0.253952  0.253952  1
  Dy  Dy1  1  0.746200  0.746200  0.746200  1
  Sb  Sb2  1  0.003363  0.003363  0.003363  1
  Te  Te3  1  0.496485  0.496485  0.496485  1
