# generated using pymatgen
data_Ti3Nb5Cr2(Si3C)2
_symmetry_space_group_name_H-M   'P 1'
_cell_length_a   7.45059827
_cell_length_b   7.45059860
_cell_length_c   5.13807627
_cell_angle_alpha   90.01833419
_cell_angle_beta   90.01833742
_cell_angle_gamma   120.13510623
_symmetry_Int_Tables_number   1
_chemical_formula_structural   Ti3Nb5Cr2(Si3C)2
_chemical_formula_sum   'Ti3 Nb5 Cr2 Si6 C2'
_cell_volume   246.67238586
_cell_formula_units_Z   1
loop_
 _symmetry_equiv_pos_site_id
 _symmetry_equiv_pos_as_xyz
  1  'x, y, z'
loop_
 _atom_site_type_symbol
 _atom_site_label
 _atom_site_symmetry_multiplicity
 _atom_site_fract_x
 _atom_site_fract_y
 _atom_site_fract_z
 _atom_site_occupancy
  Ti  Ti0  1  0.666776  0.334161  0.998780  1
  Ti  Ti1  1  0.334161  0.666776  0.998780  1
  Ti  Ti2  1  0.764066  0.764066  0.752701  1
  Nb  Nb3  1  0.238666  0.999652  0.752984  1
  Nb  Nb4  1  0.999652  0.238666  0.752984  1
  Nb  Nb5  1  0.238692  0.238692  0.247565  1
  Nb  Nb6  1  0.759732  0.998607  0.246047  1
  Nb  Nb7  1  0.998607  0.759732  0.246047  1
  Cr  Cr8  1  0.333100  0.667256  0.500571  1
  Cr  Cr9  1  0.667256  0.333100  0.500571  1
  Si  Si10  1  0.416341  0.416341  0.728506  1
  Si  Si11  1  0.588520  0.997920  0.731018  1
  Si  Si12  1  0.997920  0.588520  0.731018  1
  Si  Si13  1  0.588854  0.588854  0.272032  1
  Si  Si14  1  0.411491  0.999872  0.270352  1
  Si  Si15  1  0.999872  0.411491  0.270352  1
  C  C16  1  0.998348  0.998348  0.998662  1
  C  C17  1  0.997947  0.997947  0.501031  1
