# generated using pymatgen
data_LaPrY3Si4
_symmetry_space_group_name_H-M   'P 1'
_cell_length_a   7.56791270
_cell_length_b   7.85867568
_cell_length_c   14.94875510
_cell_angle_alpha   90.00063746
_cell_angle_beta   89.93935708
_cell_angle_gamma   89.95259542
_symmetry_Int_Tables_number   1
_chemical_formula_structural   LaPrY3Si4
_chemical_formula_sum   'La4 Pr4 Y12 Si16'
_cell_volume   889.05804208
_cell_formula_units_Z   4
loop_
 _symmetry_equiv_pos_site_id
 _symmetry_equiv_pos_as_xyz
  1  'x, y, z'
loop_
 _atom_site_type_symbol
 _atom_site_label
 _atom_site_symmetry_multiplicity
 _atom_site_fract_x
 _atom_site_fract_y
 _atom_site_fract_z
 _atom_site_occupancy
  La  La0  1  0.022578  0.178566  0.402351  1
  La  La1  1  0.523056  0.321171  0.401923  1
  La  La2  1  0.476965  0.678763  0.902347  1
  La  La3  1  0.477039  0.678834  0.598128  1
  Pr  Pr4  1  0.976917  0.820731  0.598300  1
  Pr  Pr5  1  0.976623  0.820880  0.902265  1
  Pr  Pr6  1  0.523815  0.320364  0.098459  1
  Pr  Pr7  1  0.023288  0.179374  0.097953  1
  Y  Y8  1  0.320558  0.178202  0.623260  1
  Y  Y9  1  0.679594  0.821541  0.376544  1
  Y  Y10  1  0.652085  0.988658  0.750066  1
  Y  Y11  1  0.178936  0.678822  0.376483  1
  Y  Y12  1  0.820937  0.320679  0.877170  1
  Y  Y13  1  0.821088  0.320983  0.623287  1
  Y  Y14  1  0.848045  0.488845  0.249555  1
  Y  Y15  1  0.348182  0.011261  0.249498  1
  Y  Y16  1  0.320375  0.178527  0.877188  1
  Y  Y17  1  0.178854  0.679114  0.122691  1
  Y  Y18  1  0.679549  0.821181  0.122664  1
  Y  Y19  1  0.151675  0.511298  0.750059  1
  Si  Si20  1  0.268287  0.881101  0.750124  1
  Si  Si21  1  0.473019  0.612694  0.249322  1
  Si  Si22  1  0.026487  0.111494  0.750179  1
  Si  Si23  1  0.527248  0.386689  0.750113  1
  Si  Si24  1  0.143479  0.470760  0.539776  1
  Si  Si25  1  0.973255  0.887863  0.249299  1
  Si  Si26  1  0.730264  0.119245  0.249037  1
  Si  Si27  1  0.855859  0.529850  0.039929  1
  Si  Si28  1  0.355803  0.970858  0.040057  1
  Si  Si29  1  0.142963  0.469271  0.960756  1
  Si  Si30  1  0.644800  0.029856  0.539841  1
  Si  Si31  1  0.356466  0.969366  0.460647  1
  Si  Si32  1  0.856564  0.531450  0.460827  1
  Si  Si33  1  0.771272  0.619196  0.750121  1
  Si  Si34  1  0.230001  0.381128  0.249026  1
  Si  Si35  1  0.644072  0.031387  0.960755  1
