# generated using pymatgen
data_Sr2Nd2As7Ir8
_symmetry_space_group_name_H-M   'P 1'
_cell_length_a   4.13125100
_cell_length_b   13.37845681
_cell_length_c   13.75804652
_cell_angle_alpha   81.29485053
_cell_angle_beta   90.00000000
_cell_angle_gamma   90.00000000
_symmetry_Int_Tables_number   1
_chemical_formula_structural   Sr2Nd2As7Ir8
_chemical_formula_sum   'Sr4 Nd4 As14 Ir16'
_cell_volume   751.64433692
_cell_formula_units_Z   2
loop_
 _symmetry_equiv_pos_site_id
 _symmetry_equiv_pos_as_xyz
  1  'x, y, z'
loop_
 _atom_site_type_symbol
 _atom_site_label
 _atom_site_symmetry_multiplicity
 _atom_site_fract_x
 _atom_site_fract_y
 _atom_site_fract_z
 _atom_site_occupancy
  Sr  Sr0  1  0.250000  0.104466  0.791195  1
  Sr  Sr1  1  0.750000  0.895534  0.208805  1
  Sr  Sr2  1  0.250000  0.286018  0.104764  1
  Sr  Sr3  1  0.750000  0.713982  0.895236  1
  Nd  Nd4  1  0.250000  0.520010  0.293689  1
  Nd  Nd5  1  0.750000  0.479990  0.706311  1
  Nd  Nd6  1  0.250000  0.210272  0.437940  1
  Nd  Nd7  1  0.750000  0.789728  0.562060  1
  As  As8  1  0.250000  0.057384  0.100663  1
  As  As9  1  0.750000  0.942616  0.899337  1
  As  As10  1  0.250000  0.314048  0.686420  1
  As  As11  1  0.750000  0.685952  0.313580  1
  As  As12  1  0.250000  0.606838  0.565233  1
  As  As13  1  0.750000  0.393162  0.434767  1
  As  As14  1  0.250000  0.845562  0.720392  1
  As  As15  1  0.750000  0.154438  0.279608  1
  As  As16  1  0.750000  0.257055  0.917517  1
  As  As17  1  0.250000  0.742945  0.082483  1
  As  As18  1  0.750000  0.094877  0.585892  1
  As  As19  1  0.250000  0.905123  0.414108  1
  As  As20  1  0.750000  0.470461  0.128908  1
  As  As21  1  0.250000  0.529539  0.871092  1
  Ir  Ir22  1  0.250000  0.986053  0.574240  1
  Ir  Ir23  1  0.750000  0.013947  0.425760  1
  Ir  Ir24  1  0.250000  0.663497  0.727648  1
  Ir  Ir25  1  0.750000  0.336503  0.272352  1
  Ir  Ir26  1  0.250000  0.551215  0.049978  1
  Ir  Ir27  1  0.750000  0.448785  0.950022  1
  Ir  Ir28  1  0.250000  0.058574  0.279302  1
  Ir  Ir29  1  0.750000  0.941426  0.720698  1
  Ir  Ir30  1  0.250000  0.425331  0.524540  1
  Ir  Ir31  1  0.750000  0.574669  0.475460  1
  Ir  Ir32  1  0.250000  0.920408  0.998618  1
  Ir  Ir33  1  0.750000  0.079592  0.001382  1
  Ir  Ir34  1  0.250000  0.722294  0.402546  1
  Ir  Ir35  1  0.750000  0.277706  0.597454  1
  Ir  Ir36  1  0.250000  0.346304  0.859176  1
  Ir  Ir37  1  0.750000  0.653696  0.140824  1
