# generated using pymatgen
data_MnFe5(SiMo2)2
_symmetry_space_group_name_H-M   'P 1'
_cell_length_a   4.75078371
_cell_length_b   4.75078442
_cell_length_c   7.74060200
_cell_angle_alpha   90.00000000
_cell_angle_beta   90.00000000
_cell_angle_gamma   120.22209531
_symmetry_Int_Tables_number   1
_chemical_formula_structural   MnFe5(SiMo2)2
_chemical_formula_sum   'Mn1 Fe5 Si2 Mo4'
_cell_volume   150.95922333
_cell_formula_units_Z   1
loop_
 _symmetry_equiv_pos_site_id
 _symmetry_equiv_pos_as_xyz
  1  'x, y, z'
loop_
 _atom_site_type_symbol
 _atom_site_label
 _atom_site_symmetry_multiplicity
 _atom_site_fract_x
 _atom_site_fract_y
 _atom_site_fract_z
 _atom_site_occupancy
  Mn  Mn0  1  0.172733  0.827267  0.750000  1
  Fe  Fe1  1  0.658825  0.828315  0.750000  1
  Fe  Fe2  1  0.828724  0.171276  0.250000  1
  Fe  Fe3  1  0.171685  0.341175  0.750000  1
  Fe  Fe4  1  0.829057  0.656887  0.250000  1
  Fe  Fe5  1  0.343113  0.170943  0.250000  1
  Si  Si6  1  0.998847  0.001153  0.499741  1
  Si  Si7  1  0.998847  0.001153  0.000259  1
  Mo  Mo8  1  0.665736  0.334264  0.934682  1
  Mo  Mo9  1  0.333349  0.666651  0.435342  1
  Mo  Mo10  1  0.665736  0.334264  0.565318  1
  Mo  Mo11  1  0.333349  0.666651  0.064658  1
