# generated using pymatgen
data_Yb3ThRu8
_symmetry_space_group_name_H-M   'P 1'
_cell_length_a   5.27502703
_cell_length_b   5.27502774
_cell_length_c   8.89677306
_cell_angle_alpha   90.01176871
_cell_angle_beta   89.98823349
_cell_angle_gamma   119.94641769
_symmetry_Int_Tables_number   1
_chemical_formula_structural   Yb3ThRu8
_chemical_formula_sum   'Yb3 Th1 Ru8'
_cell_volume   214.50963549
_cell_formula_units_Z   1
loop_
 _symmetry_equiv_pos_site_id
 _symmetry_equiv_pos_as_xyz
  1  'x, y, z'
loop_
 _atom_site_type_symbol
 _atom_site_label
 _atom_site_symmetry_multiplicity
 _atom_site_fract_x
 _atom_site_fract_y
 _atom_site_fract_z
 _atom_site_occupancy
  Yb  Yb0  1  0.333312  0.666688  0.426446  1
  Yb  Yb1  1  0.333322  0.666678  0.066299  1
  Yb  Yb2  1  0.666679  0.333321  0.940048  1
  Th  Th3  1  0.666664  0.333336  0.567967  1
  Ru  Ru4  1  0.000093  0.999907  0.498142  1
  Ru  Ru5  1  0.000129  0.999871  0.998627  1
  Ru  Ru6  1  0.171756  0.343612  0.753008  1
  Ru  Ru7  1  0.171831  0.828169  0.753068  1
  Ru  Ru8  1  0.656388  0.828244  0.753008  1
  Ru  Ru9  1  0.828917  0.657889  0.247798  1
  Ru  Ru10  1  0.828797  0.171203  0.247791  1
  Ru  Ru11  1  0.342111  0.171083  0.247798  1
