# generated using pymatgen
data_Dy20Zn3Cd3Co2
_symmetry_space_group_name_H-M   'P 1'
_cell_length_a   9.47659600
_cell_length_b   9.47659697
_cell_length_c   9.66246500
_cell_angle_alpha   90.00000000
_cell_angle_beta   90.00000000
_cell_angle_gamma   119.99999661
_symmetry_Int_Tables_number   1
_chemical_formula_structural   Dy20Zn3Cd3Co2
_chemical_formula_sum   'Dy20 Zn3 Cd3 Co2'
_cell_volume   751.49026298
_cell_formula_units_Z   1
loop_
 _symmetry_equiv_pos_site_id
 _symmetry_equiv_pos_as_xyz
  1  'x, y, z'
loop_
 _atom_site_type_symbol
 _atom_site_label
 _atom_site_symmetry_multiplicity
 _atom_site_fract_x
 _atom_site_fract_y
 _atom_site_fract_z
 _atom_site_occupancy
  Dy  Dy0  1  0.000000  0.000000  0.477943  1
  Dy  Dy1  1  0.000000  0.000000  0.022057  1
  Dy  Dy2  1  0.542989  0.457011  0.250000  1
  Dy  Dy3  1  0.542989  0.085978  0.250000  1
  Dy  Dy4  1  0.914022  0.457011  0.250000  1
  Dy  Dy5  1  0.457382  0.542618  0.750000  1
  Dy  Dy6  1  0.457382  0.914765  0.750000  1
  Dy  Dy7  1  0.085235  0.542618  0.750000  1
  Dy  Dy8  1  0.210042  0.789958  0.435304  1
  Dy  Dy9  1  0.210042  0.420085  0.435304  1
  Dy  Dy10  1  0.579915  0.789958  0.435304  1
  Dy  Dy11  1  0.789057  0.210943  0.561483  1
  Dy  Dy12  1  0.789057  0.578112  0.561483  1
  Dy  Dy13  1  0.421888  0.210943  0.561483  1
  Dy  Dy14  1  0.789057  0.210943  0.938517  1
  Dy  Dy15  1  0.789057  0.578112  0.938517  1
  Dy  Dy16  1  0.421888  0.210943  0.938517  1
  Dy  Dy17  1  0.210042  0.789958  0.064696  1
  Dy  Dy18  1  0.210042  0.420085  0.064696  1
  Dy  Dy19  1  0.579915  0.789958  0.064696  1
  Zn  Zn20  1  0.880405  0.119595  0.250000  1
  Zn  Zn21  1  0.880405  0.760810  0.250000  1
  Zn  Zn22  1  0.239190  0.119595  0.250000  1
  Cd  Cd23  1  0.110763  0.889237  0.750000  1
  Cd  Cd24  1  0.110763  0.221527  0.750000  1
  Cd  Cd25  1  0.778473  0.889237  0.750000  1
  Co  Co26  1  0.333333  0.666667  0.250000  1
  Co  Co27  1  0.666667  0.333333  0.750000  1
