# generated using pymatgen
data_Ho2GeB2Ru3Rh2
_symmetry_space_group_name_H-M   'P 1'
_cell_length_a   9.58876200
_cell_length_b   9.58876200
_cell_length_c   3.08949400
_cell_angle_alpha   90.00000000
_cell_angle_beta   90.00000000
_cell_angle_gamma   90.00000000
_symmetry_Int_Tables_number   1
_chemical_formula_structural   Ho2GeB2Ru3Rh2
_chemical_formula_sum   'Ho4 Ge2 B4 Ru6 Rh4'
_cell_volume   284.06153834
_cell_formula_units_Z   2
loop_
 _symmetry_equiv_pos_site_id
 _symmetry_equiv_pos_as_xyz
  1  'x, y, z'
loop_
 _atom_site_type_symbol
 _atom_site_label
 _atom_site_symmetry_multiplicity
 _atom_site_fract_x
 _atom_site_fract_y
 _atom_site_fract_z
 _atom_site_occupancy
  Ho  Ho0  1  0.826850  0.322870  0.000000  1
  Ho  Ho1  1  0.322870  0.173150  0.000000  1
  Ho  Ho2  1  0.677130  0.826850  0.000000  1
  Ho  Ho3  1  0.173150  0.677130  0.000000  1
  Ge  Ge4  1  0.000000  0.000000  0.000000  1
  Ge  Ge5  1  0.500000  0.500000  0.000000  1
  B  B6  1  0.625238  0.116786  0.000000  1
  B  B7  1  0.116786  0.374762  0.000000  1
  B  B8  1  0.883214  0.625238  0.000000  1
  B  B9  1  0.374762  0.883214  0.000000  1
  Ru  Ru10  1  0.069662  0.215873  0.500000  1
  Ru  Ru11  1  0.215873  0.930338  0.500000  1
  Ru  Ru12  1  0.784127  0.069662  0.500000  1
  Ru  Ru13  1  0.930338  0.784127  0.500000  1
  Ru  Ru14  1  0.500000  0.000000  0.500000  1
  Ru  Ru15  1  0.000000  0.500000  0.500000  1
  Rh  Rh16  1  0.430931  0.715769  0.500000  1
  Rh  Rh17  1  0.569069  0.284231  0.500000  1
  Rh  Rh18  1  0.715769  0.569069  0.500000  1
  Rh  Rh19  1  0.284231  0.430931  0.500000  1
