# generated using pymatgen
data_Gd4TmSc3(ReB6)4
_symmetry_space_group_name_H-M   'P 1'
_cell_length_a   3.62104900
_cell_length_b   9.06730615
_cell_length_c   11.46682305
_cell_angle_alpha   89.99473955
_cell_angle_beta   90.00000000
_cell_angle_gamma   90.00000000
_symmetry_Int_Tables_number   1
_chemical_formula_structural   Gd4TmSc3(ReB6)4
_chemical_formula_sum   'Gd4 Tm1 Sc3 Re4 B24'
_cell_volume   376.49203260
_cell_formula_units_Z   1
loop_
 _symmetry_equiv_pos_site_id
 _symmetry_equiv_pos_as_xyz
  1  'x, y, z'
loop_
 _atom_site_type_symbol
 _atom_site_label
 _atom_site_symmetry_multiplicity
 _atom_site_fract_x
 _atom_site_fract_y
 _atom_site_fract_z
 _atom_site_occupancy
  Gd  Gd0  1  0.000000  0.322225  0.414367  1
  Gd  Gd1  1  0.000000  0.677479  0.586540  1
  Gd  Gd2  1  0.000000  0.821400  0.085027  1
  Gd  Gd3  1  0.000000  0.178640  0.913853  1
  Tm  Tm4  1  0.000000  0.944230  0.371632  1
  Sc  Sc5  1  0.000000  0.056821  0.632153  1
  Sc  Sc6  1  0.000000  0.443859  0.128971  1
  Sc  Sc7  1  0.000000  0.556411  0.869929  1
  Re  Re8  1  0.000000  0.638020  0.317285  1
  Re  Re9  1  0.000000  0.359395  0.682841  1
  Re  Re10  1  0.000000  0.143033  0.179476  1
  Re  Re11  1  0.000000  0.858784  0.818759  1
  B  B12  1  0.500000  0.552667  0.431867  1
  B  B13  1  0.500000  0.445055  0.568432  1
  B  B14  1  0.500000  0.055080  0.066997  1
  B  B15  1  0.500000  0.945369  0.931980  1
  B  B16  1  0.500000  0.749821  0.417754  1
  B  B17  1  0.500000  0.246477  0.583075  1
  B  B18  1  0.500000  0.254902  0.081168  1
  B  B19  1  0.500000  0.745885  0.917869  1
  B  B20  1  0.500000  0.792345  0.264196  1
  B  B21  1  0.500000  0.205571  0.735386  1
  B  B22  1  0.500000  0.295802  0.233701  1
  B  B23  1  0.500000  0.705121  0.765438  1
  B  B24  1  0.500000  0.627652  0.182473  1
  B  B25  1  0.500000  0.371826  0.816917  1
  B  B26  1  0.500000  0.131518  0.314923  1
  B  B27  1  0.500000  0.871095  0.684096  1
  B  B28  1  0.500000  0.982898  0.212167  1
  B  B29  1  0.500000  0.018368  0.786574  1
  B  B30  1  0.500000  0.480592  0.285343  1
  B  B31  1  0.500000  0.518771  0.714007  1
  B  B32  1  0.500000  0.594718  0.025576  1
  B  B33  1  0.500000  0.405794  0.973470  1
  B  B34  1  0.500000  0.097890  0.476449  1
  B  B35  1  0.500000  0.904486  0.529307  1
