# generated using pymatgen
data_Nb15Re(Ni2N)4
_symmetry_space_group_name_H-M   'P 1'
_cell_length_a   8.21290356
_cell_length_b   8.21654182
_cell_length_c   8.21290300
_cell_angle_alpha   60.01464474
_cell_angle_beta   59.99999825
_cell_angle_gamma   60.01464533
_symmetry_Int_Tables_number   1
_chemical_formula_structural   Nb15Re(Ni2N)4
_chemical_formula_sum   'Nb15 Re1 Ni8 N4'
_cell_volume   391.97970621
_cell_formula_units_Z   1
loop_
 _symmetry_equiv_pos_site_id
 _symmetry_equiv_pos_as_xyz
  1  'x, y, z'
loop_
 _atom_site_type_symbol
 _atom_site_label
 _atom_site_symmetry_multiplicity
 _atom_site_fract_x
 _atom_site_fract_y
 _atom_site_fract_z
 _atom_site_occupancy
  Nb  Nb0  1  0.125000  0.625000  0.625000  1
  Nb  Nb1  1  0.625000  0.625000  0.125000  1
  Nb  Nb2  1  0.625000  0.625000  0.625000  1
  Nb  Nb3  1  0.817357  0.817081  0.182781  1
  Nb  Nb4  1  0.188507  0.183202  0.814146  1
  Nb  Nb5  1  0.814146  0.183202  0.814146  1
  Nb  Nb6  1  0.182781  0.817081  0.182781  1
  Nb  Nb7  1  0.182781  0.817081  0.817357  1
  Nb  Nb8  1  0.814146  0.183202  0.188507  1
  Nb  Nb9  1  0.432643  0.432919  0.067219  1
  Nb  Nb10  1  0.061493  0.066798  0.435854  1
  Nb  Nb11  1  0.435854  0.066798  0.435854  1
  Nb  Nb12  1  0.067219  0.432919  0.067219  1
  Nb  Nb13  1  0.067219  0.432919  0.432643  1
  Nb  Nb14  1  0.435854  0.066798  0.061493  1
  Re  Re15  1  0.625000  0.125000  0.625000  1
  Ni  Ni16  1  0.737497  0.416809  0.422847  1
  Ni  Ni17  1  0.419325  0.742025  0.419325  1
  Ni  Ni18  1  0.422847  0.416809  0.737497  1
  Ni  Ni19  1  0.422847  0.416809  0.422847  1
  Ni  Ni20  1  0.512503  0.833191  0.827153  1
  Ni  Ni21  1  0.830675  0.507975  0.830675  1
  Ni  Ni22  1  0.827153  0.833191  0.512503  1
  Ni  Ni23  1  0.827153  0.833191  0.827153  1
  N  N24  1  0.625000  0.125000  0.125000  1
  N  N25  1  0.125000  0.625000  0.125000  1
  N  N26  1  0.125000  0.125000  0.625000  1
  N  N27  1  0.125000  0.125000  0.125000  1
