# generated using pymatgen
data_Tb7PrHf11Si16Ag
_symmetry_space_group_name_H-M   'P 1'
_cell_length_a   7.31300891
_cell_length_b   7.31591984
_cell_length_c   13.32962133
_cell_angle_alpha   89.80611342
_cell_angle_beta   90.12734142
_cell_angle_gamma   89.82352326
_symmetry_Int_Tables_number   1
_chemical_formula_structural   Tb7PrHf11Si16Ag
_chemical_formula_sum   'Tb7 Pr1 Hf11 Si16 Ag1'
_cell_volume   713.14398533
_cell_formula_units_Z   1
loop_
 _symmetry_equiv_pos_site_id
 _symmetry_equiv_pos_as_xyz
  1  'x, y, z'
loop_
 _atom_site_type_symbol
 _atom_site_label
 _atom_site_symmetry_multiplicity
 _atom_site_fract_x
 _atom_site_fract_y
 _atom_site_fract_z
 _atom_site_occupancy
  Tb  Tb0  1  0.004819  0.655288  0.716300  1
  Tb  Tb1  1  0.155856  0.495950  0.465276  1
  Tb  Tb2  1  0.497977  0.847746  0.032218  1
  Tb  Tb3  1  0.847787  0.498769  0.966316  1
  Tb  Tb4  1  0.495972  0.155036  0.535783  1
  Tb  Tb5  1  0.345399  0.997458  0.788275  1
  Tb  Tb6  1  0.655164  0.004387  0.284189  1
  Pr  Pr7  1  0.995765  0.343561  0.210588  1
  Hf  Hf8  1  0.824503  0.825088  0.500694  1
  Hf  Hf9  1  0.324341  0.677366  0.249559  1
  Hf  Hf10  1  0.676676  0.323426  0.750669  1
  Hf  Hf11  1  0.147790  0.996125  0.375042  1
  Hf  Hf12  1  0.855911  0.002958  0.877788  1
  Hf  Hf13  1  0.504348  0.647238  0.626531  1
  Hf  Hf14  1  0.354994  0.491840  0.877118  1
  Hf  Hf15  1  0.490679  0.354783  0.121867  1
  Hf  Hf16  1  0.647598  0.505949  0.374717  1
  Hf  Hf17  1  0.995742  0.145901  0.626145  1
  Hf  Hf18  1  0.002938  0.855477  0.121336  1
  Si  Si19  1  0.364126  0.295129  0.317562  1
  Si  Si20  1  0.638908  0.704448  0.819494  1
  Si  Si21  1  0.206566  0.861416  0.568685  1
  Si  Si22  1  0.132097  0.778269  0.927640  1
  Si  Si23  1  0.773525  0.128446  0.069864  1
  Si  Si24  1  0.861533  0.205851  0.433043  1
  Si  Si25  1  0.296364  0.360013  0.683464  1
  Si  Si26  1  0.701030  0.641764  0.180738  1
  Si  Si27  1  0.297271  0.048686  0.189796  1
  Si  Si28  1  0.705340  0.950782  0.686811  1
  Si  Si29  1  0.450435  0.795094  0.436299  1
  Si  Si30  1  0.212277  0.568051  0.063307  1
  Si  Si31  1  0.563574  0.209896  0.935046  1
  Si  Si32  1  0.795058  0.450470  0.564612  1
  Si  Si33  1  0.051284  0.294884  0.810482  1
  Si  Si34  1  0.949686  0.709028  0.314389  1
  Ag  Ag35  1  0.176667  0.173426  0.998359  1
