# generated using pymatgen
data_Tb18HoLuPb16
_symmetry_space_group_name_H-M   'P 1'
_cell_length_a   8.22301211
_cell_length_b   8.31674504
_cell_length_c   15.70652300
_cell_angle_alpha   90.00000000
_cell_angle_beta   90.00000000
_cell_angle_gamma   89.92744636
_symmetry_Int_Tables_number   1
_chemical_formula_structural   Tb18HoLuPb16
_chemical_formula_sum   'Tb18 Ho1 Lu1 Pb16'
_cell_volume   1074.14775301
_cell_formula_units_Z   1
loop_
 _symmetry_equiv_pos_site_id
 _symmetry_equiv_pos_as_xyz
  1  'x, y, z'
loop_
 _atom_site_type_symbol
 _atom_site_label
 _atom_site_symmetry_multiplicity
 _atom_site_fract_x
 _atom_site_fract_y
 _atom_site_fract_z
 _atom_site_occupancy
  Tb  Tb0  1  0.376315  0.840572  0.879608  1
  Tb  Tb1  1  0.877415  0.658685  0.620435  1
  Tb  Tb2  1  0.623303  0.159237  0.379631  1
  Tb  Tb3  1  0.123161  0.340909  0.120147  1
  Tb  Tb4  1  0.623303  0.159237  0.120369  1
  Tb  Tb5  1  0.123161  0.340909  0.379853  1
  Tb  Tb6  1  0.376315  0.840572  0.620392  1
  Tb  Tb7  1  0.877415  0.658685  0.879565  1
  Tb  Tb8  1  0.533584  0.323512  0.899687  1
  Tb  Tb9  1  0.034235  0.177289  0.600264  1
  Tb  Tb10  1  0.466179  0.676767  0.399810  1
  Tb  Tb11  1  0.965974  0.823121  0.100347  1
  Tb  Tb12  1  0.466179  0.676767  0.100190  1
  Tb  Tb13  1  0.965974  0.823121  0.399653  1
  Tb  Tb14  1  0.533584  0.323512  0.600313  1
  Tb  Tb15  1  0.034235  0.177289  0.899736  1
  Tb  Tb16  1  0.708566  0.996483  0.750000  1
  Tb  Tb17  1  0.291355  0.003687  0.250000  1
  Ho  Ho18  1  0.791219  0.496464  0.250000  1
  Lu  Lu19  1  0.209130  0.503997  0.750000  1
  Pb  Pb20  1  0.281108  0.033069  0.042743  1
  Pb  Pb21  1  0.781036  0.466794  0.457144  1
  Pb  Pb22  1  0.718976  0.966886  0.542891  1
  Pb  Pb23  1  0.218876  0.532845  0.956340  1
  Pb  Pb24  1  0.718976  0.966886  0.957109  1
  Pb  Pb25  1  0.218876  0.532845  0.543660  1
  Pb  Pb26  1  0.281108  0.033069  0.457257  1
  Pb  Pb27  1  0.781036  0.466794  0.042856  1
  Pb  Pb28  1  0.571149  0.625507  0.750000  1
  Pb  Pb29  1  0.073063  0.872700  0.750000  1
  Pb  Pb30  1  0.427535  0.373766  0.250000  1
  Pb  Pb31  1  0.927172  0.126687  0.250000  1
  Pb  Pb32  1  0.344769  0.153706  0.750000  1
  Pb  Pb33  1  0.845516  0.348567  0.750000  1
  Pb  Pb34  1  0.655097  0.847662  0.250000  1
  Pb  Pb35  1  0.155113  0.651402  0.250000  1
