# generated using pymatgen
data_Eu4Hf2TiMnO12
_symmetry_space_group_name_H-M   'P 1'
_cell_length_a   5.64190948
_cell_length_b   5.80409703
_cell_length_c   8.06545824
_cell_angle_alpha   89.52015974
_cell_angle_beta   90.00348999
_cell_angle_gamma   89.94968147
_symmetry_Int_Tables_number   1
_chemical_formula_structural   Eu4Hf2TiMnO12
_chemical_formula_sum   'Eu4 Hf2 Ti1 Mn1 O12'
_cell_volume   264.10366390
_cell_formula_units_Z   1
loop_
 _symmetry_equiv_pos_site_id
 _symmetry_equiv_pos_as_xyz
  1  'x, y, z'
loop_
 _atom_site_type_symbol
 _atom_site_label
 _atom_site_symmetry_multiplicity
 _atom_site_fract_x
 _atom_site_fract_y
 _atom_site_fract_z
 _atom_site_occupancy
  Eu  Eu0  1  0.008757  0.952785  0.768131  1
  Eu  Eu1  1  0.509963  0.552755  0.231445  1
  Eu  Eu2  1  0.490037  0.447245  0.768555  1
  Eu  Eu3  1  0.991243  0.047215  0.231869  1
  Hf  Hf4  1  0.500000  0.000000  0.500000  1
  Hf  Hf5  1  0.000000  0.500000  0.500000  1
  Ti  Ti6  1  0.000000  0.500000  0.000000  1
  Mn  Mn7  1  0.500000  0.000000  0.000000  1
  O  O8  1  0.700223  0.300364  0.446706  1
  O  O9  1  0.198773  0.202309  0.552376  1
  O  O10  1  0.813918  0.781549  0.044223  1
  O  O11  1  0.283361  0.687989  0.957480  1
  O  O12  1  0.299777  0.699636  0.553294  1
  O  O13  1  0.801227  0.797691  0.447624  1
  O  O14  1  0.186082  0.218451  0.955777  1
  O  O15  1  0.716639  0.312011  0.042520  1
  O  O16  1  0.089814  0.469902  0.247801  1
  O  O17  1  0.596100  0.033187  0.744872  1
  O  O18  1  0.403900  0.966813  0.255128  1
  O  O19  1  0.910186  0.530098  0.752199  1
