# generated using pymatgen
data_Be3ReTcNi
_symmetry_space_group_name_H-M   'P 1'
_cell_length_a   4.43065710
_cell_length_b   4.40213634
_cell_length_c   7.26754858
_cell_angle_alpha   90.04591655
_cell_angle_beta   89.97718806
_cell_angle_gamma   119.78728023
_symmetry_Int_Tables_number   1
_chemical_formula_structural   Be3ReTcNi
_chemical_formula_sum   'Be6 Re2 Tc2 Ni2'
_cell_volume   123.02035982
_cell_formula_units_Z   2
loop_
 _symmetry_equiv_pos_site_id
 _symmetry_equiv_pos_as_xyz
  1  'x, y, z'
loop_
 _atom_site_type_symbol
 _atom_site_label
 _atom_site_symmetry_multiplicity
 _atom_site_fract_x
 _atom_site_fract_y
 _atom_site_fract_z
 _atom_site_occupancy
  Be  Be0  1  0.999964  0.001195  0.999950  1
  Be  Be1  1  0.000036  0.001231  0.499950  1
  Be  Be2  1  0.659482  0.827062  0.750031  1
  Be  Be3  1  0.340518  0.167580  0.250031  1
  Be  Be4  1  0.829933  0.169688  0.250030  1
  Be  Be5  1  0.170067  0.339754  0.750030  1
  Re  Re6  1  0.661595  0.328195  0.939418  1
  Re  Re7  1  0.338405  0.666601  0.439418  1
  Tc  Tc8  1  0.338518  0.666715  0.060501  1
  Tc  Tc9  1  0.661482  0.328196  0.560501  1
  Ni  Ni10  1  0.838174  0.670980  0.250070  1
  Ni  Ni11  1  0.161826  0.832804  0.750070  1
