# generated using pymatgen
data_Y6Tm14Cd6RuPt
_symmetry_space_group_name_H-M   'P 1'
_cell_length_a   9.56839900
_cell_length_b   9.56839909
_cell_length_c   9.71760800
_cell_angle_alpha   90.00000000
_cell_angle_beta   90.00000000
_cell_angle_gamma   119.99999623
_symmetry_Int_Tables_number   1
_chemical_formula_structural   Y6Tm14Cd6RuPt
_chemical_formula_sum   'Y6 Tm14 Cd6 Ru1 Pt1'
_cell_volume   770.49279564
_cell_formula_units_Z   1
loop_
 _symmetry_equiv_pos_site_id
 _symmetry_equiv_pos_as_xyz
  1  'x, y, z'
loop_
 _atom_site_type_symbol
 _atom_site_label
 _atom_site_symmetry_multiplicity
 _atom_site_fract_x
 _atom_site_fract_y
 _atom_site_fract_z
 _atom_site_occupancy
  Y  Y0  1  0.541861  0.458139  0.250000  1
  Y  Y1  1  0.541861  0.083723  0.250000  1
  Y  Y2  1  0.916277  0.458139  0.250000  1
  Y  Y3  1  0.459566  0.540434  0.750000  1
  Y  Y4  1  0.459566  0.919131  0.750000  1
  Y  Y5  1  0.080869  0.540434  0.750000  1
  Tm  Tm6  1  0.000000  0.000000  0.499801  1
  Tm  Tm7  1  0.000000  0.000000  0.000199  1
  Tm  Tm8  1  0.208192  0.791808  0.442432  1
  Tm  Tm9  1  0.208192  0.416386  0.442432  1
  Tm  Tm10  1  0.583614  0.791808  0.442432  1
  Tm  Tm11  1  0.790082  0.209918  0.560175  1
  Tm  Tm12  1  0.790082  0.580163  0.560175  1
  Tm  Tm13  1  0.419837  0.209918  0.560175  1
  Tm  Tm14  1  0.790082  0.209918  0.939825  1
  Tm  Tm15  1  0.790082  0.580163  0.939825  1
  Tm  Tm16  1  0.419837  0.209918  0.939825  1
  Tm  Tm17  1  0.208192  0.791808  0.057568  1
  Tm  Tm18  1  0.208192  0.416386  0.057568  1
  Tm  Tm19  1  0.583614  0.791808  0.057568  1
  Cd  Cd20  1  0.886267  0.113733  0.250000  1
  Cd  Cd21  1  0.886267  0.772535  0.250000  1
  Cd  Cd22  1  0.227465  0.113733  0.250000  1
  Cd  Cd23  1  0.113711  0.886289  0.750000  1
  Cd  Cd24  1  0.113711  0.227421  0.750000  1
  Cd  Cd25  1  0.772579  0.886289  0.750000  1
  Ru  Ru26  1  0.666667  0.333333  0.750000  1
  Pt  Pt27  1  0.333333  0.666667  0.250000  1
