# generated using pymatgen
data_RbHo(SO4)2
_symmetry_space_group_name_H-M   'P 1'
_cell_length_a   5.23912146
_cell_length_b   5.26023118
_cell_length_c   9.75896474
_cell_angle_alpha   61.67268807
_cell_angle_beta   79.45850946
_cell_angle_gamma   63.15380026
_symmetry_Int_Tables_number   1
_chemical_formula_structural   RbHo(SO4)2
_chemical_formula_sum   'Rb1 Ho1 S2 O8'
_cell_volume   211.05740354
_cell_formula_units_Z   1
loop_
 _symmetry_equiv_pos_site_id
 _symmetry_equiv_pos_as_xyz
  1  'x, y, z'
loop_
 _atom_site_type_symbol
 _atom_site_label
 _atom_site_symmetry_multiplicity
 _atom_site_fract_x
 _atom_site_fract_y
 _atom_site_fract_z
 _atom_site_occupancy
  Rb  Rb0  1  0.000000  0.499951  0.000014  1
  Ho  Ho1  1  0.000014  0.999946  0.500009  1
  S  S2  1  0.631224  0.842059  0.288247  1
  S  S3  1  0.368778  0.158020  0.711760  1
  O  O4  1  0.690471  0.030162  0.129375  1
  O  O5  1  0.743240  0.499270  0.321914  1
  O  O6  1  0.314095  0.962306  0.311012  1
  O  O7  1  0.764814  0.852170  0.407325  1
  O  O8  1  0.235121  0.147987  0.592651  1
  O  O9  1  0.685873  0.037539  0.689010  1
  O  O10  1  0.256935  0.500688  0.678094  1
  O  O11  1  0.309432  0.969902  0.870590  1
