# generated using pymatgen
data_CaNd3(IrO6)2
_symmetry_space_group_name_H-M   'P 1'
_cell_length_a   5.39552600
_cell_length_b   9.32211212
_cell_length_c   10.05398000
_cell_angle_alpha   90.26288717
_cell_angle_beta   90.00000000
_cell_angle_gamma   90.00000000
_symmetry_Int_Tables_number   1
_chemical_formula_structural   CaNd3(IrO6)2
_chemical_formula_sum   'Ca2 Nd6 Ir4 O24'
_cell_volume   505.68673027
_cell_formula_units_Z   2
loop_
 _symmetry_equiv_pos_site_id
 _symmetry_equiv_pos_as_xyz
  1  'x, y, z'
loop_
 _atom_site_type_symbol
 _atom_site_label
 _atom_site_symmetry_multiplicity
 _atom_site_fract_x
 _atom_site_fract_y
 _atom_site_fract_z
 _atom_site_occupancy
  Ca  Ca0  1  0.528997  0.101836  0.962647  1
  Ca  Ca1  1  0.028997  0.398164  0.037353  1
  Nd  Nd2  1  0.472660  0.603023  0.540468  1
  Nd  Nd3  1  0.972660  0.896977  0.459532  1
  Nd  Nd4  1  0.534676  0.218512  0.365561  1
  Nd  Nd5  1  0.034676  0.281488  0.634439  1
  Nd  Nd6  1  0.466406  0.721647  0.131847  1
  Nd  Nd7  1  0.966406  0.778353  0.868153  1
  Ir  Ir8  1  0.455217  0.997665  0.644644  1
  Ir  Ir9  1  0.955217  0.502335  0.355356  1
  Ir  Ir10  1  0.546063  0.492771  0.862833  1
  Ir  Ir11  1  0.046063  0.007229  0.137167  1
  O  O12  1  0.314547  0.131841  0.181314  1
  O  O13  1  0.814547  0.368159  0.818686  1
  O  O14  1  0.683783  0.633698  0.321281  1
  O  O15  1  0.183783  0.866302  0.678719  1
  O  O16  1  0.725545  0.111325  0.564489  1
  O  O17  1  0.225545  0.388675  0.435511  1
  O  O18  1  0.279444  0.614152  0.935370  1
  O  O19  1  0.779444  0.885848  0.064630  1
  O  O20  1  0.673691  0.640092  0.744267  1
  O  O21  1  0.173691  0.859908  0.255733  1
  O  O22  1  0.322672  0.139728  0.760490  1
  O  O23  1  0.822672  0.360272  0.239510  1
  O  O24  1  0.666399  0.941144  0.782745  1
  O  O25  1  0.166399  0.558856  0.217255  1
  O  O26  1  0.336168  0.442104  0.717079  1
  O  O27  1  0.836168  0.057896  0.282921  1
  O  O28  1  0.245173  0.089901  0.504936  1
  O  O29  1  0.745173  0.410099  0.495064  1
  O  O30  1  0.755178  0.586670  0.997521  1
  O  O31  1  0.255178  0.913330  0.002479  1
  O  O32  1  0.057476  0.648474  0.484984  1
  O  O33  1  0.557476  0.851526  0.515016  1
  O  O34  1  0.935902  0.151489  0.020512  1
  O  O35  1  0.435902  0.348511  0.979488  1
