# generated using pymatgen
data_Tb8Nb9Si16W3
_symmetry_space_group_name_H-M   'P 1'
_cell_length_a   7.03087372
_cell_length_b   7.03087378
_cell_length_c   13.02901038
_cell_angle_alpha   90.04678316
_cell_angle_beta   89.95321694
_cell_angle_gamma   90.01702313
_symmetry_Int_Tables_number   1
_chemical_formula_structural   Tb8Nb9Si16W3
_chemical_formula_sum   'Tb8 Nb9 Si16 W3'
_cell_volume   644.06503165
_cell_formula_units_Z   1
loop_
 _symmetry_equiv_pos_site_id
 _symmetry_equiv_pos_as_xyz
  1  'x, y, z'
loop_
 _atom_site_type_symbol
 _atom_site_label
 _atom_site_symmetry_multiplicity
 _atom_site_fract_x
 _atom_site_fract_y
 _atom_site_fract_z
 _atom_site_occupancy
  Tb  Tb0  1  0.341036  0.002234  0.467290  1
  Tb  Tb1  1  0.497202  0.841938  0.718634  1
  Tb  Tb2  1  0.501645  0.158707  0.217278  1
  Tb  Tb3  1  0.841938  0.497202  0.281366  1
  Tb  Tb4  1  0.158707  0.501645  0.782722  1
  Tb  Tb5  1  0.658559  0.998386  0.967835  1
  Tb  Tb6  1  0.002234  0.341036  0.532710  1
  Tb  Tb7  1  0.998386  0.658559  0.032165  1
  Nb  Nb8  1  0.671059  0.671059  0.500000  1
  Nb  Nb9  1  0.153249  0.006261  0.875553  1
  Nb  Nb10  1  0.492597  0.653030  0.124902  1
  Nb  Nb11  1  0.505746  0.347178  0.626281  1
  Nb  Nb12  1  0.653030  0.492597  0.875098  1
  Nb  Nb13  1  0.347178  0.505746  0.373719  1
  Nb  Nb14  1  0.846874  0.992967  0.374819  1
  Nb  Nb15  1  0.006261  0.153249  0.124447  1
  Nb  Nb16  1  0.992967  0.846874  0.625181  1
  Si  Si17  1  0.201150  0.132834  0.683931  1
  Si  Si18  1  0.367490  0.701317  0.933584  1
  Si  Si19  1  0.633100  0.296109  0.433589  1
  Si  Si20  1  0.701317  0.367490  0.066416  1
  Si  Si21  1  0.296109  0.633100  0.566411  1
  Si  Si22  1  0.798508  0.867341  0.183592  1
  Si  Si23  1  0.132834  0.201150  0.316069  1
  Si  Si24  1  0.867341  0.798508  0.816408  1
  Si  Si25  1  0.292747  0.955090  0.064730  1
  Si  Si26  1  0.543369  0.793715  0.313424  1
  Si  Si27  1  0.454625  0.207264  0.815303  1
  Si  Si28  1  0.793715  0.543369  0.686576  1
  Si  Si29  1  0.207264  0.454625  0.184697  1
  Si  Si30  1  0.707188  0.047938  0.565921  1
  Si  Si31  1  0.955090  0.292747  0.935270  1
  Si  Si32  1  0.047938  0.707188  0.434079  1
  W  W33  1  0.329652  0.329652  0.000000  1
  W  W34  1  0.171269  0.830627  0.248712  1
  W  W35  1  0.830627  0.171269  0.751288  1
