# generated using pymatgen
data_ErTm2P4Ir7
_symmetry_space_group_name_H-M   'P 1'
_cell_length_a   7.68018661
_cell_length_b   7.68018667
_cell_length_c   9.17088328
_cell_angle_alpha   57.14940901
_cell_angle_beta   57.14940924
_cell_angle_gamma   29.80531071
_symmetry_Int_Tables_number   1
_chemical_formula_structural   ErTm2P4Ir7
_chemical_formula_sum   'Er1 Tm2 P4 Ir7'
_cell_volume   222.52283208
_cell_formula_units_Z   1
loop_
 _symmetry_equiv_pos_site_id
 _symmetry_equiv_pos_as_xyz
  1  'x, y, z'
loop_
 _atom_site_type_symbol
 _atom_site_label
 _atom_site_symmetry_multiplicity
 _atom_site_fract_x
 _atom_site_fract_y
 _atom_site_fract_z
 _atom_site_occupancy
  Er  Er0  1  0.500000  0.500000  0.500000  1
  Tm  Tm1  1  0.827171  0.827171  0.169790  1
  Tm  Tm2  1  0.172829  0.172829  0.830210  1
  P  P3  1  0.389474  0.389474  0.327181  1
  P  P4  1  0.610526  0.610526  0.672819  1
  P  P5  1  0.832711  0.832711  0.773212  1
  P  P6  1  0.167289  0.167289  0.226788  1
  Ir  Ir7  1  0.665310  0.665310  0.080421  1
  Ir  Ir8  1  0.006680  0.006680  0.224417  1
  Ir  Ir9  1  0.993320  0.993320  0.775583  1
  Ir  Ir10  1  0.500000  0.500000  0.000000  1
  Ir  Ir11  1  0.199809  0.199809  0.447459  1
  Ir  Ir12  1  0.800191  0.800191  0.552541  1
  Ir  Ir13  1  0.334690  0.334690  0.919579  1
