# generated using pymatgen
data_Sm3TlF10
_symmetry_space_group_name_H-M   'P 1'
_cell_length_a   8.49171462
_cell_length_b   8.49171536
_cell_length_c   8.46744600
_cell_angle_alpha   60.09449709
_cell_angle_beta   60.09449422
_cell_angle_gamma   59.81099973
_symmetry_Int_Tables_number   1
_chemical_formula_structural   Sm3TlF10
_chemical_formula_sum   'Sm6 Tl2 F20'
_cell_volume   431.73887213
_cell_formula_units_Z   2
loop_
 _symmetry_equiv_pos_site_id
 _symmetry_equiv_pos_as_xyz
  1  'x, y, z'
loop_
 _atom_site_type_symbol
 _atom_site_label
 _atom_site_symmetry_multiplicity
 _atom_site_fract_x
 _atom_site_fract_y
 _atom_site_fract_z
 _atom_site_occupancy
  Sm  Sm0  1  0.759552  0.759552  0.240448  1
  Sm  Sm1  1  0.759702  0.240319  0.240298  1
  Sm  Sm2  1  0.240319  0.759702  0.759682  1
  Sm  Sm3  1  0.240319  0.759702  0.240298  1
  Sm  Sm4  1  0.759702  0.240319  0.759681  1
  Sm  Sm5  1  0.240478  0.240478  0.759522  1
  Tl  Tl6  1  0.249611  0.249611  0.250389  1
  Tl  Tl7  1  0.749610  0.749611  0.750390  1
  F  F8  1  0.830079  0.499660  0.500339  1
  F  F9  1  0.170718  0.500175  0.499826  1
  F  F10  1  0.499660  0.830079  0.169921  1
  F  F11  1  0.500175  0.170717  0.829283  1
  F  F12  1  0.499659  0.830078  0.500340  1
  F  F13  1  0.170718  0.500175  0.829282  1
  F  F14  1  0.500176  0.170718  0.499826  1
  F  F15  1  0.830079  0.499660  0.169921  1
  F  F16  1  0.500096  0.500096  0.828730  1
  F  F17  1  0.500097  0.500097  0.171077  1
  F  F18  1  0.171272  0.828922  0.499903  1
  F  F19  1  0.828922  0.171272  0.499903  1
  F  F20  1  0.110285  0.110285  0.110872  1
  F  F21  1  0.889479  0.889479  0.889444  1
  F  F22  1  0.110285  0.110285  0.668560  1
  F  F23  1  0.110556  0.668403  0.110521  1
  F  F24  1  0.889480  0.889480  0.331597  1
  F  F25  1  0.889129  0.331440  0.889715  1
  F  F26  1  0.668403  0.110556  0.110521  1
  F  F27  1  0.331440  0.889129  0.889715  1
