# generated using pymatgen
data_Dy2MnFeBr2
_symmetry_space_group_name_H-M   'P 1'
_cell_length_a   3.80932300
_cell_length_b   3.80932233
_cell_length_c   11.91739100
_cell_angle_alpha   90.00000000
_cell_angle_beta   90.00000000
_cell_angle_gamma   119.99999717
_symmetry_Int_Tables_number   1
_chemical_formula_structural   Dy2MnFeBr2
_chemical_formula_sum   'Dy2 Mn1 Fe1 Br2'
_cell_volume   149.76397329
_cell_formula_units_Z   1
loop_
 _symmetry_equiv_pos_site_id
 _symmetry_equiv_pos_as_xyz
  1  'x, y, z'
loop_
 _atom_site_type_symbol
 _atom_site_label
 _atom_site_symmetry_multiplicity
 _atom_site_fract_x
 _atom_site_fract_y
 _atom_site_fract_z
 _atom_site_occupancy
  Dy  Dy0  1  0.000000  0.000000  0.326901  1
  Dy  Dy1  1  0.000000  0.000000  0.672233  1
  Mn  Mn2  1  0.333333  0.666665  0.488589  1
  Fe  Fe3  1  0.666666  0.333334  0.512808  1
  Br  Br4  1  0.666666  0.333334  0.164134  1
  Br  Br5  1  0.333333  0.666665  0.835335  1
