# generated using pymatgen
data_CaCo3(Ni3B2)3
_symmetry_space_group_name_H-M   'P 1'
_cell_length_a   6.00453194
_cell_length_b   6.00453143
_cell_length_c   6.00453201
_cell_angle_alpha   104.43442456
_cell_angle_beta   104.43444065
_cell_angle_gamma   104.43443310
_symmetry_Int_Tables_number   1
_chemical_formula_structural   CaCo3(Ni3B2)3
_chemical_formula_sum   'Ca1 Co3 Ni9 B6'
_cell_volume   191.51857722
_cell_formula_units_Z   1
loop_
 _symmetry_equiv_pos_site_id
 _symmetry_equiv_pos_as_xyz
  1  'x, y, z'
loop_
 _atom_site_type_symbol
 _atom_site_label
 _atom_site_symmetry_multiplicity
 _atom_site_fract_x
 _atom_site_fract_y
 _atom_site_fract_z
 _atom_site_occupancy
  Ca  Ca0  1  0.000000  0.000000  0.000000  1
  Co  Co1  1  0.866568  0.133432  0.500000  1
  Co  Co2  1  0.133432  0.500000  0.866568  1
  Co  Co3  1  0.500000  0.866568  0.133432  1
  Ni  Ni4  1  0.868888  0.500000  0.131112  1
  Ni  Ni5  1  0.500000  0.131112  0.868888  1
  Ni  Ni6  1  0.131112  0.868888  0.500000  1
  Ni  Ni7  1  0.812802  0.546940  0.544724  1
  Ni  Ni8  1  0.546940  0.544724  0.812802  1
  Ni  Ni9  1  0.544724  0.812802  0.546940  1
  Ni  Ni10  1  0.187198  0.455276  0.453060  1
  Ni  Ni11  1  0.455276  0.453060  0.187198  1
  Ni  Ni12  1  0.453060  0.187198  0.455276  1
  B  B13  1  0.330189  0.763161  0.770006  1
  B  B14  1  0.763161  0.770006  0.330189  1
  B  B15  1  0.770006  0.330189  0.763161  1
  B  B16  1  0.669811  0.229994  0.236839  1
  B  B17  1  0.229994  0.236839  0.669811  1
  B  B18  1  0.236839  0.669811  0.229994  1
