# generated using pymatgen
data_Ho2Th6TiSe17
_symmetry_space_group_name_H-M   'P 1'
_cell_length_a   8.40892633
_cell_length_b   8.40892664
_cell_length_c   11.14299773
_cell_angle_alpha   80.62269540
_cell_angle_beta   80.62269976
_cell_angle_gamma   65.17014555
_symmetry_Int_Tables_number   1
_chemical_formula_structural   Ho2Th6TiSe17
_chemical_formula_sum   'Ho2 Th6 Ti1 Se17'
_cell_volume   701.58833535
_cell_formula_units_Z   1
loop_
 _symmetry_equiv_pos_site_id
 _symmetry_equiv_pos_as_xyz
  1  'x, y, z'
loop_
 _atom_site_type_symbol
 _atom_site_label
 _atom_site_symmetry_multiplicity
 _atom_site_fract_x
 _atom_site_fract_y
 _atom_site_fract_z
 _atom_site_occupancy
  Ho  Ho0  1  0.813425  0.304428  0.296761  1
  Ho  Ho1  1  0.304428  0.813425  0.296761  1
  Th  Th2  1  0.185127  0.699223  0.699732  1
  Th  Th3  1  0.699223  0.185127  0.699732  1
  Th  Th4  1  0.205325  0.205325  0.537188  1
  Th  Th5  1  0.795862  0.795862  0.455871  1
  Th  Th6  1  0.679581  0.679581  0.985805  1
  Th  Th7  1  0.320041  0.320041  0.022851  1
  Ti  Ti8  1  0.003044  0.003044  0.006609  1
  Se  Se9  1  0.821905  0.430722  0.531252  1
  Se  Se10  1  0.430722  0.821905  0.531252  1
  Se  Se11  1  0.179350  0.570043  0.464518  1
  Se  Se12  1  0.570043  0.179350  0.464518  1
  Se  Se13  1  0.941592  0.320681  0.027369  1
  Se  Se14  1  0.320681  0.941592  0.027369  1
  Se  Se15  1  0.057227  0.680259  0.972925  1
  Se  Se16  1  0.680259  0.057227  0.972925  1
  Se  Se17  1  0.205200  0.205200  0.275172  1
  Se  Se18  1  0.789213  0.789213  0.725328  1
  Se  Se19  1  0.060148  0.060148  0.776240  1
  Se  Se20  1  0.942249  0.942249  0.226307  1
  Se  Se21  1  0.303059  0.303059  0.754833  1
  Se  Se22  1  0.694097  0.694097  0.245971  1
  Se  Se23  1  0.520492  0.520492  0.832668  1
  Se  Se24  1  0.479610  0.479610  0.165474  1
  Se  Se25  1  0.998096  0.998096  0.504571  1
