# generated using pymatgen
data_Pr2GaNi5(BIr)2
_symmetry_space_group_name_H-M   'P 1'
_cell_length_a   5.34054730
_cell_length_b   5.34054769
_cell_length_c   7.00686200
_cell_angle_alpha   90.00000000
_cell_angle_beta   90.00000000
_cell_angle_gamma   122.09807956
_symmetry_Int_Tables_number   1
_chemical_formula_structural   Pr2GaNi5(BIr)2
_chemical_formula_sum   'Pr2 Ga1 Ni5 B2 Ir2'
_cell_volume   169.29735731
_cell_formula_units_Z   1
loop_
 _symmetry_equiv_pos_site_id
 _symmetry_equiv_pos_as_xyz
  1  'x, y, z'
loop_
 _atom_site_type_symbol
 _atom_site_label
 _atom_site_symmetry_multiplicity
 _atom_site_fract_x
 _atom_site_fract_y
 _atom_site_fract_z
 _atom_site_occupancy
  Pr  Pr0  1  0.001047  0.998953  0.500000  1
  Pr  Pr1  1  0.993089  0.006911  0.000000  1
  Ga  Ga2  1  0.315043  0.684957  0.000000  1
  Ni  Ni3  1  0.680500  0.319500  0.000000  1
  Ni  Ni4  1  0.501543  0.000156  0.299981  1
  Ni  Ni5  1  0.999844  0.498457  0.299981  1
  Ni  Ni6  1  0.501543  0.000156  0.700019  1
  Ni  Ni7  1  0.999844  0.498457  0.700019  1
  B  B8  1  0.667525  0.332475  0.500000  1
  B  B9  1  0.335588  0.664412  0.500000  1
  Ir  Ir10  1  0.502216  0.497784  0.283072  1
  Ir  Ir11  1  0.502216  0.497784  0.716928  1
