# generated using pymatgen
data_K4Zr6TcBr18
_symmetry_space_group_name_H-M   'P 1'
_cell_length_a   10.67649669
_cell_length_b   10.81456750
_cell_length_c   10.87593055
_cell_angle_alpha   118.46944895
_cell_angle_beta   100.83804944
_cell_angle_gamma   103.42578184
_symmetry_Int_Tables_number   1
_chemical_formula_structural   K4Zr6TcBr18
_chemical_formula_sum   'K4 Zr6 Tc1 Br18'
_cell_volume   1006.07432344
_cell_formula_units_Z   1
loop_
 _symmetry_equiv_pos_site_id
 _symmetry_equiv_pos_as_xyz
  1  'x, y, z'
loop_
 _atom_site_type_symbol
 _atom_site_label
 _atom_site_symmetry_multiplicity
 _atom_site_fract_x
 _atom_site_fract_y
 _atom_site_fract_z
 _atom_site_occupancy
  K  K0  1  0.651116  0.538821  0.227727  1
  K  K1  1  0.348884  0.461179  0.772273  1
  K  K2  1  0.683931  0.223925  0.564141  1
  K  K3  1  0.316069  0.776075  0.435859  1
  Zr  Zr4  1  0.157286  0.057829  0.240321  1
  Zr  Zr5  1  0.842714  0.942171  0.759679  1
  Zr  Zr6  1  0.852589  0.135942  0.142428  1
  Zr  Zr7  1  0.147411  0.864058  0.857572  1
  Zr  Zr8  1  0.154026  0.254425  0.046961  1
  Zr  Zr9  1  0.845974  0.745575  0.953039  1
  Tc  Tc10  1  0.000000  0.000000  0.000000  1
  Br  Br11  1  0.009079  0.414591  0.200147  1
  Br  Br12  1  0.990921  0.585409  0.799853  1
  Br  Br13  1  0.330762  0.335125  0.313669  1
  Br  Br14  1  0.669238  0.664875  0.686331  1
  Br  Br15  1  0.330105  0.529076  0.102323  1
  Br  Br16  1  0.669895  0.470924  0.897677  1
  Br  Br17  1  0.006411  0.794503  0.212492  1
  Br  Br18  1  0.993589  0.205497  0.787508  1
  Br  Br19  1  0.700213  0.284301  0.296732  1
  Br  Br20  1  0.299787  0.715699  0.703268  1
  Br  Br21  1  0.318138  0.127191  0.901442  1
  Br  Br22  1  0.681862  0.872809  0.098558  1
  Br  Br23  1  0.016603  0.206510  0.412608  1
  Br  Br24  1  0.983397  0.793490  0.587392  1
  Br  Br25  1  0.323015  0.919781  0.110528  1
  Br  Br26  1  0.676985  0.080219  0.889472  1
  Br  Br27  1  0.341016  0.122843  0.509187  1
  Br  Br28  1  0.658984  0.877157  0.490813  1
