# generated using pymatgen
data_Lu4Al18IrPt2Rh3
_symmetry_space_group_name_H-M   'P 1'
_cell_length_a   7.54441075
_cell_length_b   7.54441076
_cell_length_c   9.38750007
_cell_angle_alpha   89.93344925
_cell_angle_beta   89.93344676
_cell_angle_gamma   119.56013914
_symmetry_Int_Tables_number   1
_chemical_formula_structural   Lu4Al18IrPt2Rh3
_chemical_formula_sum   'Lu4 Al18 Ir1 Pt2 Rh3'
_cell_volume   464.76990851
_cell_formula_units_Z   1
loop_
 _symmetry_equiv_pos_site_id
 _symmetry_equiv_pos_as_xyz
  1  'x, y, z'
loop_
 _atom_site_type_symbol
 _atom_site_label
 _atom_site_symmetry_multiplicity
 _atom_site_fract_x
 _atom_site_fract_y
 _atom_site_fract_z
 _atom_site_occupancy
  Lu  Lu0  1  0.995518  0.672046  0.251072  1
  Lu  Lu1  1  0.004482  0.327954  0.748928  1
  Lu  Lu2  1  0.672046  0.995518  0.251072  1
  Lu  Lu3  1  0.327954  0.004482  0.748928  1
  Al  Al4  1  0.127213  0.127213  0.251577  1
  Al  Al5  1  0.872787  0.872787  0.748423  1
  Al  Al6  1  0.000231  0.332067  0.078672  1
  Al  Al7  1  0.999769  0.667933  0.921328  1
  Al  Al8  1  0.001095  0.664620  0.576182  1
  Al  Al9  1  0.335380  0.998905  0.423818  1
  Al  Al10  1  0.998905  0.335380  0.423818  1
  Al  Al11  1  0.664620  0.001095  0.576182  1
  Al  Al12  1  0.667933  0.999769  0.921328  1
  Al  Al13  1  0.332067  0.000231  0.078672  1
  Al  Al14  1  0.331458  0.331458  0.552402  1
  Al  Al15  1  0.668542  0.668542  0.447598  1
  Al  Al16  1  0.669673  0.669673  0.059557  1
  Al  Al17  1  0.330327  0.330327  0.940443  1
  Al  Al18  1  0.340661  0.549130  0.253801  1
  Al  Al19  1  0.659339  0.450870  0.746199  1
  Al  Al20  1  0.549130  0.340661  0.253801  1
  Al  Al21  1  0.450870  0.659339  0.746199  1
  Ir  Ir22  1  0.000000  0.000000  0.000000  1
  Pt  Pt23  1  0.672742  0.327258  0.000000  1
  Pt  Pt24  1  0.327258  0.672742  0.000000  1
  Rh  Rh25  1  0.327746  0.672254  0.500000  1
  Rh  Rh26  1  0.672254  0.327746  0.500000  1
  Rh  Rh27  1  0.000000  0.000000  0.500000  1
