# generated using pymatgen
data_SrAc(Ga3Pt)2
_symmetry_space_group_name_H-M   'P 1'
_cell_length_a   6.20208800
_cell_length_b   6.20208659
_cell_length_c   6.02062900
_cell_angle_alpha   90.00000000
_cell_angle_beta   90.00000000
_cell_angle_gamma   117.69403594
_symmetry_Int_Tables_number   1
_chemical_formula_structural   SrAc(Ga3Pt)2
_chemical_formula_sum   'Sr1 Ac1 Ga6 Pt2'
_cell_volume   205.05848176
_cell_formula_units_Z   1
loop_
 _symmetry_equiv_pos_site_id
 _symmetry_equiv_pos_as_xyz
  1  'x, y, z'
loop_
 _atom_site_type_symbol
 _atom_site_label
 _atom_site_symmetry_multiplicity
 _atom_site_fract_x
 _atom_site_fract_y
 _atom_site_fract_z
 _atom_site_occupancy
  Sr  Sr0  1  0.765221  0.234779  0.250000  1
  Ac  Ac1  1  0.232262  0.767738  0.750000  1
  Ga  Ga2  1  0.657158  0.342842  0.750000  1
  Ga  Ga3  1  0.345110  0.654890  0.250000  1
  Ga  Ga4  1  0.725521  0.726638  0.000536  1
  Ga  Ga5  1  0.725521  0.726638  0.499464  1
  Ga  Ga6  1  0.273362  0.274479  0.000536  1
  Ga  Ga7  1  0.273362  0.274479  0.499464  1
  Pt  Pt8  1  0.894074  0.105926  0.750000  1
  Pt  Pt9  1  0.108407  0.891593  0.250000  1
