# generated using pymatgen
data_Pu2H5
_symmetry_space_group_name_H-M   'P 1'
_cell_length_a   6.51294260
_cell_length_b   6.51294262
_cell_length_c   6.51294375
_cell_angle_alpha   132.16426467
_cell_angle_beta   132.16426989
_cell_angle_gamma   69.96970581
_symmetry_Int_Tables_number   1
_chemical_formula_structural   Pu2H5
_chemical_formula_sum   'Pu4 H10'
_cell_volume   148.82000310
_cell_formula_units_Z   2
loop_
 _symmetry_equiv_pos_site_id
 _symmetry_equiv_pos_as_xyz
  1  'x, y, z'
loop_
 _atom_site_type_symbol
 _atom_site_label
 _atom_site_symmetry_multiplicity
 _atom_site_fract_x
 _atom_site_fract_y
 _atom_site_fract_z
 _atom_site_occupancy
  Pu  Pu0  1  0.510993  0.010993  0.500000  1
  Pu  Pu1  1  0.760993  0.760993  0.000000  1
  Pu  Pu2  1  0.989007  0.489007  0.500000  1
  Pu  Pu3  1  0.239007  0.239007  0.000000  1
  H  H4  1  0.375000  0.398819  0.523819  1
  H  H5  1  0.875000  0.851181  0.476181  1
  H  H6  1  0.601181  0.125000  0.976181  1
  H  H7  1  0.148819  0.625000  0.023819  1
  H  H8  1  0.375000  0.851181  0.976181  1
  H  H9  1  0.875000  0.398819  0.023819  1
  H  H10  1  0.601181  0.625000  0.476181  1
  H  H11  1  0.148819  0.125000  0.523819  1
  H  H12  1  0.750000  0.250000  0.500000  1
  H  H13  1  0.000000  0.000000  0.000000  1
