# generated using pymatgen
data_Ce2PuF12
_symmetry_space_group_name_H-M   'P 1'
_cell_length_a   8.36084620
_cell_length_b   8.36084657
_cell_length_c   8.37184270
_cell_angle_alpha   63.19280340
_cell_angle_beta   63.19280091
_cell_angle_gamma   80.07858703
_symmetry_Int_Tables_number   1
_chemical_formula_structural   Ce2PuF12
_chemical_formula_sum   'Ce4 Pu2 F24'
_cell_volume   465.83839843
_cell_formula_units_Z   2
loop_
 _symmetry_equiv_pos_site_id
 _symmetry_equiv_pos_as_xyz
  1  'x, y, z'
loop_
 _atom_site_type_symbol
 _atom_site_label
 _atom_site_symmetry_multiplicity
 _atom_site_fract_x
 _atom_site_fract_y
 _atom_site_fract_z
 _atom_site_occupancy
  Ce  Ce0  1  0.631034  0.774753  0.671724  1
  Ce  Ce1  1  0.368966  0.225247  0.328276  1
  Ce  Ce2  1  0.225247  0.368966  0.828276  1
  Ce  Ce3  1  0.774753  0.631034  0.171724  1
  Pu  Pu4  1  0.789721  0.210279  0.750000  1
  Pu  Pu5  1  0.210279  0.789721  0.250000  1
  F  F6  1  0.316839  0.258596  0.605366  1
  F  F7  1  0.683161  0.741404  0.394634  1
  F  F8  1  0.741404  0.683161  0.894634  1
  F  F9  1  0.258596  0.316839  0.105366  1
  F  F10  1  0.826038  0.938077  0.954551  1
  F  F11  1  0.173962  0.061923  0.045449  1
  F  F12  1  0.061923  0.173962  0.545449  1
  F  F13  1  0.938077  0.826038  0.454551  1
  F  F14  1  0.396675  0.603325  0.750000  1
  F  F15  1  0.603325  0.396675  0.250000  1
  F  F16  1  0.500000  0.000000  0.500000  1
  F  F17  1  0.000000  0.500000  0.000000  1
  F  F18  1  0.504556  0.260411  0.782721  1
  F  F19  1  0.495444  0.739589  0.217279  1
  F  F20  1  0.739589  0.495444  0.717279  1
  F  F21  1  0.260411  0.504556  0.282721  1
  F  F22  1  0.401591  0.812298  0.931939  1
  F  F23  1  0.598409  0.187702  0.068061  1
  F  F24  1  0.187702  0.598409  0.568061  1
  F  F25  1  0.812298  0.401591  0.431939  1
  F  F26  1  0.724420  0.030961  0.650994  1
  F  F27  1  0.275580  0.969039  0.349006  1
  F  F28  1  0.969039  0.275580  0.849006  1
  F  F29  1  0.030961  0.724420  0.150994  1
