# generated using pymatgen
data_Th2MnC4
_symmetry_space_group_name_H-M   'P 1'
_cell_length_a   6.88121802
_cell_length_b   6.88121867
_cell_length_c   6.88121779
_cell_angle_alpha   135.18646639
_cell_angle_beta   114.49537984
_cell_angle_gamma   82.87559448
_symmetry_Int_Tables_number   1
_chemical_formula_structural   Th2MnC4
_chemical_formula_sum   'Th4 Mn2 C8'
_cell_volume   201.49413051
_cell_formula_units_Z   2
loop_
 _symmetry_equiv_pos_site_id
 _symmetry_equiv_pos_as_xyz
  1  'x, y, z'
loop_
 _atom_site_type_symbol
 _atom_site_label
 _atom_site_symmetry_multiplicity
 _atom_site_fract_x
 _atom_site_fract_y
 _atom_site_fract_z
 _atom_site_occupancy
  Th  Th0  1  0.531079  0.858799  0.672279  1
  Th  Th1  1  0.468921  0.141201  0.327721  1
  Th  Th2  1  0.813479  0.641201  0.172279  1
  Th  Th3  1  0.186521  0.358799  0.827721  1
  Mn  Mn4  1  0.000000  0.250000  0.250000  1
  Mn  Mn5  1  0.000000  0.750000  0.750000  1
  C  C6  1  0.242123  0.582087  0.660037  1
  C  C7  1  0.757877  0.417913  0.339963  1
  C  C8  1  0.077950  0.917913  0.160037  1
  C  C9  1  0.922050  0.082087  0.839963  1
  C  C10  1  0.469086  0.629713  0.839372  1
  C  C11  1  0.530914  0.370287  0.160628  1
  C  C12  1  0.790340  0.129713  0.660628  1
  C  C13  1  0.209660  0.870287  0.339372  1
