# generated using pymatgen
data_Y11Cd9NiAu3
_symmetry_space_group_name_H-M   'P 1'
_cell_length_a   13.15991513
_cell_length_b   13.18977582
_cell_length_c   3.74837200
_cell_angle_alpha   90.00000000
_cell_angle_beta   90.00000000
_cell_angle_gamma   112.24454931
_symmetry_Int_Tables_number   1
_chemical_formula_structural   Y11Cd9NiAu3
_chemical_formula_sum   'Y11 Cd9 Ni1 Au3'
_cell_volume   602.20660880
_cell_formula_units_Z   1
loop_
 _symmetry_equiv_pos_site_id
 _symmetry_equiv_pos_as_xyz
  1  'x, y, z'
loop_
 _atom_site_type_symbol
 _atom_site_label
 _atom_site_symmetry_multiplicity
 _atom_site_fract_x
 _atom_site_fract_y
 _atom_site_fract_z
 _atom_site_occupancy
  Y  Y0  1  0.074966  0.416235  0.000000  1
  Y  Y1  1  0.925615  0.586202  0.000000  1
  Y  Y2  1  0.415336  0.072462  0.000000  1
  Y  Y3  1  0.583302  0.917724  0.000000  1
  Y  Y4  1  0.632080  0.368401  0.000000  1
  Y  Y5  1  0.383687  0.638402  0.000000  1
  Y  Y6  1  0.835589  0.163125  0.000000  1
  Y  Y7  1  0.164841  0.836163  0.000000  1
  Y  Y8  1  0.997675  0.998987  0.000000  1
  Y  Y9  1  0.292589  0.293433  0.000000  1
  Y  Y10  1  0.694005  0.707090  0.000000  1
  Cd  Cd11  1  0.845122  0.366681  0.500000  1
  Cd  Cd12  1  0.156290  0.633056  0.500000  1
  Cd  Cd13  1  0.369674  0.840781  0.500000  1
  Cd  Cd14  1  0.633427  0.153183  0.500000  1
  Cd  Cd15  1  0.065983  0.210772  0.500000  1
  Cd  Cd16  1  0.930932  0.788272  0.500000  1
  Cd  Cd17  1  0.210002  0.064804  0.500000  1
  Cd  Cd18  1  0.784450  0.929143  0.500000  1
  Cd  Cd19  1  0.501778  0.503709  0.500000  1
  Ni  Ni20  1  0.552795  0.754424  0.500000  1
  Au  Au21  1  0.254939  0.451482  0.500000  1
  Au  Au22  1  0.746466  0.553881  0.500000  1
  Au  Au23  1  0.448458  0.251588  0.500000  1
