# generated using pymatgen
data_HoTmNi9P7Ir3
_symmetry_space_group_name_H-M   'P 1'
_cell_length_a   9.14724900
_cell_length_b   9.14725011
_cell_length_c   3.82563200
_cell_angle_alpha   90.00000000
_cell_angle_beta   90.00000000
_cell_angle_gamma   119.99999961
_symmetry_Int_Tables_number   1
_chemical_formula_structural   HoTmNi9P7Ir3
_chemical_formula_sum   'Ho1 Tm1 Ni9 P7 Ir3'
_cell_volume   277.21382172
_cell_formula_units_Z   1
loop_
 _symmetry_equiv_pos_site_id
 _symmetry_equiv_pos_as_xyz
  1  'x, y, z'
loop_
 _atom_site_type_symbol
 _atom_site_label
 _atom_site_symmetry_multiplicity
 _atom_site_fract_x
 _atom_site_fract_y
 _atom_site_fract_z
 _atom_site_occupancy
  Ho  Ho0  1  0.333333  0.666667  0.000000  1
  Tm  Tm1  1  0.666667  0.333333  0.500000  1
  Ni  Ni2  1  0.432525  0.063630  0.000000  1
  Ni  Ni3  1  0.631104  0.567475  0.000000  1
  Ni  Ni4  1  0.936370  0.368896  0.000000  1
  Ni  Ni5  1  0.155250  0.273811  0.000000  1
  Ni  Ni6  1  0.118560  0.844750  0.000000  1
  Ni  Ni7  1  0.726189  0.881440  0.000000  1
  Ni  Ni8  1  0.194168  0.074703  0.500000  1
  Ni  Ni9  1  0.880536  0.805832  0.500000  1
  Ni  Ni10  1  0.925297  0.119464  0.500000  1
  P  P11  1  0.000000  0.000000  0.000000  1
  P  P12  1  0.413817  0.293782  0.000000  1
  P  P13  1  0.879967  0.586183  0.000000  1
  P  P14  1  0.706218  0.120033  0.000000  1
  P  P15  1  0.107576  0.397822  0.500000  1
  P  P16  1  0.290246  0.892424  0.500000  1
  P  P17  1  0.602178  0.709754  0.500000  1
  Ir  Ir18  1  0.384672  0.428547  0.500000  1
  Ir  Ir19  1  0.043875  0.615328  0.500000  1
  Ir  Ir20  1  0.571453  0.956125  0.500000  1
