# generated using pymatgen
data_HfMnCr3P2
_symmetry_space_group_name_H-M   'P 1'
_cell_length_a   7.08675896
_cell_length_b   6.61333108
_cell_length_c   3.78139200
_cell_angle_alpha   90.00000000
_cell_angle_beta   90.00000000
_cell_angle_gamma   90.27361901
_symmetry_Int_Tables_number   1
_chemical_formula_structural   HfMnCr3P2
_chemical_formula_sum   'Hf2 Mn2 Cr6 P4'
_cell_volume   177.22079296
_cell_formula_units_Z   2
loop_
 _symmetry_equiv_pos_site_id
 _symmetry_equiv_pos_as_xyz
  1  'x, y, z'
loop_
 _atom_site_type_symbol
 _atom_site_label
 _atom_site_symmetry_multiplicity
 _atom_site_fract_x
 _atom_site_fract_y
 _atom_site_fract_z
 _atom_site_occupancy
  Hf  Hf0  1  0.500000  0.500000  0.000000  1
  Hf  Hf1  1  0.000000  0.000000  0.500000  1
  Mn  Mn2  1  0.338889  0.078246  0.000000  1
  Mn  Mn3  1  0.661111  0.921754  0.000000  1
  Cr  Cr4  1  0.605987  0.146310  0.500000  1
  Cr  Cr5  1  0.394013  0.853690  0.500000  1
  Cr  Cr6  1  0.106553  0.349385  0.000000  1
  Cr  Cr7  1  0.893447  0.650615  0.000000  1
  Cr  Cr8  1  0.161817  0.576800  0.500000  1
  Cr  Cr9  1  0.838183  0.423200  0.500000  1
  P  P10  1  0.692815  0.729240  0.500000  1
  P  P11  1  0.307185  0.270760  0.500000  1
  P  P12  1  0.196263  0.774330  0.000000  1
  P  P13  1  0.803737  0.225670  0.000000  1
