# generated using pymatgen
data_Dy4HoBi3
_symmetry_space_group_name_H-M   'P 1'
_cell_length_a   8.26956300
_cell_length_b   9.53014400
_cell_length_c   12.05572400
_cell_angle_alpha   90.00000000
_cell_angle_beta   90.00000000
_cell_angle_gamma   90.00000000
_symmetry_Int_Tables_number   1
_chemical_formula_structural   Dy4HoBi3
_chemical_formula_sum   'Dy16 Ho4 Bi12'
_cell_volume   950.11312996
_cell_formula_units_Z   4
loop_
 _symmetry_equiv_pos_site_id
 _symmetry_equiv_pos_as_xyz
  1  'x, y, z'
loop_
 _atom_site_type_symbol
 _atom_site_label
 _atom_site_symmetry_multiplicity
 _atom_site_fract_x
 _atom_site_fract_y
 _atom_site_fract_z
 _atom_site_occupancy
  Dy  Dy0  1  0.352564  0.749950  0.215219  1
  Dy  Dy1  1  0.852564  0.750050  0.284781  1
  Dy  Dy2  1  0.647436  0.249950  0.784781  1
  Dy  Dy3  1  0.147436  0.250050  0.715219  1
  Dy  Dy4  1  0.307255  0.436050  0.941539  1
  Dy  Dy5  1  0.807255  0.063950  0.558461  1
  Dy  Dy6  1  0.692745  0.936050  0.058461  1
  Dy  Dy7  1  0.192745  0.563950  0.441539  1
  Dy  Dy8  1  0.475337  0.250004  0.488167  1
  Dy  Dy9  1  0.975337  0.249996  0.011833  1
  Dy  Dy10  1  0.524663  0.750004  0.511833  1
  Dy  Dy11  1  0.024663  0.749996  0.988167  1
  Dy  Dy12  1  0.312618  0.249968  0.218643  1
  Dy  Dy13  1  0.812618  0.250032  0.281357  1
  Dy  Dy14  1  0.687382  0.749968  0.781357  1
  Dy  Dy15  1  0.187382  0.750032  0.718643  1
  Ho  Ho16  1  0.692688  0.564118  0.058510  1
  Ho  Ho17  1  0.192688  0.935882  0.441490  1
  Ho  Ho18  1  0.307312  0.064118  0.941490  1
  Ho  Ho19  1  0.807312  0.435882  0.558510  1
  Bi  Bi20  1  0.407369  0.750218  0.956798  1
  Bi  Bi21  1  0.907369  0.749782  0.543202  1
  Bi  Bi22  1  0.592631  0.250218  0.043202  1
  Bi  Bi23  1  0.092631  0.249782  0.456798  1
  Bi  Bi24  1  0.564715  0.995548  0.325221  1
  Bi  Bi25  1  0.064715  0.504452  0.174779  1
  Bi  Bi26  1  0.435285  0.495548  0.674779  1
  Bi  Bi27  1  0.935285  0.004452  0.825221  1
  Bi  Bi28  1  0.435192  0.004462  0.674786  1
  Bi  Bi29  1  0.935192  0.495538  0.825214  1
  Bi  Bi30  1  0.564808  0.504462  0.325214  1
  Bi  Bi31  1  0.064808  0.995538  0.174786  1
