# generated using pymatgen
data_K4PrNp3F16
_symmetry_space_group_name_H-M   'P 1'
_cell_length_a   3.81730700
_cell_length_b   6.36456401
_cell_length_c   15.84889235
_cell_angle_alpha   90.05553769
_cell_angle_beta   90.00000000
_cell_angle_gamma   90.00000000
_symmetry_Int_Tables_number   1
_chemical_formula_structural   K4PrNp3F16
_chemical_formula_sum   'K4 Pr1 Np3 F16'
_cell_volume   385.05649997
_cell_formula_units_Z   1
loop_
 _symmetry_equiv_pos_site_id
 _symmetry_equiv_pos_as_xyz
  1  'x, y, z'
loop_
 _atom_site_type_symbol
 _atom_site_label
 _atom_site_symmetry_multiplicity
 _atom_site_fract_x
 _atom_site_fract_y
 _atom_site_fract_z
 _atom_site_occupancy
  K  K0  1  0.250000  0.219970  0.299034  1
  K  K1  1  0.750000  0.777299  0.702035  1
  K  K2  1  0.250000  0.723153  0.201002  1
  K  K3  1  0.750000  0.280328  0.799224  1
  Pr  Pr4  1  0.250000  0.249820  0.561857  1
  Np  Np5  1  0.750000  0.251429  0.061826  1
  Np  Np6  1  0.250000  0.756058  0.939241  1
  Np  Np7  1  0.750000  0.746323  0.439089  1
  F  F8  1  0.250000  0.090668  0.693810  1
  F  F9  1  0.750000  0.908939  0.306046  1
  F  F10  1  0.250000  0.593985  0.805808  1
  F  F11  1  0.750000  0.408863  0.194095  1
  F  F12  1  0.750000  0.394659  0.634482  1
  F  F13  1  0.250000  0.607865  0.363362  1
  F  F14  1  0.750000  0.891862  0.864196  1
  F  F15  1  0.250000  0.102057  0.133749  1
  F  F16  1  0.750000  0.365942  0.463780  1
  F  F17  1  0.250000  0.635128  0.535386  1
  F  F18  1  0.750000  0.861743  0.038422  1
  F  F19  1  0.250000  0.133493  0.961451  1
  F  F20  1  0.250000  0.501075  0.058731  1
  F  F21  1  0.750000  0.493478  0.942141  1
  F  F22  1  0.250000  0.010154  0.442241  1
  F  F23  1  0.750000  0.995709  0.558994  1
