# generated using pymatgen
data_Dy3Ho9Ni4
_symmetry_space_group_name_H-M   'P 1'
_cell_length_a   6.33951900
_cell_length_b   6.82403900
_cell_length_c   9.53154300
_cell_angle_alpha   90.00000000
_cell_angle_beta   90.00000000
_cell_angle_gamma   90.00282822
_symmetry_Int_Tables_number   1
_chemical_formula_structural   Dy3Ho9Ni4
_chemical_formula_sum   'Dy3 Ho9 Ni4'
_cell_volume   412.34527194
_cell_formula_units_Z   1
loop_
 _symmetry_equiv_pos_site_id
 _symmetry_equiv_pos_as_xyz
  1  'x, y, z'
loop_
 _atom_site_type_symbol
 _atom_site_label
 _atom_site_symmetry_multiplicity
 _atom_site_fract_x
 _atom_site_fract_y
 _atom_site_fract_z
 _atom_site_occupancy
  Dy  Dy0  1  0.859686  0.533271  0.250000  1
  Dy  Dy1  1  0.640306  0.033296  0.250000  1
  Dy  Dy2  1  0.140491  0.466790  0.750000  1
  Ho  Ho3  1  0.321301  0.678219  0.066389  1
  Ho  Ho4  1  0.178824  0.177931  0.433590  1
  Ho  Ho5  1  0.678631  0.321858  0.566525  1
  Ho  Ho6  1  0.821095  0.822026  0.933459  1
  Ho  Ho7  1  0.678631  0.321858  0.933475  1
  Ho  Ho8  1  0.821095  0.822026  0.566541  1
  Ho  Ho9  1  0.321301  0.678219  0.433611  1
  Ho  Ho10  1  0.178824  0.177931  0.066410  1
  Ho  Ho11  1  0.359558  0.966483  0.750000  1
  Ni  Ni12  1  0.054822  0.891080  0.250000  1
  Ni  Ni13  1  0.445177  0.391049  0.250000  1
  Ni  Ni14  1  0.945580  0.108782  0.750000  1
  Ni  Ni15  1  0.554678  0.609181  0.750000  1
