# generated using pymatgen
data_Ca2La(B3Rh4)2
_symmetry_space_group_name_H-M   'P 1'
_cell_length_a   9.92477475
_cell_length_b   9.06376129
_cell_length_c   5.63328200
_cell_angle_alpha   81.33513784
_cell_angle_beta   64.53160520
_cell_angle_gamma   34.13326834
_symmetry_Int_Tables_number   1
_chemical_formula_structural   Ca2La(B3Rh4)2
_chemical_formula_sum   'Ca2 La1 B6 Rh8'
_cell_volume   234.69206909
_cell_formula_units_Z   1
loop_
 _symmetry_equiv_pos_site_id
 _symmetry_equiv_pos_as_xyz
  1  'x, y, z'
loop_
 _atom_site_type_symbol
 _atom_site_label
 _atom_site_symmetry_multiplicity
 _atom_site_fract_x
 _atom_site_fract_y
 _atom_site_fract_z
 _atom_site_occupancy
  Ca  Ca0  1  0.314554  0.314554  0.685446  1
  Ca  Ca1  1  0.685446  0.685446  0.314554  1
  La  La2  1  0.500000  0.500000  0.500000  1
  B  B3  1  0.668573  0.986751  0.013249  1
  B  B4  1  0.986751  0.668573  0.331427  1
  B  B5  1  0.331427  0.013249  0.986751  1
  B  B6  1  0.013249  0.331427  0.668573  1
  B  B7  1  0.167157  0.832843  0.167157  1
  B  B8  1  0.832843  0.167157  0.832843  1
  Rh  Rh9  1  0.585917  0.585917  0.914083  1
  Rh  Rh10  1  0.912394  0.912394  0.087606  1
  Rh  Rh11  1  0.414083  0.414083  0.085917  1
  Rh  Rh12  1  0.085917  0.085917  0.414083  1
  Rh  Rh13  1  0.914083  0.914083  0.585917  1
  Rh  Rh14  1  0.250000  0.250000  0.250000  1
  Rh  Rh15  1  0.087606  0.087606  0.912394  1
  Rh  Rh16  1  0.750000  0.750000  0.750000  1
