# generated using pymatgen
data_TbNi(PRh)2
_symmetry_space_group_name_H-M   'P 1'
_cell_length_a   3.88761809
_cell_length_b   10.85965240
_cell_length_c   12.70649189
_cell_angle_alpha   89.96784280
_cell_angle_beta   90.17955717
_cell_angle_gamma   90.16987980
_symmetry_Int_Tables_number   1
_chemical_formula_structural   TbNi(PRh)2
_chemical_formula_sum   'Tb6 Ni6 P12 Rh12'
_cell_volume   536.43990204
_cell_formula_units_Z   6
loop_
 _symmetry_equiv_pos_site_id
 _symmetry_equiv_pos_as_xyz
  1  'x, y, z'
loop_
 _atom_site_type_symbol
 _atom_site_label
 _atom_site_symmetry_multiplicity
 _atom_site_fract_x
 _atom_site_fract_y
 _atom_site_fract_z
 _atom_site_occupancy
  Tb  Tb0  1  0.751837  0.000061  0.477120  1
  Tb  Tb1  1  0.251641  0.499867  0.525217  1
  Tb  Tb2  1  0.252144  0.678046  0.797670  1
  Tb  Tb3  1  0.251775  0.322030  0.797645  1
  Tb  Tb4  1  0.751418  0.818539  0.202623  1
  Tb  Tb5  1  0.751893  0.181267  0.202714  1
  Ni  Ni6  1  0.752477  0.000122  0.017390  1
  Ni  Ni7  1  0.251449  0.499773  0.980403  1
  Ni  Ni8  1  0.751919  0.338146  0.989979  1
  Ni  Ni9  1  0.752322  0.662584  0.988820  1
  Ni  Ni10  1  0.252159  0.999774  0.300634  1
  Ni  Ni11  1  0.752631  0.500117  0.699917  1
  P  P12  1  0.251077  0.179643  0.379615  1
  P  P13  1  0.251909  0.820014  0.379717  1
  P  P14  1  0.752516  0.320693  0.620524  1
  P  P15  1  0.751813  0.679424  0.620485  1
  P  P16  1  0.251248  0.000000  0.130502  1
  P  P17  1  0.751932  0.500029  0.873663  1
  P  P18  1  0.250525  0.645063  0.101618  1
  P  P19  1  0.251974  0.354497  0.101786  1
  P  P20  1  0.752150  0.846802  0.898245  1
  P  P21  1  0.750970  0.153636  0.898315  1
  P  P22  1  0.252035  0.000004  0.655526  1
  P  P23  1  0.751509  0.499908  0.343697  1
  Rh  Rh24  1  0.251434  0.204091  0.569539  1
  Rh  Rh25  1  0.252494  0.795574  0.569609  1
  Rh  Rh26  1  0.752129  0.296838  0.431140  1
  Rh  Rh27  1  0.751420  0.703364  0.431050  1
  Rh  Rh28  1  0.250687  0.625762  0.286889  1
  Rh  Rh29  1  0.251338  0.374009  0.286658  1
  Rh  Rh30  1  0.753065  0.873120  0.712928  1
  Rh  Rh31  1  0.752134  0.126961  0.713104  1
  Rh  Rh32  1  0.251771  0.168167  0.008844  1
  Rh  Rh33  1  0.252729  0.831885  0.009262  1
  Rh  Rh34  1  0.252432  0.999550  0.840319  1
  Rh  Rh35  1  0.750643  0.500639  0.156833  1
