# generated using pymatgen
data_NdThPt2Pb
_symmetry_space_group_name_H-M   'P 1'
_cell_length_a   8.15625800
_cell_length_b   8.14891500
_cell_length_c   3.72988700
_cell_angle_alpha   90.00000000
_cell_angle_beta   90.00000000
_cell_angle_gamma   90.00000000
_symmetry_Int_Tables_number   1
_chemical_formula_structural   NdThPt2Pb
_chemical_formula_sum   'Nd2 Th2 Pt4 Pb2'
_cell_volume   247.90564578
_cell_formula_units_Z   2
loop_
 _symmetry_equiv_pos_site_id
 _symmetry_equiv_pos_as_xyz
  1  'x, y, z'
loop_
 _atom_site_type_symbol
 _atom_site_label
 _atom_site_symmetry_multiplicity
 _atom_site_fract_x
 _atom_site_fract_y
 _atom_site_fract_z
 _atom_site_occupancy
  Nd  Nd0  1  0.171301  0.671925  0.499999  1
  Nd  Nd1  1  0.671301  0.828076  0.499999  1
  Th  Th2  1  0.330785  0.167173  0.499999  1
  Th  Th3  1  0.830785  0.332828  0.499999  1
  Pt  Pt4  1  0.628123  0.139049  0.000000  1
  Pt  Pt5  1  0.128123  0.360951  0.000000  1
  Pt  Pt6  1  0.873076  0.613432  0.000000  1
  Pt  Pt7  1  0.373076  0.886568  0.000000  1
  Pb  Pb8  1  0.996716  0.991745  0.000000  1
  Pb  Pb9  1  0.496716  0.508255  0.000000  1
