# generated using pymatgen
data_Sn15Ir2RhO14
_symmetry_space_group_name_H-M   'P 1'
_cell_length_a   7.35239610
_cell_length_b   7.35238410
_cell_length_c   13.22564006
_cell_angle_alpha   73.72746736
_cell_angle_beta   73.72744575
_cell_angle_gamma   59.43196974
_symmetry_Int_Tables_number   1
_chemical_formula_structural   Sn15Ir2RhO14
_chemical_formula_sum   'Sn15 Ir2 Rh1 O14'
_cell_volume   582.66820278
_cell_formula_units_Z   1
loop_
 _symmetry_equiv_pos_site_id
 _symmetry_equiv_pos_as_xyz
  1  'x, y, z'
loop_
 _atom_site_type_symbol
 _atom_site_label
 _atom_site_symmetry_multiplicity
 _atom_site_fract_x
 _atom_site_fract_y
 _atom_site_fract_z
 _atom_site_occupancy
  Sn  Sn0  1  0.323773  0.854192  0.087167  1
  Sn  Sn1  1  0.424866  0.902588  0.349157  1
  Sn  Sn2  1  0.902588  0.424865  0.349157  1
  Sn  Sn3  1  0.983169  0.983168  0.615614  1
  Sn  Sn4  1  0.091845  0.569163  0.842485  1
  Sn  Sn5  1  0.569163  0.091846  0.842481  1
  Sn  Sn6  1  0.845847  0.845847  0.084498  1
  Sn  Sn7  1  0.566936  0.566934  0.854009  1
  Sn  Sn8  1  0.903353  0.903353  0.342303  1
  Sn  Sn9  1  0.997651  0.510134  0.571832  1
  Sn  Sn10  1  0.510134  0.997651  0.571832  1
  Sn  Sn11  1  0.513507  0.513507  0.580082  1
  Sn  Sn12  1  0.097722  0.097725  0.823440  1
  Sn  Sn13  1  0.854192  0.323774  0.087167  1
  Sn  Sn14  1  0.324415  0.324414  0.109921  1
  Ir  Ir15  1  0.706219  0.706220  0.970105  1
  Ir  Ir16  1  0.116688  0.116687  0.231803  1
  Rh  Rh17  1  0.301939  0.301941  0.693359  1
  O  O18  1  0.769679  0.769678  0.256926  1
  O  O19  1  0.772710  0.231404  0.822994  1
  O  O20  1  0.231405  0.772712  0.822994  1
  O  O21  1  0.028882  0.573003  0.403799  1
  O  O22  1  0.573004  0.028882  0.403800  1
  O  O23  1  0.660421  0.660421  0.624334  1
  O  O24  1  0.573599  0.573597  0.411104  1
  O  O25  1  0.365426  0.365426  0.942731  1
  O  O26  1  0.879683  0.879683  0.518494  1
  O  O27  1  0.063934  0.063934  0.991603  1
  O  O28  1  0.304060  0.880189  0.531231  1
  O  O29  1  0.880189  0.304060  0.531231  1
  O  O30  1  0.187697  0.644013  0.119408  1
  O  O31  1  0.644014  0.187697  0.119408  1
