# generated using pymatgen
data_Tb3Er(CoOs)4
_symmetry_space_group_name_H-M   'P 1'
_cell_length_a   5.27567300
_cell_length_b   5.24612951
_cell_length_c   9.05112503
_cell_angle_alpha   71.81048616
_cell_angle_beta   90.00000000
_cell_angle_gamma   120.18646980
_symmetry_Int_Tables_number   1
_chemical_formula_structural   Tb3Er(CoOs)4
_chemical_formula_sum   'Tb3 Er1 Co4 Os4'
_cell_volume   201.92331745
_cell_formula_units_Z   1
loop_
 _symmetry_equiv_pos_site_id
 _symmetry_equiv_pos_as_xyz
  1  'x, y, z'
loop_
 _atom_site_type_symbol
 _atom_site_label
 _atom_site_symmetry_multiplicity
 _atom_site_fract_x
 _atom_site_fract_y
 _atom_site_fract_z
 _atom_site_occupancy
  Tb  Tb0  1  0.811287  0.122575  0.561043  1
  Tb  Tb1  1  0.188906  0.877809  0.438642  1
  Tb  Tb2  1  0.688653  0.877308  0.938501  1
  Er  Er3  1  0.310732  0.121466  0.061496  1
  Co  Co4  1  0.750374  0.501415  0.248319  1
  Co  Co5  1  0.250371  0.498747  0.751805  1
  Co  Co6  1  0.251041  0.501415  0.248319  1
  Co  Co7  1  0.748375  0.498747  0.751805  1
  Os  Os8  1  0.000077  0.500153  0.000109  1
  Os  Os9  1  0.500056  0.500112  0.499947  1
  Os  Os10  1  0.749317  0.998635  0.248817  1
  Os  Os11  1  0.250808  0.001617  0.751199  1
