# generated using pymatgen
data_LiTb9Se10
_symmetry_space_group_name_H-M   'P 1'
_cell_length_a   7.04207211
_cell_length_b   8.16824191
_cell_length_c   9.17160246
_cell_angle_alpha   103.40758733
_cell_angle_beta   97.04803344
_cell_angle_gamma   106.64478911
_symmetry_Int_Tables_number   1
_chemical_formula_structural   LiTb9Se10
_chemical_formula_sum   'Li1 Tb9 Se10'
_cell_volume   481.45197461
_cell_formula_units_Z   1
loop_
 _symmetry_equiv_pos_site_id
 _symmetry_equiv_pos_as_xyz
  1  'x, y, z'
loop_
 _atom_site_type_symbol
 _atom_site_label
 _atom_site_symmetry_multiplicity
 _atom_site_fract_x
 _atom_site_fract_y
 _atom_site_fract_z
 _atom_site_occupancy
  Li  Li0  1  0.000000  0.500000  0.000000  1
  Tb  Tb1  1  0.799878  0.600319  0.598159  1
  Tb  Tb2  1  0.598812  0.199774  0.203928  1
  Tb  Tb3  1  0.401188  0.800226  0.796072  1
  Tb  Tb4  1  0.600495  0.703691  0.204938  1
  Tb  Tb5  1  0.200122  0.399681  0.401841  1
  Tb  Tb6  1  0.399505  0.296309  0.795062  1
  Tb  Tb7  1  0.000000  0.000000  0.000000  1
  Tb  Tb8  1  0.201996  0.901793  0.404326  1
  Tb  Tb9  1  0.798004  0.098207  0.595674  1
  Se  Se10  1  0.705630  0.646019  0.903810  1
  Se  Se11  1  0.500851  0.251298  0.499734  1
  Se  Se12  1  0.706827  0.158912  0.904149  1
  Se  Se13  1  0.293173  0.841088  0.095851  1
  Se  Se14  1  0.499149  0.748702  0.500266  1
  Se  Se15  1  0.096282  0.451450  0.708637  1
  Se  Se16  1  0.294370  0.353981  0.096190  1
  Se  Se17  1  0.902786  0.050362  0.298709  1
  Se  Se18  1  0.097214  0.949638  0.701291  1
  Se  Se19  1  0.903718  0.548550  0.291363  1
