# generated using pymatgen
data_Yb2Y(BPt2)3
_symmetry_space_group_name_H-M   'P 1'
_cell_length_a   5.43221600
_cell_length_b   5.42759673
_cell_length_c   7.68414600
_cell_angle_alpha   90.00000000
_cell_angle_beta   90.00000000
_cell_angle_gamma   120.02814502
_symmetry_Int_Tables_number   1
_chemical_formula_structural   Yb2Y(BPt2)3
_chemical_formula_sum   'Yb2 Y1 B3 Pt6'
_cell_volume   196.14967946
_cell_formula_units_Z   1
loop_
 _symmetry_equiv_pos_site_id
 _symmetry_equiv_pos_as_xyz
  1  'x, y, z'
loop_
 _atom_site_type_symbol
 _atom_site_label
 _atom_site_symmetry_multiplicity
 _atom_site_fract_x
 _atom_site_fract_y
 _atom_site_fract_z
 _atom_site_occupancy
  Yb  Yb0  1  0.500000  0.500000  0.835988  1
  Yb  Yb1  1  0.000000  0.500000  0.164012  1
  Y  Y2  1  0.500000  0.000000  0.500000  1
  B  B3  1  0.500000  0.500000  0.331042  1
  B  B4  1  0.500000  0.000000  0.000000  1
  B  B5  1  0.000000  0.500000  0.668958  1
  Pt  Pt6  1  0.150803  0.856159  0.832417  1
  Pt  Pt7  1  0.150022  0.300045  0.500000  1
  Pt  Pt8  1  0.705356  0.856159  0.167583  1
  Pt  Pt9  1  0.849197  0.143841  0.832417  1
  Pt  Pt10  1  0.849978  0.699955  0.500000  1
  Pt  Pt11  1  0.294644  0.143841  0.167583  1
