# generated using pymatgen
data_TbGeF7
_symmetry_space_group_name_H-M   'P 1'
_cell_length_a   5.42751800
_cell_length_b   8.74361659
_cell_length_c   11.70076898
_cell_angle_alpha   62.12405239
_cell_angle_beta   90.00000000
_cell_angle_gamma   90.00000000
_symmetry_Int_Tables_number   1
_chemical_formula_structural   TbGeF7
_chemical_formula_sum   'Tb4 Ge4 F28'
_cell_volume   490.84047929
_cell_formula_units_Z   4
loop_
 _symmetry_equiv_pos_site_id
 _symmetry_equiv_pos_as_xyz
  1  'x, y, z'
loop_
 _atom_site_type_symbol
 _atom_site_label
 _atom_site_symmetry_multiplicity
 _atom_site_fract_x
 _atom_site_fract_y
 _atom_site_fract_z
 _atom_site_occupancy
  Tb  Tb0  1  0.760272  0.809990  0.764454  1
  Tb  Tb1  1  0.260272  0.190010  0.735546  1
  Tb  Tb2  1  0.239728  0.190010  0.235546  1
  Tb  Tb3  1  0.739728  0.809990  0.264454  1
  Ge  Ge4  1  0.757371  0.273743  0.957291  1
  Ge  Ge5  1  0.257371  0.726257  0.542709  1
  Ge  Ge6  1  0.242629  0.726257  0.042709  1
  Ge  Ge7  1  0.742629  0.273743  0.457291  1
  F  F8  1  0.431034  0.705984  0.921573  1
  F  F9  1  0.931034  0.294016  0.578427  1
  F  F10  1  0.568966  0.294016  0.078427  1
  F  F11  1  0.068966  0.705984  0.421573  1
  F  F12  1  0.456301  0.280754  0.539090  1
  F  F13  1  0.956301  0.719246  0.960910  1
  F  F14  1  0.543699  0.719246  0.460910  1
  F  F15  1  0.043699  0.280754  0.039090  1
  F  F16  1  0.773100  0.508881  0.863620  1
  F  F17  1  0.273100  0.491119  0.636380  1
  F  F18  1  0.226900  0.491119  0.136380  1
  F  F19  1  0.726900  0.508881  0.363620  1
  F  F20  1  0.758866  0.038666  0.047250  1
  F  F21  1  0.258866  0.961334  0.452750  1
  F  F22  1  0.241134  0.961334  0.952750  1
  F  F23  1  0.741134  0.038666  0.547250  1
  F  F24  1  0.981010  0.726855  0.631841  1
  F  F25  1  0.481010  0.273145  0.868159  1
  F  F26  1  0.018990  0.273145  0.368159  1
  F  F27  1  0.518990  0.726855  0.131841  1
  F  F28  1  0.056917  0.740820  0.168947  1
  F  F29  1  0.556917  0.259180  0.331053  1
  F  F30  1  0.943083  0.259180  0.831053  1
  F  F31  1  0.443083  0.740820  0.668947  1
  F  F32  1  0.402769  0.967732  0.227047  1
  F  F33  1  0.902769  0.032268  0.272953  1
  F  F34  1  0.597231  0.032268  0.772953  1
  F  F35  1  0.097231  0.967732  0.727047  1
