# generated using pymatgen
data_PrGd2Tm3Ta2O14
_symmetry_space_group_name_H-M   'P 1'
_cell_length_a   6.38883033
_cell_length_b   6.53857899
_cell_length_c   7.61601840
_cell_angle_alpha   106.60463420
_cell_angle_beta   89.77019664
_cell_angle_gamma   97.74614856
_symmetry_Int_Tables_number   1
_chemical_formula_structural   PrGd2Tm3Ta2O14
_chemical_formula_sum   'Pr1 Gd2 Tm3 Ta2 O14'
_cell_volume   301.90191921
_cell_formula_units_Z   1
loop_
 _symmetry_equiv_pos_site_id
 _symmetry_equiv_pos_as_xyz
  1  'x, y, z'
loop_
 _atom_site_type_symbol
 _atom_site_label
 _atom_site_symmetry_multiplicity
 _atom_site_fract_x
 _atom_site_fract_y
 _atom_site_fract_z
 _atom_site_occupancy
  Pr  Pr0  1  0.740169  0.464068  0.117207  1
  Gd  Gd1  1  0.262077  0.547153  0.397191  1
  Gd  Gd2  1  0.263460  0.537698  0.879855  1
  Tm  Tm3  1  0.730385  0.445888  0.604929  1
  Tm  Tm4  1  0.546413  0.991516  0.749252  1
  Tm  Tm5  1  0.453620  0.006195  0.250513  1
  Ta  Ta6  1  0.002944  0.999492  0.998361  1
  Ta  Ta7  1  0.998968  0.002044  0.501588  1
  O  O8  1  0.705823  0.062563  0.477422  1
  O  O9  1  0.925126  0.675577  0.922514  1
  O  O10  1  0.708028  0.060365  0.054426  1
  O  O11  1  0.919635  0.673208  0.418134  1
  O  O12  1  0.914296  0.992012  0.747647  1
  O  O13  1  0.555299  0.338404  0.823851  1
  O  O14  1  0.532399  0.352989  0.346753  1
  O  O15  1  0.473688  0.645132  0.661732  1
  O  O16  1  0.436784  0.659354  0.166112  1
  O  O17  1  0.084674  0.016110  0.254818  1
  O  O18  1  0.070524  0.332518  0.592804  1
  O  O19  1  0.297513  0.936625  0.948256  1
  O  O20  1  0.085808  0.321844  0.062610  1
  O  O21  1  0.292366  0.939244  0.524025  1
