# generated using pymatgen
data_Y2ZrU(NiP2)2
_symmetry_space_group_name_H-M   'P 1'
_cell_length_a   3.89182400
_cell_length_b   3.89182324
_cell_length_c   13.91520500
_cell_angle_alpha   90.00000000
_cell_angle_beta   90.00000000
_cell_angle_gamma   120.00002343
_symmetry_Int_Tables_number   1
_chemical_formula_structural   Y2ZrU(NiP2)2
_chemical_formula_sum   'Y2 Zr1 U1 Ni2 P4'
_cell_volume   182.52671486
_cell_formula_units_Z   1
loop_
 _symmetry_equiv_pos_site_id
 _symmetry_equiv_pos_as_xyz
  1  'x, y, z'
loop_
 _atom_site_type_symbol
 _atom_site_label
 _atom_site_symmetry_multiplicity
 _atom_site_fract_x
 _atom_site_fract_y
 _atom_site_fract_z
 _atom_site_occupancy
  Y  Y0  1  0.333333  0.666667  0.380523  1
  Y  Y1  1  0.666667  0.333333  0.614274  1
  Zr  Zr2  1  0.333333  0.666667  0.112413  1
  U  U3  1  0.666667  0.333333  0.893572  1
  Ni  Ni4  1  0.000000  0.000000  0.230450  1
  Ni  Ni5  1  0.000000  0.000000  0.764375  1
  P  P6  1  0.000000  0.000000  0.497951  1
  P  P7  1  0.000000  0.000000  0.009705  1
  P  P8  1  0.333333  0.666667  0.755788  1
  P  P9  1  0.666667  0.333333  0.240949  1
