# generated using pymatgen
data_Ho3In3AgHgRh
_symmetry_space_group_name_H-M   'P 1'
_cell_length_a   8.02449300
_cell_length_b   8.02449293
_cell_length_c   3.70764600
_cell_angle_alpha   90.00000000
_cell_angle_beta   90.00000000
_cell_angle_gamma   120.00000330
_symmetry_Int_Tables_number   1
_chemical_formula_structural   Ho3In3AgHgRh
_chemical_formula_sum   'Ho3 In3 Ag1 Hg1 Rh1'
_cell_volume   206.75883686
_cell_formula_units_Z   1
loop_
 _symmetry_equiv_pos_site_id
 _symmetry_equiv_pos_as_xyz
  1  'x, y, z'
loop_
 _atom_site_type_symbol
 _atom_site_label
 _atom_site_symmetry_multiplicity
 _atom_site_fract_x
 _atom_site_fract_y
 _atom_site_fract_z
 _atom_site_occupancy
  Ho  Ho0  1  0.969196  0.389494  0.500000  1
  Ho  Ho1  1  0.610506  0.579702  0.500000  1
  Ho  Ho2  1  0.420298  0.030804  0.500000  1
  In  In3  1  0.268474  0.267142  0.000000  1
  In  In4  1  0.998668  0.731526  0.000000  1
  In  In5  1  0.732858  0.001332  0.000000  1
  Ag  Ag6  1  0.000000  0.000000  0.500000  1
  Hg  Hg7  1  0.333333  0.666667  0.000000  1
  Rh  Rh8  1  0.666667  0.333333  0.000000  1
