# generated using pymatgen
data_TbTm5(Al3Os)8
_symmetry_space_group_name_H-M   'P 1'
_cell_length_a   8.79519100
_cell_length_b   8.79671218
_cell_length_c   9.57064600
_cell_angle_alpha   90.00000000
_cell_angle_beta   90.00000000
_cell_angle_gamma   119.99428360
_symmetry_Int_Tables_number   1
_chemical_formula_structural   TbTm5(Al3Os)8
_chemical_formula_sum   'Tb1 Tm5 Al24 Os8'
_cell_volume   641.30194258
_cell_formula_units_Z   1
loop_
 _symmetry_equiv_pos_site_id
 _symmetry_equiv_pos_as_xyz
  1  'x, y, z'
loop_
 _atom_site_type_symbol
 _atom_site_label
 _atom_site_symmetry_multiplicity
 _atom_site_fract_x
 _atom_site_fract_y
 _atom_site_fract_z
 _atom_site_occupancy
  Tb  Tb0  1  0.193118  0.386236  0.250000  1
  Tm  Tm1  1  0.805420  0.610840  0.750000  1
  Tm  Tm2  1  0.610704  0.805642  0.250000  1
  Tm  Tm3  1  0.389120  0.194485  0.750000  1
  Tm  Tm4  1  0.194937  0.805642  0.250000  1
  Tm  Tm5  1  0.805366  0.194485  0.750000  1
  Al  Al6  1  0.333527  0.667054  0.017965  1
  Al  Al7  1  0.666658  0.333316  0.981215  1
  Al  Al8  1  0.666658  0.333316  0.518785  1
  Al  Al9  1  0.333527  0.667054  0.482035  1
  Al  Al10  1  0.163651  0.327302  0.576606  1
  Al  Al11  1  0.836552  0.673104  0.424771  1
  Al  Al12  1  0.673093  0.836238  0.575128  1
  Al  Al13  1  0.836552  0.673104  0.075229  1
  Al  Al14  1  0.327558  0.163759  0.425452  1
  Al  Al15  1  0.163651  0.327302  0.923394  1
  Al  Al16  1  0.163145  0.836238  0.575128  1
  Al  Al17  1  0.327558  0.163759  0.074548  1
  Al  Al18  1  0.836200  0.163759  0.425452  1
  Al  Al19  1  0.673093  0.836238  0.924872  1
  Al  Al20  1  0.836200  0.163759  0.074548  1
  Al  Al21  1  0.163145  0.836238  0.924872  1
  Al  Al22  1  0.561219  0.122438  0.250000  1
  Al  Al23  1  0.438795  0.877590  0.750000  1
  Al  Al24  1  0.877128  0.439425  0.250000  1
  Al  Al25  1  0.122165  0.560937  0.750000  1
  Al  Al26  1  0.562298  0.439425  0.250000  1
  Al  Al27  1  0.438772  0.560937  0.750000  1
  Al  Al28  1  0.999032  0.998063  0.250000  1
  Al  Al29  1  0.999677  0.999354  0.750000  1
  Os  Os30  1  0.500114  0.000228  0.999833  1
  Os  Os31  1  0.999548  0.500408  0.999331  1
  Os  Os32  1  0.500114  0.000228  0.500167  1
  Os  Os33  1  0.500860  0.500408  0.999331  1
  Os  Os34  1  0.999548  0.500408  0.500669  1
  Os  Os35  1  0.500860  0.500408  0.500669  1
  Os  Os36  1  0.000218  0.000436  0.999944  1
  Os  Os37  1  0.000218  0.000436  0.500056  1
