# generated using pymatgen
data_CaTbEr5NiBr12
_symmetry_space_group_name_H-M   'P 1'
_cell_length_a   9.14401294
_cell_length_b   9.14035562
_cell_length_c   9.12406107
_cell_angle_alpha   106.72153145
_cell_angle_beta   106.49098547
_cell_angle_gamma   106.38261676
_symmetry_Int_Tables_number   1
_chemical_formula_structural   CaTbEr5NiBr12
_chemical_formula_sum   'Ca1 Tb1 Er5 Ni1 Br12'
_cell_volume   643.02369698
_cell_formula_units_Z   1
loop_
 _symmetry_equiv_pos_site_id
 _symmetry_equiv_pos_as_xyz
  1  'x, y, z'
loop_
 _atom_site_type_symbol
 _atom_site_label
 _atom_site_symmetry_multiplicity
 _atom_site_fract_x
 _atom_site_fract_y
 _atom_site_fract_z
 _atom_site_occupancy
  Ca  Ca0  1  0.501186  0.498931  0.499943  1
  Tb  Tb1  1  0.021335  0.307669  0.101467  1
  Er  Er2  1  0.899089  0.976905  0.695177  1
  Er  Er3  1  0.695310  0.898778  0.977213  1
  Er  Er4  1  0.978024  0.696911  0.899619  1
  Er  Er5  1  0.100225  0.023863  0.304768  1
  Er  Er6  1  0.303203  0.099288  0.021909  1
  Ni  Ni7  1  0.998718  0.000603  0.999821  1
  Br  Br8  1  0.927197  0.323957  0.777027  1
  Br  Br9  1  0.781184  0.928617  0.324890  1
  Br  Br10  1  0.324318  0.780493  0.928055  1
  Br  Br11  1  0.074231  0.680655  0.220752  1
  Br  Br12  1  0.218175  0.070642  0.675076  1
  Br  Br13  1  0.671271  0.215819  0.070701  1
  Br  Br14  1  0.546375  0.846656  0.625584  1
  Br  Br15  1  0.627466  0.546467  0.848562  1
  Br  Br16  1  0.848317  0.625669  0.545708  1
  Br  Br17  1  0.452907  0.150831  0.373671  1
  Br  Br18  1  0.376268  0.452633  0.152085  1
  Br  Br19  1  0.155201  0.374614  0.457971  1
