# generated using pymatgen
data_Gd2Y2ErSn4
_symmetry_space_group_name_H-M   'P 1'
_cell_length_a   8.12325200
_cell_length_b   8.22579600
_cell_length_c   15.55971300
_cell_angle_alpha   90.00000000
_cell_angle_beta   90.00000000
_cell_angle_gamma   90.00000000
_symmetry_Int_Tables_number   1
_chemical_formula_structural   Gd2Y2ErSn4
_chemical_formula_sum   'Gd8 Y8 Er4 Sn16'
_cell_volume   1039.70334946
_cell_formula_units_Z   4
loop_
 _symmetry_equiv_pos_site_id
 _symmetry_equiv_pos_as_xyz
  1  'x, y, z'
loop_
 _atom_site_type_symbol
 _atom_site_label
 _atom_site_symmetry_multiplicity
 _atom_site_fract_x
 _atom_site_fract_y
 _atom_site_fract_z
 _atom_site_occupancy
  Gd  Gd0  1  0.517206  0.320718  0.903645  1
  Gd  Gd1  1  0.017206  0.179282  0.596355  1
  Gd  Gd2  1  0.482794  0.679282  0.403645  1
  Gd  Gd3  1  0.982794  0.820718  0.096355  1
  Gd  Gd4  1  0.482794  0.679282  0.096355  1
  Gd  Gd5  1  0.982794  0.820718  0.403645  1
  Gd  Gd6  1  0.517206  0.320718  0.596355  1
  Gd  Gd7  1  0.017206  0.179282  0.903645  1
  Y  Y8  1  0.362225  0.837520  0.877370  1
  Y  Y9  1  0.862225  0.662480  0.622630  1
  Y  Y10  1  0.637775  0.162480  0.377370  1
  Y  Y11  1  0.137775  0.337520  0.122630  1
  Y  Y12  1  0.637775  0.162480  0.122630  1
  Y  Y13  1  0.137775  0.337520  0.377370  1
  Y  Y14  1  0.362225  0.837520  0.622630  1
  Y  Y15  1  0.862225  0.662480  0.877370  1
  Er  Er16  1  0.194786  0.500656  0.750000  1
  Er  Er17  1  0.694786  0.999344  0.750000  1
  Er  Er18  1  0.805214  0.499344  0.250000  1
  Er  Er19  1  0.305214  0.000656  0.250000  1
  Sn  Sn20  1  0.297978  0.037410  0.042725  1
  Sn  Sn21  1  0.797978  0.462590  0.457275  1
  Sn  Sn22  1  0.702022  0.962590  0.542725  1
  Sn  Sn23  1  0.202022  0.537410  0.957275  1
  Sn  Sn24  1  0.702022  0.962590  0.957275  1
  Sn  Sn25  1  0.202022  0.537410  0.542725  1
  Sn  Sn26  1  0.297978  0.037410  0.457275  1
  Sn  Sn27  1  0.797978  0.462590  0.042725  1
  Sn  Sn28  1  0.558849  0.620065  0.750000  1
  Sn  Sn29  1  0.058849  0.879935  0.750000  1
  Sn  Sn30  1  0.441151  0.379935  0.250000  1
  Sn  Sn31  1  0.941151  0.120065  0.250000  1
  Sn  Sn32  1  0.325925  0.145887  0.750000  1
  Sn  Sn33  1  0.825925  0.354113  0.750000  1
  Sn  Sn34  1  0.674075  0.854113  0.250000  1
  Sn  Sn35  1  0.174075  0.645887  0.250000  1
