# generated using pymatgen
data_Hf8Ti8Nb4Si15Ge
_symmetry_space_group_name_H-M   'P 1'
_cell_length_a   6.66132943
_cell_length_b   6.81281510
_cell_length_c   12.97572681
_cell_angle_alpha   90.01522227
_cell_angle_beta   90.07400900
_cell_angle_gamma   89.98830083
_symmetry_Int_Tables_number   1
_chemical_formula_structural   Hf8Ti8Nb4Si15Ge
_chemical_formula_sum   'Hf8 Ti8 Nb4 Si15 Ge1'
_cell_volume   588.86917398
_cell_formula_units_Z   1
loop_
 _symmetry_equiv_pos_site_id
 _symmetry_equiv_pos_as_xyz
  1  'x, y, z'
loop_
 _atom_site_type_symbol
 _atom_site_label
 _atom_site_symmetry_multiplicity
 _atom_site_fract_x
 _atom_site_fract_y
 _atom_site_fract_z
 _atom_site_occupancy
  Hf  Hf0  1  0.497956  0.676812  0.596521  1
  Hf  Hf1  1  0.995652  0.825590  0.905309  1
  Hf  Hf2  1  0.504451  0.325700  0.094573  1
  Hf  Hf3  1  0.003548  0.172099  0.405022  1
  Hf  Hf4  1  0.508464  0.322777  0.404081  1
  Hf  Hf5  1  0.004007  0.174264  0.094446  1
  Hf  Hf6  1  0.495905  0.674382  0.905055  1
  Hf  Hf7  1  0.993424  0.827250  0.595908  1
  Ti  Ti8  1  0.659837  0.172523  0.624712  1
  Ti  Ti9  1  0.159805  0.326225  0.875821  1
  Ti  Ti10  1  0.340026  0.826505  0.124030  1
  Ti  Ti11  1  0.837991  0.673305  0.375664  1
  Ti  Ti12  1  0.342706  0.830225  0.374299  1
  Ti  Ti13  1  0.839827  0.673603  0.124015  1
  Ti  Ti14  1  0.659620  0.173886  0.876013  1
  Ti  Ti15  1  0.157448  0.324467  0.625446  1
  Nb  Nb16  1  0.830562  0.496077  0.750277  1
  Nb  Nb17  1  0.330312  0.004053  0.750197  1
  Nb  Nb18  1  0.169312  0.504460  0.248040  1
  Nb  Nb19  1  0.669322  0.996076  0.249834  1
  Si  Si20  1  0.673306  0.960782  0.463333  1
  Si  Si21  1  0.172352  0.538546  0.036801  1
  Si  Si22  1  0.327407  0.038364  0.962804  1
  Si  Si23  1  0.822417  0.460666  0.537658  1
  Si  Si24  1  0.326706  0.038756  0.537109  1
  Si  Si25  1  0.827359  0.461605  0.962767  1
  Si  Si26  1  0.672579  0.961403  0.037042  1
  Si  Si27  1  0.454461  0.382240  0.749999  1
  Si  Si28  1  0.954161  0.117475  0.750908  1
  Si  Si29  1  0.545104  0.617079  0.249563  1
  Si  Si30  1  0.045029  0.881998  0.249926  1
  Si  Si31  1  0.699871  0.866981  0.750913  1
  Si  Si32  1  0.199736  0.633571  0.750081  1
  Si  Si33  1  0.299567  0.134662  0.249345  1
  Si  Si34  1  0.801125  0.366388  0.249764  1
  Ge  Ge35  1  0.178644  0.539203  0.462724  1
