# generated using pymatgen
data_La2CeScBi5
_symmetry_space_group_name_H-M   'P 1'
_cell_length_a   9.76949100
_cell_length_b   9.75474485
_cell_length_c   6.60419100
_cell_angle_alpha   90.00000000
_cell_angle_beta   90.00000000
_cell_angle_gamma   120.05001551
_symmetry_Int_Tables_number   1
_chemical_formula_structural   La2CeScBi5
_chemical_formula_sum   'La4 Ce2 Sc2 Bi10'
_cell_volume   544.77730592
_cell_formula_units_Z   2
loop_
 _symmetry_equiv_pos_site_id
 _symmetry_equiv_pos_as_xyz
  1  'x, y, z'
loop_
 _atom_site_type_symbol
 _atom_site_label
 _atom_site_symmetry_multiplicity
 _atom_site_fract_x
 _atom_site_fract_y
 _atom_site_fract_z
 _atom_site_occupancy
  La  La0  1  0.383731  0.000000  0.750000  1
  La  La1  1  0.616759  0.617212  0.750000  1
  La  La2  1  0.619383  0.000000  0.250000  1
  La  La3  1  0.999547  0.382788  0.750000  1
  Ce  Ce4  1  0.000069  0.619218  0.250000  1
  Ce  Ce5  1  0.380851  0.380782  0.250000  1
  Sc  Sc6  1  0.999576  0.000000  0.998379  1
  Sc  Sc7  1  0.999576  0.000000  0.501621  1
  Bi  Bi8  1  0.003879  0.264545  0.250000  1
  Bi  Bi9  1  0.330981  0.664261  0.497365  1
  Bi  Bi10  1  0.666722  0.335739  0.002635  1
  Bi  Bi11  1  0.330981  0.664261  0.002635  1
  Bi  Bi12  1  0.263258  0.263140  0.750000  1
  Bi  Bi13  1  0.738537  0.000000  0.750000  1
  Bi  Bi14  1  0.000118  0.736860  0.750000  1
  Bi  Bi15  1  0.739335  0.735455  0.250000  1
  Bi  Bi16  1  0.259975  0.000000  0.250000  1
  Bi  Bi17  1  0.666722  0.335739  0.497365  1
