# generated using pymatgen
data_Ac8Yb11EuPb16
_symmetry_space_group_name_H-M   'P 1'
_cell_length_a   8.27687800
_cell_length_b   8.80535369
_cell_length_c   16.63657300
_cell_angle_alpha   90.00000000
_cell_angle_beta   90.00000000
_cell_angle_gamma   90.17203686
_symmetry_Int_Tables_number   1
_chemical_formula_structural   Ac8Yb11EuPb16
_chemical_formula_sum   'Ac8 Yb11 Eu1 Pb16'
_cell_volume   1212.48192040
_cell_formula_units_Z   1
loop_
 _symmetry_equiv_pos_site_id
 _symmetry_equiv_pos_as_xyz
  1  'x, y, z'
loop_
 _atom_site_type_symbol
 _atom_site_label
 _atom_site_symmetry_multiplicity
 _atom_site_fract_x
 _atom_site_fract_y
 _atom_site_fract_z
 _atom_site_occupancy
  Ac  Ac0  1  0.499214  0.316082  0.904641  1
  Ac  Ac1  1  0.999160  0.182812  0.595197  1
  Ac  Ac2  1  0.501096  0.681427  0.405415  1
  Ac  Ac3  1  0.999977  0.816247  0.094505  1
  Ac  Ac4  1  0.501096  0.681427  0.094585  1
  Ac  Ac5  1  0.999977  0.816247  0.405495  1
  Ac  Ac6  1  0.499214  0.316082  0.595359  1
  Ac  Ac7  1  0.999160  0.182812  0.904803  1
  Yb  Yb8  1  0.332487  0.835332  0.876887  1
  Yb  Yb9  1  0.832735  0.665013  0.623244  1
  Yb  Yb10  1  0.668103  0.165800  0.377143  1
  Yb  Yb11  1  0.167050  0.336390  0.123231  1
  Yb  Yb12  1  0.668103  0.165800  0.122857  1
  Yb  Yb13  1  0.167050  0.336390  0.376769  1
  Yb  Yb14  1  0.332487  0.835332  0.623113  1
  Yb  Yb15  1  0.832735  0.665013  0.876756  1
  Yb  Yb16  1  0.166650  0.505396  0.750000  1
  Yb  Yb17  1  0.666393  0.994066  0.750000  1
  Yb  Yb18  1  0.833676  0.494628  0.250000  1
  Eu  Eu19  1  0.333941  0.008842  0.250000  1
  Pb  Pb20  1  0.328923  0.041447  0.041287  1
  Pb  Pb21  1  0.829193  0.457897  0.459057  1
  Pb  Pb22  1  0.671168  0.958275  0.541135  1
  Pb  Pb23  1  0.171874  0.541066  0.958529  1
  Pb  Pb24  1  0.671168  0.958275  0.958865  1
  Pb  Pb25  1  0.171874  0.541066  0.541471  1
  Pb  Pb26  1  0.328923  0.041447  0.458713  1
  Pb  Pb27  1  0.829193  0.457897  0.040943  1
  Pb  Pb28  1  0.532417  0.615822  0.750000  1
  Pb  Pb29  1  0.032125  0.884143  0.750000  1
  Pb  Pb30  1  0.468506  0.386940  0.250000  1
  Pb  Pb31  1  0.963941  0.117265  0.250000  1
  Pb  Pb32  1  0.295855  0.136787  0.750000  1
  Pb  Pb33  1  0.795839  0.362918  0.750000  1
  Pb  Pb34  1  0.705091  0.860348  0.250000  1
  Pb  Pb35  1  0.203602  0.637273  0.250000  1
