# generated using pymatgen
data_Ce4In2CuRuRh2
_symmetry_space_group_name_H-M   'P 1'
_cell_length_a   7.66287518
_cell_length_b   7.67684308
_cell_length_c   3.74956900
_cell_angle_alpha   90.00000000
_cell_angle_beta   90.00000000
_cell_angle_gamma   89.39651844
_symmetry_Int_Tables_number   1
_chemical_formula_structural   Ce4In2CuRuRh2
_chemical_formula_sum   'Ce4 In2 Cu1 Ru1 Rh2'
_cell_volume   220.56249922
_cell_formula_units_Z   1
loop_
 _symmetry_equiv_pos_site_id
 _symmetry_equiv_pos_as_xyz
  1  'x, y, z'
loop_
 _atom_site_type_symbol
 _atom_site_label
 _atom_site_symmetry_multiplicity
 _atom_site_fract_x
 _atom_site_fract_y
 _atom_site_fract_z
 _atom_site_occupancy
  Ce  Ce0  1  0.674337  0.170878  0.500000  1
  Ce  Ce1  1  0.343228  0.838365  0.500000  1
  Ce  Ce2  1  0.165224  0.319317  0.500000  1
  Ce  Ce3  1  0.813199  0.673881  0.500000  1
  In  In4  1  0.001451  0.994154  0.000000  1
  In  In5  1  0.493273  0.500418  0.000000  1
  Cu  Cu6  1  0.127159  0.628772  0.000000  1
  Ru  Ru7  1  0.640582  0.859400  0.000000  1
  Rh  Rh8  1  0.877225  0.375863  0.000000  1
  Rh  Rh9  1  0.364321  0.138951  0.000000  1
