# generated using pymatgen
data_LaBi3Rh4F28
_symmetry_space_group_name_H-M   'P 1'
_cell_length_a   5.64011777
_cell_length_b   9.20966173
_cell_length_c   12.19872957
_cell_angle_alpha   61.98813831
_cell_angle_beta   90.14995356
_cell_angle_gamma   89.89316080
_symmetry_Int_Tables_number   1
_chemical_formula_structural   LaBi3Rh4F28
_chemical_formula_sum   'La1 Bi3 Rh4 F28'
_cell_volume   559.40894947
_cell_formula_units_Z   1
loop_
 _symmetry_equiv_pos_site_id
 _symmetry_equiv_pos_as_xyz
  1  'x, y, z'
loop_
 _atom_site_type_symbol
 _atom_site_label
 _atom_site_symmetry_multiplicity
 _atom_site_fract_x
 _atom_site_fract_y
 _atom_site_fract_z
 _atom_site_occupancy
  La  La0  1  0.739512  0.807207  0.265434  1
  Bi  Bi1  1  0.764259  0.815313  0.762161  1
  Bi  Bi2  1  0.264145  0.185177  0.737116  1
  Bi  Bi3  1  0.232285  0.185249  0.236815  1
  Rh  Rh4  1  0.758011  0.274655  0.956209  1
  Rh  Rh5  1  0.257031  0.726917  0.545001  1
  Rh  Rh6  1  0.244016  0.727474  0.038913  1
  Rh  Rh7  1  0.742796  0.269594  0.459883  1
  F  F8  1  0.430628  0.707700  0.912662  1
  F  F9  1  0.932044  0.290620  0.585861  1
  F  F10  1  0.571436  0.292031  0.082985  1
  F  F11  1  0.070901  0.707975  0.417061  1
  F  F12  1  0.445246  0.277992  0.542824  1
  F  F13  1  0.944338  0.721207  0.957351  1
  F  F14  1  0.550422  0.718988  0.462099  1
  F  F15  1  0.055768  0.280538  0.040555  1
  F  F16  1  0.769242  0.510997  0.862016  1
  F  F17  1  0.267244  0.490289  0.639386  1
  F  F18  1  0.232735  0.491986  0.134820  1
  F  F19  1  0.731603  0.507784  0.364250  1
  F  F20  1  0.758069  0.036866  0.047210  1
  F  F21  1  0.259020  0.966167  0.451880  1
  F  F22  1  0.243062  0.967329  0.948616  1
  F  F23  1  0.742597  0.029657  0.551198  1
  F  F24  1  0.964438  0.729721  0.630609  1
  F  F25  1  0.467261  0.271966  0.868439  1
  F  F26  1  0.032906  0.270016  0.371567  1
  F  F27  1  0.533244  0.729042  0.126868  1
  F  F28  1  0.062333  0.743132  0.169272  1
  F  F29  1  0.559485  0.255272  0.329648  1
  F  F30  1  0.941929  0.257979  0.826247  1
  F  F31  1  0.440225  0.743384  0.675304  1
  F  F32  1  0.393074  0.972590  0.228198  1
  F  F33  1  0.907396  0.037085  0.271036  1
  F  F34  1  0.595320  0.030076  0.771483  1
  F  F35  1  0.095979  0.970024  0.729021  1
