# generated using pymatgen
data_LuFe(BrO3)6
_symmetry_space_group_name_H-M   'P 1'
_cell_length_a   9.41753900
_cell_length_b   9.41753837
_cell_length_c   5.79487800
_cell_angle_alpha   90.00000000
_cell_angle_beta   90.00000000
_cell_angle_gamma   119.99999355
_symmetry_Int_Tables_number   1
_chemical_formula_structural   LuFe(BrO3)6
_chemical_formula_sum   'Lu1 Fe1 Br6 O18'
_cell_volume   445.09199425
_cell_formula_units_Z   1
loop_
 _symmetry_equiv_pos_site_id
 _symmetry_equiv_pos_as_xyz
  1  'x, y, z'
loop_
 _atom_site_type_symbol
 _atom_site_label
 _atom_site_symmetry_multiplicity
 _atom_site_fract_x
 _atom_site_fract_y
 _atom_site_fract_z
 _atom_site_occupancy
  Lu  Lu0  1  0.333333  0.666667  0.189463  1
  Fe  Fe1  1  0.666667  0.333333  0.698992  1
  Br  Br2  1  0.685212  0.033793  0.372345  1
  Br  Br3  1  0.328684  0.990700  0.856266  1
  Br  Br4  1  0.009300  0.337982  0.856266  1
  Br  Br5  1  0.348580  0.314788  0.372345  1
  Br  Br6  1  0.966207  0.651420  0.372345  1
  Br  Br7  1  0.662018  0.671316  0.856266  1
  O  O8  1  0.778339  0.818376  0.034823  1
  O  O9  1  0.936047  0.770990  0.545510  1
  O  O10  1  0.834943  0.063953  0.545510  1
  O  O11  1  0.181624  0.959963  0.034823  1
  O  O12  1  0.040037  0.221661  0.034823  1
  O  O13  1  0.229010  0.165057  0.545510  1
  O  O14  1  0.713744  0.522141  0.914059  1
  O  O15  1  0.167167  0.705767  0.417138  1
  O  O16  1  0.543569  0.412999  0.493049  1
  O  O17  1  0.114852  0.532930  0.969793  1
  O  O18  1  0.418079  0.885148  0.969793  1
  O  O19  1  0.587001  0.130569  0.493049  1
  O  O20  1  0.869431  0.456431  0.493049  1
  O  O21  1  0.467070  0.581921  0.969793  1
  O  O22  1  0.294233  0.461400  0.417138  1
  O  O23  1  0.808397  0.286256  0.914059  1
  O  O24  1  0.477859  0.191603  0.914059  1
  O  O25  1  0.538600  0.832833  0.417138  1
