# generated using pymatgen
data_Y10Si16Hg
_symmetry_space_group_name_H-M   'P 1'
_cell_length_a   11.13300752
_cell_length_b   11.07748430
_cell_length_c   11.13300790
_cell_angle_alpha   144.52507452
_cell_angle_beta   136.00578919
_cell_angle_gamma   57.83405694
_symmetry_Int_Tables_number   1
_chemical_formula_structural   Y10Si16Hg
_chemical_formula_sum   'Y10 Si16 Hg1'
_cell_volume   548.55658099
_cell_formula_units_Z   1
loop_
 _symmetry_equiv_pos_site_id
 _symmetry_equiv_pos_as_xyz
  1  'x, y, z'
loop_
 _atom_site_type_symbol
 _atom_site_label
 _atom_site_symmetry_multiplicity
 _atom_site_fract_x
 _atom_site_fract_y
 _atom_site_fract_z
 _atom_site_occupancy
  Y  Y0  1  0.754835  0.760482  0.516141  1
  Y  Y1  1  0.443877  0.969329  0.015863  1
  Y  Y2  1  0.849546  0.366108  0.018832  1
  Y  Y3  1  0.953464  0.969329  0.525451  1
  Y  Y4  1  0.151862  0.165898  0.518802  1
  Y  Y5  1  0.347277  0.366108  0.516563  1
  Y  Y6  1  0.244340  0.760482  0.005647  1
  Y  Y7  1  0.545170  0.560318  0.498469  1
  Y  Y8  1  0.061849  0.560318  0.015148  1
  Y  Y9  1  0.647096  0.165898  0.014035  1
  Si  Si10  1  0.199279  0.581626  0.382344  1
  Si  Si11  1  0.000309  0.082058  0.081749  1
  Si  Si12  1  0.699948  0.281617  0.581671  1
  Si  Si13  1  0.800896  0.176519  0.375624  1
  Si  Si14  1  0.895815  0.505596  0.609780  1
  Si  Si15  1  0.416830  0.869612  0.452783  1
  Si  Si16  1  0.103490  0.713578  0.610088  1
  Si  Si17  1  0.301195  0.896741  0.595546  1
  Si  Si18  1  0.582849  0.040872  0.458024  1
  Si  Si19  1  0.999263  0.429755  0.430492  1
  Si  Si20  1  0.879715  0.842392  0.962678  1
  Si  Si21  1  0.400032  0.499146  0.099114  1
  Si  Si22  1  0.120047  0.087671  0.967626  1
  Si  Si23  1  0.286182  0.238166  0.951985  1
  Si  Si24  1  0.499436  0.391527  0.892091  1
  Si  Si25  1  0.596986  0.704108  0.107122  1
  Hg  Hg26  1  0.718411  0.676244  0.957834  1
