# generated using pymatgen
data_DyTmZn(PRh2)6
_symmetry_space_group_name_H-M   'P 1'
_cell_length_a   9.65622000
_cell_length_b   9.65621979
_cell_length_c   3.88731800
_cell_angle_alpha   90.00000000
_cell_angle_beta   90.00000000
_cell_angle_gamma   120.00000758
_symmetry_Int_Tables_number   1
_chemical_formula_structural   DyTmZn(PRh2)6
_chemical_formula_sum   'Dy1 Tm1 Zn1 P6 Rh12'
_cell_volume   313.90263539
_cell_formula_units_Z   1
loop_
 _symmetry_equiv_pos_site_id
 _symmetry_equiv_pos_as_xyz
  1  'x, y, z'
loop_
 _atom_site_type_symbol
 _atom_site_label
 _atom_site_symmetry_multiplicity
 _atom_site_fract_x
 _atom_site_fract_y
 _atom_site_fract_z
 _atom_site_occupancy
  Dy  Dy0  1  0.666667  0.333333  0.246504  1
  Tm  Tm1  1  0.333333  0.666667  0.753507  1
  Zn  Zn2  1  0.000000  0.000000  0.500227  1
  P  P3  1  0.401847  0.284544  0.748445  1
  P  P4  1  0.715456  0.117303  0.748445  1
  P  P5  1  0.882697  0.598153  0.748445  1
  P  P6  1  0.597614  0.715254  0.251551  1
  P  P7  1  0.284746  0.882360  0.251551  1
  P  P8  1  0.117640  0.402386  0.251551  1
  Rh  Rh9  1  0.452043  0.065498  0.749109  1
  Rh  Rh10  1  0.934502  0.386544  0.749109  1
  Rh  Rh11  1  0.613456  0.547957  0.749109  1
  Rh  Rh12  1  0.546768  0.932803  0.250897  1
  Rh  Rh13  1  0.067197  0.613964  0.250897  1
  Rh  Rh14  1  0.386036  0.453232  0.250897  1
  Rh  Rh15  1  0.158866  0.284150  0.753395  1
  Rh  Rh16  1  0.715850  0.874718  0.753395  1
  Rh  Rh17  1  0.125282  0.841134  0.753395  1
  Rh  Rh18  1  0.841221  0.716257  0.246524  1
  Rh  Rh19  1  0.283743  0.124963  0.246524  1
  Rh  Rh20  1  0.875037  0.158779  0.246524  1
