# generated using pymatgen
data_Tb2Er3Si6P6Ir19
_symmetry_space_group_name_H-M   'P 1'
_cell_length_a   12.80090000
_cell_length_b   12.80089912
_cell_length_c   3.95113700
_cell_angle_alpha   90.00000000
_cell_angle_beta   90.00000000
_cell_angle_gamma   120.00000744
_symmetry_Int_Tables_number   1
_chemical_formula_structural   Tb2Er3Si6P6Ir19
_chemical_formula_sum   'Tb2 Er3 Si6 P6 Ir19'
_cell_volume   560.70401721
_cell_formula_units_Z   1
loop_
 _symmetry_equiv_pos_site_id
 _symmetry_equiv_pos_as_xyz
  1  'x, y, z'
loop_
 _atom_site_type_symbol
 _atom_site_label
 _atom_site_symmetry_multiplicity
 _atom_site_fract_x
 _atom_site_fract_y
 _atom_site_fract_z
 _atom_site_occupancy
  Tb  Tb0  1  0.666667  0.333333  0.000000  1
  Tb  Tb1  1  0.333333  0.666667  0.000000  1
  Er  Er2  1  0.816628  0.814813  0.500000  1
  Er  Er3  1  0.185187  0.001815  0.500000  1
  Er  Er4  1  0.998185  0.183372  0.500000  1
  Si  Si5  1  0.682037  0.162515  0.500000  1
  Si  Si6  1  0.837485  0.519522  0.500000  1
  Si  Si7  1  0.480478  0.317963  0.500000  1
  Si  Si8  1  0.636622  0.635840  0.000000  1
  Si  Si9  1  0.364160  0.000782  0.000000  1
  Si  Si10  1  0.999218  0.363378  0.000000  1
  P  P11  1  0.177496  0.693849  0.500000  1
  P  P12  1  0.516353  0.822504  0.500000  1
  P  P13  1  0.306151  0.483647  0.500000  1
  P  P14  1  0.176018  0.180036  0.000000  1
  P  P15  1  0.819964  0.995981  0.000000  1
  P  P16  1  0.004019  0.823982  0.000000  1
  Ir  Ir17  1  0.809190  0.175705  0.000000  1
  Ir  Ir18  1  0.824295  0.633486  0.000000  1
  Ir  Ir19  1  0.366514  0.190810  0.000000  1
  Ir  Ir20  1  0.182669  0.801356  0.000000  1
  Ir  Ir21  1  0.618687  0.817331  0.000000  1
  Ir  Ir22  1  0.198644  0.381313  0.000000  1
  Ir  Ir23  1  0.457859  0.443356  0.000000  1
  Ir  Ir24  1  0.556644  0.014503  0.000000  1
  Ir  Ir25  1  0.985497  0.542141  0.000000  1
  Ir  Ir26  1  0.277533  0.284099  0.500000  1
  Ir  Ir27  1  0.715901  0.993434  0.500000  1
  Ir  Ir28  1  0.006566  0.722467  0.500000  1
  Ir  Ir29  1  0.869255  0.353383  0.500000  1
  Ir  Ir30  1  0.646617  0.515873  0.500000  1
  Ir  Ir31  1  0.484127  0.130745  0.500000  1
  Ir  Ir32  1  0.368211  0.874024  0.500000  1
  Ir  Ir33  1  0.505814  0.631789  0.500000  1
  Ir  Ir34  1  0.125976  0.494186  0.500000  1
  Ir  Ir35  1  0.000000  0.000000  0.000000  1
