# generated using pymatgen
data_Hf12CuTc6Ru5
_symmetry_space_group_name_H-M   'P 1'
_cell_length_a   4.60566300
_cell_length_b   6.51300100
_cell_length_c   13.81311200
_cell_angle_alpha   90.00000415
_cell_angle_beta   90.00012857
_cell_angle_gamma   90.00044385
_symmetry_Int_Tables_number   1
_chemical_formula_structural   Hf12CuTc6Ru5
_chemical_formula_sum   'Hf12 Cu1 Tc6 Ru5'
_cell_volume   414.34760716
_cell_formula_units_Z   1
loop_
 _symmetry_equiv_pos_site_id
 _symmetry_equiv_pos_as_xyz
  1  'x, y, z'
loop_
 _atom_site_type_symbol
 _atom_site_label
 _atom_site_symmetry_multiplicity
 _atom_site_fract_x
 _atom_site_fract_y
 _atom_site_fract_z
 _atom_site_occupancy
  Hf  Hf0  1  0.500000  0.244966  0.000000  1
  Hf  Hf1  1  0.500004  0.755034  0.000000  1
  Hf  Hf2  1  0.999989  0.246919  0.168872  1
  Hf  Hf3  1  0.999991  0.753081  0.168872  1
  Hf  Hf4  1  0.499994  0.249996  0.333491  1
  Hf  Hf5  1  0.499991  0.750005  0.333491  1
  Hf  Hf6  1  0.000001  0.249543  0.500000  1
  Hf  Hf7  1  0.999999  0.750458  0.500000  1
  Hf  Hf8  1  0.500010  0.249995  0.666509  1
  Hf  Hf9  1  0.500007  0.750004  0.666509  1
  Hf  Hf10  1  0.000009  0.246919  0.831128  1
  Hf  Hf11  1  0.000011  0.753081  0.831128  1
  Cu  Cu12  1  0.000000  0.500001  0.000000  1
  Tc  Tc13  1  0.000000  0.000000  0.000000  1
  Tc  Tc14  1  0.499986  0.500001  0.163735  1
  Tc  Tc15  1  0.999992  0.000000  0.333073  1
  Tc  Tc16  1  0.500002  0.500001  0.500000  1
  Tc  Tc17  1  0.000008  0.000000  0.666927  1
  Tc  Tc18  1  0.500013  0.500001  0.836265  1
  Ru  Ru19  1  0.499990  0.000001  0.166360  1
  Ru  Ru20  1  0.999996  0.500001  0.332483  1
  Ru  Ru21  1  0.500002  0.000000  0.500000  1
  Ru  Ru22  1  0.000004  0.500001  0.667516  1
  Ru  Ru23  1  0.500011  0.000000  0.833640  1
