# generated using pymatgen
data_Lu10SiSn6Au
_symmetry_space_group_name_H-M   'P 1'
_cell_length_a   8.97497300
_cell_length_b   8.97497358
_cell_length_c   6.47373000
_cell_angle_alpha   90.00000000
_cell_angle_beta   90.00000000
_cell_angle_gamma   120.00000154
_symmetry_Int_Tables_number   1
_chemical_formula_structural   Lu10SiSn6Au
_chemical_formula_sum   'Lu10 Si1 Sn6 Au1'
_cell_volume   451.59750819
_cell_formula_units_Z   1
loop_
 _symmetry_equiv_pos_site_id
 _symmetry_equiv_pos_as_xyz
  1  'x, y, z'
loop_
 _atom_site_type_symbol
 _atom_site_label
 _atom_site_symmetry_multiplicity
 _atom_site_fract_x
 _atom_site_fract_y
 _atom_site_fract_z
 _atom_site_occupancy
  Lu  Lu0  1  0.666667  0.333333  0.000000  1
  Lu  Lu1  1  0.333333  0.666667  0.000000  1
  Lu  Lu2  1  0.333333  0.666667  0.500000  1
  Lu  Lu3  1  0.666667  0.333333  0.500000  1
  Lu  Lu4  1  0.740569  0.740569  0.732684  1
  Lu  Lu5  1  0.259431  0.000000  0.732684  1
  Lu  Lu6  1  0.000000  0.259431  0.732684  1
  Lu  Lu7  1  0.259431  0.259431  0.267316  1
  Lu  Lu8  1  0.740569  0.000000  0.267316  1
  Lu  Lu9  1  0.000000  0.740569  0.267316  1
  Si  Si10  1  0.000000  0.000000  0.500000  1
  Sn  Sn11  1  0.390595  0.390595  0.753129  1
  Sn  Sn12  1  0.609405  0.000000  0.753129  1
  Sn  Sn13  1  0.000000  0.609405  0.753129  1
  Sn  Sn14  1  0.609405  0.609405  0.246871  1
  Sn  Sn15  1  0.390595  0.000000  0.246871  1
  Sn  Sn16  1  0.000000  0.390595  0.246871  1
  Au  Au17  1  0.000000  0.000000  0.000000  1
