# generated using pymatgen
data_Au3ClF20
_symmetry_space_group_name_H-M   'P 1'
_cell_length_a   5.90671700
_cell_length_b   7.81693723
_cell_length_c   8.71871735
_cell_angle_alpha   89.42013698
_cell_angle_beta   90.00000000
_cell_angle_gamma   90.00000000
_symmetry_Int_Tables_number   1
_chemical_formula_structural   Au3ClF20
_chemical_formula_sum   'Au3 Cl1 F20'
_cell_volume   402.54380300
_cell_formula_units_Z   1
loop_
 _symmetry_equiv_pos_site_id
 _symmetry_equiv_pos_as_xyz
  1  'x, y, z'
loop_
 _atom_site_type_symbol
 _atom_site_label
 _atom_site_symmetry_multiplicity
 _atom_site_fract_x
 _atom_site_fract_y
 _atom_site_fract_z
 _atom_site_occupancy
  Au  Au0  1  0.250000  0.597552  0.738888  1
  Au  Au1  1  0.250000  0.089162  0.262131  1
  Au  Au2  1  0.750000  0.903902  0.750198  1
  Cl  Cl3  1  0.750000  0.420467  0.246365  1
  F  F4  1  0.750000  0.523070  0.416316  1
  F  F5  1  0.250000  0.219623  0.070225  1
  F  F6  1  0.250000  0.709856  0.936742  1
  F  F7  1  0.250000  0.963781  0.455483  1
  F  F8  1  0.016276  0.245530  0.346742  1
  F  F9  1  0.250000  0.492564  0.537638  1
  F  F10  1  0.750000  0.033642  0.559372  1
  F  F11  1  0.017501  0.444274  0.806612  1
  F  F12  1  0.549015  0.545709  0.188674  1
  F  F13  1  0.950985  0.545709  0.188674  1
  F  F14  1  0.482499  0.444274  0.806612  1
  F  F15  1  0.750000  0.327208  0.073766  1
  F  F16  1  0.483724  0.245530  0.346742  1
  F  F17  1  0.481830  0.939210  0.186181  1
  F  F18  1  0.750000  0.764207  0.935949  1
  F  F19  1  0.518166  0.049352  0.828948  1
  F  F20  1  0.981834  0.049352  0.828948  1
  F  F21  1  0.998345  0.753409  0.651305  1
  F  F22  1  0.501655  0.753409  0.651305  1
  F  F23  1  0.018170  0.939210  0.186181  1
