# generated using pymatgen
data_TbHo3(InGa2)2
_symmetry_space_group_name_H-M   'P 1'
_cell_length_a   7.21149367
_cell_length_b   7.21149367
_cell_length_c   4.43644900
_cell_angle_alpha   90.00000000
_cell_angle_beta   90.00000000
_cell_angle_gamma   89.71904636
_symmetry_Int_Tables_number   1
_chemical_formula_structural   TbHo3(InGa2)2
_chemical_formula_sum   'Tb1 Ho3 In2 Ga4'
_cell_volume   230.71760029
_cell_formula_units_Z   1
loop_
 _symmetry_equiv_pos_site_id
 _symmetry_equiv_pos_as_xyz
  1  'x, y, z'
loop_
 _atom_site_type_symbol
 _atom_site_label
 _atom_site_symmetry_multiplicity
 _atom_site_fract_x
 _atom_site_fract_y
 _atom_site_fract_z
 _atom_site_occupancy
  Tb  Tb0  1  0.327800  0.827800  0.500000  1
  Ho  Ho1  1  0.827728  0.671757  0.500000  1
  Ho  Ho2  1  0.171757  0.327728  0.500000  1
  Ho  Ho3  1  0.672704  0.172704  0.500000  1
  In  In4  1  0.999701  0.000316  0.000000  1
  In  In5  1  0.500316  0.499701  0.000000  1
  Ga  Ga6  1  0.125473  0.625473  0.000000  1
  Ga  Ga7  1  0.627245  0.873803  0.000000  1
  Ga  Ga8  1  0.373803  0.127245  0.000000  1
  Ga  Ga9  1  0.873473  0.373473  0.000000  1
