# generated using pymatgen
data_K2EuZr3Se8
_symmetry_space_group_name_H-M   'P 1'
_cell_length_a   6.82002100
_cell_length_b   7.90865000
_cell_length_c   16.30696200
_cell_angle_alpha   90.00000000
_cell_angle_beta   90.00000000
_cell_angle_gamma   90.00000000
_symmetry_Int_Tables_number   1
_chemical_formula_structural   K2EuZr3Se8
_chemical_formula_sum   'K4 Eu2 Zr6 Se16'
_cell_volume   879.55120353
_cell_formula_units_Z   2
loop_
 _symmetry_equiv_pos_site_id
 _symmetry_equiv_pos_as_xyz
  1  'x, y, z'
loop_
 _atom_site_type_symbol
 _atom_site_label
 _atom_site_symmetry_multiplicity
 _atom_site_fract_x
 _atom_site_fract_y
 _atom_site_fract_z
 _atom_site_occupancy
  K  K0  1  0.332638  0.000000  0.000000  1
  K  K1  1  0.650756  0.500000  0.500000  1
  K  K2  1  0.022051  0.000000  0.500000  1
  K  K3  1  0.978080  0.500000  0.000000  1
  Eu  Eu4  1  0.001356  0.000000  0.246847  1
  Eu  Eu5  1  0.001356  0.000000  0.753153  1
  Zr  Zr6  1  0.998481  0.500000  0.252581  1
  Zr  Zr7  1  0.998481  0.500000  0.747419  1
  Zr  Zr8  1  0.498851  0.247897  0.250319  1
  Zr  Zr9  1  0.498851  0.752103  0.749681  1
  Zr  Zr10  1  0.498851  0.752103  0.250319  1
  Zr  Zr11  1  0.498851  0.247897  0.749681  1
  Se  Se12  1  0.823504  0.264877  0.348552  1
  Se  Se13  1  0.823504  0.735123  0.651448  1
  Se  Se14  1  0.181182  0.728706  0.151450  1
  Se  Se15  1  0.181182  0.271294  0.848550  1
  Se  Se16  1  0.181182  0.271294  0.151450  1
  Se  Se17  1  0.181182  0.728706  0.848550  1
  Se  Se18  1  0.823504  0.735123  0.348552  1
  Se  Se19  1  0.823504  0.264877  0.651448  1
  Se  Se20  1  0.639022  0.000000  0.151599  1
  Se  Se21  1  0.639022  0.000000  0.848401  1
  Se  Se22  1  0.329320  0.500000  0.345024  1
  Se  Se23  1  0.329320  0.500000  0.654976  1
  Se  Se24  1  0.363102  0.000000  0.349166  1
  Se  Se25  1  0.363102  0.000000  0.650834  1
  Se  Se26  1  0.669884  0.500000  0.157247  1
  Se  Se27  1  0.669884  0.500000  0.842753  1
