# generated using pymatgen
data_Ta3Si2TcC
_symmetry_space_group_name_H-M   'P 1'
_cell_length_a   8.20627644
_cell_length_b   8.20627581
_cell_length_c   8.20627500
_cell_angle_alpha   59.99999922
_cell_angle_beta   60.00000179
_cell_angle_gamma   59.99999863
_symmetry_Int_Tables_number   1
_chemical_formula_structural   Ta3Si2TcC
_chemical_formula_sum   'Ta12 Si8 Tc4 C4'
_cell_volume   390.77189385
_cell_formula_units_Z   4
loop_
 _symmetry_equiv_pos_site_id
 _symmetry_equiv_pos_as_xyz
  1  'x, y, z'
loop_
 _atom_site_type_symbol
 _atom_site_label
 _atom_site_symmetry_multiplicity
 _atom_site_fract_x
 _atom_site_fract_y
 _atom_site_fract_z
 _atom_site_occupancy
  Ta  Ta0  1  0.557925  0.942075  0.557925  1
  Ta  Ta1  1  0.307925  0.692075  0.692075  1
  Ta  Ta2  1  0.692075  0.307925  0.307925  1
  Ta  Ta3  1  0.307925  0.692075  0.307925  1
  Ta  Ta4  1  0.692075  0.692075  0.307925  1
  Ta  Ta5  1  0.307925  0.307925  0.692075  1
  Ta  Ta6  1  0.557925  0.557925  0.942075  1
  Ta  Ta7  1  0.942075  0.557925  0.557925  1
  Ta  Ta8  1  0.557925  0.942075  0.942075  1
  Ta  Ta9  1  0.942075  0.942075  0.557925  1
  Ta  Ta10  1  0.692075  0.307925  0.692075  1
  Ta  Ta11  1  0.942075  0.557925  0.942075  1
  Si  Si12  1  0.914131  0.914131  0.914131  1
  Si  Si13  1  0.992392  0.335869  0.335869  1
  Si  Si14  1  0.335869  0.992392  0.335869  1
  Si  Si15  1  0.335869  0.335869  0.992392  1
  Si  Si16  1  0.914131  0.257608  0.914131  1
  Si  Si17  1  0.914131  0.914131  0.257608  1
  Si  Si18  1  0.257608  0.914131  0.914131  1
  Si  Si19  1  0.335869  0.335869  0.335869  1
  Tc  Tc20  1  0.125000  0.125000  0.125000  1
  Tc  Tc21  1  0.625000  0.125000  0.125000  1
  Tc  Tc22  1  0.125000  0.625000  0.125000  1
  Tc  Tc23  1  0.125000  0.125000  0.625000  1
  C  C24  1  0.625000  0.625000  0.625000  1
  C  C25  1  0.125000  0.625000  0.625000  1
  C  C26  1  0.625000  0.125000  0.625000  1
  C  C27  1  0.625000  0.625000  0.125000  1
