# generated using pymatgen
data_PrNd2Se3N
_symmetry_space_group_name_H-M   'P 1'
_cell_length_a   4.14550000
_cell_length_b   12.96652300
_cell_length_c   13.55618900
_cell_angle_alpha   90.00000000
_cell_angle_beta   90.00000000
_cell_angle_gamma   90.00000000
_symmetry_Int_Tables_number   1
_chemical_formula_structural   PrNd2Se3N
_chemical_formula_sum   'Pr4 Nd8 Se12 N4'
_cell_volume   728.68204645
_cell_formula_units_Z   4
loop_
 _symmetry_equiv_pos_site_id
 _symmetry_equiv_pos_as_xyz
  1  'x, y, z'
loop_
 _atom_site_type_symbol
 _atom_site_label
 _atom_site_symmetry_multiplicity
 _atom_site_fract_x
 _atom_site_fract_y
 _atom_site_fract_z
 _atom_site_occupancy
  Pr  Pr0  1  0.250000  0.711026  0.863674  1
  Pr  Pr1  1  0.750000  0.288974  0.136326  1
  Pr  Pr2  1  0.750000  0.788974  0.363674  1
  Pr  Pr3  1  0.250000  0.211026  0.636326  1
  Nd  Nd4  1  0.250000  0.570424  0.632409  1
  Nd  Nd5  1  0.750000  0.429576  0.367591  1
  Nd  Nd6  1  0.750000  0.929576  0.132409  1
  Nd  Nd7  1  0.250000  0.070424  0.867591  1
  Nd  Nd8  1  0.250000  0.539707  0.152465  1
  Nd  Nd9  1  0.750000  0.460293  0.847535  1
  Nd  Nd10  1  0.750000  0.960293  0.652465  1
  Nd  Nd11  1  0.250000  0.039707  0.347535  1
  Se  Se12  1  0.250000  0.774120  0.189257  1
  Se  Se13  1  0.750000  0.225880  0.810743  1
  Se  Se14  1  0.750000  0.725880  0.689257  1
  Se  Se15  1  0.250000  0.274120  0.310743  1
  Se  Se16  1  0.250000  0.091175  0.108411  1
  Se  Se17  1  0.750000  0.908825  0.891589  1
  Se  Se18  1  0.750000  0.408825  0.608411  1
  Se  Se19  1  0.250000  0.591175  0.391589  1
  Se  Se20  1  0.250000  0.869391  0.497939  1
  Se  Se21  1  0.750000  0.130609  0.502061  1
  Se  Se22  1  0.750000  0.630609  0.997939  1
  Se  Se23  1  0.250000  0.369391  0.002061  1
  N  N24  1  0.250000  0.541856  0.797470  1
  N  N25  1  0.750000  0.458144  0.202530  1
  N  N26  1  0.750000  0.958144  0.297470  1
  N  N27  1  0.250000  0.041856  0.702530  1
