# generated using pymatgen
data_La2NdTi(Co4P3)2
_symmetry_space_group_name_H-M   'P 1'
_cell_length_a   3.78928000
_cell_length_b   10.79926600
_cell_length_c   12.54985500
_cell_angle_alpha   90.00000000
_cell_angle_beta   90.00000000
_cell_angle_gamma   90.00000000
_symmetry_Int_Tables_number   1
_chemical_formula_structural   La2NdTi(Co4P3)2
_chemical_formula_sum   'La4 Nd2 Ti2 Co16 P12'
_cell_volume   513.55817188
_cell_formula_units_Z   2
loop_
 _symmetry_equiv_pos_site_id
 _symmetry_equiv_pos_as_xyz
  1  'x, y, z'
loop_
 _atom_site_type_symbol
 _atom_site_label
 _atom_site_symmetry_multiplicity
 _atom_site_fract_x
 _atom_site_fract_y
 _atom_site_fract_z
 _atom_site_occupancy
  La  La0  1  0.000000  0.500000  0.526904  1
  La  La1  1  0.500000  0.000000  0.473960  1
  La  La2  1  0.500000  0.820822  0.205751  1
  La  La3  1  0.500000  0.179178  0.205751  1
  Nd  Nd4  1  0.000000  0.680473  0.795976  1
  Nd  Nd5  1  0.000000  0.319527  0.795976  1
  Ti  Ti6  1  0.500000  0.500000  0.149680  1
  Ti  Ti7  1  0.000000  0.000000  0.849274  1
  Co  Co8  1  0.500000  0.500000  0.704354  1
  Co  Co9  1  0.000000  0.000000  0.295043  1
  Co  Co10  1  0.000000  0.500000  0.987056  1
  Co  Co11  1  0.500000  0.000000  0.009565  1
  Co  Co12  1  0.500000  0.333017  0.994321  1
  Co  Co13  1  0.500000  0.666983  0.994321  1
  Co  Co14  1  0.000000  0.168325  0.003203  1
  Co  Co15  1  0.000000  0.831675  0.003203  1
  Co  Co16  1  0.500000  0.297267  0.433092  1
  Co  Co17  1  0.500000  0.702733  0.433092  1
  Co  Co18  1  0.000000  0.203677  0.570001  1
  Co  Co19  1  0.000000  0.796323  0.570001  1
  Co  Co20  1  0.500000  0.881367  0.707837  1
  Co  Co21  1  0.500000  0.118633  0.707837  1
  Co  Co22  1  0.000000  0.618234  0.292844  1
  Co  Co23  1  0.000000  0.381766  0.292844  1
  P  P24  1  0.500000  0.500000  0.886647  1
  P  P25  1  0.000000  0.000000  0.108676  1
  P  P26  1  0.500000  0.500000  0.346653  1
  P  P27  1  0.000000  0.000000  0.653386  1
  P  P28  1  0.500000  0.302741  0.615376  1
  P  P29  1  0.500000  0.697259  0.615376  1
  P  P30  1  0.000000  0.199152  0.388470  1
  P  P31  1  0.000000  0.800848  0.388470  1
  P  P32  1  0.500000  0.844562  0.894417  1
  P  P33  1  0.500000  0.155438  0.894417  1
  P  P34  1  0.000000  0.654405  0.103113  1
  P  P35  1  0.000000  0.345595  0.103113  1
