# generated using pymatgen
data_LaTb4Dy2CoI12
_symmetry_space_group_name_H-M   'P 1'
_cell_length_a   9.81227577
_cell_length_b   9.81372165
_cell_length_c   9.81363122
_cell_angle_alpha   106.31327551
_cell_angle_beta   106.28439496
_cell_angle_gamma   106.27388879
_symmetry_Int_Tables_number   1
_chemical_formula_structural   LaTb4Dy2CoI12
_chemical_formula_sum   'La1 Tb4 Dy2 Co1 I12'
_cell_volume   801.75168798
_cell_formula_units_Z   1
loop_
 _symmetry_equiv_pos_site_id
 _symmetry_equiv_pos_as_xyz
  1  'x, y, z'
loop_
 _atom_site_type_symbol
 _atom_site_label
 _atom_site_symmetry_multiplicity
 _atom_site_fract_x
 _atom_site_fract_y
 _atom_site_fract_z
 _atom_site_occupancy
  La  La0  1  0.997022  0.997056  0.997123  1
  Tb  Tb1  1  0.515778  0.587937  0.783583  1
  Tb  Tb2  1  0.783772  0.515945  0.588426  1
  Tb  Tb3  1  0.587875  0.783788  0.516206  1
  Tb  Tb4  1  0.481107  0.408999  0.214312  1
  Dy  Dy5  1  0.216510  0.481377  0.410304  1
  Dy  Dy6  1  0.409868  0.216666  0.481608  1
  Co  Co7  1  0.499442  0.499350  0.499288  1
  I  I8  1  0.275366  0.822156  0.426295  1
  I  I9  1  0.426118  0.275093  0.821568  1
  I  I10  1  0.823245  0.426485  0.276041  1
  I  I11  1  0.721092  0.175421  0.571433  1
  I  I12  1  0.571825  0.722482  0.175682  1
  I  I13  1  0.175279  0.571441  0.721169  1
  I  I14  1  0.046001  0.124237  0.350620  1
  I  I15  1  0.350266  0.044849  0.124330  1
  I  I16  1  0.123343  0.350589  0.045897  1
  I  I17  1  0.952670  0.873978  0.644722  1
  I  I18  1  0.644712  0.952736  0.874004  1
  I  I19  1  0.874076  0.644783  0.952756  1
