# generated using pymatgen
data_ThOF36
_symmetry_space_group_name_H-M   'P 1'
_cell_length_a   6.20835902
_cell_length_b   11.05598481
_cell_length_c   10.59314738
_cell_angle_alpha   92.39335010
_cell_angle_beta   103.81802280
_cell_angle_gamma   77.96559873
_symmetry_Int_Tables_number   1
_chemical_formula_structural   ThOF36
_chemical_formula_sum   'Th1 O1 F36'
_cell_volume   690.52325611
_cell_formula_units_Z   1
loop_
 _symmetry_equiv_pos_site_id
 _symmetry_equiv_pos_as_xyz
  1  'x, y, z'
loop_
 _atom_site_type_symbol
 _atom_site_label
 _atom_site_symmetry_multiplicity
 _atom_site_fract_x
 _atom_site_fract_y
 _atom_site_fract_z
 _atom_site_occupancy
  Th  Th0  1  0.824705  0.847965  0.904345  1
  O  O1  1  0.228945  0.097688  0.115816  1
  F  F2  1  0.304944  0.399528  0.885779  1
  F  F3  1  0.624242  0.631505  0.117780  1
  F  F4  1  0.328872  0.289576  0.604839  1
  F  F5  1  0.661780  0.759549  0.430421  1
  F  F6  1  0.865571  0.227298  0.803028  1
  F  F7  1  0.165627  0.756317  0.193517  1
  F  F8  1  0.676421  0.857582  0.068225  1
  F  F9  1  0.321135  0.127232  0.015689  1
  F  F10  1  0.767063  0.641071  0.874831  1
  F  F11  1  0.194785  0.386541  0.163161  1
  F  F12  1  0.464293  0.461730  0.853236  1
  F  F13  1  0.618416  0.505856  0.140817  1
  F  F14  1  0.730167  0.736765  0.712307  1
  F  F15  1  0.299659  0.367982  0.298162  1
  F  F16  1  0.754173  0.966034  0.543641  1
  F  F17  1  0.228228  0.012886  0.480743  1
  F  F18  1  0.299799  0.180273  0.660042  1
  F  F19  1  0.676171  0.809552  0.310966  1
  F  F20  1  0.772333  0.092633  0.559590  1
  F  F21  1  0.165829  0.926279  0.381488  1
  F  F22  1  0.807768  0.027097  0.828353  1
  F  F23  1  0.093634  0.930117  0.068749  1
  F  F24  1  0.901872  0.351241  0.797304  1
  F  F25  1  0.142605  0.639942  0.238414  1
  F  F26  1  0.181700  0.727968  0.900291  1
  F  F27  1  0.767656  0.267413  0.064466  1
  F  F28  1  0.424372  0.947822  0.795654  1
  F  F29  1  0.411928  0.061524  0.221805  1
  F  F30  1  0.149282  0.738481  0.563419  1
  F  F31  1  0.922022  0.242232  0.412492  1
  F  F32  1  0.200651  0.627066  0.637371  1
  F  F33  1  0.838232  0.359599  0.348298  1
  F  F34  1  0.301703  0.842928  0.842744  1
  F  F35  1  0.779178  0.161896  0.140734  1
  F  F36  1  0.564032  0.442190  0.548026  1
  F  F37  1  0.540207  0.550641  0.473462  1
