# generated using pymatgen
data_Lu4Si2Ge4Ir7
_symmetry_space_group_name_H-M   'P 1'
_cell_length_a   7.16306513
_cell_length_b   7.16306430
_cell_length_c   7.17870844
_cell_angle_alpha   109.58624058
_cell_angle_beta   109.58623087
_cell_angle_gamma   109.15260643
_symmetry_Int_Tables_number   1
_chemical_formula_structural   Lu4Si2Ge4Ir7
_chemical_formula_sum   'Lu4 Si2 Ge4 Ir7'
_cell_volume   283.85061781
_cell_formula_units_Z   1
loop_
 _symmetry_equiv_pos_site_id
 _symmetry_equiv_pos_as_xyz
  1  'x, y, z'
loop_
 _atom_site_type_symbol
 _atom_site_label
 _atom_site_symmetry_multiplicity
 _atom_site_fract_x
 _atom_site_fract_y
 _atom_site_fract_z
 _atom_site_occupancy
  Lu  Lu0  1  0.999255  0.999255  0.518202  1
  Lu  Lu1  1  0.999312  0.499312  0.998624  1
  Lu  Lu2  1  0.499312  0.999312  0.998624  1
  Lu  Lu3  1  0.518947  0.518947  0.518202  1
  Si  Si4  1  0.673201  0.001368  0.674569  1
  Si  Si5  1  0.001368  0.673201  0.674569  1
  Ge  Ge6  1  0.687368  0.687368  0.004365  1
  Ge  Ge7  1  0.308808  0.002325  0.311133  1
  Ge  Ge8  1  0.002325  0.308808  0.311133  1
  Ge  Ge9  1  0.316997  0.316997  0.004365  1
  Ir  Ir10  1  0.751146  0.251146  0.502293  1
  Ir  Ir11  1  0.752854  0.501293  0.254147  1
  Ir  Ir12  1  0.501301  0.249760  0.751061  1
  Ir  Ir13  1  0.249760  0.501301  0.751061  1
  Ir  Ir14  1  0.251146  0.751146  0.502293  1
  Ir  Ir15  1  0.501293  0.752854  0.254147  1
  Ir  Ir16  1  0.985606  0.985606  0.971213  1
