# generated using pymatgen
data_Rb4HoBi4Sb7Se20
_symmetry_space_group_name_H-M   'P 1'
_cell_length_a   4.13439800
_cell_length_b   12.45675712
_cell_length_c   22.32292721
_cell_angle_alpha   90.01568721
_cell_angle_beta   90.00000000
_cell_angle_gamma   90.00000000
_symmetry_Int_Tables_number   1
_chemical_formula_structural   Rb4HoBi4Sb7Se20
_chemical_formula_sum   'Rb4 Ho1 Bi4 Sb7 Se20'
_cell_volume   1149.65731063
_cell_formula_units_Z   1
loop_
 _symmetry_equiv_pos_site_id
 _symmetry_equiv_pos_as_xyz
  1  'x, y, z'
loop_
 _atom_site_type_symbol
 _atom_site_label
 _atom_site_symmetry_multiplicity
 _atom_site_fract_x
 _atom_site_fract_y
 _atom_site_fract_z
 _atom_site_occupancy
  Rb  Rb0  1  0.250000  0.488802  0.210603  1
  Rb  Rb1  1  0.750000  0.510680  0.789802  1
  Rb  Rb2  1  0.750000  0.989298  0.289139  1
  Rb  Rb3  1  0.250000  0.010532  0.710626  1
  Ho  Ho4  1  0.250000  0.364467  0.025079  1
  Bi  Bi5  1  0.250000  0.592450  0.428556  1
  Bi  Bi6  1  0.750000  0.407523  0.571422  1
  Bi  Bi7  1  0.750000  0.093170  0.073404  1
  Bi  Bi8  1  0.250000  0.904200  0.927921  1
  Sb  Sb9  1  0.750000  0.628338  0.975750  1
  Sb  Sb10  1  0.750000  0.870148  0.473981  1
  Sb  Sb11  1  0.250000  0.129794  0.525946  1
  Sb  Sb12  1  0.250000  0.807377  0.126287  1
  Sb  Sb13  1  0.750000  0.191783  0.872486  1
  Sb  Sb14  1  0.750000  0.308130  0.372921  1
  Sb  Sb15  1  0.250000  0.691842  0.627116  1
  Se  Se16  1  0.250000  0.812089  0.388589  1
  Se  Se17  1  0.750000  0.187874  0.611434  1
  Se  Se18  1  0.750000  0.312097  0.109167  1
  Se  Se19  1  0.250000  0.690761  0.888607  1
  Se  Se20  1  0.250000  0.252692  0.298575  1
  Se  Se21  1  0.750000  0.747261  0.701598  1
  Se  Se22  1  0.750000  0.752176  0.200987  1
  Se  Se23  1  0.250000  0.247233  0.798342  1
  Se  Se24  1  0.250000  0.362204  0.479196  1
  Se  Se25  1  0.750000  0.637754  0.520886  1
  Se  Se26  1  0.750000  0.862190  0.020559  1
  Se  Se27  1  0.250000  0.145585  0.980465  1
  Se  Se28  1  0.250000  0.020174  0.158700  1
  Se  Se29  1  0.750000  0.981701  0.841232  1
  Se  Se30  1  0.750000  0.518672  0.341237  1
  Se  Se31  1  0.250000  0.481391  0.658870  1
  Se  Se32  1  0.250000  0.582007  0.061340  1
  Se  Se33  1  0.750000  0.417713  0.939187  1
  Se  Se34  1  0.750000  0.079570  0.437595  1
  Se  Se35  1  0.250000  0.920321  0.562393  1
