# generated using pymatgen
data_YLuFe14(SiC)3
_symmetry_space_group_name_H-M   'P 1'
_cell_length_a   6.43423997
_cell_length_b   6.43423905
_cell_length_c   6.43423739
_cell_angle_alpha   83.41989080
_cell_angle_beta   83.41989323
_cell_angle_gamma   83.41989066
_symmetry_Int_Tables_number   1
_chemical_formula_structural   YLuFe14(SiC)3
_chemical_formula_sum   'Y1 Lu1 Fe14 Si3 C3'
_cell_volume   261.48295240
_cell_formula_units_Z   1
loop_
 _symmetry_equiv_pos_site_id
 _symmetry_equiv_pos_as_xyz
  1  'x, y, z'
loop_
 _atom_site_type_symbol
 _atom_site_label
 _atom_site_symmetry_multiplicity
 _atom_site_fract_x
 _atom_site_fract_y
 _atom_site_fract_z
 _atom_site_occupancy
  Y  Y0  1  0.347846  0.347846  0.347846  1
  Lu  Lu1  1  0.653734  0.653734  0.653734  1
  Fe  Fe2  1  0.096836  0.096836  0.096836  1
  Fe  Fe3  1  0.902039  0.902039  0.902039  1
  Fe  Fe4  1  0.715667  0.284824  0.999592  1
  Fe  Fe5  1  0.284824  0.999592  0.715667  1
  Fe  Fe6  1  0.999592  0.715667  0.284824  1
  Fe  Fe7  1  0.284824  0.715667  0.999592  1
  Fe  Fe8  1  0.715667  0.999592  0.284824  1
  Fe  Fe9  1  0.999592  0.284824  0.715667  1
  Fe  Fe10  1  0.136728  0.659686  0.659686  1
  Fe  Fe11  1  0.659686  0.659686  0.136728  1
  Fe  Fe12  1  0.659686  0.136728  0.659686  1
  Fe  Fe13  1  0.341093  0.860705  0.341093  1
  Fe  Fe14  1  0.341093  0.341093  0.860705  1
  Fe  Fe15  1  0.860705  0.341093  0.341093  1
  Si  Si16  1  0.000662  0.000662  0.499949  1
  Si  Si17  1  0.000662  0.499949  0.000662  1
  Si  Si18  1  0.499949  0.000662  0.000662  1
  C  C19  1  0.501914  0.501914  0.995289  1
  C  C20  1  0.501914  0.995289  0.501914  1
  C  C21  1  0.995289  0.501914  0.501914  1
