# generated using pymatgen
data_Nd5Dy(AlI)4
_symmetry_space_group_name_H-M   'P 1'
_cell_length_a   9.90027951
_cell_length_b   9.90027918
_cell_length_c   12.12516672
_cell_angle_alpha   59.70069901
_cell_angle_beta   59.70070012
_cell_angle_gamma   25.13621590
_symmetry_Int_Tables_number   1
_chemical_formula_structural   Nd5Dy(AlI)4
_chemical_formula_sum   'Nd5 Dy1 Al4 I4'
_cell_volume   432.14975763
_cell_formula_units_Z   1
loop_
 _symmetry_equiv_pos_site_id
 _symmetry_equiv_pos_as_xyz
  1  'x, y, z'
loop_
 _atom_site_type_symbol
 _atom_site_label
 _atom_site_symmetry_multiplicity
 _atom_site_fract_x
 _atom_site_fract_y
 _atom_site_fract_z
 _atom_site_occupancy
  Nd  Nd0  1  0.168043  0.168043  0.612991  1
  Nd  Nd1  1  0.756498  0.756498  0.797262  1
  Nd  Nd2  1  0.244184  0.244184  0.200449  1
  Nd  Nd3  1  0.535183  0.535183  0.311486  1
  Nd  Nd4  1  0.465405  0.465405  0.685184  1
  Dy  Dy5  1  0.830478  0.830478  0.392293  1
  Al  Al6  1  0.927525  0.927525  0.527257  1
  Al  Al7  1  0.074582  0.074582  0.467330  1
  Al  Al8  1  0.338797  0.338797  0.579506  1
  Al  Al9  1  0.663471  0.663471  0.416245  1
  I  I10  1  0.420132  0.420132  0.179469  1
  I  I11  1  0.575012  0.575012  0.832078  1
  I  I12  1  0.859783  0.859783  0.938930  1
  I  I13  1  0.140907  0.140907  0.059520  1
