# generated using pymatgen
data_YH5Ru
_symmetry_space_group_name_H-M   'P 1'
_cell_length_a   4.41551900
_cell_length_b   4.68488400
_cell_length_c   11.71798200
_cell_angle_alpha   90.00000000
_cell_angle_beta   90.00000000
_cell_angle_gamma   90.00000000
_symmetry_Int_Tables_number   1
_chemical_formula_structural   YH5Ru
_chemical_formula_sum   'Y4 H20 Ru4'
_cell_volume   242.40045263
_cell_formula_units_Z   4
loop_
 _symmetry_equiv_pos_site_id
 _symmetry_equiv_pos_as_xyz
  1  'x, y, z'
loop_
 _atom_site_type_symbol
 _atom_site_label
 _atom_site_symmetry_multiplicity
 _atom_site_fract_x
 _atom_site_fract_y
 _atom_site_fract_z
 _atom_site_occupancy
  Y  Y0  1  0.725142  0.343134  0.143108  1
  Y  Y1  1  0.225142  0.156866  0.856892  1
  Y  Y2  1  0.274858  0.843134  0.356892  1
  Y  Y3  1  0.774858  0.656866  0.643108  1
  H  H4  1  0.859721  0.343164  0.961509  1
  H  H5  1  0.435212  0.008816  0.691411  1
  H  H6  1  0.951606  0.897767  0.008311  1
  H  H7  1  0.712320  0.979425  0.839458  1
  H  H8  1  0.421697  0.349894  0.317562  1
  H  H9  1  0.787680  0.020575  0.339458  1
  H  H10  1  0.451606  0.602233  0.991689  1
  H  H11  1  0.287680  0.479425  0.660542  1
  H  H12  1  0.935212  0.491184  0.308589  1
  H  H13  1  0.640279  0.656836  0.461509  1
  H  H14  1  0.048394  0.397767  0.491689  1
  H  H15  1  0.140279  0.843164  0.538491  1
  H  H16  1  0.578303  0.849894  0.182438  1
  H  H17  1  0.921697  0.150106  0.682438  1
  H  H18  1  0.078303  0.650106  0.817562  1
  H  H19  1  0.064788  0.991184  0.191411  1
  H  H20  1  0.359721  0.156836  0.038491  1
  H  H21  1  0.564788  0.508816  0.808589  1
  H  H22  1  0.548394  0.102233  0.508311  1
  H  H23  1  0.212320  0.520575  0.160542  1
  Ru  Ru24  1  0.217883  0.164652  0.593876  1
  Ru  Ru25  1  0.282117  0.835348  0.093876  1
  Ru  Ru26  1  0.782117  0.664652  0.906124  1
  Ru  Ru27  1  0.717883  0.335348  0.406124  1
