# generated using pymatgen
data_Ho12Co3HgRu2
_symmetry_space_group_name_H-M   'P 1'
_cell_length_a   8.24650040
_cell_length_b   8.24659015
_cell_length_c   8.24650166
_cell_angle_alpha   111.85393183
_cell_angle_beta   110.30424725
_cell_angle_gamma   106.30473772
_symmetry_Int_Tables_number   1
_chemical_formula_structural   Ho12Co3HgRu2
_chemical_formula_sum   'Ho12 Co3 Hg1 Ru2'
_cell_volume   430.64666238
_cell_formula_units_Z   1
loop_
 _symmetry_equiv_pos_site_id
 _symmetry_equiv_pos_as_xyz
  1  'x, y, z'
loop_
 _atom_site_type_symbol
 _atom_site_label
 _atom_site_symmetry_multiplicity
 _atom_site_fract_x
 _atom_site_fract_y
 _atom_site_fract_z
 _atom_site_occupancy
  Ho  Ho0  1  0.819278  0.722541  0.541846  1
  Ho  Ho1  1  0.179104  0.275454  0.454530  1
  Ho  Ho2  1  0.179076  0.724546  0.903649  1
  Ho  Ho3  1  0.819305  0.277459  0.096738  1
  Ho  Ho4  1  0.681372  0.368994  0.688466  1
  Ho  Ho5  1  0.319472  0.631006  0.312379  1
  Ho  Ho6  1  0.681430  0.992959  0.312383  1
  Ho  Ho7  1  0.319423  0.007041  0.688471  1
  Ho  Ho8  1  0.582160  0.769058  0.813106  1
  Ho  Ho9  1  0.418222  0.226014  0.192194  1
  Ho  Ho10  1  0.966181  0.773986  0.192208  1
  Ho  Ho11  1  0.044048  0.230942  0.813102  1
  Co  Co12  1  0.341661  0.000000  0.341661  1
  Co  Co13  1  0.110623  0.611269  0.499337  1
  Co  Co14  1  0.888068  0.388731  0.499354  1
  Hg  Hg15  1  0.502983  0.500000  0.002983  1
  Ru  Ru16  1  0.648549  0.000000  0.648549  1
  Ru  Ru17  1  0.999044  0.000000  0.999044  1
