# generated using pymatgen
data_SmHoLu8(In2Pt)4
_symmetry_space_group_name_H-M   'P 1'
_cell_length_a   3.56953500
_cell_length_b   8.07524556
_cell_length_c   18.08198551
_cell_angle_alpha   89.92869714
_cell_angle_beta   90.00000000
_cell_angle_gamma   90.00000000
_symmetry_Int_Tables_number   1
_chemical_formula_structural   SmHoLu8(In2Pt)4
_chemical_formula_sum   'Sm1 Ho1 Lu8 In8 Pt4'
_cell_volume   521.21050802
_cell_formula_units_Z   1
loop_
 _symmetry_equiv_pos_site_id
 _symmetry_equiv_pos_as_xyz
  1  'x, y, z'
loop_
 _atom_site_type_symbol
 _atom_site_label
 _atom_site_symmetry_multiplicity
 _atom_site_fract_x
 _atom_site_fract_y
 _atom_site_fract_z
 _atom_site_occupancy
  Sm  Sm0  1  0.000000  0.000000  0.000000  1
  Ho  Ho1  1  0.000000  0.500000  0.500000  1
  Lu  Lu2  1  0.000000  0.116532  0.413998  1
  Lu  Lu3  1  0.000000  0.883468  0.586002  1
  Lu  Lu4  1  0.000000  0.383157  0.913883  1
  Lu  Lu5  1  0.000000  0.616843  0.086117  1
  Lu  Lu6  1  0.000000  0.244251  0.221233  1
  Lu  Lu7  1  0.000000  0.755749  0.778767  1
  Lu  Lu8  1  0.000000  0.255730  0.721165  1
  Lu  Lu9  1  0.000000  0.744270  0.278835  1
  In  In10  1  0.500000  0.423626  0.351445  1
  In  In11  1  0.500000  0.576374  0.648555  1
  In  In12  1  0.500000  0.076945  0.850226  1
  In  In13  1  0.500000  0.923055  0.149774  1
  In  In14  1  0.500000  0.296543  0.066862  1
  In  In15  1  0.500000  0.703457  0.933138  1
  In  In16  1  0.500000  0.205968  0.566310  1
  In  In17  1  0.500000  0.794032  0.433690  1
  Pt  Pt18  1  0.500000  0.025822  0.303894  1
  Pt  Pt19  1  0.500000  0.974178  0.696106  1
  Pt  Pt20  1  0.500000  0.474333  0.803542  1
  Pt  Pt21  1  0.500000  0.525667  0.196458  1
