# generated using pymatgen
data_Tb3Ce(Er3Pt4)2
_symmetry_space_group_name_H-M   'P 1'
_cell_length_a   7.46655500
_cell_length_b   7.54174205
_cell_length_c   14.68964600
_cell_angle_alpha   90.00673868
_cell_angle_beta   90.00000000
_cell_angle_gamma   90.00000000
_symmetry_Int_Tables_number   1
_chemical_formula_structural   Tb3Ce(Er3Pt4)2
_chemical_formula_sum   'Tb6 Ce2 Er12 Pt16'
_cell_volume   827.18617980
_cell_formula_units_Z   2
loop_
 _symmetry_equiv_pos_site_id
 _symmetry_equiv_pos_as_xyz
  1  'x, y, z'
loop_
 _atom_site_type_symbol
 _atom_site_label
 _atom_site_symmetry_multiplicity
 _atom_site_fract_x
 _atom_site_fract_y
 _atom_site_fract_z
 _atom_site_occupancy
  Tb  Tb0  1  0.999116  0.821538  0.405889  1
  Tb  Tb1  1  0.499116  0.678462  0.094111  1
  Tb  Tb2  1  0.500904  0.320957  0.593642  1
  Tb  Tb3  1  0.000904  0.179043  0.906358  1
  Tb  Tb4  1  0.001456  0.178929  0.593681  1
  Tb  Tb5  1  0.501456  0.321071  0.906319  1
  Ce  Ce6  1  0.501262  0.679602  0.406869  1
  Ce  Ce7  1  0.001262  0.820398  0.093131  1
  Er  Er8  1  0.680364  0.990726  0.250500  1
  Er  Er9  1  0.180364  0.509274  0.249500  1
  Er  Er10  1  0.819024  0.489887  0.750265  1
  Er  Er11  1  0.319024  0.010113  0.749735  1
  Er  Er12  1  0.656902  0.833134  0.623215  1
  Er  Er13  1  0.156902  0.666866  0.876785  1
  Er  Er14  1  0.843872  0.332412  0.377396  1
  Er  Er15  1  0.343872  0.167588  0.122604  1
  Er  Er16  1  0.343321  0.168026  0.377310  1
  Er  Er17  1  0.843321  0.331974  0.122690  1
  Er  Er18  1  0.155332  0.667090  0.622709  1
  Er  Er19  1  0.655332  0.832910  0.877291  1
  Pt  Pt20  1  0.816838  0.641900  0.248456  1
  Pt  Pt21  1  0.316838  0.858100  0.251544  1
  Pt  Pt22  1  0.682806  0.142437  0.749927  1
  Pt  Pt23  1  0.182806  0.357563  0.750073  1
  Pt  Pt24  1  0.545717  0.382568  0.249953  1
  Pt  Pt25  1  0.045717  0.117432  0.250047  1
  Pt  Pt26  1  0.953115  0.883783  0.749870  1
  Pt  Pt27  1  0.453115  0.616217  0.750130  1
  Pt  Pt28  1  0.817646  0.532105  0.542272  1
  Pt  Pt29  1  0.317646  0.967895  0.957728  1
  Pt  Pt30  1  0.681902  0.033432  0.457658  1
  Pt  Pt31  1  0.181902  0.466568  0.042342  1
  Pt  Pt32  1  0.183182  0.467221  0.457627  1
  Pt  Pt33  1  0.683182  0.032779  0.042373  1
  Pt  Pt34  1  0.317240  0.966064  0.542235  1
  Pt  Pt35  1  0.817240  0.533936  0.957765  1
