# generated using pymatgen
data_YHo15In4(NiRu)2
_symmetry_space_group_name_H-M   'P 1'
_cell_length_a   9.63075385
_cell_length_b   9.59343656
_cell_length_c   9.59202999
_cell_angle_alpha   59.73787876
_cell_angle_beta   59.99679066
_cell_angle_gamma   59.99025985
_symmetry_Int_Tables_number   1
_chemical_formula_structural   YHo15In4(NiRu)2
_chemical_formula_sum   'Y1 Ho15 In4 Ni2 Ru2'
_cell_volume   625.34539453
_cell_formula_units_Z   1
loop_
 _symmetry_equiv_pos_site_id
 _symmetry_equiv_pos_as_xyz
  1  'x, y, z'
loop_
 _atom_site_type_symbol
 _atom_site_label
 _atom_site_symmetry_multiplicity
 _atom_site_fract_x
 _atom_site_fract_y
 _atom_site_fract_z
 _atom_site_occupancy
  Y  Y0  1  0.433533  0.438616  0.063272  1
  Ho  Ho1  1  0.650340  0.647859  0.046096  1
  Ho  Ho2  1  0.190243  0.812329  0.188132  1
  Ho  Ho3  1  0.058942  0.442840  0.060306  1
  Ho  Ho4  1  0.190870  0.810897  0.810152  1
  Ho  Ho5  1  0.061457  0.437088  0.437217  1
  Ho  Ho6  1  0.811645  0.189129  0.190200  1
  Ho  Ho7  1  0.654380  0.652645  0.653298  1
  Ho  Ho8  1  0.810513  0.188754  0.812627  1
  Ho  Ho9  1  0.190111  0.188814  0.811683  1
  Ho  Ho10  1  0.045867  0.650166  0.649850  1
  Ho  Ho11  1  0.440546  0.056722  0.056577  1
  Ho  Ho12  1  0.060604  0.061361  0.441591  1
  Ho  Ho13  1  0.651414  0.046282  0.647168  1
  Ho  Ho14  1  0.809818  0.813373  0.188920  1
  Ho  Ho15  1  0.433727  0.061799  0.441187  1
  In  In16  1  0.415161  0.417493  0.417806  1
  In  In17  1  0.417837  0.418463  0.747552  1
  In  In18  1  0.418166  0.748206  0.418349  1
  In  In19  1  0.747719  0.419366  0.419138  1
  Ni  Ni20  1  0.860428  0.422532  0.860747  1
  Ni  Ni21  1  0.860857  0.858512  0.423709  1
  Ru  Ru22  1  0.425017  0.860305  0.857626  1
  Ru  Ru23  1  0.860808  0.856452  0.856798  1
