# generated using pymatgen
data_Dy20IrRu10Se
_symmetry_space_group_name_H-M   'P 1'
_cell_length_a   10.87332216
_cell_length_b   10.87332158
_cell_length_c   6.41421638
_cell_angle_alpha   90.03565734
_cell_angle_beta   90.03565498
_cell_angle_gamma   89.63335378
_symmetry_Int_Tables_number   1
_chemical_formula_structural   Dy20IrRu10Se
_chemical_formula_sum   'Dy20 Ir1 Ru10 Se1'
_cell_volume   758.33139464
_cell_formula_units_Z   1
loop_
 _symmetry_equiv_pos_site_id
 _symmetry_equiv_pos_as_xyz
  1  'x, y, z'
loop_
 _atom_site_type_symbol
 _atom_site_label
 _atom_site_symmetry_multiplicity
 _atom_site_fract_x
 _atom_site_fract_y
 _atom_site_fract_z
 _atom_site_occupancy
  Dy  Dy0  1  0.289956  0.086503  0.376938  1
  Dy  Dy1  1  0.294929  0.913302  0.876129  1
  Dy  Dy2  1  0.700676  0.084191  0.870063  1
  Dy  Dy3  1  0.703390  0.904219  0.382126  1
  Dy  Dy4  1  0.587950  0.790984  0.880743  1
  Dy  Dy5  1  0.577785  0.207206  0.375433  1
  Dy  Dy6  1  0.411750  0.791540  0.378589  1
  Dy  Dy7  1  0.411445  0.208281  0.879530  1
  Dy  Dy8  1  0.209016  0.412050  0.619257  1
  Dy  Dy9  1  0.208460  0.588250  0.121411  1
  Dy  Dy10  1  0.792794  0.422215  0.124567  1
  Dy  Dy11  1  0.791719  0.588555  0.620470  1
  Dy  Dy12  1  0.913497  0.710044  0.123062  1
  Dy  Dy13  1  0.915809  0.299324  0.629937  1
  Dy  Dy14  1  0.086698  0.705071  0.623871  1
  Dy  Dy15  1  0.095781  0.296610  0.117874  1
  Dy  Dy16  1  0.003624  0.996372  0.502534  1
  Dy  Dy17  1  0.003628  0.996376  0.997466  1
  Dy  Dy18  1  0.500919  0.498575  0.000005  1
  Dy  Dy19  1  0.501425  0.499081  0.499995  1
  Ir  Ir20  1  0.346175  0.653825  0.750000  1
  Ru  Ru21  1  0.850456  0.853025  0.752932  1
  Ru  Ru22  1  0.146975  0.149544  0.747068  1
  Ru  Ru23  1  0.154240  0.845760  0.250000  1
  Ru  Ru24  1  0.654295  0.345705  0.750000  1
  Ru  Ru25  1  0.651773  0.652729  0.252190  1
  Ru  Ru26  1  0.347271  0.348227  0.247810  1
  Ru  Ru27  1  0.499928  0.999291  0.124418  1
  Ru  Ru28  1  0.502308  0.999504  0.621879  1
  Ru  Ru29  1  0.000496  0.497692  0.878121  1
  Ru  Ru30  1  0.000709  0.500072  0.375582  1
  Se  Se31  1  0.844124  0.155876  0.250000  1
