# generated using pymatgen
data_BaSm2(CoH6)2
_symmetry_space_group_name_H-M   'P 1'
_cell_length_a   4.93276300
_cell_length_b   4.93276219
_cell_length_c   8.28114000
_cell_angle_alpha   90.00000000
_cell_angle_beta   90.00000000
_cell_angle_gamma   119.99998531
_symmetry_Int_Tables_number   1
_chemical_formula_structural   BaSm2(CoH6)2
_chemical_formula_sum   'Ba1 Sm2 Co2 H12'
_cell_volume   174.50233844
_cell_formula_units_Z   1
loop_
 _symmetry_equiv_pos_site_id
 _symmetry_equiv_pos_as_xyz
  1  'x, y, z'
loop_
 _atom_site_type_symbol
 _atom_site_label
 _atom_site_symmetry_multiplicity
 _atom_site_fract_x
 _atom_site_fract_y
 _atom_site_fract_z
 _atom_site_occupancy
  Ba  Ba0  1  0.000000  0.000000  0.000000  1
  Sm  Sm1  1  0.666667  0.333333  0.363316  1
  Sm  Sm2  1  0.333333  0.666667  0.636684  1
  Co  Co3  1  0.666667  0.333333  0.729081  1
  Co  Co4  1  0.333333  0.666667  0.270919  1
  H  H5  1  0.179788  0.820212  0.378699  1
  H  H6  1  0.640425  0.820212  0.378699  1
  H  H7  1  0.179788  0.359575  0.378699  1
  H  H8  1  0.820212  0.179788  0.621301  1
  H  H9  1  0.359575  0.179788  0.621301  1
  H  H10  1  0.820212  0.640425  0.621301  1
  H  H11  1  0.516577  0.033154  0.842436  1
  H  H12  1  0.516577  0.483423  0.842436  1
  H  H13  1  0.966846  0.483423  0.842436  1
  H  H14  1  0.483423  0.966846  0.157564  1
  H  H15  1  0.483423  0.516577  0.157564  1
  H  H16  1  0.033154  0.516577  0.157564  1
