# generated using pymatgen
data_Fe3Br4O
_symmetry_space_group_name_H-M   'P 1'
_cell_length_a   9.57441500
_cell_length_b   9.57441500
_cell_length_c   9.57441500
_cell_angle_alpha   90.00000000
_cell_angle_beta   90.00000000
_cell_angle_gamma   90.00000000
_symmetry_Int_Tables_number   1
_chemical_formula_structural   Fe3Br4O
_chemical_formula_sum   'Fe12 Br16 O4'
_cell_volume   877.68109471
_cell_formula_units_Z   4
loop_
 _symmetry_equiv_pos_site_id
 _symmetry_equiv_pos_as_xyz
  1  'x, y, z'
loop_
 _atom_site_type_symbol
 _atom_site_label
 _atom_site_symmetry_multiplicity
 _atom_site_fract_x
 _atom_site_fract_y
 _atom_site_fract_z
 _atom_site_occupancy
  Fe  Fe0  1  0.835345  0.734895  0.012757  1
  Fe  Fe1  1  0.234895  0.487243  0.164655  1
  Fe  Fe2  1  0.487243  0.164655  0.234895  1
  Fe  Fe3  1  0.512757  0.664656  0.265105  1
  Fe  Fe4  1  0.765105  0.987243  0.335345  1
  Fe  Fe5  1  0.164655  0.234895  0.487243  1
  Fe  Fe6  1  0.664656  0.265105  0.512757  1
  Fe  Fe7  1  0.265105  0.512757  0.664656  1
  Fe  Fe8  1  0.012757  0.835345  0.734895  1
  Fe  Fe9  1  0.987243  0.335345  0.765105  1
  Fe  Fe10  1  0.734895  0.012757  0.835345  1
  Fe  Fe11  1  0.335345  0.765105  0.987243  1
  Br  Br12  1  0.373878  0.296828  0.042498  1
  Br  Br13  1  0.564407  0.935594  0.064407  1
  Br  Br14  1  0.703172  0.542498  0.126122  1
  Br  Br15  1  0.957502  0.873878  0.203172  1
  Br  Br16  1  0.042498  0.373878  0.296828  1
  Br  Br17  1  0.296828  0.042498  0.373878  1
  Br  Br18  1  0.435594  0.435594  0.435594  1
  Br  Br19  1  0.626122  0.796828  0.457502  1
  Br  Br20  1  0.126122  0.703172  0.542498  1
  Br  Br21  1  0.935594  0.064407  0.564407  1
  Br  Br22  1  0.796828  0.457502  0.626122  1
  Br  Br23  1  0.542498  0.126122  0.703172  1
  Br  Br24  1  0.457502  0.626122  0.796828  1
  Br  Br25  1  0.203172  0.957502  0.873878  1
  Br  Br26  1  0.064407  0.564407  0.935594  1
  Br  Br27  1  0.873878  0.203172  0.957502  1
  O  O28  1  0.340443  0.659558  0.159558  1
  O  O29  1  0.659558  0.159558  0.340443  1
  O  O30  1  0.159558  0.340443  0.659558  1
  O  O31  1  0.840442  0.840442  0.840442  1
