# generated using pymatgen
data_Sc5Co19Si12
_symmetry_space_group_name_H-M   'P 1'
_cell_length_a   12.01500700
_cell_length_b   12.01500650
_cell_length_c   3.65835600
_cell_angle_alpha   90.00000000
_cell_angle_beta   90.00000000
_cell_angle_gamma   119.99999862
_symmetry_Int_Tables_number   1
_chemical_formula_structural   Sc5Co19Si12
_chemical_formula_sum   'Sc5 Co19 Si12'
_cell_volume   457.36680504
_cell_formula_units_Z   1
loop_
 _symmetry_equiv_pos_site_id
 _symmetry_equiv_pos_as_xyz
  1  'x, y, z'
loop_
 _atom_site_type_symbol
 _atom_site_label
 _atom_site_symmetry_multiplicity
 _atom_site_fract_x
 _atom_site_fract_y
 _atom_site_fract_z
 _atom_site_occupancy
  Sc  Sc0  1  0.333333  0.666667  0.500000  1
  Sc  Sc1  1  0.666667  0.333333  0.500000  1
  Sc  Sc2  1  0.184110  0.000000  0.000000  1
  Sc  Sc3  1  0.000000  0.184110  0.000000  1
  Sc  Sc4  1  0.815890  0.815890  0.000000  1
  Co  Co5  1  0.197843  0.377337  0.500000  1
  Co  Co6  1  0.622663  0.820506  0.500000  1
  Co  Co7  1  0.179494  0.802157  0.500000  1
  Co  Co8  1  0.820506  0.622663  0.500000  1
  Co  Co9  1  0.802157  0.179494  0.500000  1
  Co  Co10  1  0.377337  0.197843  0.500000  1
  Co  Co11  1  0.556528  0.000000  0.500000  1
  Co  Co12  1  0.000000  0.556528  0.500000  1
  Co  Co13  1  0.443472  0.443472  0.500000  1
  Co  Co14  1  0.123742  0.478477  0.000000  1
  Co  Co15  1  0.521523  0.645265  0.000000  1
  Co  Co16  1  0.354735  0.876258  0.000000  1
  Co  Co17  1  0.645265  0.521523  0.000000  1
  Co  Co18  1  0.876258  0.354735  0.000000  1
  Co  Co19  1  0.478477  0.123742  0.000000  1
  Co  Co20  1  0.717150  0.000000  0.000000  1
  Co  Co21  1  0.000000  0.717150  0.000000  1
  Co  Co22  1  0.282850  0.282850  0.000000  1
  Co  Co23  1  0.000000  0.000000  0.500000  1
  Si  Si24  1  0.366088  0.000000  0.500000  1
  Si  Si25  1  0.000000  0.366088  0.500000  1
  Si  Si26  1  0.633912  0.633912  0.500000  1
  Si  Si27  1  0.319098  0.482562  0.000000  1
  Si  Si28  1  0.517438  0.836535  0.000000  1
  Si  Si29  1  0.163465  0.680902  0.000000  1
  Si  Si30  1  0.836535  0.517438  0.000000  1
  Si  Si31  1  0.680902  0.163465  0.000000  1
  Si  Si32  1  0.482562  0.319098  0.000000  1
  Si  Si33  1  0.818334  0.000000  0.500000  1
  Si  Si34  1  0.000000  0.818334  0.500000  1
  Si  Si35  1  0.181666  0.181666  0.500000  1
