# generated using pymatgen
data_Hf2Zr6Co8Si13Ge
_symmetry_space_group_name_H-M   'P 1'
_cell_length_a   9.51933262
_cell_length_b   9.51933933
_cell_length_c   9.50761476
_cell_angle_alpha   94.08898223
_cell_angle_beta   94.17920389
_cell_angle_gamma   148.87076835
_symmetry_Int_Tables_number   1
_chemical_formula_structural   Hf2Zr6Co8Si13Ge
_chemical_formula_sum   'Hf2 Zr6 Co8 Si13 Ge1'
_cell_volume   429.02359212
_cell_formula_units_Z   1
loop_
 _symmetry_equiv_pos_site_id
 _symmetry_equiv_pos_as_xyz
  1  'x, y, z'
loop_
 _atom_site_type_symbol
 _atom_site_label
 _atom_site_symmetry_multiplicity
 _atom_site_fract_x
 _atom_site_fract_y
 _atom_site_fract_z
 _atom_site_occupancy
  Hf  Hf0  1  0.499675  0.697022  0.196719  1
  Hf  Hf1  1  0.502392  0.302722  0.805078  1
  Zr  Zr2  1  0.136815  0.137360  0.274157  1
  Zr  Zr3  1  0.863688  0.863148  0.726833  1
  Zr  Zr4  1  0.136787  0.862494  0.999307  1
  Zr  Zr5  1  0.863017  0.137326  0.000321  1
  Zr  Zr6  1  0.303361  0.502202  0.805557  1
  Zr  Zr7  1  0.696313  0.499666  0.195970  1
  Co  Co8  1  0.102945  0.602248  0.205017  1
  Co  Co9  1  0.397420  0.898189  0.795426  1
  Co  Co10  1  0.892640  0.100540  0.497533  1
  Co  Co11  1  0.605533  0.397527  0.498916  1
  Co  Co12  1  0.602770  0.102074  0.205031  1
  Co  Co13  1  0.897234  0.398010  0.795433  1
  Co  Co14  1  0.101411  0.893409  0.498907  1
  Co  Co15  1  0.396957  0.604860  0.497524  1
  Si  Si16  1  0.709790  0.710018  0.419845  1
  Si  Si17  1  0.289605  0.711246  0.000831  1
  Si  Si18  1  0.711056  0.289379  0.000459  1
  Si  Si19  1  0.091408  0.500315  0.591669  1
  Si  Si20  1  0.908786  0.499552  0.408257  1
  Si  Si21  1  0.499416  0.908877  0.408420  1
  Si  Si22  1  0.500226  0.091184  0.591495  1
  Si  Si23  1  0.252609  0.252629  0.999949  1
  Si  Si24  1  0.747320  0.747341  0.999939  1
  Si  Si25  1  0.301804  0.999508  0.301360  1
  Si  Si26  1  0.697669  0.000051  0.697763  1
  Si  Si27  1  0.000078  0.698424  0.698422  1
  Si  Si28  1  0.999548  0.301153  0.300672  1
  Ge  Ge29  1  0.291726  0.291529  0.583187  1
