# generated using pymatgen
data_Gd3Dy(SeO3)6
_symmetry_space_group_name_H-M   'P 1'
_cell_length_a   7.17978652
_cell_length_b   8.23784422
_cell_length_c   9.18774795
_cell_angle_alpha   71.21253976
_cell_angle_beta   70.04694745
_cell_angle_gamma   66.13830281
_symmetry_Int_Tables_number   1
_chemical_formula_structural   Gd3Dy(SeO3)6
_chemical_formula_sum   'Gd3 Dy1 Se6 O18'
_cell_volume   456.30943618
_cell_formula_units_Z   1
loop_
 _symmetry_equiv_pos_site_id
 _symmetry_equiv_pos_as_xyz
  1  'x, y, z'
loop_
 _atom_site_type_symbol
 _atom_site_label
 _atom_site_symmetry_multiplicity
 _atom_site_fract_x
 _atom_site_fract_y
 _atom_site_fract_z
 _atom_site_occupancy
  Gd  Gd0  1  0.333596  0.728893  0.590097  1
  Gd  Gd1  1  0.664685  0.273376  0.409499  1
  Gd  Gd2  1  0.740848  0.734924  0.800097  1
  Dy  Dy3  1  0.259253  0.263308  0.200461  1
  Se  Se4  1  0.426766  0.777944  0.197958  1
  Se  Se5  1  0.572321  0.225621  0.802199  1
  Se  Se6  1  0.149337  0.746667  0.966618  1
  Se  Se7  1  0.851067  0.248234  0.036504  1
  Se  Se8  1  0.886729  0.760874  0.414985  1
  Se  Se9  1  0.113579  0.240707  0.581859  1
  O  O10  1  0.647601  0.792852  0.053747  1
  O  O11  1  0.354192  0.209306  0.949723  1
  O  O12  1  0.360218  0.946034  0.300982  1
  O  O13  1  0.635884  0.058867  0.698629  1
  O  O14  1  0.514898  0.598143  0.349995  1
  O  O15  1  0.481611  0.405462  0.650978  1
  O  O16  1  0.169522  0.563389  0.119959  1
  O  O17  1  0.833892  0.429305  0.880841  1
  O  O18  1  0.405970  0.709936  0.851436  1
  O  O19  1  0.593155  0.288981  0.150700  1
  O  O20  1  0.342572  0.250868  0.434599  1
  O  O21  1  0.657849  0.748419  0.561403  1
  O  O22  1  0.970613  0.290998  0.442517  1
  O  O23  1  0.031980  0.708127  0.553354  1
  O  O24  1  0.157252  0.015762  0.654035  1
  O  O25  1  0.841939  0.986036  0.346059  1
  O  O26  1  0.935504  0.303617  0.165423  1
  O  O27  1  0.067166  0.693351  0.835342  1
