# generated using pymatgen
data_MgTa(NiSn)2
_symmetry_space_group_name_H-M   'P 1'
_cell_length_a   6.03235400
_cell_length_b   4.26469500
_cell_length_c   8.66229600
_cell_angle_alpha   90.00000000
_cell_angle_beta   90.00000000
_cell_angle_gamma   90.00000000
_symmetry_Int_Tables_number   1
_chemical_formula_structural   MgTa(NiSn)2
_chemical_formula_sum   'Mg2 Ta2 Ni4 Sn4'
_cell_volume   222.84752574
_cell_formula_units_Z   2
loop_
 _symmetry_equiv_pos_site_id
 _symmetry_equiv_pos_as_xyz
  1  'x, y, z'
loop_
 _atom_site_type_symbol
 _atom_site_label
 _atom_site_symmetry_multiplicity
 _atom_site_fract_x
 _atom_site_fract_y
 _atom_site_fract_z
 _atom_site_occupancy
  Mg  Mg0  1  0.004065  0.500000  0.377117  1
  Mg  Mg1  1  0.504065  0.000000  0.622883  1
  Ta  Ta2  1  0.495020  0.000000  0.123688  1
  Ta  Ta3  1  0.995021  0.500000  0.876314  1
  Ni  Ni4  1  0.737048  0.500000  0.114260  1
  Ni  Ni5  1  0.263452  0.000000  0.362709  1
  Ni  Ni6  1  0.763453  0.500000  0.637290  1
  Ni  Ni7  1  0.237049  0.000000  0.885739  1
  Sn  Sn8  1  0.992143  0.000000  0.128422  1
  Sn  Sn9  1  0.508273  0.500000  0.375852  1
  Sn  Sn10  1  0.008272  0.000000  0.624149  1
  Sn  Sn11  1  0.492142  0.500000  0.871578  1
