# generated using pymatgen
data_La2Er4FeI10
_symmetry_space_group_name_H-M   'P 1'
_cell_length_a   7.79432354
_cell_length_b   9.84464903
_cell_length_c   9.72385116
_cell_angle_alpha   106.51154911
_cell_angle_beta   95.44178385
_cell_angle_gamma   105.77019919
_symmetry_Int_Tables_number   1
_chemical_formula_structural   La2Er4FeI10
_chemical_formula_sum   'La2 Er4 Fe1 I10'
_cell_volume   676.36041184
_cell_formula_units_Z   1
loop_
 _symmetry_equiv_pos_site_id
 _symmetry_equiv_pos_as_xyz
  1  'x, y, z'
loop_
 _atom_site_type_symbol
 _atom_site_label
 _atom_site_symmetry_multiplicity
 _atom_site_fract_x
 _atom_site_fract_y
 _atom_site_fract_z
 _atom_site_occupancy
  La  La0  1  0.889595  0.958501  0.219207  1
  La  La1  1  0.110405  0.041499  0.780793  1
  Er  Er2  1  0.028879  0.716876  0.915219  1
  Er  Er3  1  0.971121  0.283124  0.084781  1
  Er  Er4  1  0.654248  0.875071  0.837389  1
  Er  Er5  1  0.345752  0.124929  0.162611  1
  Fe  Fe6  1  0.000000  0.000000  0.000000  1
  I  I7  1  0.654410  0.555370  0.733988  1
  I  I8  1  0.345590  0.444630  0.266012  1
  I  I9  1  0.732934  0.912086  0.547471  1
  I  I10  1  0.267066  0.087914  0.452529  1
  I  I11  1  0.082066  0.378571  0.824961  1
  I  I12  1  0.917934  0.621429  0.175039  1
  I  I13  1  0.446183  0.817946  0.089107  1
  I  I14  1  0.553817  0.182054  0.910893  1
  I  I15  1  0.227641  0.737558  0.661774  1
  I  I16  1  0.772359  0.262442  0.338226  1
