# generated using pymatgen
data_Er5Hf5Co4(Si5Ir)4
_symmetry_space_group_name_H-M   'P 1'
_cell_length_a   12.30875277
_cell_length_b   12.27243481
_cell_length_c   4.07772000
_cell_angle_alpha   90.00000000
_cell_angle_beta   90.00000000
_cell_angle_gamma   89.95902230
_symmetry_Int_Tables_number   1
_chemical_formula_structural   Er5Hf5Co4(Si5Ir)4
_chemical_formula_sum   'Er5 Hf5 Co4 Si20 Ir4'
_cell_volume   615.97356211
_cell_formula_units_Z   1
loop_
 _symmetry_equiv_pos_site_id
 _symmetry_equiv_pos_as_xyz
  1  'x, y, z'
loop_
 _atom_site_type_symbol
 _atom_site_label
 _atom_site_symmetry_multiplicity
 _atom_site_fract_x
 _atom_site_fract_y
 _atom_site_fract_z
 _atom_site_occupancy
  Er  Er0  1  0.000000  0.000000  0.000000  1
  Er  Er1  1  0.884706  0.385179  0.500000  1
  Er  Er2  1  0.115294  0.614821  0.500000  1
  Er  Er3  1  0.385947  0.115173  0.500000  1
  Er  Er4  1  0.614053  0.884827  0.500000  1
  Hf  Hf5  1  0.500000  0.500000  0.000000  1
  Hf  Hf6  1  0.676184  0.174303  0.500000  1
  Hf  Hf7  1  0.323816  0.825697  0.500000  1
  Hf  Hf8  1  0.177760  0.326950  0.500000  1
  Hf  Hf9  1  0.822240  0.673050  0.500000  1
  Co  Co10  1  0.740640  0.523406  0.000000  1
  Co  Co11  1  0.259360  0.476594  0.000000  1
  Co  Co12  1  0.245039  0.976081  0.000000  1
  Co  Co13  1  0.754961  0.023919  0.000000  1
  Si  Si14  1  0.571780  0.064162  0.000000  1
  Si  Si15  1  0.428220  0.935838  0.000000  1
  Si  Si16  1  0.073515  0.437446  0.000000  1
  Si  Si17  1  0.926485  0.562554  0.000000  1
  Si  Si18  1  0.665064  0.696464  0.000000  1
  Si  Si19  1  0.334936  0.303536  0.000000  1
  Si  Si20  1  0.164551  0.804647  0.000000  1
  Si  Si21  1  0.835449  0.195353  0.000000  1
  Si  Si22  1  0.297399  0.657318  0.000000  1
  Si  Si23  1  0.702601  0.342682  0.000000  1
  Si  Si24  1  0.202095  0.156423  0.000000  1
  Si  Si25  1  0.797905  0.843577  0.000000  1
  Si  Si26  1  0.660345  0.507386  0.500000  1
  Si  Si27  1  0.339655  0.492614  0.500000  1
  Si  Si28  1  0.165184  0.993737  0.500000  1
  Si  Si29  1  0.834816  0.006263  0.500000  1
  Si  Si30  1  0.492320  0.651831  0.500000  1
  Si  Si31  1  0.507680  0.348169  0.500000  1
  Si  Si32  1  0.007830  0.156608  0.500000  1
  Si  Si33  1  0.992170  0.843392  0.500000  1
  Ir  Ir34  1  0.476452  0.743512  0.000000  1
  Ir  Ir35  1  0.523548  0.256488  0.000000  1
  Ir  Ir36  1  0.023803  0.247193  0.000000  1
  Ir  Ir37  1  0.976197  0.752807  0.000000  1
