# generated using pymatgen
data_CsV4Cl11
_symmetry_space_group_name_H-M   'P 1'
_cell_length_a   7.09083400
_cell_length_b   6.51182000
_cell_length_c   17.56498000
_cell_angle_alpha   90.00000000
_cell_angle_beta   90.00000000
_cell_angle_gamma   90.00000000
_symmetry_Int_Tables_number   1
_chemical_formula_structural   CsV4Cl11
_chemical_formula_sum   'Cs2 V8 Cl22'
_cell_volume   811.04950828
_cell_formula_units_Z   2
loop_
 _symmetry_equiv_pos_site_id
 _symmetry_equiv_pos_as_xyz
  1  'x, y, z'
loop_
 _atom_site_type_symbol
 _atom_site_label
 _atom_site_symmetry_multiplicity
 _atom_site_fract_x
 _atom_site_fract_y
 _atom_site_fract_z
 _atom_site_occupancy
  Cs  Cs0  1  0.500000  0.509001  0.750000  1
  Cs  Cs1  1  0.500000  0.490999  0.250000  1
  V  V2  1  0.000000  0.851207  0.332696  1
  V  V3  1  0.738825  0.000000  0.000000  1
  V  V4  1  0.261175  0.000000  0.000000  1
  V  V5  1  0.000000  0.851207  0.167304  1
  V  V6  1  0.000000  0.148793  0.667304  1
  V  V7  1  0.261175  0.000000  0.500000  1
  V  V8  1  0.738825  0.000000  0.500000  1
  V  V9  1  0.000000  0.148793  0.832696  1
  Cl  Cl10  1  0.500000  0.172349  0.071750  1
  Cl  Cl11  1  0.241615  0.712566  0.087173  1
  Cl  Cl12  1  0.766731  0.002936  0.250000  1
  Cl  Cl13  1  0.000000  0.854092  0.921724  1
  Cl  Cl14  1  0.000000  0.145908  0.078276  1
  Cl  Cl15  1  0.500000  0.827651  0.928250  1
  Cl  Cl16  1  0.766731  0.997064  0.750000  1
  Cl  Cl17  1  0.000000  0.854092  0.578276  1
  Cl  Cl18  1  0.758385  0.712566  0.087173  1
  Cl  Cl19  1  0.000000  0.556176  0.250000  1
  Cl  Cl20  1  0.000000  0.145908  0.421724  1
  Cl  Cl21  1  0.000000  0.443824  0.750000  1
  Cl  Cl22  1  0.233269  0.997064  0.750000  1
  Cl  Cl23  1  0.758385  0.712566  0.412827  1
  Cl  Cl24  1  0.758385  0.287434  0.587173  1
  Cl  Cl25  1  0.241615  0.287434  0.912827  1
  Cl  Cl26  1  0.758385  0.287434  0.912827  1
  Cl  Cl27  1  0.241615  0.712566  0.412827  1
  Cl  Cl28  1  0.500000  0.172349  0.428250  1
  Cl  Cl29  1  0.241615  0.287434  0.587173  1
  Cl  Cl30  1  0.233269  0.002936  0.250000  1
  Cl  Cl31  1  0.500000  0.827651  0.571750  1
