# generated using pymatgen
data_DyY2Ho2Bi3
_symmetry_space_group_name_H-M   'P 1'
_cell_length_a   8.26222500
_cell_length_b   9.51878700
_cell_length_c   12.08832600
_cell_angle_alpha   90.00000000
_cell_angle_beta   90.00000000
_cell_angle_gamma   90.00000000
_symmetry_Int_Tables_number   1
_chemical_formula_structural   DyY2Ho2Bi3
_chemical_formula_sum   'Dy4 Y8 Ho8 Bi12'
_cell_volume   950.70283744
_cell_formula_units_Z   4
loop_
 _symmetry_equiv_pos_site_id
 _symmetry_equiv_pos_as_xyz
  1  'x, y, z'
loop_
 _atom_site_type_symbol
 _atom_site_label
 _atom_site_symmetry_multiplicity
 _atom_site_fract_x
 _atom_site_fract_y
 _atom_site_fract_z
 _atom_site_occupancy
  Dy  Dy0  1  0.306234  0.436664  0.940132  1
  Dy  Dy1  1  0.806234  0.063336  0.559868  1
  Dy  Dy2  1  0.693766  0.936664  0.059868  1
  Dy  Dy3  1  0.193766  0.563336  0.440132  1
  Y  Y4  1  0.186258  0.750028  0.719022  1
  Y  Y5  1  0.686258  0.749972  0.780978  1
  Y  Y6  1  0.813742  0.250028  0.280978  1
  Y  Y7  1  0.313742  0.249972  0.219022  1
  Y  Y8  1  0.353783  0.750002  0.215231  1
  Y  Y9  1  0.853783  0.749998  0.284769  1
  Y  Y10  1  0.646217  0.250002  0.784769  1
  Y  Y11  1  0.146217  0.249998  0.715231  1
  Ho  Ho12  1  0.026069  0.749997  0.989005  1
  Ho  Ho13  1  0.526069  0.750003  0.510995  1
  Ho  Ho14  1  0.973931  0.249997  0.010995  1
  Ho  Ho15  1  0.473931  0.250003  0.489005  1
  Ho  Ho16  1  0.693698  0.563381  0.059835  1
  Ho  Ho17  1  0.193698  0.936619  0.440165  1
  Ho  Ho18  1  0.306302  0.063381  0.940165  1
  Ho  Ho19  1  0.806302  0.436619  0.559835  1
  Bi  Bi20  1  0.433574  0.003749  0.673453  1
  Bi  Bi21  1  0.933574  0.496251  0.826547  1
  Bi  Bi22  1  0.566426  0.503749  0.326547  1
  Bi  Bi23  1  0.066426  0.996251  0.173453  1
  Bi  Bi24  1  0.566353  0.996255  0.326554  1
  Bi  Bi25  1  0.066353  0.503745  0.173446  1
  Bi  Bi26  1  0.433647  0.496255  0.673446  1
  Bi  Bi27  1  0.933647  0.003745  0.826554  1
  Bi  Bi28  1  0.409267  0.750147  0.958123  1
  Bi  Bi29  1  0.909267  0.749853  0.541877  1
  Bi  Bi30  1  0.590733  0.250147  0.041877  1
  Bi  Bi31  1  0.090733  0.249853  0.458123  1
