# generated using pymatgen
data_Ho7Co2Sn23Os4
_symmetry_space_group_name_H-M   'P 1'
_cell_length_a   9.78652891
_cell_length_b   9.83851916
_cell_length_c   10.05630129
_cell_angle_alpha   90.00000216
_cell_angle_beta   89.78010670
_cell_angle_gamma   120.17589294
_symmetry_Int_Tables_number   1
_chemical_formula_structural   Ho7Co2Sn23Os4
_chemical_formula_sum   'Ho7 Co2 Sn23 Os4'
_cell_volume   837.04839186
_cell_formula_units_Z   1
loop_
 _symmetry_equiv_pos_site_id
 _symmetry_equiv_pos_as_xyz
  1  'x, y, z'
loop_
 _atom_site_type_symbol
 _atom_site_label
 _atom_site_symmetry_multiplicity
 _atom_site_fract_x
 _atom_site_fract_y
 _atom_site_fract_z
 _atom_site_occupancy
  Ho  Ho0  1  0.000000  0.000000  0.000000  1
  Ho  Ho1  1  0.484052  0.518958  0.305817  1
  Ho  Ho2  1  0.515948  0.481042  0.694183  1
  Ho  Ho3  1  0.484052  0.965095  0.305817  1
  Ho  Ho4  1  0.515948  0.034905  0.694183  1
  Ho  Ho5  1  0.034741  0.517371  0.304138  1
  Ho  Ho6  1  0.965259  0.482629  0.695862  1
  Co  Co7  1  0.339067  0.169533  0.199338  1
  Co  Co8  1  0.660933  0.830467  0.800662  1
  Sn  Sn9  1  0.349338  0.002757  0.004895  1
  Sn  Sn10  1  0.650662  0.997243  0.995105  1
  Sn  Sn11  1  0.000000  0.349648  0.000000  1
  Sn  Sn12  1  0.000000  0.650352  0.000000  1
  Sn  Sn13  1  0.650662  0.653419  0.995105  1
  Sn  Sn14  1  0.349338  0.346581  0.004895  1
  Sn  Sn15  1  0.336384  0.668193  0.821287  1
  Sn  Sn16  1  0.663616  0.331807  0.178713  1
  Sn  Sn17  1  0.000000  0.000000  0.500000  1
  Sn  Sn18  1  0.780542  0.220149  0.461592  1
  Sn  Sn19  1  0.219458  0.779851  0.538408  1
  Sn  Sn20  1  0.780542  0.560394  0.461592  1
  Sn  Sn21  1  0.219458  0.439606  0.538408  1
  Sn  Sn22  1  0.437273  0.218636  0.454386  1
  Sn  Sn23  1  0.562727  0.781364  0.545614  1
  Sn  Sn24  1  0.335065  0.667532  0.124454  1
  Sn  Sn25  1  0.664935  0.332468  0.875546  1
  Sn  Sn26  1  0.121225  0.889060  0.275315  1
  Sn  Sn27  1  0.878775  0.110940  0.724685  1
  Sn  Sn28  1  0.121225  0.232165  0.275315  1
  Sn  Sn29  1  0.878775  0.767835  0.724685  1
  Sn  Sn30  1  0.763446  0.881722  0.276756  1
  Sn  Sn31  1  0.236554  0.118278  0.723244  1
  Os  Os32  1  0.829423  0.168446  0.200711  1
  Os  Os33  1  0.170577  0.831554  0.799289  1
  Os  Os34  1  0.829423  0.660978  0.200711  1
  Os  Os35  1  0.170577  0.339022  0.799289  1
