# generated using pymatgen
data_Er6Zn17Ir6Cl
_symmetry_space_group_name_H-M   'P 1'
_cell_length_a   8.96147901
_cell_length_b   8.96201690
_cell_length_c   8.96164000
_cell_angle_alpha   59.99588397
_cell_angle_beta   59.99868961
_cell_angle_gamma   59.99282793
_symmetry_Int_Tables_number   1
_chemical_formula_structural   Er6Zn17Ir6Cl
_chemical_formula_sum   'Er6 Zn17 Ir6 Cl1'
_cell_volume   508.88141558
_cell_formula_units_Z   1
loop_
 _symmetry_equiv_pos_site_id
 _symmetry_equiv_pos_as_xyz
  1  'x, y, z'
loop_
 _atom_site_type_symbol
 _atom_site_label
 _atom_site_symmetry_multiplicity
 _atom_site_fract_x
 _atom_site_fract_y
 _atom_site_fract_z
 _atom_site_occupancy
  Er  Er0  1  0.723841  0.276292  0.276239  1
  Er  Er1  1  0.723746  0.276349  0.723558  1
  Er  Er2  1  0.723862  0.723635  0.276231  1
  Er  Er3  1  0.276159  0.723708  0.723761  1
  Er  Er4  1  0.276254  0.723651  0.276442  1
  Er  Er5  1  0.276138  0.276365  0.723769  1
  Zn  Zn6  1  0.620942  0.126370  0.126312  1
  Zn  Zn7  1  0.126350  0.620931  0.126373  1
  Zn  Zn8  1  0.126295  0.126374  0.620932  1
  Zn  Zn9  1  0.126349  0.126341  0.126390  1
  Zn  Zn10  1  0.379058  0.873630  0.873688  1
  Zn  Zn11  1  0.873650  0.379069  0.873627  1
  Zn  Zn12  1  0.873705  0.873626  0.379068  1
  Zn  Zn13  1  0.873651  0.873659  0.873610  1
  Zn  Zn14  1  0.000000  0.000000  0.000000  1
  Zn  Zn15  1  0.997112  0.334305  0.334266  1
  Zn  Zn16  1  0.334259  0.997029  0.334367  1
  Zn  Zn17  1  0.334223  0.334360  0.997080  1
  Zn  Zn18  1  0.334264  0.334338  0.334332  1
  Zn  Zn19  1  0.002888  0.665695  0.665734  1
  Zn  Zn20  1  0.665741  0.002971  0.665633  1
  Zn  Zn21  1  0.665777  0.665640  0.002920  1
  Zn  Zn22  1  0.665736  0.665662  0.665668  1
  Ir  Ir23  1  0.500000  0.000000  0.000000  1
  Ir  Ir24  1  0.500000  0.000000  0.500000  1
  Ir  Ir25  1  0.500000  0.500000  0.000000  1
  Ir  Ir26  1  0.000000  0.500000  0.500000  1
  Ir  Ir27  1  0.000000  0.500000  0.000000  1
  Ir  Ir28  1  0.000000  0.000000  0.500000  1
  Cl  Cl29  1  0.500000  0.500000  0.500000  1
