# generated using pymatgen
data_Rb3LiMn4(MoO4)6
_symmetry_space_group_name_H-M   'P 1'
_cell_length_a   10.97906639
_cell_length_b   10.97906534
_cell_length_c   10.97906622
_cell_angle_alpha   85.69263019
_cell_angle_beta   85.69263525
_cell_angle_gamma   85.69262510
_symmetry_Int_Tables_number   1
_chemical_formula_structural   Rb3LiMn4(MoO4)6
_chemical_formula_sum   'Rb6 Li2 Mn8 Mo12 O48'
_cell_volume   1312.73481514
_cell_formula_units_Z   2
loop_
 _symmetry_equiv_pos_site_id
 _symmetry_equiv_pos_as_xyz
  1  'x, y, z'
loop_
 _atom_site_type_symbol
 _atom_site_label
 _atom_site_symmetry_multiplicity
 _atom_site_fract_x
 _atom_site_fract_y
 _atom_site_fract_z
 _atom_site_occupancy
  Rb  Rb0  1  0.197415  0.699335  0.437453  1
  Rb  Rb1  1  0.199335  0.697415  0.937453  1
  Rb  Rb2  1  0.437453  0.197415  0.699335  1
  Rb  Rb3  1  0.699335  0.437453  0.197415  1
  Rb  Rb4  1  0.697415  0.937453  0.199335  1
  Rb  Rb5  1  0.937453  0.199335  0.697415  1
  Li  Li6  1  0.247726  0.247726  0.247726  1
  Li  Li7  1  0.747726  0.747726  0.747726  1
  Mn  Mn8  1  0.004165  0.004165  0.004165  1
  Mn  Mn9  1  0.036259  0.464313  0.247379  1
  Mn  Mn10  1  0.247379  0.036259  0.464313  1
  Mn  Mn11  1  0.464313  0.247379  0.036259  1
  Mn  Mn12  1  0.504165  0.504165  0.504165  1
  Mn  Mn13  1  0.536259  0.747379  0.964313  1
  Mn  Mn14  1  0.747379  0.964313  0.536259  1
  Mn  Mn15  1  0.964313  0.536259  0.747379  1
  Mo  Mo16  1  0.031951  0.855404  0.690816  1
  Mo  Mo17  1  0.149007  0.310601  0.960591  1
  Mo  Mo18  1  0.190816  0.355404  0.531951  1
  Mo  Mo19  1  0.310601  0.960591  0.149007  1
  Mo  Mo20  1  0.355404  0.531951  0.190816  1
  Mo  Mo21  1  0.460591  0.810601  0.649007  1
  Mo  Mo22  1  0.531951  0.190816  0.355404  1
  Mo  Mo23  1  0.649007  0.460591  0.810601  1
  Mo  Mo24  1  0.690816  0.031951  0.855404  1
  Mo  Mo25  1  0.810601  0.649007  0.460591  1
  Mo  Mo26  1  0.855404  0.690816  0.031951  1
  Mo  Mo27  1  0.960591  0.149007  0.310601  1
  O  O28  1  0.060071  0.426822  0.613564  1
  O  O29  1  0.126857  0.333323  0.121944  1
  O  O30  1  0.121944  0.126857  0.333323  1
  O  O31  1  0.075630  0.176557  0.928509  1
  O  O32  1  0.083698  0.443975  0.877263  1
  O  O33  1  0.081754  0.694748  0.695824  1
  O  O34  1  0.064967  0.920084  0.828774  1
  O  O35  1  0.170363  0.381648  0.370339  1
  O  O36  1  0.113564  0.926822  0.560071  1
  O  O37  1  0.194748  0.581754  0.195824  1
  O  O38  1  0.195824  0.194748  0.581754  1
  O  O39  1  0.176557  0.928509  0.075630  1
  O  O40  1  0.333323  0.121944  0.126857  1
  O  O41  1  0.328774  0.420084  0.564967  1
  O  O42  1  0.294625  0.917438  0.311110  1
  O  O43  1  0.311110  0.294625  0.917438  1
  O  O44  1  0.370339  0.170363  0.381648  1
  O  O45  1  0.381648  0.370339  0.170363  1
  O  O46  1  0.426822  0.613564  0.060071  1
  O  O47  1  0.420084  0.564967  0.328774  1
  O  O48  1  0.377263  0.943975  0.583698  1
  O  O49  1  0.428509  0.676557  0.575630  1
  O  O50  1  0.443975  0.877263  0.083698  1
  O  O51  1  0.417438  0.794625  0.811110  1
  O  O52  1  0.581754  0.195824  0.194748  1
  O  O53  1  0.560071  0.113564  0.926822  1
  O  O54  1  0.564967  0.328774  0.420084  1
  O  O55  1  0.613564  0.060071  0.426822  1
  O  O56  1  0.575630  0.428509  0.676557  1
  O  O57  1  0.583698  0.377263  0.943975  1
  O  O58  1  0.626857  0.621944  0.833323  1
  O  O59  1  0.621944  0.833323  0.626857  1
  O  O60  1  0.694748  0.695824  0.081754  1
  O  O61  1  0.695824  0.081754  0.694748  1
  O  O62  1  0.676557  0.575630  0.428509  1
  O  O63  1  0.670363  0.870339  0.881648  1
  O  O64  1  0.828774  0.064967  0.920084  1
  O  O65  1  0.794625  0.811110  0.417438  1
  O  O66  1  0.811110  0.417438  0.794625  1
  O  O67  1  0.877263  0.083698  0.443975  1
  O  O68  1  0.833323  0.626857  0.621944  1
  O  O69  1  0.928509  0.075630  0.176557  1
  O  O70  1  0.917438  0.311110  0.294625  1
  O  O71  1  0.926822  0.560071  0.113564  1
  O  O72  1  0.920084  0.828774  0.064967  1
  O  O73  1  0.870339  0.881648  0.670363  1
  O  O74  1  0.881648  0.670363  0.870339  1
  O  O75  1  0.943975  0.583698  0.377263  1
