# generated using pymatgen
data_TbErAlZnPt2
_symmetry_space_group_name_H-M   'P 1'
_cell_length_a   4.36685500
_cell_length_b   6.83046100
_cell_length_c   7.90206500
_cell_angle_alpha   90.00000000
_cell_angle_beta   90.00000000
_cell_angle_gamma   90.00000000
_symmetry_Int_Tables_number   1
_chemical_formula_structural   TbErAlZnPt2
_chemical_formula_sum   'Tb2 Er2 Al2 Zn2 Pt4'
_cell_volume   235.69989295
_cell_formula_units_Z   2
loop_
 _symmetry_equiv_pos_site_id
 _symmetry_equiv_pos_as_xyz
  1  'x, y, z'
loop_
 _atom_site_type_symbol
 _atom_site_label
 _atom_site_symmetry_multiplicity
 _atom_site_fract_x
 _atom_site_fract_y
 _atom_site_fract_z
 _atom_site_occupancy
  Tb  Tb0  1  0.750000  0.970568  0.317702  1
  Tb  Tb1  1  0.750000  0.470568  0.182298  1
  Er  Er2  1  0.250000  0.026727  0.687527  1
  Er  Er3  1  0.250000  0.526727  0.812473  1
  Al  Al4  1  0.750000  0.856200  0.936936  1
  Al  Al5  1  0.750000  0.356200  0.563064  1
  Zn  Zn6  1  0.250000  0.152433  0.066932  1
  Zn  Zn7  1  0.250000  0.652433  0.433068  1
  Pt  Pt8  1  0.250000  0.262779  0.395098  1
  Pt  Pt9  1  0.250000  0.762779  0.104902  1
  Pt  Pt10  1  0.750000  0.731294  0.625367  1
  Pt  Pt11  1  0.750000  0.231294  0.874633  1
