# generated using pymatgen
data_NdEr2Sc2(In2Pt)2
_symmetry_space_group_name_H-M   'P 1'
_cell_length_a   3.55450400
_cell_length_b   8.04251300
_cell_length_c   17.97661000
_cell_angle_alpha   90.00000000
_cell_angle_beta   90.00000000
_cell_angle_gamma   90.00000000
_symmetry_Int_Tables_number   1
_chemical_formula_structural   NdEr2Sc2(In2Pt)2
_chemical_formula_sum   'Nd2 Er4 Sc4 In8 Pt4'
_cell_volume   513.89995000
_cell_formula_units_Z   2
loop_
 _symmetry_equiv_pos_site_id
 _symmetry_equiv_pos_as_xyz
  1  'x, y, z'
loop_
 _atom_site_type_symbol
 _atom_site_label
 _atom_site_symmetry_multiplicity
 _atom_site_fract_x
 _atom_site_fract_y
 _atom_site_fract_z
 _atom_site_occupancy
  Nd  Nd0  1  0.000000  0.000000  0.000000  1
  Nd  Nd1  1  0.000000  0.500000  0.500000  1
  Er  Er2  1  0.000000  0.240865  0.216310  1
  Er  Er3  1  0.000000  0.759135  0.783690  1
  Er  Er4  1  0.000000  0.259135  0.716310  1
  Er  Er5  1  0.000000  0.740865  0.283690  1
  Sc  Sc6  1  0.000000  0.121739  0.412541  1
  Sc  Sc7  1  0.000000  0.878261  0.587459  1
  Sc  Sc8  1  0.000000  0.378261  0.912541  1
  Sc  Sc9  1  0.000000  0.621739  0.087459  1
  In  In10  1  0.500000  0.413974  0.347737  1
  In  In11  1  0.500000  0.586026  0.652263  1
  In  In12  1  0.500000  0.086026  0.847737  1
  In  In13  1  0.500000  0.913974  0.152263  1
  In  In14  1  0.500000  0.313612  0.061984  1
  In  In15  1  0.500000  0.686388  0.938016  1
  In  In16  1  0.500000  0.186388  0.561984  1
  In  In17  1  0.500000  0.813612  0.438016  1
  Pt  Pt18  1  0.500000  0.030088  0.306626  1
  Pt  Pt19  1  0.500000  0.969912  0.693374  1
  Pt  Pt20  1  0.500000  0.469912  0.806626  1
  Pt  Pt21  1  0.500000  0.530088  0.193374  1
