# generated using pymatgen
data_Tb8Hg2OsPt
_symmetry_space_group_name_H-M   'P 1'
_cell_length_a   9.65446456
_cell_length_b   9.65447426
_cell_length_c   9.70563800
_cell_angle_alpha   59.82415594
_cell_angle_beta   59.82416274
_cell_angle_gamma   59.75634276
_symmetry_Int_Tables_number   1
_chemical_formula_structural   Tb8Hg2OsPt
_chemical_formula_sum   'Tb16 Hg4 Os2 Pt2'
_cell_volume   636.80234124
_cell_formula_units_Z   2
loop_
 _symmetry_equiv_pos_site_id
 _symmetry_equiv_pos_as_xyz
  1  'x, y, z'
loop_
 _atom_site_type_symbol
 _atom_site_label
 _atom_site_symmetry_multiplicity
 _atom_site_fract_x
 _atom_site_fract_y
 _atom_site_fract_z
 _atom_site_occupancy
  Tb  Tb0  1  0.351683  0.351686  0.353848  1
  Tb  Tb1  1  0.351668  0.351664  0.942805  1
  Tb  Tb2  1  0.347733  0.949828  0.351204  1
  Tb  Tb3  1  0.949829  0.347733  0.351203  1
  Tb  Tb4  1  0.813561  0.188595  0.191920  1
  Tb  Tb5  1  0.188590  0.813550  0.805940  1
  Tb  Tb6  1  0.188592  0.813562  0.191921  1
  Tb  Tb7  1  0.813550  0.188588  0.805941  1
  Tb  Tb8  1  0.189310  0.189311  0.810703  1
  Tb  Tb9  1  0.806806  0.806805  0.193192  1
  Tb  Tb10  1  0.938737  0.555817  0.566143  1
  Tb  Tb11  1  0.555828  0.938733  0.939297  1
  Tb  Tb12  1  0.555817  0.938739  0.566139  1
  Tb  Tb13  1  0.938735  0.555828  0.939297  1
  Tb  Tb14  1  0.562892  0.562893  0.937109  1
  Tb  Tb15  1  0.939675  0.939675  0.560327  1
  Hg  Hg16  1  0.584660  0.584660  0.584861  1
  Hg  Hg17  1  0.584670  0.584670  0.245808  1
  Hg  Hg18  1  0.585810  0.243466  0.585362  1
  Hg  Hg19  1  0.243466  0.585811  0.585362  1
  Os  Os20  1  0.144672  0.144670  0.136503  1
  Os  Os21  1  0.144674  0.144675  0.574157  1
  Pt  Pt22  1  0.145531  0.573512  0.140477  1
  Pt  Pt23  1  0.573512  0.145529  0.140481  1
