# generated using pymatgen
data_Tm5V3(P3Ir4)4
_symmetry_space_group_name_H-M   'P 1'
_cell_length_a   12.66704600
_cell_length_b   12.66704546
_cell_length_c   3.94008600
_cell_angle_alpha   90.00000000
_cell_angle_beta   90.00000000
_cell_angle_gamma   120.00000142
_symmetry_Int_Tables_number   1
_chemical_formula_structural   Tm5V3(P3Ir4)4
_chemical_formula_sum   'Tm5 V3 P12 Ir16'
_cell_volume   547.50363069
_cell_formula_units_Z   1
loop_
 _symmetry_equiv_pos_site_id
 _symmetry_equiv_pos_as_xyz
  1  'x, y, z'
loop_
 _atom_site_type_symbol
 _atom_site_label
 _atom_site_symmetry_multiplicity
 _atom_site_fract_x
 _atom_site_fract_y
 _atom_site_fract_z
 _atom_site_occupancy
  Tm  Tm0  1  0.333333  0.666667  0.000000  1
  Tm  Tm1  1  0.666667  0.333333  0.000000  1
  Tm  Tm2  1  0.812238  0.000000  0.500000  1
  Tm  Tm3  1  0.000000  0.812238  0.500000  1
  Tm  Tm4  1  0.187762  0.187762  0.500000  1
  V  V5  1  0.451016  0.000000  0.000000  1
  V  V6  1  0.000000  0.451016  0.000000  1
  V  V7  1  0.548984  0.548984  0.000000  1
  P  P8  1  0.176387  0.000000  0.000000  1
  P  P9  1  0.000000  0.176387  0.000000  1
  P  P10  1  0.823613  0.823613  0.000000  1
  P  P11  1  0.167368  0.483512  0.500000  1
  P  P12  1  0.516488  0.683856  0.500000  1
  P  P13  1  0.316144  0.832632  0.500000  1
  P  P14  1  0.683856  0.516488  0.500000  1
  P  P15  1  0.832632  0.316144  0.500000  1
  P  P16  1  0.483512  0.167368  0.500000  1
  P  P17  1  0.636752  0.000000  0.000000  1
  P  P18  1  0.000000  0.636752  0.000000  1
  P  P19  1  0.363248  0.363248  0.000000  1
  Ir  Ir20  1  0.357748  0.491273  0.500000  1
  Ir  Ir21  1  0.508727  0.866475  0.500000  1
  Ir  Ir22  1  0.133525  0.642252  0.500000  1
  Ir  Ir23  1  0.866475  0.508727  0.500000  1
  Ir  Ir24  1  0.642252  0.133525  0.500000  1
  Ir  Ir25  1  0.491273  0.357748  0.500000  1
  Ir  Ir26  1  0.178990  0.372979  0.000000  1
  Ir  Ir27  1  0.627021  0.806012  0.000000  1
  Ir  Ir28  1  0.193988  0.821010  0.000000  1
  Ir  Ir29  1  0.806012  0.627021  0.000000  1
  Ir  Ir30  1  0.821010  0.193988  0.000000  1
  Ir  Ir31  1  0.372979  0.178990  0.000000  1
  Ir  Ir32  1  0.284936  0.000000  0.500000  1
  Ir  Ir33  1  0.000000  0.284936  0.500000  1
  Ir  Ir34  1  0.715064  0.715064  0.500000  1
  Ir  Ir35  1  0.000000  0.000000  0.000000  1
