# generated using pymatgen
data_Hf6MnFe13Co2Si7
_symmetry_space_group_name_H-M   'P 1'
_cell_length_a   8.04893852
_cell_length_b   8.05115061
_cell_length_c   8.04547014
_cell_angle_alpha   60.11001075
_cell_angle_beta   60.14810298
_cell_angle_gamma   60.14302205
_symmetry_Int_Tables_number   1
_chemical_formula_structural   Hf6MnFe13Co2Si7
_chemical_formula_sum   'Hf6 Mn1 Fe13 Co2 Si7'
_cell_volume   369.78251775
_cell_formula_units_Z   1
loop_
 _symmetry_equiv_pos_site_id
 _symmetry_equiv_pos_as_xyz
  1  'x, y, z'
loop_
 _atom_site_type_symbol
 _atom_site_label
 _atom_site_symmetry_multiplicity
 _atom_site_fract_x
 _atom_site_fract_y
 _atom_site_fract_z
 _atom_site_occupancy
  Hf  Hf0  1  0.298947  0.702538  0.702403  1
  Hf  Hf1  1  0.701839  0.704919  0.298643  1
  Hf  Hf2  1  0.293633  0.293639  0.705303  1
  Hf  Hf3  1  0.705150  0.292151  0.292320  1
  Hf  Hf4  1  0.701835  0.298359  0.704771  1
  Hf  Hf5  1  0.292864  0.706087  0.292890  1
  Mn  Mn6  1  0.879367  0.877775  0.881079  1
  Fe  Fe7  1  0.324275  0.027517  0.325492  1
  Fe  Fe8  1  0.324168  0.324811  0.325106  1
  Fe  Fe9  1  0.676926  0.675903  0.973933  1
  Fe  Fe10  1  0.878251  0.877725  0.365872  1
  Fe  Fe11  1  0.676197  0.675344  0.675147  1
  Fe  Fe12  1  0.676903  0.974693  0.675421  1
  Fe  Fe13  1  0.324445  0.324800  0.027820  1
  Fe  Fe14  1  0.878090  0.365619  0.877977  1
  Fe  Fe15  1  0.637524  0.118929  0.117574  1
  Fe  Fe16  1  0.120565  0.638166  0.115967  1
  Fe  Fe17  1  0.124653  0.121853  0.120893  1
  Fe  Fe18  1  0.974344  0.676227  0.675914  1
  Fe  Fe19  1  0.365229  0.877861  0.878366  1
  Co  Co20  1  0.020865  0.326577  0.328127  1
  Co  Co21  1  0.119515  0.117172  0.640748  1
  Si  Si22  1  0.001765  0.001133  0.494042  1
  Si  Si23  1  0.001591  0.494735  0.001673  1
  Si  Si24  1  0.002471  0.003423  0.004820  1
  Si  Si25  1  0.501465  0.999769  0.499279  1
  Si  Si26  1  0.000850  0.501130  0.498039  1
  Si  Si27  1  0.496108  0.000468  0.000582  1
  Si  Si28  1  0.500161  0.500673  0.999795  1
