# generated using pymatgen
data_Tb8Ga12CoPd3
_symmetry_space_group_name_H-M   'P 1'
_cell_length_a   7.08386900
_cell_length_b   8.89719708
_cell_length_c   8.89719700
_cell_angle_alpha   119.99999600
_cell_angle_beta   90.00000000
_cell_angle_gamma   90.00000000
_symmetry_Int_Tables_number   1
_chemical_formula_structural   Tb8Ga12CoPd3
_chemical_formula_sum   'Tb8 Ga12 Co1 Pd3'
_cell_volume   485.63232590
_cell_formula_units_Z   1
loop_
 _symmetry_equiv_pos_site_id
 _symmetry_equiv_pos_as_xyz
  1  'x, y, z'
loop_
 _atom_site_type_symbol
 _atom_site_label
 _atom_site_symmetry_multiplicity
 _atom_site_fract_x
 _atom_site_fract_y
 _atom_site_fract_z
 _atom_site_occupancy
  Tb  Tb0  1  0.743573  0.000000  0.000000  1
  Tb  Tb1  1  0.247592  0.000000  0.000000  1
  Tb  Tb2  1  0.751174  0.481435  0.518565  1
  Tb  Tb3  1  0.255499  0.523698  0.476302  1
  Tb  Tb4  1  0.751174  0.037131  0.518565  1
  Tb  Tb5  1  0.255499  0.952605  0.476302  1
  Tb  Tb6  1  0.751174  0.481435  0.962869  1
  Tb  Tb7  1  0.255499  0.523698  0.047395  1
  Ga  Ga8  1  0.954731  0.833568  0.166432  1
  Ga  Ga9  1  0.047620  0.167867  0.832133  1
  Ga  Ga10  1  0.954731  0.332866  0.166432  1
  Ga  Ga11  1  0.454184  0.167065  0.832935  1
  Ga  Ga12  1  0.047620  0.664265  0.832133  1
  Ga  Ga13  1  0.547068  0.826482  0.173518  1
  Ga  Ga14  1  0.954731  0.833568  0.667134  1
  Ga  Ga15  1  0.454184  0.665868  0.832935  1
  Ga  Ga16  1  0.047620  0.167867  0.335735  1
  Ga  Ga17  1  0.547068  0.347038  0.173518  1
  Ga  Ga18  1  0.454184  0.167065  0.334132  1
  Ga  Ga19  1  0.547068  0.826482  0.652962  1
  Co  Co20  1  0.517253  0.666667  0.333333  1
  Pd  Pd21  1  0.959154  0.666667  0.333333  1
  Pd  Pd22  1  0.033610  0.333333  0.666667  1
  Pd  Pd23  1  0.467994  0.333333  0.666667  1
