# generated using pymatgen
data_Ho6Sc4BiPb5
_symmetry_space_group_name_H-M   'P 1'
_cell_length_a   8.88929100
_cell_length_b   8.88943170
_cell_length_c   6.32336600
_cell_angle_alpha   90.00000000
_cell_angle_beta   90.00000000
_cell_angle_gamma   119.99948016
_symmetry_Int_Tables_number   1
_chemical_formula_structural   Ho6Sc4BiPb5
_chemical_formula_sum   'Ho6 Sc4 Bi1 Pb5'
_cell_volume   432.73532323
_cell_formula_units_Z   1
loop_
 _symmetry_equiv_pos_site_id
 _symmetry_equiv_pos_as_xyz
  1  'x, y, z'
loop_
 _atom_site_type_symbol
 _atom_site_label
 _atom_site_symmetry_multiplicity
 _atom_site_fract_x
 _atom_site_fract_y
 _atom_site_fract_z
 _atom_site_occupancy
  Ho  Ho0  1  0.237677  0.000000  0.250000  1
  Ho  Ho1  1  0.238489  0.238921  0.750000  1
  Ho  Ho2  1  0.999569  0.761079  0.750000  1
  Ho  Ho3  1  0.002203  0.239999  0.250000  1
  Ho  Ho4  1  0.762204  0.760001  0.250000  1
  Ho  Ho5  1  0.761423  0.000000  0.750000  1
  Sc  Sc6  1  0.332512  0.665497  0.000473  1
  Sc  Sc7  1  0.667015  0.334503  0.499527  1
  Sc  Sc8  1  0.667015  0.334503  0.000473  1
  Sc  Sc9  1  0.332512  0.665497  0.499527  1
  Bi  Bi10  1  0.601515  0.000000  0.250000  1
  Pb  Pb11  1  0.601227  0.601678  0.750000  1
  Pb  Pb12  1  0.999548  0.398322  0.750000  1
  Pb  Pb13  1  0.999989  0.601068  0.250000  1
  Pb  Pb14  1  0.398922  0.398932  0.250000  1
  Pb  Pb15  1  0.398179  0.000000  0.750000  1
