# generated using pymatgen
data_Tb2Ni2Rh5
_symmetry_space_group_name_H-M   'P 1'
_cell_length_a   5.23795400
_cell_length_b   5.23795467
_cell_length_c   25.13429000
_cell_angle_alpha   90.00000000
_cell_angle_beta   90.00000000
_cell_angle_gamma   119.99999578
_symmetry_Int_Tables_number   1
_chemical_formula_structural   Tb2Ni2Rh5
_chemical_formula_sum   'Tb8 Ni8 Rh20'
_cell_volume   597.20122172
_cell_formula_units_Z   4
loop_
 _symmetry_equiv_pos_site_id
 _symmetry_equiv_pos_as_xyz
  1  'x, y, z'
loop_
 _atom_site_type_symbol
 _atom_site_label
 _atom_site_symmetry_multiplicity
 _atom_site_fract_x
 _atom_site_fract_y
 _atom_site_fract_z
 _atom_site_occupancy
  Tb  Tb0  1  0.333333  0.666667  0.470690  1
  Tb  Tb1  1  0.666667  0.333333  0.529310  1
  Tb  Tb2  1  0.666667  0.333333  0.970690  1
  Tb  Tb3  1  0.333333  0.666667  0.029310  1
  Tb  Tb4  1  0.333333  0.666667  0.325318  1
  Tb  Tb5  1  0.666667  0.333333  0.674682  1
  Tb  Tb6  1  0.666667  0.333333  0.825318  1
  Tb  Tb7  1  0.333333  0.666667  0.174682  1
  Ni  Ni8  1  0.000000  0.000000  0.331179  1
  Ni  Ni9  1  0.000000  0.000000  0.668821  1
  Ni  Ni10  1  0.000000  0.000000  0.831179  1
  Ni  Ni11  1  0.000000  0.000000  0.168821  1
  Ni  Ni12  1  0.333333  0.666667  0.669083  1
  Ni  Ni13  1  0.666667  0.333333  0.330917  1
  Ni  Ni14  1  0.666667  0.333333  0.169083  1
  Ni  Ni15  1  0.333333  0.666667  0.830917  1
  Rh  Rh16  1  0.000000  0.000000  0.500000  1
  Rh  Rh17  1  0.000000  0.000000  0.000000  1
  Rh  Rh18  1  0.833441  0.166559  0.250000  1
  Rh  Rh19  1  0.833441  0.666882  0.250000  1
  Rh  Rh20  1  0.333118  0.166559  0.250000  1
  Rh  Rh21  1  0.166559  0.833441  0.750000  1
  Rh  Rh22  1  0.166559  0.333118  0.750000  1
  Rh  Rh23  1  0.666882  0.833441  0.750000  1
  Rh  Rh24  1  0.832231  0.167769  0.412132  1
  Rh  Rh25  1  0.832231  0.664463  0.412132  1
  Rh  Rh26  1  0.335537  0.167769  0.412132  1
  Rh  Rh27  1  0.167769  0.832231  0.587868  1
  Rh  Rh28  1  0.167769  0.335537  0.587868  1
  Rh  Rh29  1  0.664463  0.832231  0.587868  1
  Rh  Rh30  1  0.167769  0.832231  0.912132  1
  Rh  Rh31  1  0.167769  0.335537  0.912132  1
  Rh  Rh32  1  0.664463  0.832231  0.912132  1
  Rh  Rh33  1  0.832231  0.167769  0.087868  1
  Rh  Rh34  1  0.832231  0.664463  0.087868  1
  Rh  Rh35  1  0.335537  0.167769  0.087868  1
