# generated using pymatgen
data_Dy3Mg2Sb3O14
_symmetry_space_group_name_H-M   'P 1'
_cell_length_a   7.20621474
_cell_length_b   7.20622044
_cell_length_c   7.20621898
_cell_angle_alpha   118.17314341
_cell_angle_beta   61.82681321
_cell_angle_gamma   118.17317448
_symmetry_Int_Tables_number   1
_chemical_formula_structural   Dy3Mg2Sb3O14
_chemical_formula_sum   'Dy3 Mg2 Sb3 O14'
_cell_volume   275.43654143
_cell_formula_units_Z   1
loop_
 _symmetry_equiv_pos_site_id
 _symmetry_equiv_pos_as_xyz
  1  'x, y, z'
loop_
 _atom_site_type_symbol
 _atom_site_label
 _atom_site_symmetry_multiplicity
 _atom_site_fract_x
 _atom_site_fract_y
 _atom_site_fract_z
 _atom_site_occupancy
  Dy  Dy0  1  0.999965  0.500026  0.999989  1
  Dy  Dy1  1  0.500029  0.999981  0.000020  1
  Dy  Dy2  1  0.500008  0.500012  0.499983  1
  Mg  Mg3  1  0.499696  0.499662  0.999935  1
  Mg  Mg4  1  0.000009  0.000007  0.500018  1
  Sb  Sb5  1  0.500021  0.000011  0.500005  1
  Sb  Sb6  1  0.000003  0.500018  0.499987  1
  Sb  Sb7  1  0.000008  0.000021  0.000005  1
  O  O8  1  0.617279  0.382668  0.117297  1
  O  O9  1  0.382663  0.617285  0.882679  1
  O  O10  1  0.084536  0.326603  0.173418  1
  O  O11  1  0.673471  0.915642  0.173456  1
  O  O12  1  0.673449  0.326586  0.584463  1
  O  O13  1  0.915646  0.673473  0.826549  1
  O  O14  1  0.326600  0.084526  0.826585  1
  O  O15  1  0.326576  0.673458  0.415580  1
  O  O16  1  0.651212  0.908036  0.591983  1
  O  O17  1  0.091974  0.348782  0.591964  1
  O  O18  1  0.091986  0.908044  0.151219  1
  O  O19  1  0.348794  0.091977  0.408043  1
  O  O20  1  0.908033  0.651197  0.408021  1
  O  O21  1  0.908045  0.091986  0.848802  1
