# generated using pymatgen
data_La16Cd4PdRu3
_symmetry_space_group_name_H-M   'P 1'
_cell_length_a   10.12567990
_cell_length_b   10.12567909
_cell_length_c   10.08616178
_cell_angle_alpha   59.87030458
_cell_angle_beta   59.87030775
_cell_angle_gamma   59.99999714
_symmetry_Int_Tables_number   1
_chemical_formula_structural   La16Cd4PdRu3
_chemical_formula_sum   'La16 Cd4 Pd1 Ru3'
_cell_volume   729.80213944
_cell_formula_units_Z   1
loop_
 _symmetry_equiv_pos_site_id
 _symmetry_equiv_pos_as_xyz
  1  'x, y, z'
loop_
 _atom_site_type_symbol
 _atom_site_label
 _atom_site_symmetry_multiplicity
 _atom_site_fract_x
 _atom_site_fract_y
 _atom_site_fract_z
 _atom_site_occupancy
  La  La0  1  0.900082  0.900082  0.907635  1
  La  La1  1  0.438107  0.438107  0.061215  1
  La  La2  1  0.059290  0.059290  0.432475  1
  La  La3  1  0.438107  0.062571  0.061215  1
  La  La4  1  0.310053  0.689834  0.310280  1
  La  La5  1  0.689834  0.689834  0.310280  1
  La  La6  1  0.689834  0.310053  0.310280  1
  La  La7  1  0.292203  0.900082  0.907635  1
  La  La8  1  0.900082  0.292203  0.907635  1
  La  La9  1  0.310891  0.686410  0.691808  1
  La  La10  1  0.903931  0.903931  0.288208  1
  La  La11  1  0.062571  0.438107  0.061215  1
  La  La12  1  0.310891  0.310891  0.691808  1
  La  La13  1  0.059290  0.448945  0.432475  1
  La  La14  1  0.448945  0.059290  0.432475  1
  La  La15  1  0.686410  0.310891  0.691808  1
  Cd  Cd16  1  0.670797  0.670797  0.987609  1
  Cd  Cd17  1  0.988074  0.670501  0.670924  1
  Cd  Cd18  1  0.670501  0.988074  0.670924  1
  Cd  Cd19  1  0.670501  0.670501  0.670924  1
  Pd  Pd20  1  0.109815  0.109815  0.670554  1
  Ru  Ru21  1  0.112550  0.112550  0.110207  1
  Ru  Ru22  1  0.112550  0.664693  0.110207  1
  Ru  Ru23  1  0.664693  0.112550  0.110207  1
