# generated using pymatgen
data_Y10AlNiPd2
_symmetry_space_group_name_H-M   'P 1'
_cell_length_a   9.47953096
_cell_length_b   9.58389690
_cell_length_c   9.33726000
_cell_angle_alpha   90.00000000
_cell_angle_beta   90.00000000
_cell_angle_gamma   120.36486056
_symmetry_Int_Tables_number   1
_chemical_formula_structural   Y10AlNiPd2
_chemical_formula_sum   'Y20 Al2 Ni2 Pd4'
_cell_volume   731.93173730
_cell_formula_units_Z   2
loop_
 _symmetry_equiv_pos_site_id
 _symmetry_equiv_pos_as_xyz
  1  'x, y, z'
loop_
 _atom_site_type_symbol
 _atom_site_label
 _atom_site_symmetry_multiplicity
 _atom_site_fract_x
 _atom_site_fract_y
 _atom_site_fract_z
 _atom_site_occupancy
  Y  Y0  1  0.005295  0.002648  0.534759  1
  Y  Y1  1  0.005295  0.002648  0.965241  1
  Y  Y2  1  0.531572  0.447164  0.250000  1
  Y  Y3  1  0.531572  0.084407  0.250000  1
  Y  Y4  1  0.910859  0.455430  0.250000  1
  Y  Y5  1  0.455636  0.542411  0.750000  1
  Y  Y6  1  0.455636  0.913225  0.750000  1
  Y  Y7  1  0.082830  0.541415  0.750000  1
  Y  Y8  1  0.204683  0.792222  0.438618  1
  Y  Y9  1  0.204683  0.412462  0.438618  1
  Y  Y10  1  0.590106  0.795054  0.438381  1
  Y  Y11  1  0.791515  0.206771  0.558514  1
  Y  Y12  1  0.791515  0.584744  0.558514  1
  Y  Y13  1  0.416251  0.208125  0.561179  1
  Y  Y14  1  0.791515  0.206771  0.941486  1
  Y  Y15  1  0.791515  0.584744  0.941486  1
  Y  Y16  1  0.416251  0.208125  0.938821  1
  Y  Y17  1  0.204683  0.792222  0.061382  1
  Y  Y18  1  0.204683  0.412462  0.061382  1
  Y  Y19  1  0.590106  0.795054  0.061619  1
  Al  Al20  1  0.894700  0.107059  0.250000  1
  Al  Al21  1  0.894700  0.787641  0.250000  1
  Ni  Ni22  1  0.333661  0.666831  0.250000  1
  Ni  Ni23  1  0.669610  0.334805  0.750000  1
  Pd  Pd24  1  0.226141  0.113070  0.250000  1
  Pd  Pd25  1  0.130041  0.871368  0.750000  1
  Pd  Pd26  1  0.130041  0.258672  0.750000  1
  Pd  Pd27  1  0.744902  0.872451  0.750000  1
