# generated using pymatgen
data_TbDyEr(CdGa)3
_symmetry_space_group_name_H-M   'P 1'
_cell_length_a   7.26151601
_cell_length_b   7.27548806
_cell_length_c   4.41058700
_cell_angle_alpha   90.00000000
_cell_angle_beta   90.00000000
_cell_angle_gamma   120.07385633
_symmetry_Int_Tables_number   1
_chemical_formula_structural   TbDyEr(CdGa)3
_chemical_formula_sum   'Tb1 Dy1 Er1 Cd3 Ga3'
_cell_volume   201.64746308
_cell_formula_units_Z   1
loop_
 _symmetry_equiv_pos_site_id
 _symmetry_equiv_pos_as_xyz
  1  'x, y, z'
loop_
 _atom_site_type_symbol
 _atom_site_label
 _atom_site_symmetry_multiplicity
 _atom_site_fract_x
 _atom_site_fract_y
 _atom_site_fract_z
 _atom_site_occupancy
  Tb  Tb0  1  0.424166  0.424413  0.500000  1
  Dy  Dy1  1  0.575860  0.000268  0.500000  1
  Er  Er2  1  0.000020  0.575978  0.500000  1
  Cd  Cd3  1  0.751211  0.750980  0.000000  1
  Cd  Cd4  1  0.248829  0.999745  0.000000  1
  Cd  Cd5  1  0.999974  0.249396  0.000000  1
  Ga  Ga6  1  0.667520  0.333684  0.000000  1
  Ga  Ga7  1  0.332473  0.666277  0.000000  1
  Ga  Ga8  1  0.999946  0.999259  0.500000  1
