# generated using pymatgen
data_Tb9HoCd4In4Pd3Pt
_symmetry_space_group_name_H-M   'P 1'
_cell_length_a   3.63444400
_cell_length_b   8.12615919
_cell_length_c   18.42191600
_cell_angle_alpha   90.01239528
_cell_angle_beta   90.00000000
_cell_angle_gamma   90.00000000
_symmetry_Int_Tables_number   1
_chemical_formula_structural   Tb9HoCd4In4Pd3Pt
_chemical_formula_sum   'Tb9 Ho1 Cd4 In4 Pd3 Pt1'
_cell_volume   544.07415337
_cell_formula_units_Z   1
loop_
 _symmetry_equiv_pos_site_id
 _symmetry_equiv_pos_as_xyz
  1  'x, y, z'
loop_
 _atom_site_type_symbol
 _atom_site_label
 _atom_site_symmetry_multiplicity
 _atom_site_fract_x
 _atom_site_fract_y
 _atom_site_fract_z
 _atom_site_occupancy
  Tb  Tb0  1  0.000000  0.500054  0.499732  1
  Tb  Tb1  1  0.000000  0.000071  0.000146  1
  Tb  Tb2  1  0.000000  0.739053  0.280362  1
  Tb  Tb3  1  0.000000  0.258129  0.718739  1
  Tb  Tb4  1  0.000000  0.757937  0.780919  1
  Tb  Tb5  1  0.000000  0.245258  0.219184  1
  Tb  Tb6  1  0.000000  0.612613  0.084760  1
  Tb  Tb7  1  0.000000  0.387117  0.916301  1
  Tb  Tb8  1  0.000000  0.886989  0.583508  1
  Ho  Ho9  1  0.000000  0.112414  0.415792  1
  Cd  Cd10  1  0.500000  0.712013  0.931202  1
  Cd  Cd11  1  0.500000  0.287363  0.068038  1
  Cd  Cd12  1  0.500000  0.789665  0.431668  1
  Cd  Cd13  1  0.500000  0.211183  0.568026  1
  In  In14  1  0.500000  0.575328  0.647944  1
  In  In15  1  0.500000  0.423063  0.352809  1
  In  In16  1  0.500000  0.926214  0.148214  1
  In  In17  1  0.500000  0.075035  0.851894  1
  Pd  Pd18  1  0.500000  0.475430  0.803219  1
  Pd  Pd19  1  0.500000  0.975572  0.696731  1
  Pd  Pd20  1  0.500000  0.025186  0.303934  1
  Pt  Pt21  1  0.500000  0.524315  0.196875  1
