# generated using pymatgen
data_CoRe3Tc3Ni
_symmetry_space_group_name_H-M   'P 1'
_cell_length_a   5.41271000
_cell_length_b   5.41271055
_cell_length_c   4.33373500
_cell_angle_alpha   90.00000000
_cell_angle_beta   90.00000000
_cell_angle_gamma   119.99999663
_symmetry_Int_Tables_number   1
_chemical_formula_structural   CoRe3Tc3Ni
_chemical_formula_sum   'Co1 Re3 Tc3 Ni1'
_cell_volume   109.95691857
_cell_formula_units_Z   1
loop_
 _symmetry_equiv_pos_site_id
 _symmetry_equiv_pos_as_xyz
  1  'x, y, z'
loop_
 _atom_site_type_symbol
 _atom_site_label
 _atom_site_symmetry_multiplicity
 _atom_site_fract_x
 _atom_site_fract_y
 _atom_site_fract_z
 _atom_site_occupancy
  Co  Co0  1  0.666667  0.333333  0.250000  1
  Re  Re1  1  0.166117  0.332235  0.250000  1
  Re  Re2  1  0.667765  0.833883  0.250000  1
  Re  Re3  1  0.166117  0.833883  0.250000  1
  Tc  Tc4  1  0.834066  0.668133  0.750000  1
  Tc  Tc5  1  0.331867  0.165934  0.750000  1
  Tc  Tc6  1  0.834066  0.165934  0.750000  1
  Ni  Ni7  1  0.333333  0.666667  0.750000  1
