# generated using pymatgen
data_ErTm5(Sc2Sn3)2
_symmetry_space_group_name_H-M   'P 1'
_cell_length_a   6.24223500
_cell_length_b   8.72297211
_cell_length_c   8.72807244
_cell_angle_alpha   119.98067248
_cell_angle_beta   90.00016134
_cell_angle_gamma   89.99968182
_symmetry_Int_Tables_number   1
_chemical_formula_structural   ErTm5(Sc2Sn3)2
_chemical_formula_sum   'Er1 Tm5 Sc4 Sn6'
_cell_volume   411.65947955
_cell_formula_units_Z   1
loop_
 _symmetry_equiv_pos_site_id
 _symmetry_equiv_pos_as_xyz
  1  'x, y, z'
loop_
 _atom_site_type_symbol
 _atom_site_label
 _atom_site_symmetry_multiplicity
 _atom_site_fract_x
 _atom_site_fract_y
 _atom_site_fract_z
 _atom_site_occupancy
  Er  Er0  1  0.749936  0.238191  0.000000  1
  Tm  Tm1  1  0.749997  0.761610  0.761696  1
  Tm  Tm2  1  0.749997  0.999915  0.238304  1
  Tm  Tm3  1  0.249994  0.762006  0.000000  1
  Tm  Tm4  1  0.250005  0.238245  0.238420  1
  Tm  Tm5  1  0.250005  0.999825  0.761580  1
  Sc  Sc6  1  0.499957  0.333375  0.666689  1
  Sc  Sc7  1  0.499957  0.666686  0.333311  1
  Sc  Sc8  1  0.000046  0.666687  0.333308  1
  Sc  Sc9  1  0.000046  0.333379  0.666692  1
  Sn  Sn10  1  0.750005  0.601100  0.000000  1
  Sn  Sn11  1  0.750018  0.399280  0.399574  1
  Sn  Sn12  1  0.750018  0.999706  0.600426  1
  Sn  Sn13  1  0.250004  0.399157  0.000000  1
  Sn  Sn14  1  0.250004  0.600857  0.600875  1
  Sn  Sn15  1  0.250004  0.999982  0.399125  1
