# generated using pymatgen
data_LaZn2GePd
_symmetry_space_group_name_H-M   'P 1'
_cell_length_a   6.09666500
_cell_length_b   6.09666549
_cell_length_c   5.81272800
_cell_angle_alpha   90.00000000
_cell_angle_beta   90.00000000
_cell_angle_gamma   116.81281915
_symmetry_Int_Tables_number   1
_chemical_formula_structural   LaZn2GePd
_chemical_formula_sum   'La2 Zn4 Ge2 Pd2'
_cell_volume   192.82599713
_cell_formula_units_Z   2
loop_
 _symmetry_equiv_pos_site_id
 _symmetry_equiv_pos_as_xyz
  1  'x, y, z'
loop_
 _atom_site_type_symbol
 _atom_site_label
 _atom_site_symmetry_multiplicity
 _atom_site_fract_x
 _atom_site_fract_y
 _atom_site_fract_z
 _atom_site_occupancy
  La  La0  1  0.273726  0.726274  0.750000  1
  La  La1  1  0.726274  0.273726  0.250000  1
  Zn  Zn2  1  0.782502  0.782502  0.000000  1
  Zn  Zn3  1  0.782502  0.782502  0.500000  1
  Zn  Zn4  1  0.217498  0.217498  0.000000  1
  Zn  Zn5  1  0.217498  0.217498  0.500000  1
  Ge  Ge6  1  0.844818  0.155182  0.750000  1
  Ge  Ge7  1  0.155182  0.844818  0.250000  1
  Pd  Pd8  1  0.608209  0.391791  0.750000  1
  Pd  Pd9  1  0.391791  0.608209  0.250000  1
