# generated using pymatgen
data_Tb3HoGa12Ni
_symmetry_space_group_name_H-M   'P 1'
_cell_length_a   7.45688712
_cell_length_b   7.47171487
_cell_length_c   7.45688684
_cell_angle_alpha   109.51150548
_cell_angle_beta   109.43089466
_cell_angle_gamma   109.51151251
_symmetry_Int_Tables_number   1
_chemical_formula_structural   Tb3HoGa12Ni
_chemical_formula_sum   'Tb3 Ho1 Ga12 Ni1'
_cell_volume   319.66669007
_cell_formula_units_Z   1
loop_
 _symmetry_equiv_pos_site_id
 _symmetry_equiv_pos_as_xyz
  1  'x, y, z'
loop_
 _atom_site_type_symbol
 _atom_site_label
 _atom_site_symmetry_multiplicity
 _atom_site_fract_x
 _atom_site_fract_y
 _atom_site_fract_z
 _atom_site_occupancy
  Tb  Tb0  1  0.000000  0.000000  0.500000  1
  Tb  Tb1  1  0.500000  0.000000  0.000000  1
  Tb  Tb2  1  0.500000  0.500000  0.500000  1
  Ho  Ho3  1  0.000000  0.500000  0.000000  1
  Ga  Ga4  1  0.750204  0.250204  0.500407  1
  Ga  Ga5  1  0.750204  0.500000  0.249796  1
  Ga  Ga6  1  0.500407  0.250204  0.750204  1
  Ga  Ga7  1  0.249796  0.500000  0.750204  1
  Ga  Ga8  1  0.249796  0.749796  0.499593  1
  Ga  Ga9  1  0.499593  0.749796  0.249796  1
  Ga  Ga10  1  0.710727  0.710421  0.000000  1
  Ga  Ga11  1  0.289273  0.999694  0.289273  1
  Ga  Ga12  1  0.000000  0.289579  0.289273  1
  Ga  Ga13  1  0.289273  0.289579  0.000000  1
  Ga  Ga14  1  0.710727  0.000306  0.710727  1
  Ga  Ga15  1  0.000000  0.710421  0.710727  1
  Ni  Ni16  1  0.000000  0.000000  0.000000  1
