# generated using pymatgen
data_Hf4Ti3Zn3Re2
_symmetry_space_group_name_H-M   'P 1'
_cell_length_a   5.30282400
_cell_length_b   5.32975416
_cell_length_c   8.61720900
_cell_angle_alpha   90.00000000
_cell_angle_beta   90.00000000
_cell_angle_gamma   119.83298273
_symmetry_Int_Tables_number   1
_chemical_formula_structural   Hf4Ti3Zn3Re2
_chemical_formula_sum   'Hf4 Ti3 Zn3 Re2'
_cell_volume   211.27110258
_cell_formula_units_Z   1
loop_
 _symmetry_equiv_pos_site_id
 _symmetry_equiv_pos_as_xyz
  1  'x, y, z'
loop_
 _atom_site_type_symbol
 _atom_site_label
 _atom_site_symmetry_multiplicity
 _atom_site_fract_x
 _atom_site_fract_y
 _atom_site_fract_z
 _atom_site_occupancy
  Hf  Hf0  1  0.331925  0.663852  0.067502  1
  Hf  Hf1  1  0.665352  0.330701  0.553852  1
  Hf  Hf2  1  0.665352  0.330701  0.946148  1
  Hf  Hf3  1  0.331925  0.663852  0.432498  1
  Ti  Ti4  1  0.002538  0.005076  0.994684  1
  Ti  Ti5  1  0.002538  0.005076  0.505316  1
  Ti  Ti6  1  0.831161  0.662322  0.250000  1
  Zn  Zn7  1  0.174362  0.826507  0.750000  1
  Zn  Zn8  1  0.652146  0.826507  0.750000  1
  Zn  Zn9  1  0.174783  0.349565  0.750000  1
  Re  Re10  1  0.338724  0.167920  0.250000  1
  Re  Re11  1  0.829195  0.167920  0.250000  1
