# generated using pymatgen
data_AcYb2(AgPb)3
_symmetry_space_group_name_H-M   'P 1'
_cell_length_a   4.99156300
_cell_length_b   4.99156380
_cell_length_c   11.32776400
_cell_angle_alpha   90.00000000
_cell_angle_beta   90.00000000
_cell_angle_gamma   120.00000131
_symmetry_Int_Tables_number   1
_chemical_formula_structural   AcYb2(AgPb)3
_chemical_formula_sum   'Ac1 Yb2 Ag3 Pb3'
_cell_volume   244.42633837
_cell_formula_units_Z   1
loop_
 _symmetry_equiv_pos_site_id
 _symmetry_equiv_pos_as_xyz
  1  'x, y, z'
loop_
 _atom_site_type_symbol
 _atom_site_label
 _atom_site_symmetry_multiplicity
 _atom_site_fract_x
 _atom_site_fract_y
 _atom_site_fract_z
 _atom_site_occupancy
  Ac  Ac0  1  0.666667  0.333333  0.335452  1
  Yb  Yb1  1  0.666667  0.333333  0.676763  1
  Yb  Yb2  1  0.666667  0.333333  0.990286  1
  Ag  Ag3  1  0.000000  0.000000  0.816629  1
  Ag  Ag4  1  0.333333  0.666667  0.535806  1
  Ag  Ag5  1  0.000000  0.000000  0.155990  1
  Pb  Pb6  1  0.333333  0.666667  0.138412  1
  Pb  Pb7  1  0.333333  0.666667  0.845039  1
  Pb  Pb8  1  0.000000  0.000000  0.505622  1
