# generated using pymatgen
data_Hf8Be8InAu3
_symmetry_space_group_name_H-M   'P 1'
_cell_length_a   6.31400200
_cell_length_b   6.31400200
_cell_length_c   7.81234800
_cell_angle_alpha   90.00000000
_cell_angle_beta   90.00000000
_cell_angle_gamma   90.00000000
_symmetry_Int_Tables_number   1
_chemical_formula_structural   Hf8Be8InAu3
_chemical_formula_sum   'Hf8 Be8 In1 Au3'
_cell_volume   311.45191884
_cell_formula_units_Z   1
loop_
 _symmetry_equiv_pos_site_id
 _symmetry_equiv_pos_as_xyz
  1  'x, y, z'
loop_
 _atom_site_type_symbol
 _atom_site_label
 _atom_site_symmetry_multiplicity
 _atom_site_fract_x
 _atom_site_fract_y
 _atom_site_fract_z
 _atom_site_occupancy
  Hf  Hf0  1  0.167872  0.171144  0.004438  1
  Hf  Hf1  1  0.832128  0.828856  0.004438  1
  Hf  Hf2  1  0.328856  0.667872  0.495562  1
  Hf  Hf3  1  0.671144  0.332128  0.495562  1
  Hf  Hf4  1  0.671473  0.331362  0.004450  1
  Hf  Hf5  1  0.328527  0.668638  0.004450  1
  Hf  Hf6  1  0.831362  0.828527  0.495550  1
  Hf  Hf7  1  0.168638  0.171473  0.495550  1
  Be  Be8  1  0.376758  0.376654  0.249349  1
  Be  Be9  1  0.623242  0.623346  0.249349  1
  Be  Be10  1  0.123346  0.876758  0.250651  1
  Be  Be11  1  0.876654  0.123242  0.250651  1
  Be  Be12  1  0.628604  0.613620  0.750454  1
  Be  Be13  1  0.371396  0.386380  0.750454  1
  Be  Be14  1  0.113620  0.871396  0.749546  1
  Be  Be15  1  0.886380  0.128604  0.749546  1
  In  In16  1  0.500000  0.000000  0.750000  1
  Au  Au17  1  0.500000  0.000000  0.250000  1
  Au  Au18  1  0.000000  0.500000  0.250000  1
  Au  Au19  1  0.000000  0.500000  0.750000  1
