# generated using pymatgen
data_Sm10Ru2Br15
_symmetry_space_group_name_H-M   'P 1'
_cell_length_a   9.49105409
_cell_length_b   10.37218724
_cell_length_c   11.14658265
_cell_angle_alpha   91.95012122
_cell_angle_beta   114.25875021
_cell_angle_gamma   110.76889979
_symmetry_Int_Tables_number   1
_chemical_formula_structural   Sm10Ru2Br15
_chemical_formula_sum   'Sm10 Ru2 Br15'
_cell_volume   914.37754173
_cell_formula_units_Z   1
loop_
 _symmetry_equiv_pos_site_id
 _symmetry_equiv_pos_as_xyz
  1  'x, y, z'
loop_
 _atom_site_type_symbol
 _atom_site_label
 _atom_site_symmetry_multiplicity
 _atom_site_fract_x
 _atom_site_fract_y
 _atom_site_fract_z
 _atom_site_occupancy
  Sm  Sm0  1  0.802599  0.408899  0.276515  1
  Sm  Sm1  1  0.197401  0.591101  0.723485  1
  Sm  Sm2  1  0.671896  0.746241  0.818590  1
  Sm  Sm3  1  0.328104  0.253759  0.181410  1
  Sm  Sm4  1  0.528653  0.704104  0.103717  1
  Sm  Sm5  1  0.471347  0.295896  0.896283  1
  Sm  Sm6  1  0.593066  0.044695  0.337530  1
  Sm  Sm7  1  0.406934  0.955305  0.662470  1
  Sm  Sm8  1  0.738207  0.081854  0.051573  1
  Sm  Sm9  1  0.261793  0.918146  0.948427  1
  Ru  Ru10  1  0.468356  0.828559  0.882265  1
  Ru  Ru11  1  0.531644  0.171441  0.117735  1
  Br  Br12  1  0.000000  0.000000  0.000000  1
  Br  Br13  1  0.638569  0.888248  0.587129  1
  Br  Br14  1  0.361431  0.111752  0.412871  1
  Br  Br15  1  0.887925  0.301655  0.525989  1
  Br  Br16  1  0.112075  0.698345  0.474011  1
  Br  Br17  1  0.298373  0.763458  0.187049  1
  Br  Br18  1  0.701627  0.236542  0.812951  1
  Br  Br19  1  0.063038  0.346231  0.227839  1
  Br  Br20  1  0.166691  0.059403  0.698756  1
  Br  Br21  1  0.833309  0.940597  0.301244  1
  Br  Br22  1  0.244622  0.414522  0.947161  1
  Br  Br23  1  0.755378  0.585478  0.052839  1
  Br  Br24  1  0.407510  0.465047  0.664901  1
  Br  Br25  1  0.592490  0.534953  0.335099  1
  Br  Br26  1  0.936962  0.653769  0.772161  1
