# generated using pymatgen
data_DyHo3(GaRu)4
_symmetry_space_group_name_H-M   'P 1'
_cell_length_a   4.51033100
_cell_length_b   7.10026801
_cell_length_c   7.17619461
_cell_angle_alpha   89.97421933
_cell_angle_beta   90.00000000
_cell_angle_gamma   90.00000000
_symmetry_Int_Tables_number   1
_chemical_formula_structural   DyHo3(GaRu)4
_chemical_formula_sum   'Dy1 Ho3 Ga4 Ru4'
_cell_volume   229.81444350
_cell_formula_units_Z   1
loop_
 _symmetry_equiv_pos_site_id
 _symmetry_equiv_pos_as_xyz
  1  'x, y, z'
loop_
 _atom_site_type_symbol
 _atom_site_label
 _atom_site_symmetry_multiplicity
 _atom_site_fract_x
 _atom_site_fract_y
 _atom_site_fract_z
 _atom_site_occupancy
  Dy  Dy0  1  0.750000  0.803938  0.480172  1
  Ho  Ho1  1  0.250000  0.196993  0.520307  1
  Ho  Ho2  1  0.250000  0.303332  0.020428  1
  Ho  Ho3  1  0.750000  0.696637  0.979953  1
  Ga  Ga4  1  0.250000  0.893014  0.197215  1
  Ga  Ga5  1  0.750000  0.392577  0.301989  1
  Ga  Ga6  1  0.250000  0.606069  0.698880  1
  Ga  Ga7  1  0.750000  0.107705  0.802237  1
  Ru  Ru8  1  0.250000  0.937827  0.841172  1
  Ru  Ru9  1  0.250000  0.561843  0.341829  1
  Ru  Ru10  1  0.750000  0.062331  0.157724  1
  Ru  Ru11  1  0.750000  0.437733  0.658095  1
