# generated using pymatgen
data_Er2NpB2Ru5
_symmetry_space_group_name_H-M   'P 1'
_cell_length_a   9.69547900
_cell_length_b   9.69547900
_cell_length_c   3.17038100
_cell_angle_alpha   90.00000000
_cell_angle_beta   90.00000000
_cell_angle_gamma   90.00000000
_symmetry_Int_Tables_number   1
_chemical_formula_structural   Er2NpB2Ru5
_chemical_formula_sum   'Er4 Np2 B4 Ru10'
_cell_volume   298.02314722
_cell_formula_units_Z   2
loop_
 _symmetry_equiv_pos_site_id
 _symmetry_equiv_pos_as_xyz
  1  'x, y, z'
loop_
 _atom_site_type_symbol
 _atom_site_label
 _atom_site_symmetry_multiplicity
 _atom_site_fract_x
 _atom_site_fract_y
 _atom_site_fract_z
 _atom_site_occupancy
  Er  Er0  1  0.827887  0.672113  0.000000  1
  Er  Er1  1  0.172113  0.327887  0.000000  1
  Er  Er2  1  0.327887  0.827887  0.000000  1
  Er  Er3  1  0.672113  0.172113  0.000000  1
  Np  Np4  1  0.500000  0.500000  0.000000  1
  Np  Np5  1  0.000000  0.000000  0.000000  1
  B  B6  1  0.620221  0.879779  0.000000  1
  B  B7  1  0.379779  0.120221  0.000000  1
  B  B8  1  0.120221  0.620221  0.000000  1
  B  B9  1  0.879779  0.379779  0.000000  1
  Ru  Ru10  1  0.571897  0.718158  0.500000  1
  Ru  Ru11  1  0.428103  0.281842  0.500000  1
  Ru  Ru12  1  0.071897  0.781842  0.500000  1
  Ru  Ru13  1  0.928103  0.218158  0.500000  1
  Ru  Ru14  1  0.281842  0.571897  0.500000  1
  Ru  Ru15  1  0.718158  0.428103  0.500000  1
  Ru  Ru16  1  0.218158  0.071897  0.500000  1
  Ru  Ru17  1  0.781842  0.928103  0.500000  1
  Ru  Ru18  1  0.500000  0.000000  0.500000  1
  Ru  Ru19  1  0.000000  0.500000  0.500000  1
