# generated using pymatgen
data_Cd3GeP6N13
_symmetry_space_group_name_H-M   'P 1'
_cell_length_a   7.18268361
_cell_length_b   7.24965958
_cell_length_c   7.24966063
_cell_angle_alpha   109.65761318
_cell_angle_beta   109.28418343
_cell_angle_gamma   109.28418510
_symmetry_Int_Tables_number   1
_chemical_formula_structural   Cd3GeP6N13
_chemical_formula_sum   'Cd3 Ge1 P6 N13'
_cell_volume   291.27108761
_cell_formula_units_Z   1
loop_
 _symmetry_equiv_pos_site_id
 _symmetry_equiv_pos_as_xyz
  1  'x, y, z'
loop_
 _atom_site_type_symbol
 _atom_site_label
 _atom_site_symmetry_multiplicity
 _atom_site_fract_x
 _atom_site_fract_y
 _atom_site_fract_z
 _atom_site_occupancy
  Cd  Cd0  1  0.996277  0.000000  0.711907  1
  Cd  Cd1  1  0.996277  0.711907  0.000000  1
  Cd  Cd2  1  0.284371  0.288093  0.288093  1
  Ge  Ge3  1  0.684416  0.000000  0.000000  1
  P  P4  1  0.254067  0.748584  0.500323  1
  P  P5  1  0.753744  0.248262  0.499677  1
  P  P6  1  0.753744  0.499677  0.248262  1
  P  P7  1  0.254067  0.500323  0.748584  1
  P  P8  1  0.505483  0.751738  0.251416  1
  P  P9  1  0.505483  0.251416  0.751738  1
  N  N10  1  0.954128  0.000000  0.000000  1
  N  N11  1  0.715058  0.269389  0.269389  1
  N  N12  1  0.281982  0.720770  0.279241  1
  N  N13  1  0.298417  0.567787  0.567787  1
  N  N14  1  0.561212  0.558471  0.279230  1
  N  N15  1  0.445669  0.730611  0.000000  1
  N  N16  1  0.002742  0.720759  0.441529  1
  N  N17  1  0.561212  0.279230  0.558471  1
  N  N18  1  0.730629  0.000000  0.432213  1
  N  N19  1  0.445669  0.000000  0.730611  1
  N  N20  1  0.730629  0.432213  0.000000  1
  N  N21  1  0.281982  0.279241  0.720770  1
  N  N22  1  0.002742  0.441529  0.720759  1
