# generated using pymatgen
data_Tb3Zn2B4Rh9
_symmetry_space_group_name_H-M   'P 1'
_cell_length_a   5.49967043
_cell_length_b   5.49872345
_cell_length_c   10.13682500
_cell_angle_alpha   89.99931770
_cell_angle_beta   90.00014286
_cell_angle_gamma   119.99807607
_symmetry_Int_Tables_number   1
_chemical_formula_structural   Tb3Zn2B4Rh9
_chemical_formula_sum   'Tb3 Zn2 B4 Rh9'
_cell_volume   265.48472764
_cell_formula_units_Z   1
loop_
 _symmetry_equiv_pos_site_id
 _symmetry_equiv_pos_as_xyz
  1  'x, y, z'
loop_
 _atom_site_type_symbol
 _atom_site_label
 _atom_site_symmetry_multiplicity
 _atom_site_fract_x
 _atom_site_fract_y
 _atom_site_fract_z
 _atom_site_occupancy
  Tb  Tb0  1  0.999987  0.000000  0.999969  1
  Tb  Tb1  1  0.999995  0.999997  0.339757  1
  Tb  Tb2  1  0.000001  0.000000  0.660319  1
  Zn  Zn3  1  0.333331  0.666647  0.999983  1
  Zn  Zn4  1  0.666646  0.333352  0.999983  1
  B  B5  1  0.333343  0.666641  0.346556  1
  B  B6  1  0.666646  0.333362  0.346555  1
  B  B7  1  0.666682  0.333353  0.653436  1
  B  B8  1  0.333310  0.666646  0.653435  1
  Rh  Rh9  1  0.499998  0.000002  0.500013  1
  Rh  Rh10  1  0.499997  0.500000  0.500009  1
  Rh  Rh11  1  0.999999  0.500001  0.500009  1
  Rh  Rh12  1  0.499996  0.000001  0.209277  1
  Rh  Rh13  1  0.499988  0.499996  0.209276  1
  Rh  Rh14  1  0.999994  0.500001  0.209282  1
  Rh  Rh15  1  0.500000  0.000000  0.790721  1
  Rh  Rh16  1  0.499993  0.499997  0.790699  1
  Rh  Rh17  1  0.999996  0.500003  0.790724  1
