# generated using pymatgen
data_Ho4Al4Pd2RuRh
_symmetry_space_group_name_H-M   'P 1'
_cell_length_a   4.19908500
_cell_length_b   6.94926648
_cell_length_c   7.99687648
_cell_angle_alpha   89.95888752
_cell_angle_beta   90.00000000
_cell_angle_gamma   90.00000000
_symmetry_Int_Tables_number   1
_chemical_formula_structural   Ho4Al4Pd2RuRh
_chemical_formula_sum   'Ho4 Al4 Pd2 Ru1 Rh1'
_cell_volume   233.35327891
_cell_formula_units_Z   1
loop_
 _symmetry_equiv_pos_site_id
 _symmetry_equiv_pos_as_xyz
  1  'x, y, z'
loop_
 _atom_site_type_symbol
 _atom_site_label
 _atom_site_symmetry_multiplicity
 _atom_site_fract_x
 _atom_site_fract_y
 _atom_site_fract_z
 _atom_site_occupancy
  Ho  Ho0  1  0.250000  0.539644  0.187159  1
  Ho  Ho1  1  0.750000  0.461650  0.815311  1
  Ho  Ho2  1  0.750000  0.968750  0.674167  1
  Ho  Ho3  1  0.250000  0.026141  0.325209  1
  Al  Al4  1  0.250000  0.635666  0.557153  1
  Al  Al5  1  0.750000  0.366081  0.441357  1
  Al  Al6  1  0.750000  0.861357  0.063624  1
  Al  Al7  1  0.250000  0.138648  0.936485  1
  Pd  Pd8  1  0.250000  0.767418  0.877473  1
  Pd  Pd9  1  0.750000  0.232228  0.122121  1
  Ru  Ru10  1  0.750000  0.737550  0.376847  1
  Rh  Rh11  1  0.250000  0.264869  0.623093  1
