# generated using pymatgen
data_Pr2Y4CuRh17
_symmetry_space_group_name_H-M   'P 1'
_cell_length_a   5.32858513
_cell_length_b   5.32856669
_cell_length_c   17.39991800
_cell_angle_alpha   90.00000000
_cell_angle_beta   90.00000000
_cell_angle_gamma   119.99903193
_symmetry_Int_Tables_number   1
_chemical_formula_structural   Pr2Y4CuRh17
_chemical_formula_sum   'Pr2 Y4 Cu1 Rh17'
_cell_volume   427.86265735
_cell_formula_units_Z   1
loop_
 _symmetry_equiv_pos_site_id
 _symmetry_equiv_pos_as_xyz
  1  'x, y, z'
loop_
 _atom_site_type_symbol
 _atom_site_label
 _atom_site_symmetry_multiplicity
 _atom_site_fract_x
 _atom_site_fract_y
 _atom_site_fract_z
 _atom_site_occupancy
  Pr  Pr0  1  0.333338  0.666664  0.750000  1
  Pr  Pr1  1  0.666671  0.333321  0.250000  1
  Y  Y2  1  0.333329  0.666674  0.958473  1
  Y  Y3  1  0.666670  0.333337  0.041756  1
  Y  Y4  1  0.666670  0.333337  0.458244  1
  Y  Y5  1  0.333329  0.666674  0.541527  1
  Cu  Cu6  1  0.333345  0.666720  0.250000  1
  Rh  Rh7  1  0.168736  0.831260  0.373988  1
  Rh  Rh8  1  0.168729  0.337455  0.373969  1
  Rh  Rh9  1  0.662536  0.831264  0.373982  1
  Rh  Rh10  1  0.832910  0.167079  0.624185  1
  Rh  Rh11  1  0.832906  0.665812  0.624218  1
  Rh  Rh12  1  0.334176  0.167085  0.624208  1
  Rh  Rh13  1  0.832910  0.167079  0.875815  1
  Rh  Rh14  1  0.832906  0.665812  0.875782  1
  Rh  Rh15  1  0.334176  0.167085  0.875792  1
  Rh  Rh16  1  0.168736  0.831260  0.126012  1
  Rh  Rh17  1  0.168729  0.337455  0.126031  1
  Rh  Rh18  1  0.662536  0.831264  0.126018  1
  Rh  Rh19  1  0.666723  0.333123  0.750000  1
  Rh  Rh20  1  0.000006  0.999902  0.250000  1
  Rh  Rh21  1  0.999940  0.000246  0.750000  1
  Rh  Rh22  1  0.999997  0.000046  0.497769  1
  Rh  Rh23  1  0.999997  0.000046  0.002231  1
