# generated using pymatgen
data_Ba2InCoO5
_symmetry_space_group_name_H-M   'P 1'
_cell_length_a   6.01352200
_cell_length_b   7.98008292
_cell_length_c   12.29280546
_cell_angle_alpha   91.69175887
_cell_angle_beta   90.00000000
_cell_angle_gamma   90.00000000
_symmetry_Int_Tables_number   1
_chemical_formula_structural   Ba2InCoO5
_chemical_formula_sum   'Ba8 In4 Co4 O20'
_cell_volume   589.65498417
_cell_formula_units_Z   4
loop_
 _symmetry_equiv_pos_site_id
 _symmetry_equiv_pos_as_xyz
  1  'x, y, z'
loop_
 _atom_site_type_symbol
 _atom_site_label
 _atom_site_symmetry_multiplicity
 _atom_site_fract_x
 _atom_site_fract_y
 _atom_site_fract_z
 _atom_site_occupancy
  Ba  Ba0  1  0.759159  0.494094  0.361196  1
  Ba  Ba1  1  0.740841  0.994094  0.861196  1
  Ba  Ba2  1  0.240841  0.505906  0.638804  1
  Ba  Ba3  1  0.259159  0.005906  0.138804  1
  Ba  Ba4  1  0.755855  0.991910  0.383990  1
  Ba  Ba5  1  0.744145  0.491910  0.883990  1
  Ba  Ba6  1  0.244145  0.008090  0.616010  1
  Ba  Ba7  1  0.255855  0.508090  0.116010  1
  In  In8  1  0.747266  0.263478  0.629726  1
  In  In9  1  0.752734  0.763478  0.129726  1
  In  In10  1  0.252734  0.736522  0.370274  1
  In  In11  1  0.247266  0.236522  0.870274  1
  Co  Co12  1  0.741890  0.746008  0.590750  1
  Co  Co13  1  0.758110  0.246008  0.090750  1
  Co  Co14  1  0.258110  0.253992  0.409250  1
  Co  Co15  1  0.241890  0.753992  0.909250  1
  O  O16  1  0.754761  0.968085  0.633504  1
  O  O17  1  0.745239  0.468085  0.133504  1
  O  O18  1  0.245239  0.031915  0.366496  1
  O  O19  1  0.254761  0.531915  0.866496  1
  O  O20  1  0.739609  0.056552  0.169811  1
  O  O21  1  0.760391  0.556552  0.669811  1
  O  O22  1  0.260391  0.943448  0.830189  1
  O  O23  1  0.239609  0.443448  0.330189  1
  O  O24  1  0.534801  0.747153  0.266865  1
  O  O25  1  0.965199  0.247153  0.766865  1
  O  O26  1  0.465199  0.252847  0.733135  1
  O  O27  1  0.034801  0.752847  0.233135  1
  O  O28  1  0.520863  0.229373  0.985086  1
  O  O29  1  0.979137  0.729373  0.485086  1
  O  O30  1  0.479137  0.770627  0.014914  1
  O  O31  1  0.020863  0.270627  0.514914  1
  O  O32  1  0.034605  0.233147  0.013485  1
  O  O33  1  0.465395  0.733147  0.513485  1
  O  O34  1  0.965395  0.766853  0.986515  1
  O  O35  1  0.534605  0.266853  0.486515  1
