# generated using pymatgen
data_Nd2LuMg3Ga2Hg
_symmetry_space_group_name_H-M   'P 1'
_cell_length_a   7.44514508
_cell_length_b   7.55592165
_cell_length_c   4.46540200
_cell_angle_alpha   90.00000000
_cell_angle_beta   90.00000000
_cell_angle_gamma   120.49342664
_symmetry_Int_Tables_number   1
_chemical_formula_structural   Nd2LuMg3Ga2Hg
_chemical_formula_sum   'Nd2 Lu1 Mg3 Ga2 Hg1'
_cell_volume   216.45663753
_cell_formula_units_Z   1
loop_
 _symmetry_equiv_pos_site_id
 _symmetry_equiv_pos_as_xyz
  1  'x, y, z'
loop_
 _atom_site_type_symbol
 _atom_site_label
 _atom_site_symmetry_multiplicity
 _atom_site_fract_x
 _atom_site_fract_y
 _atom_site_fract_z
 _atom_site_occupancy
  Nd  Nd0  1  0.574653  0.572314  0.000000  1
  Nd  Nd1  1  0.425347  0.997661  0.000000  1
  Lu  Lu2  1  0.000000  0.425027  0.000000  1
  Mg  Mg3  1  0.000000  0.749993  0.500000  1
  Mg  Mg4  1  0.246172  0.248569  0.500000  1
  Mg  Mg5  1  0.753828  0.002397  0.500000  1
  Ga  Ga6  1  0.674951  0.334806  0.500000  1
  Ga  Ga7  1  0.325049  0.659856  0.500000  1
  Hg  Hg8  1  0.000000  0.009377  0.000000  1
