# generated using pymatgen
data_Pr2Nd3YIrI10
_symmetry_space_group_name_H-M   'P 1'
_cell_length_a   7.96247396
_cell_length_b   10.03896651
_cell_length_c   9.99679190
_cell_angle_alpha   107.24110075
_cell_angle_beta   96.40838249
_cell_angle_gamma   104.87792430
_symmetry_Int_Tables_number   1
_chemical_formula_structural   Pr2Nd3YIrI10
_chemical_formula_sum   'Pr2 Nd3 Y1 Ir1 I10'
_cell_volume   722.18758811
_cell_formula_units_Z   1
loop_
 _symmetry_equiv_pos_site_id
 _symmetry_equiv_pos_as_xyz
  1  'x, y, z'
loop_
 _atom_site_type_symbol
 _atom_site_label
 _atom_site_symmetry_multiplicity
 _atom_site_fract_x
 _atom_site_fract_y
 _atom_site_fract_z
 _atom_site_occupancy
  Pr  Pr0  1  0.113806  0.041412  0.760063  1
  Pr  Pr1  1  0.881012  0.956576  0.238013  1
  Nd  Nd2  1  0.966382  0.289538  0.086533  1
  Nd  Nd3  1  0.029560  0.709323  0.911179  1
  Nd  Nd4  1  0.353420  0.127313  0.168392  1
  Y  Y5  1  0.653911  0.875155  0.835277  1
  Ir  Ir6  1  0.998371  0.999397  0.999639  1
  I  I7  1  0.350847  0.451878  0.271634  1
  I  I8  1  0.644203  0.555496  0.728519  1
  I  I9  1  0.257800  0.085786  0.458253  1
  I  I10  1  0.735815  0.911581  0.546337  1
  I  I11  1  0.086413  0.371549  0.819146  1
  I  I12  1  0.913554  0.628587  0.180430  1
  I  I13  1  0.454957  0.815499  0.085769  1
  I  I14  1  0.547039  0.176715  0.904733  1
  I  I15  1  0.779214  0.258310  0.348171  1
  I  I16  1  0.233696  0.745886  0.657913  1
