# generated using pymatgen
data_Ho2ErZr7(In2Pt)4
_symmetry_space_group_name_H-M   'P 1'
_cell_length_a   3.57176800
_cell_length_b   7.74399245
_cell_length_c   17.60674909
_cell_angle_alpha   90.02941571
_cell_angle_beta   90.00000000
_cell_angle_gamma   90.00000000
_symmetry_Int_Tables_number   1
_chemical_formula_structural   Ho2ErZr7(In2Pt)4
_chemical_formula_sum   'Ho2 Er1 Zr7 In8 Pt4'
_cell_volume   486.99811564
_cell_formula_units_Z   1
loop_
 _symmetry_equiv_pos_site_id
 _symmetry_equiv_pos_as_xyz
  1  'x, y, z'
loop_
 _atom_site_type_symbol
 _atom_site_label
 _atom_site_symmetry_multiplicity
 _atom_site_fract_x
 _atom_site_fract_y
 _atom_site_fract_z
 _atom_site_occupancy
  Ho  Ho0  1  0.000000  0.756152  0.781323  1
  Ho  Ho1  1  0.000000  0.256725  0.718948  1
  Er  Er2  1  0.000000  0.742754  0.280495  1
  Zr  Zr3  1  0.000000  0.126101  0.419735  1
  Zr  Zr4  1  0.000000  0.874614  0.578322  1
  Zr  Zr5  1  0.000000  0.374697  0.922498  1
  Zr  Zr6  1  0.000000  0.625810  0.079980  1
  Zr  Zr7  1  0.000000  0.242214  0.219552  1
  Zr  Zr8  1  0.000000  0.001254  0.001307  1
  Zr  Zr9  1  0.000000  0.500553  0.498827  1
  In  In10  1  0.500000  0.419940  0.352059  1
  In  In11  1  0.500000  0.577864  0.645917  1
  In  In12  1  0.500000  0.077909  0.854148  1
  In  In13  1  0.500000  0.926148  0.146593  1
  In  In14  1  0.500000  0.292084  0.064561  1
  In  In15  1  0.500000  0.706638  0.938445  1
  In  In16  1  0.500000  0.205939  0.561625  1
  In  In17  1  0.500000  0.796072  0.436844  1
  Pt  Pt18  1  0.500000  0.040688  0.305649  1
  Pt  Pt19  1  0.500000  0.965304  0.690636  1
  Pt  Pt20  1  0.500000  0.465002  0.809903  1
  Pt  Pt21  1  0.500000  0.525538  0.192633  1
