# generated using pymatgen
data_Na2Np(CuSe2)2
_symmetry_space_group_name_H-M   'P 1'
_cell_length_a   7.59124327
_cell_length_b   7.59124401
_cell_length_c   7.56772492
_cell_angle_alpha   67.73699004
_cell_angle_beta   67.73698973
_cell_angle_gamma   30.87141052
_symmetry_Int_Tables_number   1
_chemical_formula_structural   Na2Np(CuSe2)2
_chemical_formula_sum   'Na2 Np1 Cu2 Se4'
_cell_volume   205.76283925
_cell_formula_units_Z   1
loop_
 _symmetry_equiv_pos_site_id
 _symmetry_equiv_pos_as_xyz
  1  'x, y, z'
loop_
 _atom_site_type_symbol
 _atom_site_label
 _atom_site_symmetry_multiplicity
 _atom_site_fract_x
 _atom_site_fract_y
 _atom_site_fract_z
 _atom_site_occupancy
  Na  Na0  1  0.863732  0.863732  0.563438  1
  Na  Na1  1  0.136268  0.136268  0.436562  1
  Np  Np2  1  0.000000  0.000000  0.000000  1
  Cu  Cu3  1  0.317303  0.317303  0.989508  1
  Cu  Cu4  1  0.682697  0.682697  0.010492  1
  Se  Se5  1  0.790615  0.790615  0.202477  1
  Se  Se6  1  0.209385  0.209385  0.797523  1
  Se  Se7  1  0.486921  0.486921  0.745366  1
  Se  Se8  1  0.513079  0.513079  0.254634  1
