# generated using pymatgen
data_Sr3BiPt3RhO14
_symmetry_space_group_name_H-M   'P 1'
_cell_length_a   7.36031632
_cell_length_b   7.49094476
_cell_length_c   7.36031600
_cell_angle_alpha   60.57519450
_cell_angle_beta   60.00000142
_cell_angle_gamma   60.57518897
_symmetry_Int_Tables_number   1
_chemical_formula_structural   Sr3BiPt3RhO14
_chemical_formula_sum   'Sr3 Bi1 Pt3 Rh1 O14'
_cell_volume   289.42503502
_cell_formula_units_Z   1
loop_
 _symmetry_equiv_pos_site_id
 _symmetry_equiv_pos_as_xyz
  1  'x, y, z'
loop_
 _atom_site_type_symbol
 _atom_site_label
 _atom_site_symmetry_multiplicity
 _atom_site_fract_x
 _atom_site_fract_y
 _atom_site_fract_z
 _atom_site_occupancy
  Sr  Sr0  1  0.125000  0.125000  0.625000  1
  Sr  Sr1  1  0.625000  0.125000  0.125000  1
  Sr  Sr2  1  0.125000  0.125000  0.125000  1
  Bi  Bi3  1  0.125000  0.625000  0.125000  1
  Pt  Pt4  1  0.625000  0.625000  0.125000  1
  Pt  Pt5  1  0.125000  0.625000  0.625000  1
  Pt  Pt6  1  0.625000  0.625000  0.625000  1
  Rh  Rh7  1  0.625000  0.125000  0.625000  1
  O  O8  1  0.236029  0.291915  0.236029  1
  O  O9  1  0.013971  0.958085  0.013971  1
  O  O10  1  0.549525  0.949366  0.549525  1
  O  O11  1  0.292723  0.696813  0.292723  1
  O  O12  1  0.532258  0.553187  0.957277  1
  O  O13  1  0.957277  0.553187  0.532258  1
  O  O14  1  0.549525  0.949366  0.951586  1
  O  O15  1  0.951586  0.949366  0.549525  1
  O  O16  1  0.957277  0.553187  0.957277  1
  O  O17  1  0.700475  0.300634  0.298414  1
  O  O18  1  0.292723  0.696813  0.717742  1
  O  O19  1  0.700475  0.300634  0.700475  1
  O  O20  1  0.298414  0.300634  0.700475  1
  O  O21  1  0.717742  0.696813  0.292723  1
