# generated using pymatgen
data_Zr6Ti4Al2Ga10Rh7
_symmetry_space_group_name_H-M   'P 1'
_cell_length_a   8.80832766
_cell_length_b   8.78915837
_cell_length_c   8.78915852
_cell_angle_alpha   59.84199571
_cell_angle_beta   59.92783287
_cell_angle_gamma   59.92782662
_symmetry_Int_Tables_number   1
_chemical_formula_structural   Zr6Ti4Al2Ga10Rh7
_chemical_formula_sum   'Zr6 Ti4 Al2 Ga10 Rh7'
_cell_volume   480.04094842
_cell_formula_units_Z   1
loop_
 _symmetry_equiv_pos_site_id
 _symmetry_equiv_pos_as_xyz
  1  'x, y, z'
loop_
 _atom_site_type_symbol
 _atom_site_label
 _atom_site_symmetry_multiplicity
 _atom_site_fract_x
 _atom_site_fract_y
 _atom_site_fract_z
 _atom_site_occupancy
  Zr  Zr0  1  0.693599  0.695831  0.305568  1
  Zr  Zr1  1  0.305002  0.695831  0.305568  1
  Zr  Zr2  1  0.694694  0.305306  0.305306  1
  Zr  Zr3  1  0.305002  0.305568  0.695831  1
  Zr  Zr4  1  0.693599  0.305568  0.695831  1
  Zr  Zr5  1  0.305990  0.694010  0.694010  1
  Ti  Ti6  1  0.878798  0.879058  0.363348  1
  Ti  Ti7  1  0.878798  0.363348  0.879058  1
  Ti  Ti8  1  0.365238  0.878228  0.878228  1
  Ti  Ti9  1  0.878307  0.878228  0.878228  1
  Al  Al10  1  0.120843  0.121007  0.637307  1
  Al  Al11  1  0.120843  0.637307  0.121007  1
  Ga  Ga12  1  0.644120  0.118790  0.118790  1
  Ga  Ga13  1  0.118300  0.118790  0.118790  1
  Ga  Ga14  1  0.660089  0.659967  0.019854  1
  Ga  Ga15  1  0.660089  0.019854  0.659967  1
  Ga  Ga16  1  0.020375  0.659742  0.659742  1
  Ga  Ga17  1  0.660139  0.659742  0.659742  1
  Ga  Ga18  1  0.339076  0.340643  0.981207  1
  Ga  Ga19  1  0.339076  0.981207  0.340643  1
  Ga  Ga20  1  0.978662  0.341017  0.341017  1
  Ga  Ga21  1  0.339306  0.341017  0.341017  1
  Rh  Rh22  1  0.004404  0.995596  0.995596  1
  Rh  Rh23  1  0.997502  0.998588  0.503311  1
  Rh  Rh24  1  0.500599  0.998588  0.503311  1
  Rh  Rh25  1  0.997804  0.502196  0.502196  1
  Rh  Rh26  1  0.500599  0.503311  0.998588  1
  Rh  Rh27  1  0.997502  0.503311  0.998588  1
  Rh  Rh28  1  0.501646  0.998354  0.998354  1
