# generated using pymatgen
data_HoTm8ThPt8
_symmetry_space_group_name_H-M   'P 1'
_cell_length_a   7.45797400
_cell_length_b   7.47850783
_cell_length_c   14.65209994
_cell_angle_alpha   89.83524762
_cell_angle_beta   90.00000000
_cell_angle_gamma   90.00000000
_symmetry_Int_Tables_number   1
_chemical_formula_structural   HoTm8ThPt8
_chemical_formula_sum   'Ho2 Tm16 Th2 Pt16'
_cell_volume   817.21041846
_cell_formula_units_Z   2
loop_
 _symmetry_equiv_pos_site_id
 _symmetry_equiv_pos_as_xyz
  1  'x, y, z'
loop_
 _atom_site_type_symbol
 _atom_site_label
 _atom_site_symmetry_multiplicity
 _atom_site_fract_x
 _atom_site_fract_y
 _atom_site_fract_z
 _atom_site_occupancy
  Ho  Ho0  1  0.501685  0.677078  0.906910  1
  Ho  Ho1  1  0.001685  0.822922  0.593090  1
  Tm  Tm2  1  0.661281  0.163791  0.625212  1
  Tm  Tm3  1  0.161281  0.336209  0.874788  1
  Tm  Tm4  1  0.346425  0.832281  0.122257  1
  Tm  Tm5  1  0.846425  0.667719  0.377743  1
  Tm  Tm6  1  0.342169  0.833596  0.378838  1
  Tm  Tm7  1  0.842169  0.666404  0.121162  1
  Tm  Tm8  1  0.653804  0.166969  0.877480  1
  Tm  Tm9  1  0.153804  0.333031  0.622520  1
  Tm  Tm10  1  0.502914  0.680964  0.594302  1
  Tm  Tm11  1  0.002914  0.819036  0.905698  1
  Tm  Tm12  1  0.497038  0.322360  0.094187  1
  Tm  Tm13  1  0.997038  0.177640  0.405813  1
  Tm  Tm14  1  0.819788  0.509348  0.750405  1
  Tm  Tm15  1  0.319788  0.990652  0.749595  1
  Tm  Tm16  1  0.179338  0.493520  0.248937  1
  Tm  Tm17  1  0.679338  0.006480  0.251063  1
  Th  Th18  1  0.499687  0.319250  0.409669  1
  Th  Th19  1  0.999687  0.180750  0.090331  1
  Pt  Pt20  1  0.684482  0.965658  0.459613  1
  Pt  Pt21  1  0.184482  0.534342  0.040387  1
  Pt  Pt22  1  0.311247  0.032745  0.958359  1
  Pt  Pt23  1  0.811247  0.467255  0.541641  1
  Pt  Pt24  1  0.316796  0.034548  0.542234  1
  Pt  Pt25  1  0.816796  0.465452  0.957766  1
  Pt  Pt26  1  0.683896  0.966649  0.040921  1
  Pt  Pt27  1  0.183896  0.533351  0.459079  1
  Pt  Pt28  1  0.454654  0.386417  0.748693  1
  Pt  Pt29  1  0.954654  0.113583  0.751307  1
  Pt  Pt30  1  0.546331  0.615782  0.250903  1
  Pt  Pt31  1  0.046331  0.884218  0.249097  1
  Pt  Pt32  1  0.680659  0.854713  0.750024  1
  Pt  Pt33  1  0.180659  0.645287  0.749976  1
  Pt  Pt34  1  0.317807  0.145738  0.250862  1
  Pt  Pt35  1  0.817807  0.354262  0.249138  1
