# generated using pymatgen
data_Ho2PRhI2
_symmetry_space_group_name_H-M   'P 1'
_cell_length_a   4.16890700
_cell_length_b   4.16890816
_cell_length_c   11.20306200
_cell_angle_alpha   90.00000000
_cell_angle_beta   90.00000000
_cell_angle_gamma   119.99998283
_symmetry_Int_Tables_number   1
_chemical_formula_structural   Ho2PRhI2
_chemical_formula_sum   'Ho2 P1 Rh1 I2'
_cell_volume   168.62112460
_cell_formula_units_Z   1
loop_
 _symmetry_equiv_pos_site_id
 _symmetry_equiv_pos_as_xyz
  1  'x, y, z'
loop_
 _atom_site_type_symbol
 _atom_site_label
 _atom_site_symmetry_multiplicity
 _atom_site_fract_x
 _atom_site_fract_y
 _atom_site_fract_z
 _atom_site_occupancy
  Ho  Ho0  1  0.000000  0.000000  0.151846  1
  Ho  Ho1  1  0.000000  0.000000  0.847083  1
  P  P2  1  0.666667  0.333333  0.988153  1
  Rh  Rh3  1  0.333333  0.666667  0.008214  1
  I  I4  1  0.333333  0.666667  0.665876  1
  I  I5  1  0.666667  0.333333  0.338828  1
