# generated using pymatgen
data_Hf4VGaFe6
_symmetry_space_group_name_H-M   'P 1'
_cell_length_a   5.00556288
_cell_length_b   5.00556307
_cell_length_c   8.07419503
_cell_angle_alpha   89.96868771
_cell_angle_beta   90.03131635
_cell_angle_gamma   119.99423017
_symmetry_Int_Tables_number   1
_chemical_formula_structural   Hf4VGaFe6
_chemical_formula_sum   'Hf4 V1 Ga1 Fe6'
_cell_volume   175.21080577
_cell_formula_units_Z   1
loop_
 _symmetry_equiv_pos_site_id
 _symmetry_equiv_pos_as_xyz
  1  'x, y, z'
loop_
 _atom_site_type_symbol
 _atom_site_label
 _atom_site_symmetry_multiplicity
 _atom_site_fract_x
 _atom_site_fract_y
 _atom_site_fract_z
 _atom_site_occupancy
  Hf  Hf0  1  0.666740  0.333260  0.564925  1
  Hf  Hf1  1  0.333260  0.666740  0.435075  1
  Hf  Hf2  1  0.333378  0.666622  0.064040  1
  Hf  Hf3  1  0.666622  0.333378  0.935960  1
  V  V4  1  0.000000  0.000000  0.000000  1
  Ga  Ga5  1  0.000000  0.000000  0.500000  1
  Fe  Fe6  1  0.170819  0.341565  0.753946  1
  Fe  Fe7  1  0.170814  0.829186  0.754007  1
  Fe  Fe8  1  0.658435  0.829181  0.753946  1
  Fe  Fe9  1  0.829181  0.658435  0.246054  1
  Fe  Fe10  1  0.829186  0.170814  0.245993  1
  Fe  Fe11  1  0.341565  0.170819  0.246054  1
