# generated using pymatgen
data_SmSi3AsRh6
_symmetry_space_group_name_H-M   'P 1'
_cell_length_a   7.10716424
_cell_length_b   7.10716374
_cell_length_c   3.81042200
_cell_angle_alpha   90.00000000
_cell_angle_beta   90.00000000
_cell_angle_gamma   119.94321306
_symmetry_Int_Tables_number   1
_chemical_formula_structural   SmSi3AsRh6
_chemical_formula_sum   'Sm1 Si3 As1 Rh6'
_cell_volume   166.78024581
_cell_formula_units_Z   1
loop_
 _symmetry_equiv_pos_site_id
 _symmetry_equiv_pos_as_xyz
  1  'x, y, z'
loop_
 _atom_site_type_symbol
 _atom_site_label
 _atom_site_symmetry_multiplicity
 _atom_site_fract_x
 _atom_site_fract_y
 _atom_site_fract_z
 _atom_site_occupancy
  Sm  Sm0  1  0.004515  0.995485  0.000000  1
  Si  Si1  1  0.798274  0.602244  0.500000  1
  Si  Si2  1  0.333313  0.666687  0.000000  1
  Si  Si3  1  0.397756  0.201726  0.500000  1
  As  As4  1  0.805637  0.194363  0.500000  1
  Rh  Rh5  1  0.524041  0.063691  0.000000  1
  Rh  Rh6  1  0.597020  0.794823  0.500000  1
  Rh  Rh7  1  0.205177  0.402980  0.500000  1
  Rh  Rh8  1  0.533550  0.466450  0.000000  1
  Rh  Rh9  1  0.197742  0.802258  0.500000  1
  Rh  Rh10  1  0.936309  0.475959  0.000000  1
