# generated using pymatgen
data_TbDy4(FeO6)2
_symmetry_space_group_name_H-M   'P 1'
_cell_length_a   6.78014216
_cell_length_b   6.78014057
_cell_length_c   7.28172605
_cell_angle_alpha   74.40873352
_cell_angle_beta   74.40873800
_cell_angle_gamma   51.12282493
_symmetry_Int_Tables_number   1
_chemical_formula_structural   TbDy4(FeO6)2
_chemical_formula_sum   'Tb1 Dy4 Fe2 O12'
_cell_volume   248.76083073
_cell_formula_units_Z   1
loop_
 _symmetry_equiv_pos_site_id
 _symmetry_equiv_pos_as_xyz
  1  'x, y, z'
loop_
 _atom_site_type_symbol
 _atom_site_label
 _atom_site_symmetry_multiplicity
 _atom_site_fract_x
 _atom_site_fract_y
 _atom_site_fract_z
 _atom_site_occupancy
  Tb  Tb0  1  0.000000  0.000000  0.500000  1
  Dy  Dy1  1  0.304947  0.304947  0.358610  1
  Dy  Dy2  1  0.695053  0.695053  0.641390  1
  Dy  Dy3  1  0.307066  0.307066  0.832652  1
  Dy  Dy4  1  0.692934  0.692934  0.167348  1
  Fe  Fe5  1  0.756731  0.243269  0.000000  1
  Fe  Fe6  1  0.243269  0.756731  0.000000  1
  O  O7  1  0.898909  0.421286  0.921303  1
  O  O8  1  0.421286  0.898909  0.921303  1
  O  O9  1  0.101091  0.578714  0.078697  1
  O  O10  1  0.578714  0.101091  0.078697  1
  O  O11  1  0.096379  0.594647  0.577767  1
  O  O12  1  0.594647  0.096379  0.577767  1
  O  O13  1  0.903621  0.405353  0.422233  1
  O  O14  1  0.405353  0.903621  0.422233  1
  O  O15  1  0.001379  0.001379  0.818262  1
  O  O16  1  0.998621  0.998621  0.181738  1
  O  O17  1  0.499879  0.499879  0.817231  1
  O  O18  1  0.500121  0.500121  0.182769  1
