# generated using pymatgen
data_Pm4PdAu3
_symmetry_space_group_name_H-M   'P 1'
_cell_length_a   7.41302966
_cell_length_b   5.79198506
_cell_length_c   4.77337900
_cell_angle_alpha   90.00000000
_cell_angle_beta   90.00000000
_cell_angle_gamma   90.79684953
_symmetry_Int_Tables_number   1
_chemical_formula_structural   Pm4PdAu3
_chemical_formula_sum   'Pm4 Pd1 Au3'
_cell_volume   204.93072957
_cell_formula_units_Z   1
loop_
 _symmetry_equiv_pos_site_id
 _symmetry_equiv_pos_as_xyz
  1  'x, y, z'
loop_
 _atom_site_type_symbol
 _atom_site_label
 _atom_site_symmetry_multiplicity
 _atom_site_fract_x
 _atom_site_fract_y
 _atom_site_fract_z
 _atom_site_occupancy
  Pm  Pm0  1  0.097936  0.521854  0.000000  1
  Pm  Pm1  1  0.605605  0.730543  0.000000  1
  Pm  Pm2  1  0.228764  0.018245  0.499999  1
  Pm  Pm3  1  0.733692  0.233035  0.499999  1
  Pd  Pd4  1  0.878895  0.723825  0.499999  1
  Au  Au5  1  0.456340  0.224036  0.000000  1
  Au  Au6  1  0.956693  0.021443  0.000000  1
  Au  Au7  1  0.375408  0.527024  0.499999  1
