# generated using pymatgen
data_LiU(Si7Ir3)2
_symmetry_space_group_name_H-M   'P 1'
_cell_length_a   8.06221421
_cell_length_b   8.06221404
_cell_length_c   8.06221400
_cell_angle_alpha   56.49688170
_cell_angle_beta   56.49688252
_cell_angle_gamma   56.49687953
_symmetry_Int_Tables_number   1
_chemical_formula_structural   LiU(Si7Ir3)2
_chemical_formula_sum   'Li1 U1 Si14 Ir6'
_cell_volume   340.54719530
_cell_formula_units_Z   1
loop_
 _symmetry_equiv_pos_site_id
 _symmetry_equiv_pos_as_xyz
  1  'x, y, z'
loop_
 _atom_site_type_symbol
 _atom_site_label
 _atom_site_symmetry_multiplicity
 _atom_site_fract_x
 _atom_site_fract_y
 _atom_site_fract_z
 _atom_site_occupancy
  Li  Li0  1  0.000000  0.000000  0.000000  1
  U  U1  1  0.500000  0.500000  0.500000  1
  Si  Si2  1  0.063138  0.856052  0.676096  1
  Si  Si3  1  0.676096  0.063138  0.856052  1
  Si  Si4  1  0.856052  0.676096  0.063138  1
  Si  Si5  1  0.170504  0.343687  0.566925  1
  Si  Si6  1  0.566925  0.170504  0.343687  1
  Si  Si7  1  0.343687  0.566925  0.170504  1
  Si  Si8  1  0.936862  0.143948  0.323904  1
  Si  Si9  1  0.323904  0.936862  0.143948  1
  Si  Si10  1  0.143948  0.323904  0.936862  1
  Si  Si11  1  0.829496  0.656313  0.433075  1
  Si  Si12  1  0.433075  0.829496  0.656313  1
  Si  Si13  1  0.656313  0.433075  0.829496  1
  Si  Si14  1  0.749309  0.749309  0.749309  1
  Si  Si15  1  0.250691  0.250691  0.250691  1
  Ir  Ir16  1  0.077984  0.743552  0.434592  1
  Ir  Ir17  1  0.434592  0.077984  0.743552  1
  Ir  Ir18  1  0.743552  0.434592  0.077984  1
  Ir  Ir19  1  0.922016  0.256448  0.565408  1
  Ir  Ir20  1  0.565408  0.922016  0.256448  1
  Ir  Ir21  1  0.256448  0.565408  0.922016  1
