# generated using pymatgen
data_Tm4HfTi3Ir4
_symmetry_space_group_name_H-M   'P 1'
_cell_length_a   4.36188700
_cell_length_b   6.90997557
_cell_length_c   8.12543397
_cell_angle_alpha   89.42739849
_cell_angle_beta   90.00000000
_cell_angle_gamma   90.00000000
_symmetry_Int_Tables_number   1
_chemical_formula_structural   Tm4HfTi3Ir4
_chemical_formula_sum   'Tm4 Hf1 Ti3 Ir4'
_cell_volume   244.89267762
_cell_formula_units_Z   1
loop_
 _symmetry_equiv_pos_site_id
 _symmetry_equiv_pos_as_xyz
  1  'x, y, z'
loop_
 _atom_site_type_symbol
 _atom_site_label
 _atom_site_symmetry_multiplicity
 _atom_site_fract_x
 _atom_site_fract_y
 _atom_site_fract_z
 _atom_site_occupancy
  Tm  Tm0  1  0.250000  0.485056  0.180364  1
  Tm  Tm1  1  0.750000  0.521613  0.826421  1
  Tm  Tm2  1  0.750000  0.008876  0.681774  1
  Tm  Tm3  1  0.250000  0.981328  0.314460  1
  Hf  Hf4  1  0.250000  0.354698  0.572435  1
  Ti  Ti5  1  0.250000  0.860703  0.933549  1
  Ti  Ti6  1  0.750000  0.140155  0.064841  1
  Ti  Ti7  1  0.750000  0.641010  0.433008  1
  Ir  Ir8  1  0.250000  0.731775  0.594474  1
  Ir  Ir9  1  0.750000  0.273001  0.395530  1
  Ir  Ir10  1  0.750000  0.778024  0.096070  1
  Ir  Ir11  1  0.250000  0.223761  0.907073  1
