# generated using pymatgen
data_TbDy7In3Pt
_symmetry_space_group_name_H-M   'P 1'
_cell_length_a   10.50274401
_cell_length_b   10.50273828
_cell_length_c   7.02016001
_cell_angle_alpha   90.00591675
_cell_angle_beta   89.99408325
_cell_angle_gamma   120.00111463
_symmetry_Int_Tables_number   1
_chemical_formula_structural   TbDy7In3Pt
_chemical_formula_sum   'Tb2 Dy14 In6 Pt2'
_cell_volume   670.62244683
_cell_formula_units_Z   2
loop_
 _symmetry_equiv_pos_site_id
 _symmetry_equiv_pos_as_xyz
  1  'x, y, z'
loop_
 _atom_site_type_symbol
 _atom_site_label
 _atom_site_symmetry_multiplicity
 _atom_site_fract_x
 _atom_site_fract_y
 _atom_site_fract_z
 _atom_site_occupancy
  Tb  Tb0  1  0.531074  0.062242  0.515721  1
  Tb  Tb1  1  0.937758  0.468925  0.515721  1
  Dy  Dy2  1  0.531182  0.468819  0.515861  1
  Dy  Dy3  1  0.468798  0.937506  0.015679  1
  Dy  Dy4  1  0.062494  0.531203  0.015679  1
  Dy  Dy5  1  0.468803  0.531196  0.015797  1
  Dy  Dy6  1  0.175061  0.349932  0.723236  1
  Dy  Dy7  1  0.650068  0.824939  0.723236  1
  Dy  Dy8  1  0.174918  0.825082  0.723266  1
  Dy  Dy9  1  0.825002  0.650084  0.223072  1
  Dy  Dy10  1  0.349916  0.174998  0.223072  1
  Dy  Dy11  1  0.825104  0.174896  0.222973  1
  Dy  Dy12  1  0.666614  0.333386  0.890678  1
  Dy  Dy13  1  0.333380  0.666620  0.390508  1
  Dy  Dy14  1  0.999989  0.000011  0.497645  1
  Dy  Dy15  1  0.000000  0.000000  0.997771  1
  In  In16  1  0.836946  0.673996  0.759566  1
  In  In17  1  0.326003  0.163053  0.759566  1
  In  In18  1  0.837025  0.162974  0.759665  1
  In  In19  1  0.163011  0.326048  0.259490  1
  In  In20  1  0.673953  0.836990  0.259490  1
  In  In21  1  0.163054  0.836947  0.259439  1
  Pt  Pt22  1  0.666495  0.333505  0.288320  1
  Pt  Pt23  1  0.333352  0.666648  0.788750  1
