# generated using pymatgen
data_Tm4Al24IrPd8
_symmetry_space_group_name_H-M   'P 1'
_cell_length_a   7.52391426
_cell_length_b   7.54927778
_cell_length_c   13.15664600
_cell_angle_alpha   84.61551189
_cell_angle_beta   79.10160452
_cell_angle_gamma   59.91700731
_symmetry_Int_Tables_number   1
_chemical_formula_structural   Tm4Al24IrPd8
_chemical_formula_sum   'Tm4 Al24 Ir1 Pd8'
_cell_volume   634.97491608
_cell_formula_units_Z   1
loop_
 _symmetry_equiv_pos_site_id
 _symmetry_equiv_pos_as_xyz
  1  'x, y, z'
loop_
 _atom_site_type_symbol
 _atom_site_label
 _atom_site_symmetry_multiplicity
 _atom_site_fract_x
 _atom_site_fract_y
 _atom_site_fract_z
 _atom_site_occupancy
  Tm  Tm0  1  0.393182  0.168926  0.809292  1
  Tm  Tm1  1  0.606818  0.831074  0.190708  1
  Tm  Tm2  1  0.733896  0.497802  0.809238  1
  Tm  Tm3  1  0.266104  0.502198  0.190762  1
  Al  Al4  1  0.686288  0.831114  0.945112  1
  Al  Al5  1  0.313712  0.168886  0.054888  1
  Al  Al6  1  0.146188  0.832353  0.562049  1
  Al  Al7  1  0.853812  0.167647  0.437951  1
  Al  Al8  1  0.479766  0.166591  0.559791  1
  Al  Al9  1  0.520234  0.833409  0.440209  1
  Al  Al10  1  0.218038  0.165064  0.327444  1
  Al  Al11  1  0.781962  0.834936  0.672556  1
  Al  Al12  1  0.436016  0.507123  0.672511  1
  Al  Al13  1  0.563984  0.492877  0.327489  1
  Al  Al14  1  0.108742  0.159751  0.670619  1
  Al  Al15  1  0.891258  0.840249  0.329381  1
  Al  Al16  1  0.350376  0.499253  0.945330  1
  Al  Al17  1  0.649624  0.500747  0.054670  1
  Al  Al18  1  0.015425  0.170985  0.954684  1
  Al  Al19  1  0.984575  0.829015  0.045316  1
  Al  Al20  1  0.186738  0.499678  0.440727  1
  Al  Al21  1  0.813262  0.500322  0.559273  1
  Al  Al22  1  0.732947  0.163061  0.183245  1
  Al  Al23  1  0.267053  0.836939  0.816755  1
  Al  Al24  1  0.061144  0.629798  0.817169  1
  Al  Al25  1  0.938856  0.370202  0.182831  1
  Al  Al26  1  0.854732  0.043453  0.816493  1
  Al  Al27  1  0.145268  0.956547  0.183507  1
  Ir  Ir28  1  0.000000  0.500000  0.000000  1
  Pd  Pd29  1  0.119565  0.491814  0.639594  1
  Pd  Pd30  1  0.880435  0.508186  0.360406  1
  Pd  Pd31  1  0.656758  0.171757  0.999862  1
  Pd  Pd32  1  0.343242  0.828243  0.000138  1
  Pd  Pd33  1  0.537137  0.167011  0.361844  1
  Pd  Pd34  1  0.462863  0.832989  0.638156  1
  Pd  Pd35  1  0.777864  0.175341  0.637389  1
  Pd  Pd36  1  0.222136  0.824659  0.362611  1
