# generated using pymatgen
data_Pa2CdCo2
_symmetry_space_group_name_H-M   'P 1'
_cell_length_a   7.45739300
_cell_length_b   7.45739300
_cell_length_c   3.42086200
_cell_angle_alpha   90.00000000
_cell_angle_beta   90.00000000
_cell_angle_gamma   90.00000000
_symmetry_Int_Tables_number   1
_chemical_formula_structural   Pa2CdCo2
_chemical_formula_sum   'Pa4 Cd2 Co4'
_cell_volume   190.24340758
_cell_formula_units_Z   2
loop_
 _symmetry_equiv_pos_site_id
 _symmetry_equiv_pos_as_xyz
  1  'x, y, z'
loop_
 _atom_site_type_symbol
 _atom_site_label
 _atom_site_symmetry_multiplicity
 _atom_site_fract_x
 _atom_site_fract_y
 _atom_site_fract_z
 _atom_site_occupancy
  Pa  Pa0  1  0.334390  0.834390  0.500000  1
  Pa  Pa1  1  0.834390  0.665610  0.500000  1
  Pa  Pa2  1  0.165610  0.334390  0.500000  1
  Pa  Pa3  1  0.665610  0.165610  0.500000  1
  Cd  Cd4  1  0.000000  0.000000  0.000000  1
  Cd  Cd5  1  0.500000  0.500000  0.000000  1
  Co  Co6  1  0.368345  0.131655  0.000000  1
  Co  Co7  1  0.868345  0.368345  0.000000  1
  Co  Co8  1  0.131655  0.631655  0.000000  1
  Co  Co9  1  0.631655  0.868345  0.000000  1
