# generated using pymatgen
data_NaYb2Ga9Ag2
_symmetry_space_group_name_H-M   'P 1'
_cell_length_a   8.30026030
_cell_length_b   8.30025869
_cell_length_c   8.30025879
_cell_angle_alpha   148.70800576
_cell_angle_beta   109.48025390
_cell_angle_gamma   79.16312661
_symmetry_Int_Tables_number   1
_chemical_formula_structural   NaYb2Ga9Ag2
_chemical_formula_sum   'Na1 Yb2 Ga9 Ag2'
_cell_volume   274.46767866
_cell_formula_units_Z   1
loop_
 _symmetry_equiv_pos_site_id
 _symmetry_equiv_pos_as_xyz
  1  'x, y, z'
loop_
 _atom_site_type_symbol
 _atom_site_label
 _atom_site_symmetry_multiplicity
 _atom_site_fract_x
 _atom_site_fract_y
 _atom_site_fract_z
 _atom_site_occupancy
  Na  Na0  1  0.000000  0.000000  0.000000  1
  Yb  Yb1  1  0.294387  0.294387  0.000000  1
  Yb  Yb2  1  0.705613  0.705613  0.000000  1
  Ga  Ga3  1  0.703183  0.339160  0.364024  1
  Ga  Ga4  1  0.296817  0.660840  0.635976  1
  Ga  Ga5  1  0.975137  0.339160  0.635976  1
  Ga  Ga6  1  0.024863  0.660840  0.364024  1
  Ga  Ga7  1  0.423251  0.143311  0.279940  1
  Ga  Ga8  1  0.576749  0.856689  0.720060  1
  Ga  Ga9  1  0.863371  0.143311  0.720060  1
  Ga  Ga10  1  0.136629  0.856689  0.279940  1
  Ga  Ga11  1  0.500000  0.000000  0.500000  1
  Ag  Ag12  1  0.677350  0.500000  0.177350  1
  Ag  Ag13  1  0.322650  0.500000  0.822650  1
