# generated using pymatgen
data_Y5Zn2Bi
_symmetry_space_group_name_H-M   'P 1'
_cell_length_a   8.67718531
_cell_length_b   8.67718565
_cell_length_c   8.67718594
_cell_angle_alpha   123.55486307
_cell_angle_beta   123.55486438
_cell_angle_gamma   83.94572683
_symmetry_Int_Tables_number   1
_chemical_formula_structural   Y5Zn2Bi
_chemical_formula_sum   'Y10 Zn4 Bi2'
_cell_volume   434.50015510
_cell_formula_units_Z   2
loop_
 _symmetry_equiv_pos_site_id
 _symmetry_equiv_pos_as_xyz
  1  'x, y, z'
loop_
 _atom_site_type_symbol
 _atom_site_label
 _atom_site_symmetry_multiplicity
 _atom_site_fract_x
 _atom_site_fract_y
 _atom_site_fract_z
 _atom_site_occupancy
  Y  Y0  1  0.000000  0.000000  0.000000  1
  Y  Y1  1  0.500000  0.500000  0.000000  1
  Y  Y2  1  0.794730  0.294730  0.806495  1
  Y  Y3  1  0.205270  0.705270  0.193505  1
  Y  Y4  1  0.488233  0.988233  0.193505  1
  Y  Y5  1  0.294730  0.488233  0.500000  1
  Y  Y6  1  0.011767  0.205270  0.500000  1
  Y  Y7  1  0.511767  0.011767  0.806495  1
  Y  Y8  1  0.705270  0.511767  0.500000  1
  Y  Y9  1  0.988233  0.794730  0.500000  1
  Zn  Zn10  1  0.139170  0.639170  0.778339  1
  Zn  Zn11  1  0.860830  0.360830  0.221661  1
  Zn  Zn12  1  0.639170  0.860830  0.500000  1
  Zn  Zn13  1  0.360830  0.139170  0.500000  1
  Bi  Bi14  1  0.250000  0.250000  0.000000  1
  Bi  Bi15  1  0.750000  0.750000  0.000000  1
