# generated using pymatgen
data_LuP6(Pd10Pb)2
_symmetry_space_group_name_H-M   'P 1'
_cell_length_a   8.64911535
_cell_length_b   8.64911506
_cell_length_c   8.64911600
_cell_angle_alpha   60.00000404
_cell_angle_beta   60.00000515
_cell_angle_gamma   60.00000011
_symmetry_Int_Tables_number   1
_chemical_formula_structural   LuP6(Pd10Pb)2
_chemical_formula_sum   'Lu1 P6 Pd20 Pb2'
_cell_volume   457.50950151
_cell_formula_units_Z   1
loop_
 _symmetry_equiv_pos_site_id
 _symmetry_equiv_pos_as_xyz
  1  'x, y, z'
loop_
 _atom_site_type_symbol
 _atom_site_label
 _atom_site_symmetry_multiplicity
 _atom_site_fract_x
 _atom_site_fract_y
 _atom_site_fract_z
 _atom_site_occupancy
  Lu  Lu0  1  0.000000  0.000000  0.000000  1
  P  P1  1  0.735269  0.264731  0.264731  1
  P  P2  1  0.264731  0.735269  0.735269  1
  P  P3  1  0.264731  0.735269  0.264731  1
  P  P4  1  0.735269  0.264731  0.735269  1
  P  P5  1  0.264731  0.264731  0.735269  1
  P  P6  1  0.735269  0.735269  0.264731  1
  Pd  Pd7  1  0.384396  0.384396  0.384396  1
  Pd  Pd8  1  0.615604  0.615604  0.615604  1
  Pd  Pd9  1  0.384396  0.384396  0.846813  1
  Pd  Pd10  1  0.384396  0.846813  0.384396  1
  Pd  Pd11  1  0.615604  0.615604  0.153187  1
  Pd  Pd12  1  0.615604  0.153187  0.615604  1
  Pd  Pd13  1  0.846813  0.384396  0.384396  1
  Pd  Pd14  1  0.153187  0.615604  0.615604  1
  Pd  Pd15  1  0.342694  0.000000  0.000000  1
  Pd  Pd16  1  0.657306  0.000000  0.000000  1
  Pd  Pd17  1  0.000000  0.342694  0.657306  1
  Pd  Pd18  1  0.000000  0.657306  0.342694  1
  Pd  Pd19  1  0.000000  0.342694  0.000000  1
  Pd  Pd20  1  0.657306  0.000000  0.342694  1
  Pd  Pd21  1  0.000000  0.657306  0.000000  1
  Pd  Pd22  1  0.342694  0.000000  0.657306  1
  Pd  Pd23  1  0.000000  0.000000  0.342694  1
  Pd  Pd24  1  0.000000  0.000000  0.657306  1
  Pd  Pd25  1  0.657306  0.342694  0.000000  1
  Pd  Pd26  1  0.342694  0.657306  0.000000  1
  Pb  Pb27  1  0.250000  0.250000  0.250000  1
  Pb  Pb28  1  0.750000  0.750000  0.750000  1
