# generated using pymatgen
data_HoFeTeO6
_symmetry_space_group_name_H-M   'P 1'
_cell_length_a   5.21112701
_cell_length_b   5.21039420
_cell_length_c   9.75142401
_cell_angle_alpha   90.00931146
_cell_angle_beta   89.99534061
_cell_angle_gamma   119.99534166
_symmetry_Int_Tables_number   1
_chemical_formula_structural   HoFeTeO6
_chemical_formula_sum   'Ho2 Fe2 Te2 O12'
_cell_volume   229.30910060
_cell_formula_units_Z   2
loop_
 _symmetry_equiv_pos_site_id
 _symmetry_equiv_pos_as_xyz
  1  'x, y, z'
loop_
 _atom_site_type_symbol
 _atom_site_label
 _atom_site_symmetry_multiplicity
 _atom_site_fract_x
 _atom_site_fract_y
 _atom_site_fract_z
 _atom_site_occupancy
  Ho  Ho0  1  0.000000  0.000000  0.000000  1
  Ho  Ho1  1  0.000000  0.000000  0.500000  1
  Fe  Fe2  1  0.332900  0.666450  0.250000  1
  Fe  Fe3  1  0.667100  0.333550  0.750000  1
  Te  Te4  1  0.333698  0.666848  0.750000  1
  Te  Te5  1  0.666302  0.333152  0.250000  1
  O  O6  1  0.365387  0.352125  0.138721  1
  O  O7  1  0.647720  0.013192  0.138708  1
  O  O8  1  0.986678  0.634553  0.138672  1
  O  O9  1  0.634613  0.647875  0.861279  1
  O  O10  1  0.352280  0.986808  0.861292  1
  O  O11  1  0.013322  0.365447  0.861328  1
  O  O12  1  0.647720  0.634528  0.361292  1
  O  O13  1  0.365387  0.013262  0.361279  1
  O  O14  1  0.986678  0.352126  0.361328  1
  O  O15  1  0.352280  0.365472  0.638708  1
  O  O16  1  0.634613  0.986738  0.638721  1
  O  O17  1  0.013322  0.647874  0.638672  1
