# generated using pymatgen
data_Li3Tm7(Bi3C)2
_symmetry_space_group_name_H-M   'P 1'
_cell_length_a   8.88927400
_cell_length_b   8.88927254
_cell_length_c   6.25199700
_cell_angle_alpha   90.00000000
_cell_angle_beta   90.00000000
_cell_angle_gamma   119.99999798
_symmetry_Int_Tables_number   1
_chemical_formula_structural   Li3Tm7(Bi3C)2
_chemical_formula_sum   'Li3 Tm7 Bi6 C2'
_cell_volume   427.84052274
_cell_formula_units_Z   1
loop_
 _symmetry_equiv_pos_site_id
 _symmetry_equiv_pos_as_xyz
  1  'x, y, z'
loop_
 _atom_site_type_symbol
 _atom_site_label
 _atom_site_symmetry_multiplicity
 _atom_site_fract_x
 _atom_site_fract_y
 _atom_site_fract_z
 _atom_site_occupancy
  Li  Li0  1  0.666667  0.333333  0.000000  1
  Li  Li1  1  0.333333  0.666667  0.000000  1
  Li  Li2  1  0.333333  0.666667  0.500000  1
  Tm  Tm3  1  0.666667  0.333333  0.500000  1
  Tm  Tm4  1  0.787849  0.788380  0.751242  1
  Tm  Tm5  1  0.211620  0.999469  0.751242  1
  Tm  Tm6  1  0.000531  0.212151  0.751242  1
  Tm  Tm7  1  0.211620  0.212151  0.248758  1
  Tm  Tm8  1  0.787849  0.999469  0.248758  1
  Tm  Tm9  1  0.000531  0.788380  0.248758  1
  Bi  Bi10  1  0.406597  0.408662  0.754234  1
  Bi  Bi11  1  0.591338  0.997934  0.754234  1
  Bi  Bi12  1  0.002066  0.593403  0.754234  1
  Bi  Bi13  1  0.591338  0.593403  0.245766  1
  Bi  Bi14  1  0.406597  0.997934  0.245766  1
  Bi  Bi15  1  0.002066  0.408662  0.245766  1
  C  C16  1  0.000000  0.000000  0.000000  1
  C  C17  1  0.000000  0.000000  0.500000  1
