# generated using pymatgen
data_Sm2YPa(ReN3)4
_symmetry_space_group_name_H-M   'P 1'
_cell_length_a   5.42502322
_cell_length_b   5.69953454
_cell_length_c   7.79810500
_cell_angle_alpha   90.00000000
_cell_angle_beta   90.00000000
_cell_angle_gamma   90.16481192
_symmetry_Int_Tables_number   1
_chemical_formula_structural   Sm2YPa(ReN3)4
_chemical_formula_sum   'Sm2 Y1 Pa1 Re4 N12'
_cell_volume   241.11724514
_cell_formula_units_Z   1
loop_
 _symmetry_equiv_pos_site_id
 _symmetry_equiv_pos_as_xyz
  1  'x, y, z'
loop_
 _atom_site_type_symbol
 _atom_site_label
 _atom_site_symmetry_multiplicity
 _atom_site_fract_x
 _atom_site_fract_y
 _atom_site_fract_z
 _atom_site_occupancy
  Sm  Sm0  1  0.500111  0.559042  0.750000  1
  Sm  Sm1  1  0.000212  0.061764  0.750000  1
  Y  Y2  1  0.018582  0.937512  0.250000  1
  Pa  Pa3  1  0.461978  0.430314  0.250000  1
  Re  Re4  1  0.512239  0.007040  0.504618  1
  Re  Re5  1  0.983578  0.508226  0.997302  1
  Re  Re6  1  0.983578  0.508226  0.502698  1
  Re  Re7  1  0.512239  0.007040  0.995382  1
  N  N8  1  0.703851  0.292352  0.538268  1
  N  N9  1  0.310676  0.689429  0.052350  1
  N  N10  1  0.202486  0.200361  0.049868  1
  N  N11  1  0.433111  0.985937  0.750000  1
  N  N12  1  0.908259  0.518363  0.250000  1
  N  N13  1  0.310676  0.689429  0.447650  1
  N  N14  1  0.797857  0.793065  0.963766  1
  N  N15  1  0.703851  0.292352  0.961732  1
  N  N16  1  0.797857  0.793065  0.536234  1
  N  N17  1  0.066867  0.491570  0.750000  1
  N  N18  1  0.202486  0.200361  0.450132  1
  N  N19  1  0.589507  0.034555  0.250000  1
