# generated using pymatgen
data_Pr2Cd14Ag3
_symmetry_space_group_name_H-M   'P 1'
_cell_length_a   7.62568503
_cell_length_b   7.62568614
_cell_length_c   7.62568522
_cell_angle_alpha   82.43992255
_cell_angle_beta   97.56007259
_cell_angle_gamma   97.56007179
_symmetry_Int_Tables_number   1
_chemical_formula_structural   Pr2Cd14Ag3
_chemical_formula_sum   'Pr2 Cd14 Ag3'
_cell_volume   432.81061875
_cell_formula_units_Z   1
loop_
 _symmetry_equiv_pos_site_id
 _symmetry_equiv_pos_as_xyz
  1  'x, y, z'
loop_
 _atom_site_type_symbol
 _atom_site_label
 _atom_site_symmetry_multiplicity
 _atom_site_fract_x
 _atom_site_fract_y
 _atom_site_fract_z
 _atom_site_occupancy
  Pr  Pr0  1  0.662067  0.337932  0.337933  1
  Pr  Pr1  1  0.337932  0.662066  0.662067  1
  Cd  Cd2  1  0.700609  0.700609  0.000000  1
  Cd  Cd3  1  0.299392  0.299391  0.000000  1
  Cd  Cd4  1  0.892550  0.107449  0.107449  1
  Cd  Cd5  1  0.353211  0.646790  0.153786  1
  Cd  Cd6  1  0.299391  0.000000  0.299391  1
  Cd  Cd7  1  0.000000  0.700609  0.299392  1
  Cd  Cd8  1  0.646790  0.846213  0.353209  1
  Cd  Cd9  1  0.153787  0.353210  0.353210  1
  Cd  Cd10  1  0.353210  0.153787  0.646789  1
  Cd  Cd11  1  0.846214  0.646790  0.646789  1
  Cd  Cd12  1  0.000000  0.299392  0.700609  1
  Cd  Cd13  1  0.700609  0.000000  0.700609  1
  Cd  Cd14  1  0.646790  0.353210  0.846213  1
  Cd  Cd15  1  0.107448  0.892551  0.892551  1
  Ag  Ag16  1  0.000000  0.499999  0.999999  1
  Ag  Ag17  1  0.499999  0.000001  0.000000  1
  Ag  Ag18  1  0.000000  0.000000  0.499999  1
