# generated using pymatgen
data_LuCu4
_symmetry_space_group_name_H-M   'P 1'
_cell_length_a   4.96043824
_cell_length_b   4.96043840
_cell_length_c   10.46226262
_cell_angle_alpha   94.93813664
_cell_angle_beta   94.93813841
_cell_angle_gamma   119.96510693
_symmetry_Int_Tables_number   1
_chemical_formula_structural   LuCu4
_chemical_formula_sum   'Lu3 Cu12'
_cell_volume   219.69621633
_cell_formula_units_Z   3
loop_
 _symmetry_equiv_pos_site_id
 _symmetry_equiv_pos_as_xyz
  1  'x, y, z'
loop_
 _atom_site_type_symbol
 _atom_site_label
 _atom_site_symmetry_multiplicity
 _atom_site_fract_x
 _atom_site_fract_y
 _atom_site_fract_z
 _atom_site_occupancy
  Lu  Lu0  1  0.000000  0.000000  0.000000  1
  Lu  Lu1  1  0.133832  0.133832  0.356993  1
  Lu  Lu2  1  0.866168  0.866168  0.643007  1
  Cu  Cu3  1  0.662016  0.337985  0.000000  1
  Cu  Cu4  1  0.337985  0.662016  0.000000  1
  Cu  Cu5  1  0.569730  0.066323  0.196603  1
  Cu  Cu6  1  0.066323  0.569730  0.196603  1
  Cu  Cu7  1  0.570809  0.570809  0.203427  1
  Cu  Cu8  1  0.810653  0.475024  0.405901  1
  Cu  Cu9  1  0.475024  0.810653  0.405901  1
  Cu  Cu10  1  0.524978  0.189348  0.594099  1
  Cu  Cu11  1  0.189348  0.524978  0.594099  1
  Cu  Cu12  1  0.429190  0.429190  0.796573  1
  Cu  Cu13  1  0.933676  0.430269  0.803398  1
  Cu  Cu14  1  0.430269  0.933676  0.803398  1
