# generated using pymatgen
data_Ho9Er(InSb)3
_symmetry_space_group_name_H-M   'P 1'
_cell_length_a   8.92670400
_cell_length_b   8.90911790
_cell_length_c   6.53845105
_cell_angle_alpha   89.98605660
_cell_angle_beta   90.00322112
_cell_angle_gamma   120.06617287
_symmetry_Int_Tables_number   1
_chemical_formula_structural   Ho9Er(InSb)3
_chemical_formula_sum   'Ho9 Er1 In3 Sb3'
_cell_volume   450.02989103
_cell_formula_units_Z   1
loop_
 _symmetry_equiv_pos_site_id
 _symmetry_equiv_pos_as_xyz
  1  'x, y, z'
loop_
 _atom_site_type_symbol
 _atom_site_label
 _atom_site_symmetry_multiplicity
 _atom_site_fract_x
 _atom_site_fract_y
 _atom_site_fract_z
 _atom_site_occupancy
  Ho  Ho0  1  0.002802  0.763823  0.750144  1
  Ho  Ho1  1  0.003417  0.238667  0.249922  1
  Ho  Ho2  1  0.764648  0.761376  0.249910  1
  Ho  Ho3  1  0.762160  0.000011  0.750064  1
  Ho  Ho4  1  0.238910  0.236174  0.750124  1
  Ho  Ho5  1  0.237430  0.999918  0.249858  1
  Ho  Ho6  1  0.330484  0.666183  0.499022  1
  Ho  Ho7  1  0.664419  0.333887  0.000846  1
  Ho  Ho8  1  0.664260  0.333810  0.499105  1
  Er  Er9  1  0.330463  0.666321  0.001041  1
  In  In10  1  0.397551  0.999603  0.750312  1
  In  In11  1  0.395727  0.398326  0.249704  1
  In  In12  1  0.997958  0.601956  0.249687  1
  Sb  Sb13  1  0.997385  0.391478  0.750266  1
  Sb  Sb14  1  0.605531  0.608734  0.750304  1
  Sb  Sb15  1  0.606852  0.999733  0.249692  1
