# generated using pymatgen
data_Hf18Ta2Mn3Co2Re3
_symmetry_space_group_name_H-M   'P 1'
_cell_length_a   8.60381800
_cell_length_b   8.60381804
_cell_length_c   8.32717000
_cell_angle_alpha   90.00000000
_cell_angle_beta   90.00000000
_cell_angle_gamma   119.99999986
_symmetry_Int_Tables_number   1
_chemical_formula_structural   Hf18Ta2Mn3Co2Re3
_chemical_formula_sum   'Hf18 Ta2 Mn3 Co2 Re3'
_cell_volume   533.83924189
_cell_formula_units_Z   1
loop_
 _symmetry_equiv_pos_site_id
 _symmetry_equiv_pos_as_xyz
  1  'x, y, z'
loop_
 _atom_site_type_symbol
 _atom_site_label
 _atom_site_symmetry_multiplicity
 _atom_site_fract_x
 _atom_site_fract_y
 _atom_site_fract_z
 _atom_site_occupancy
  Hf  Hf0  1  0.200271  0.799729  0.440058  1
  Hf  Hf1  1  0.200271  0.400544  0.440058  1
  Hf  Hf2  1  0.599456  0.799729  0.440058  1
  Hf  Hf3  1  0.799848  0.200152  0.557500  1
  Hf  Hf4  1  0.799848  0.599696  0.557500  1
  Hf  Hf5  1  0.400304  0.200152  0.557500  1
  Hf  Hf6  1  0.799848  0.200152  0.942500  1
  Hf  Hf7  1  0.799848  0.599696  0.942500  1
  Hf  Hf8  1  0.400304  0.200152  0.942500  1
  Hf  Hf9  1  0.200271  0.799729  0.059942  1
  Hf  Hf10  1  0.200271  0.400544  0.059942  1
  Hf  Hf11  1  0.599456  0.799729  0.059942  1
  Hf  Hf12  1  0.542789  0.457211  0.250000  1
  Hf  Hf13  1  0.542789  0.085575  0.250000  1
  Hf  Hf14  1  0.914425  0.457211  0.250000  1
  Hf  Hf15  1  0.457971  0.542029  0.750000  1
  Hf  Hf16  1  0.457971  0.915942  0.750000  1
  Hf  Hf17  1  0.084058  0.542029  0.750000  1
  Ta  Ta18  1  0.000000  0.000000  0.476664  1
  Ta  Ta19  1  0.000000  0.000000  0.023336  1
  Mn  Mn20  1  0.883117  0.116883  0.250000  1
  Mn  Mn21  1  0.883117  0.766233  0.250000  1
  Mn  Mn22  1  0.233767  0.116883  0.250000  1
  Co  Co23  1  0.333333  0.666667  0.250000  1
  Co  Co24  1  0.666667  0.333333  0.750000  1
  Re  Re25  1  0.111429  0.888571  0.750000  1
  Re  Re26  1  0.111429  0.222858  0.750000  1
  Re  Re27  1  0.777142  0.888571  0.750000  1
