# generated using pymatgen
data_Pr17Sm3Si15Cl
_symmetry_space_group_name_H-M   'P 1'
_cell_length_a   7.95925263
_cell_length_b   7.86757781
_cell_length_c   15.28327595
_cell_angle_alpha   89.51014891
_cell_angle_beta   89.18434500
_cell_angle_gamma   91.02522298
_symmetry_Int_Tables_number   1
_chemical_formula_structural   Pr17Sm3Si15Cl
_chemical_formula_sum   'Pr17 Sm3 Si15 Cl1'
_cell_volume   956.75207281
_cell_formula_units_Z   1
loop_
 _symmetry_equiv_pos_site_id
 _symmetry_equiv_pos_as_xyz
  1  'x, y, z'
loop_
 _atom_site_type_symbol
 _atom_site_label
 _atom_site_symmetry_multiplicity
 _atom_site_fract_x
 _atom_site_fract_y
 _atom_site_fract_z
 _atom_site_occupancy
  Pr  Pr0  1  0.687299  0.687926  0.498011  1
  Pr  Pr1  1  0.381126  0.003057  0.442623  1
  Pr  Pr2  1  0.499263  0.860608  0.701865  1
  Pr  Pr3  1  0.511007  0.123012  0.196832  1
  Pr  Pr4  1  0.873516  0.482903  0.299431  1
  Pr  Pr5  1  0.123639  0.519851  0.801636  1
  Pr  Pr6  1  0.636179  0.986396  0.952721  1
  Pr  Pr7  1  0.995743  0.381789  0.546310  1
  Pr  Pr8  1  0.994887  0.624028  0.052041  1
  Pr  Pr9  1  0.143064  0.991144  0.873128  1
  Pr  Pr10  1  0.519491  0.630868  0.124607  1
  Pr  Pr11  1  0.473196  0.360539  0.632306  1
  Pr  Pr12  1  0.637619  0.521462  0.876571  1
  Pr  Pr13  1  0.365890  0.476273  0.375750  1
  Pr  Pr14  1  0.871490  0.019779  0.377529  1
  Pr  Pr15  1  0.984294  0.125551  0.122612  1
  Pr  Pr16  1  0.019386  0.874147  0.621607  1
  Sm  Sm17  1  0.313003  0.311003  0.998496  1
  Sm  Sm18  1  0.186491  0.807064  0.249332  1
  Sm  Sm19  1  0.795988  0.189656  0.753561  1
  Si  Si20  1  0.333832  0.697772  0.948993  1
  Si  Si21  1  0.660431  0.303159  0.454252  1
  Si  Si22  1  0.701943  0.334662  0.050059  1
  Si  Si23  1  0.302822  0.664894  0.551895  1
  Si  Si24  1  0.806577  0.829859  0.203565  1
  Si  Si25  1  0.168900  0.191011  0.294877  1
  Si  Si26  1  0.844081  0.807850  0.797002  1
  Si  Si27  1  0.289258  0.923629  0.058913  1
  Si  Si28  1  0.573518  0.784429  0.307729  1
  Si  Si29  1  0.453730  0.206645  0.824178  1
  Si  Si30  1  0.790718  0.576627  0.688396  1
  Si  Si31  1  0.212301  0.424183  0.188854  1
  Si  Si32  1  0.705508  0.075454  0.563060  1
  Si  Si33  1  0.930647  0.291324  0.938803  1
  Si  Si34  1  0.077615  0.711769  0.439805  1
  Cl  Cl35  1  0.135547  0.199677  0.692653  1
