# generated using pymatgen
data_CaLa3Os6O19
_symmetry_space_group_name_H-M   'P 1'
_cell_length_a   7.90369534
_cell_length_b   7.90369545
_cell_length_c   7.98630800
_cell_angle_alpha   109.68309757
_cell_angle_beta   109.68309786
_cell_angle_gamma   109.25851462
_symmetry_Int_Tables_number   1
_chemical_formula_structural   CaLa3Os6O19
_chemical_formula_sum   'Ca1 La3 Os6 O19'
_cell_volume   383.03834741
_cell_formula_units_Z   1
loop_
 _symmetry_equiv_pos_site_id
 _symmetry_equiv_pos_as_xyz
  1  'x, y, z'
loop_
 _atom_site_type_symbol
 _atom_site_label
 _atom_site_symmetry_multiplicity
 _atom_site_fract_x
 _atom_site_fract_y
 _atom_site_fract_z
 _atom_site_occupancy
  Ca  Ca0  1  0.000000  0.000000  0.292147  1
  La  La1  1  0.999847  0.310418  0.001031  1
  La  La2  1  0.689582  0.689429  0.690613  1
  La  La3  1  0.310571  0.000153  0.001184  1
  Os  Os4  1  0.364148  0.500494  0.863932  1
  Os  Os5  1  0.863564  0.359791  0.499691  1
  Os  Os6  1  0.496227  0.136436  0.636126  1
  Os  Os7  1  0.136346  0.635852  0.499784  1
  Os  Os8  1  0.499506  0.863654  0.363438  1
  Os  Os9  1  0.640209  0.503773  0.139900  1
  O  O10  1  0.322521  0.999574  0.324435  1
  O  O11  1  0.326195  0.324905  0.000740  1
  O  O12  1  0.998710  0.673805  0.674545  1
  O  O13  1  0.677053  0.677479  0.001914  1
  O  O14  1  0.000426  0.322947  0.324861  1
  O  O15  1  0.675095  0.001290  0.675835  1
  O  O16  1  0.000000  0.000000  0.986531  1
  O  O17  1  0.350475  0.291494  0.631509  1
  O  O18  1  0.061968  0.344472  0.714443  1
  O  O19  1  0.721093  0.369437  0.660756  1
  O  O20  1  0.372335  0.665044  0.726498  1
  O  O21  1  0.282505  0.938032  0.652474  1
  O  O22  1  0.630563  0.351656  0.291318  1
  O  O23  1  0.292708  0.627665  0.354163  1
  O  O24  1  0.708506  0.058979  0.340014  1
  O  O25  1  0.941021  0.649525  0.281034  1
  O  O26  1  0.655528  0.717495  0.369970  1
  O  O27  1  0.648344  0.278907  0.939663  1
  O  O28  1  0.334956  0.707292  0.061454  1
