# generated using pymatgen
data_Tb4Zn9CdIn2
_symmetry_space_group_name_H-M   'P 1'
_cell_length_a   4.50269900
_cell_length_b   7.19609509
_cell_length_c   9.93497821
_cell_angle_alpha   89.82396126
_cell_angle_beta   90.00000000
_cell_angle_gamma   90.00000000
_symmetry_Int_Tables_number   1
_chemical_formula_structural   Tb4Zn9CdIn2
_chemical_formula_sum   'Tb4 Zn9 Cd1 In2'
_cell_volume   321.91015617
_cell_formula_units_Z   1
loop_
 _symmetry_equiv_pos_site_id
 _symmetry_equiv_pos_as_xyz
  1  'x, y, z'
loop_
 _atom_site_type_symbol
 _atom_site_label
 _atom_site_symmetry_multiplicity
 _atom_site_fract_x
 _atom_site_fract_y
 _atom_site_fract_z
 _atom_site_occupancy
  Tb  Tb0  1  0.250000  0.309157  0.672312  1
  Tb  Tb1  1  0.250000  0.811621  0.821772  1
  Tb  Tb2  1  0.750000  0.693294  0.332202  1
  Tb  Tb3  1  0.750000  0.192688  0.171121  1
  Zn  Zn4  1  0.750000  0.971881  0.598671  1
  Zn  Zn5  1  0.250000  0.911932  0.146195  1
  Zn  Zn6  1  0.250000  0.409538  0.357084  1
  Zn  Zn7  1  0.750000  0.090712  0.843860  1
  Zn  Zn8  1  0.750000  0.601366  0.646678  1
  Zn  Zn9  1  0.250000  0.180757  0.960431  1
  Zn  Zn10  1  0.250000  0.682745  0.538013  1
  Zn  Zn11  1  0.750000  0.816511  0.036098  1
  Zn  Zn12  1  0.750000  0.304669  0.467008  1
  Cd  Cd13  1  0.750000  0.470147  0.901048  1
  In  In14  1  0.250000  0.527602  0.097685  1
  In  In15  1  0.250000  0.025381  0.409824  1
