# generated using pymatgen
data_Ho8Ta3Ti9Si15Pb
_symmetry_space_group_name_H-M   'P 1'
_cell_length_a   7.11139192
_cell_length_b   7.05533420
_cell_length_c   13.01732965
_cell_angle_alpha   89.96743557
_cell_angle_beta   89.81778747
_cell_angle_gamma   89.86580934
_symmetry_Int_Tables_number   1
_chemical_formula_structural   Ho8Ta3Ti9Si15Pb
_chemical_formula_sum   'Ho8 Ta3 Ti9 Si15 Pb1'
_cell_volume   653.11649408
_cell_formula_units_Z   1
loop_
 _symmetry_equiv_pos_site_id
 _symmetry_equiv_pos_as_xyz
  1  'x, y, z'
loop_
 _atom_site_type_symbol
 _atom_site_label
 _atom_site_symmetry_multiplicity
 _atom_site_fract_x
 _atom_site_fract_y
 _atom_site_fract_z
 _atom_site_occupancy
  Ho  Ho0  1  0.343551  0.996754  0.459870  1
  Ho  Ho1  1  0.507864  0.832740  0.719555  1
  Ho  Ho2  1  0.500640  0.159847  0.217132  1
  Ho  Ho3  1  0.840022  0.497772  0.281352  1
  Ho  Ho4  1  0.159118  0.508741  0.786371  1
  Ho  Ho5  1  0.662834  0.997358  0.969910  1
  Ho  Ho6  1  0.988807  0.348500  0.526086  1
  Ho  Ho7  1  0.001392  0.660827  0.033942  1
  Ta  Ta8  1  0.327098  0.327288  0.001657  1
  Ta  Ta9  1  0.173550  0.826631  0.249447  1
  Ta  Ta10  1  0.814859  0.176227  0.752418  1
  Ti  Ti11  1  0.671941  0.672970  0.499531  1
  Ti  Ti12  1  0.154711  0.009710  0.883148  1
  Ti  Ti13  1  0.491228  0.652142  0.126112  1
  Ti  Ti14  1  0.517218  0.353278  0.626595  1
  Ti  Ti15  1  0.656164  0.492610  0.876870  1
  Ti  Ti16  1  0.343927  0.509251  0.372857  1
  Ti  Ti17  1  0.845620  0.991958  0.374498  1
  Ti  Ti18  1  0.010869  0.152989  0.124293  1
  Ti  Ti19  1  0.976386  0.832519  0.619013  1
  Si  Si20  1  0.372274  0.703178  0.935649  1
  Si  Si21  1  0.625482  0.298301  0.432296  1
  Si  Si22  1  0.703750  0.370907  0.067514  1
  Si  Si23  1  0.296241  0.629512  0.565766  1
  Si  Si24  1  0.798607  0.871123  0.184112  1
  Si  Si25  1  0.128363  0.202064  0.315450  1
  Si  Si26  1  0.872412  0.801536  0.816700  1
  Si  Si27  1  0.295589  0.954380  0.066241  1
  Si  Si28  1  0.548443  0.788927  0.312831  1
  Si  Si29  1  0.462574  0.208157  0.821395  1
  Si  Si30  1  0.795592  0.543054  0.687276  1
  Si  Si31  1  0.207427  0.454386  0.186012  1
  Si  Si32  1  0.703857  0.046445  0.563759  1
  Si  Si33  1  0.954974  0.293982  0.936346  1
  Si  Si34  1  0.045271  0.709030  0.433020  1
  Pb  Pb35  1  0.201342  0.124906  0.674974  1
