# generated using pymatgen
data_GdLu2WO7
_symmetry_space_group_name_H-M   'P 1'
_cell_length_a   6.35634400
_cell_length_b   6.35634408
_cell_length_c   7.36511900
_cell_angle_alpha   90.00000000
_cell_angle_beta   90.00000000
_cell_angle_gamma   108.94514263
_symmetry_Int_Tables_number   1
_chemical_formula_structural   GdLu2WO7
_chemical_formula_sum   'Gd2 Lu4 W2 O14'
_cell_volume   281.45409885
_cell_formula_units_Z   2
loop_
 _symmetry_equiv_pos_site_id
 _symmetry_equiv_pos_as_xyz
  1  'x, y, z'
loop_
 _atom_site_type_symbol
 _atom_site_label
 _atom_site_symmetry_multiplicity
 _atom_site_fract_x
 _atom_site_fract_y
 _atom_site_fract_z
 _atom_site_occupancy
  Gd  Gd0  1  0.504835  0.504835  0.500000  1
  Gd  Gd1  1  0.495165  0.495165  0.000000  1
  Lu  Lu2  1  0.997466  0.467241  0.748011  1
  Lu  Lu3  1  0.002534  0.532759  0.248011  1
  Lu  Lu4  1  0.532759  0.002534  0.751989  1
  Lu  Lu5  1  0.467241  0.997466  0.251989  1
  W  W6  1  0.000166  0.000166  0.500000  1
  W  W7  1  0.999834  0.999834  0.000000  1
  O  O8  1  0.641240  0.358760  0.750000  1
  O  O9  1  0.358760  0.641240  0.250000  1
  O  O10  1  0.920295  0.079705  0.750000  1
  O  O11  1  0.079705  0.920295  0.250000  1
  O  O12  1  0.924261  0.672631  0.530046  1
  O  O13  1  0.075739  0.327369  0.030046  1
  O  O14  1  0.327369  0.075739  0.969954  1
  O  O15  1  0.672631  0.924261  0.469954  1
  O  O16  1  0.361249  0.638751  0.750000  1
  O  O17  1  0.638751  0.361249  0.250000  1
  O  O18  1  0.928118  0.675080  0.966567  1
  O  O19  1  0.071882  0.324920  0.466567  1
  O  O20  1  0.324920  0.071882  0.533433  1
  O  O21  1  0.675080  0.928118  0.033433  1
