# generated using pymatgen
data_Tb16CdHg3OsPd3
_symmetry_space_group_name_H-M   'P 1'
_cell_length_a   9.72233919
_cell_length_b   9.73437984
_cell_length_c   9.73438000
_cell_angle_alpha   59.53285402
_cell_angle_beta   59.53879073
_cell_angle_gamma   59.53878669
_symmetry_Int_Tables_number   1
_chemical_formula_structural   Tb16CdHg3OsPd3
_chemical_formula_sum   'Tb16 Cd1 Hg3 Os1 Pd3'
_cell_volume   644.57608110
_cell_formula_units_Z   1
loop_
 _symmetry_equiv_pos_site_id
 _symmetry_equiv_pos_as_xyz
  1  'x, y, z'
loop_
 _atom_site_type_symbol
 _atom_site_label
 _atom_site_symmetry_multiplicity
 _atom_site_fract_x
 _atom_site_fract_y
 _atom_site_fract_z
 _atom_site_occupancy
  Tb  Tb0  1  0.354607  0.353874  0.353874  1
  Tb  Tb1  1  0.351845  0.351197  0.942683  1
  Tb  Tb2  1  0.351845  0.942683  0.351197  1
  Tb  Tb3  1  0.940200  0.352263  0.352263  1
  Tb  Tb4  1  0.815805  0.189067  0.189067  1
  Tb  Tb5  1  0.187140  0.810022  0.810022  1
  Tb  Tb6  1  0.187929  0.816444  0.189059  1
  Tb  Tb7  1  0.809230  0.188192  0.809195  1
  Tb  Tb8  1  0.187929  0.189059  0.816444  1
  Tb  Tb9  1  0.809230  0.809195  0.188192  1
  Tb  Tb10  1  0.934297  0.565763  0.565763  1
  Tb  Tb11  1  0.557479  0.937596  0.937596  1
  Tb  Tb12  1  0.564941  0.935667  0.565702  1
  Tb  Tb13  1  0.936323  0.558352  0.937768  1
  Tb  Tb14  1  0.564941  0.565702  0.935667  1
  Tb  Tb15  1  0.936323  0.937768  0.558352  1
  Cd  Cd16  1  0.255440  0.580816  0.580816  1
  Hg  Hg17  1  0.583057  0.584845  0.584845  1
  Hg  Hg18  1  0.584128  0.586242  0.241548  1
  Hg  Hg19  1  0.584128  0.241548  0.586242  1
  Os  Os20  1  0.143821  0.144450  0.144450  1
  Pd  Pd21  1  0.145105  0.145439  0.568661  1
  Pd  Pd22  1  0.145105  0.568661  0.145439  1
  Pd  Pd23  1  0.569149  0.145157  0.145157  1
