# generated using pymatgen
data_Tb4Lu2Al23VOs8
_symmetry_space_group_name_H-M   'P 1'
_cell_length_a   8.84257881
_cell_length_b   8.84257938
_cell_length_c   9.53372500
_cell_angle_alpha   89.98875238
_cell_angle_beta   90.01124785
_cell_angle_gamma   120.13091689
_symmetry_Int_Tables_number   1
_chemical_formula_structural   Tb4Lu2Al23VOs8
_chemical_formula_sum   'Tb4 Lu2 Al23 V1 Os8'
_cell_volume   644.72826629
_cell_formula_units_Z   1
loop_
 _symmetry_equiv_pos_site_id
 _symmetry_equiv_pos_as_xyz
  1  'x, y, z'
loop_
 _atom_site_type_symbol
 _atom_site_label
 _atom_site_symmetry_multiplicity
 _atom_site_fract_x
 _atom_site_fract_y
 _atom_site_fract_z
 _atom_site_occupancy
  Tb  Tb0  1  0.194872  0.389382  0.246062  1
  Tb  Tb1  1  0.807790  0.615452  0.750940  1
  Tb  Tb2  1  0.610618  0.805128  0.246062  1
  Tb  Tb3  1  0.384548  0.192210  0.750940  1
  Lu  Lu4  1  0.197953  0.802047  0.244017  1
  Lu  Lu5  1  0.804720  0.195280  0.750207  1
  Al  Al6  1  0.666766  0.333234  0.977482  1
  Al  Al7  1  0.666624  0.333376  0.519304  1
  Al  Al8  1  0.333099  0.666901  0.482102  1
  Al  Al9  1  0.161433  0.324151  0.576143  1
  Al  Al10  1  0.837997  0.674625  0.424204  1
  Al  Al11  1  0.675849  0.838567  0.576143  1
  Al  Al12  1  0.836219  0.671443  0.077250  1
  Al  Al13  1  0.325375  0.162003  0.424204  1
  Al  Al14  1  0.159515  0.320964  0.924590  1
  Al  Al15  1  0.162266  0.837734  0.574730  1
  Al  Al16  1  0.328557  0.163781  0.077250  1
  Al  Al17  1  0.837209  0.162791  0.425640  1
  Al  Al18  1  0.679036  0.840485  0.924590  1
  Al  Al19  1  0.835473  0.164527  0.075847  1
  Al  Al20  1  0.160489  0.839511  0.925859  1
  Al  Al21  1  0.561342  0.123631  0.253512  1
  Al  Al22  1  0.442345  0.883496  0.751400  1
  Al  Al23  1  0.876369  0.438658  0.253512  1
  Al  Al24  1  0.116504  0.557655  0.751400  1
  Al  Al25  1  0.562668  0.437332  0.253191  1
  Al  Al26  1  0.440997  0.559003  0.751059  1
  Al  Al27  1  0.002426  0.997574  0.250452  1
  Al  Al28  1  0.997610  0.002390  0.749756  1
  V  V29  1  0.333435  0.666565  0.983147  1
  Os  Os30  1  0.494835  0.990233  0.005708  1
  Os  Os31  1  0.009767  0.505165  0.005708  1
  Os  Os32  1  0.499618  0.998896  0.504159  1
  Os  Os33  1  0.495310  0.504690  0.005234  1
  Os  Os34  1  0.001104  0.500382  0.504159  1
  Os  Os35  1  0.499246  0.500754  0.503694  1
  Os  Os36  1  0.999945  0.000055  0.000863  1
  Os  Os37  1  0.000071  0.999929  0.499480  1
