# generated using pymatgen
data_Pr16Dy4Si15Pt
_symmetry_space_group_name_H-M   'P 1'
_cell_length_a   7.85185181
_cell_length_b   7.82490296
_cell_length_c   15.31728900
_cell_angle_alpha   90.08824761
_cell_angle_beta   89.75156202
_cell_angle_gamma   90.17819442
_symmetry_Int_Tables_number   1
_chemical_formula_structural   Pr16Dy4Si15Pt
_chemical_formula_sum   'Pr16 Dy4 Si15 Pt1'
_cell_volume   941.07941200
_cell_formula_units_Z   1
loop_
 _symmetry_equiv_pos_site_id
 _symmetry_equiv_pos_as_xyz
  1  'x, y, z'
loop_
 _atom_site_type_symbol
 _atom_site_label
 _atom_site_symmetry_multiplicity
 _atom_site_fract_x
 _atom_site_fract_y
 _atom_site_fract_z
 _atom_site_occupancy
  Pr  Pr0  1  0.376855  0.013518  0.446546  1
  Pr  Pr1  1  0.487815  0.877644  0.696368  1
  Pr  Pr2  1  0.512937  0.120735  0.195036  1
  Pr  Pr3  1  0.878510  0.486091  0.303443  1
  Pr  Pr4  1  0.121282  0.511584  0.802786  1
  Pr  Pr5  1  0.623219  0.986752  0.945808  1
  Pr  Pr6  1  0.007196  0.378937  0.553699  1
  Pr  Pr7  1  0.986249  0.622778  0.054604  1
  Pr  Pr8  1  0.132263  0.980846  0.876411  1
  Pr  Pr9  1  0.522430  0.628485  0.127650  1
  Pr  Pr10  1  0.472485  0.367650  0.629981  1
  Pr  Pr11  1  0.625024  0.521797  0.872078  1
  Pr  Pr12  1  0.374098  0.477289  0.371749  1
  Pr  Pr13  1  0.875577  0.025407  0.378357  1
  Pr  Pr14  1  0.976833  0.124449  0.122295  1
  Pr  Pr15  1  0.025827  0.878135  0.621834  1
  Dy  Dy16  1  0.306754  0.307328  0.999949  1
  Dy  Dy17  1  0.191124  0.808372  0.250140  1
  Dy  Dy18  1  0.815476  0.189308  0.750198  1
  Dy  Dy19  1  0.692353  0.689510  0.500350  1
  Si  Si20  1  0.328245  0.687529  0.956642  1
  Si  Si21  1  0.668549  0.312196  0.458445  1
  Si  Si22  1  0.689367  0.329749  0.043323  1
  Si  Si23  1  0.312685  0.671625  0.542293  1
  Si  Si24  1  0.813083  0.827826  0.209205  1
  Si  Si25  1  0.172983  0.188371  0.291945  1
  Si  Si26  1  0.830073  0.811179  0.792620  1
  Si  Si27  1  0.285533  0.921220  0.062629  1
  Si  Si28  1  0.580298  0.784657  0.313866  1
  Si  Si29  1  0.429324  0.209276  0.815982  1
  Si  Si30  1  0.781062  0.582421  0.686455  1
  Si  Si31  1  0.213712  0.421863  0.186611  1
  Si  Si32  1  0.709179  0.075545  0.561769  1
  Si  Si33  1  0.919787  0.285915  0.937756  1
  Si  Si34  1  0.081066  0.716920  0.437185  1
  Pt  Pt35  1  0.180750  0.177092  0.703992  1
