# generated using pymatgen
data_FeNiB2O5
_symmetry_space_group_name_H-M   'P 1'
_cell_length_a   6.21671721
_cell_length_b   6.38841882
_cell_length_c   9.85614591
_cell_angle_alpha   108.27903295
_cell_angle_beta   104.02248751
_cell_angle_gamma   88.41959337
_symmetry_Int_Tables_number   1
_chemical_formula_structural   FeNiB2O5
_chemical_formula_sum   'Fe4 Ni4 B8 O20'
_cell_volume   360.11066565
_cell_formula_units_Z   4
loop_
 _symmetry_equiv_pos_site_id
 _symmetry_equiv_pos_as_xyz
  1  'x, y, z'
loop_
 _atom_site_type_symbol
 _atom_site_label
 _atom_site_symmetry_multiplicity
 _atom_site_fract_x
 _atom_site_fract_y
 _atom_site_fract_z
 _atom_site_occupancy
  Fe  Fe0  1  0.790388  0.689894  0.642422  1
  Fe  Fe1  1  0.209903  0.310107  0.357580  1
  Fe  Fe2  1  0.790156  0.189511  0.642358  1
  Fe  Fe3  1  0.209199  0.809621  0.357392  1
  Ni  Ni4  1  0.623426  0.568311  0.898912  1
  Ni  Ni5  1  0.623946  0.068525  0.899173  1
  Ni  Ni6  1  0.376627  0.431845  0.101311  1
  Ni  Ni7  1  0.375950  0.930968  0.100925  1
  B  B8  1  0.319666  0.671661  0.649362  1
  B  B9  1  0.319663  0.171641  0.649304  1
  B  B10  1  0.680468  0.328375  0.350661  1
  B  B11  1  0.680212  0.828636  0.350640  1
  B  B12  1  0.120705  0.582825  0.835609  1
  B  B13  1  0.120856  0.083054  0.835748  1
  B  B14  1  0.879351  0.417160  0.164342  1
  B  B15  1  0.879042  0.917163  0.164340  1
  O  O16  1  0.278622  0.635602  0.502814  1
  O  O17  1  0.279036  0.135216  0.502845  1
  O  O18  1  0.721364  0.364811  0.497126  1
  O  O19  1  0.721194  0.864592  0.497112  1
  O  O20  1  0.305914  0.604211  0.949308  1
  O  O21  1  0.305983  0.104419  0.949418  1
  O  O22  1  0.694115  0.395787  0.050701  1
  O  O23  1  0.694029  0.895678  0.050606  1
  O  O24  1  0.907944  0.521729  0.823982  1
  O  O25  1  0.908166  0.021494  0.824068  1
  O  O26  1  0.091974  0.478769  0.175979  1
  O  O27  1  0.092064  0.977878  0.176078  1
  O  O28  1  0.523434  0.743942  0.746438  1
  O  O29  1  0.523579  0.243902  0.746490  1
  O  O30  1  0.476540  0.256162  0.253560  1
  O  O31  1  0.476568  0.755970  0.253411  1
  O  O32  1  0.141873  0.626573  0.705032  1
  O  O33  1  0.141787  0.127081  0.705168  1
  O  O34  1  0.858379  0.372878  0.294759  1
  O  O35  1  0.857880  0.874009  0.295030  1
