# generated using pymatgen
data_Dy20Cd6CoRu
_symmetry_space_group_name_H-M   'P 1'
_cell_length_a   9.60311100
_cell_length_b   9.60311118
_cell_length_c   9.80454000
_cell_angle_alpha   90.00000000
_cell_angle_beta   90.00000000
_cell_angle_gamma   120.00000283
_symmetry_Int_Tables_number   1
_chemical_formula_structural   Dy20Cd6CoRu
_chemical_formula_sum   'Dy20 Cd6 Co1 Ru1'
_cell_volume   783.03603344
_cell_formula_units_Z   1
loop_
 _symmetry_equiv_pos_site_id
 _symmetry_equiv_pos_as_xyz
  1  'x, y, z'
loop_
 _atom_site_type_symbol
 _atom_site_label
 _atom_site_symmetry_multiplicity
 _atom_site_fract_x
 _atom_site_fract_y
 _atom_site_fract_z
 _atom_site_occupancy
  Dy  Dy0  1  0.000000  0.000000  0.499993  1
  Dy  Dy1  1  0.000000  0.000000  0.000007  1
  Dy  Dy2  1  0.212235  0.787765  0.436009  1
  Dy  Dy3  1  0.212235  0.424472  0.436009  1
  Dy  Dy4  1  0.575528  0.787765  0.436009  1
  Dy  Dy5  1  0.790537  0.209463  0.560134  1
  Dy  Dy6  1  0.790537  0.581074  0.560134  1
  Dy  Dy7  1  0.418926  0.209463  0.560134  1
  Dy  Dy8  1  0.790537  0.209463  0.939866  1
  Dy  Dy9  1  0.790537  0.581074  0.939866  1
  Dy  Dy10  1  0.418926  0.209463  0.939866  1
  Dy  Dy11  1  0.212235  0.787765  0.063991  1
  Dy  Dy12  1  0.212235  0.424472  0.063991  1
  Dy  Dy13  1  0.575528  0.787765  0.063991  1
  Dy  Dy14  1  0.541601  0.458399  0.250000  1
  Dy  Dy15  1  0.541601  0.083202  0.250000  1
  Dy  Dy16  1  0.916798  0.458399  0.250000  1
  Dy  Dy17  1  0.458355  0.541645  0.750000  1
  Dy  Dy18  1  0.458355  0.916711  0.750000  1
  Dy  Dy19  1  0.083289  0.541645  0.750000  1
  Cd  Cd20  1  0.885288  0.114712  0.250000  1
  Cd  Cd21  1  0.885288  0.770578  0.250000  1
  Cd  Cd22  1  0.229422  0.114712  0.250000  1
  Cd  Cd23  1  0.114655  0.885345  0.750000  1
  Cd  Cd24  1  0.114655  0.229309  0.750000  1
  Cd  Cd25  1  0.770691  0.885345  0.750000  1
  Co  Co26  1  0.333333  0.666667  0.250000  1
  Ru  Ru27  1  0.666667  0.333333  0.750000  1
