# generated using pymatgen
data_MgZrNi3Ir
_symmetry_space_group_name_H-M   'P 1'
_cell_length_a   4.86330178
_cell_length_b   4.86330259
_cell_length_c   5.05634902
_cell_angle_alpha   61.12904678
_cell_angle_beta   61.12903757
_cell_angle_gamma   59.98969035
_symmetry_Int_Tables_number   1
_chemical_formula_structural   MgZrNi3Ir
_chemical_formula_sum   'Mg1 Zr1 Ni3 Ir1'
_cell_volume   85.97139440
_cell_formula_units_Z   1
loop_
 _symmetry_equiv_pos_site_id
 _symmetry_equiv_pos_as_xyz
  1  'x, y, z'
loop_
 _atom_site_type_symbol
 _atom_site_label
 _atom_site_symmetry_multiplicity
 _atom_site_fract_x
 _atom_site_fract_y
 _atom_site_fract_z
 _atom_site_occupancy
  Mg  Mg0  1  0.246407  0.246407  0.260473  1
  Zr  Zr1  1  0.000292  0.000292  0.999106  1
  Ni  Ni2  1  0.625371  0.127934  0.621525  1
  Ni  Ni3  1  0.127934  0.625371  0.621525  1
  Ni  Ni4  1  0.625648  0.625648  0.621024  1
  Ir  Ir5  1  0.624347  0.624347  0.126347  1
