# generated using pymatgen
data_Tm6IrO12
_symmetry_space_group_name_H-M   'P 1'
_cell_length_a   6.38823993
_cell_length_b   6.38823963
_cell_length_c   6.38824000
_cell_angle_alpha   98.81989788
_cell_angle_beta   98.81988929
_cell_angle_gamma   98.81988376
_symmetry_Int_Tables_number   1
_chemical_formula_structural   Tm6IrO12
_chemical_formula_sum   'Tm6 Ir1 O12'
_cell_volume   250.36328169
_cell_formula_units_Z   1
loop_
 _symmetry_equiv_pos_site_id
 _symmetry_equiv_pos_as_xyz
  1  'x, y, z'
loop_
 _atom_site_type_symbol
 _atom_site_label
 _atom_site_symmetry_multiplicity
 _atom_site_fract_x
 _atom_site_fract_y
 _atom_site_fract_z
 _atom_site_occupancy
  Tm  Tm0  1  0.682942  0.856098  0.389971  1
  Tm  Tm1  1  0.389971  0.682942  0.856098  1
  Tm  Tm2  1  0.856098  0.389971  0.682942  1
  Tm  Tm3  1  0.317058  0.143902  0.610029  1
  Tm  Tm4  1  0.610029  0.317058  0.143902  1
  Tm  Tm5  1  0.143902  0.610029  0.317058  1
  Ir  Ir6  1  0.000000  0.000000  0.000000  1
  O  O7  1  0.430288  0.590082  0.177474  1
  O  O8  1  0.177474  0.430288  0.590082  1
  O  O9  1  0.590082  0.177474  0.430288  1
  O  O10  1  0.569712  0.409918  0.822526  1
  O  O11  1  0.822526  0.569712  0.409918  1
  O  O12  1  0.409918  0.822526  0.569712  1
  O  O13  1  0.922089  0.038502  0.699676  1
  O  O14  1  0.961498  0.300324  0.077911  1
  O  O15  1  0.300324  0.077911  0.961498  1
  O  O16  1  0.077911  0.961498  0.300324  1
  O  O17  1  0.038502  0.699676  0.922089  1
  O  O18  1  0.699676  0.922089  0.038502  1
