# generated using pymatgen
data_NdTh2(MgAu)3
_symmetry_space_group_name_H-M   'P 1'
_cell_length_a   7.69467153
_cell_length_b   7.69467096
_cell_length_c   4.30132100
_cell_angle_alpha   90.00000000
_cell_angle_beta   90.00000000
_cell_angle_gamma   120.48007864
_symmetry_Int_Tables_number   1
_chemical_formula_structural   NdTh2(MgAu)3
_chemical_formula_sum   'Nd1 Th2 Mg3 Au3'
_cell_volume   219.47815107
_cell_formula_units_Z   1
loop_
 _symmetry_equiv_pos_site_id
 _symmetry_equiv_pos_as_xyz
  1  'x, y, z'
loop_
 _atom_site_type_symbol
 _atom_site_label
 _atom_site_symmetry_multiplicity
 _atom_site_fract_x
 _atom_site_fract_y
 _atom_site_fract_z
 _atom_site_occupancy
  Nd  Nd0  1  0.415106  0.415106  0.000000  1
  Th  Th1  1  0.585376  0.001208  0.000000  1
  Th  Th2  1  0.001208  0.585376  0.000000  1
  Mg  Mg3  1  0.240631  0.004608  0.500000  1
  Mg  Mg4  1  0.004608  0.240631  0.500000  1
  Mg  Mg5  1  0.755155  0.755155  0.500000  1
  Au  Au6  1  0.331660  0.673735  0.500000  1
  Au  Au7  1  0.673735  0.331660  0.500000  1
  Au  Au8  1  0.992522  0.992522  0.000000  1
