# generated using pymatgen
data_Na3LiIn2
_symmetry_space_group_name_H-M   'P 1'
_cell_length_a   9.83256828
_cell_length_b   9.83256954
_cell_length_c   9.83256900
_cell_angle_alpha   60.00000518
_cell_angle_beta   60.00000095
_cell_angle_gamma   60.00000486
_symmetry_Int_Tables_number   1
_chemical_formula_structural   Na3LiIn2
_chemical_formula_sum   'Na12 Li4 In8'
_cell_volume   672.18070006
_cell_formula_units_Z   4
loop_
 _symmetry_equiv_pos_site_id
 _symmetry_equiv_pos_as_xyz
  1  'x, y, z'
loop_
 _atom_site_type_symbol
 _atom_site_label
 _atom_site_symmetry_multiplicity
 _atom_site_fract_x
 _atom_site_fract_y
 _atom_site_fract_z
 _atom_site_occupancy
  Na  Na0  1  0.451974  0.048026  0.048026  1
  Na  Na1  1  0.798026  0.201974  0.798026  1
  Na  Na2  1  0.451974  0.451974  0.048026  1
  Na  Na3  1  0.798026  0.798026  0.201974  1
  Na  Na4  1  0.201974  0.798026  0.798026  1
  Na  Na5  1  0.048026  0.451974  0.451974  1
  Na  Na6  1  0.048026  0.048026  0.451974  1
  Na  Na7  1  0.201974  0.201974  0.798026  1
  Na  Na8  1  0.451974  0.048026  0.451974  1
  Na  Na9  1  0.798026  0.201974  0.201974  1
  Na  Na10  1  0.048026  0.451974  0.048026  1
  Na  Na11  1  0.201974  0.798026  0.201974  1
  Li  Li12  1  0.625000  0.625000  0.125000  1
  Li  Li13  1  0.625000  0.125000  0.625000  1
  Li  Li14  1  0.125000  0.625000  0.625000  1
  Li  Li15  1  0.625000  0.625000  0.625000  1
  In  In16  1  0.419108  0.419108  0.419108  1
  In  In17  1  0.742675  0.419108  0.419108  1
  In  In18  1  0.830892  0.830892  0.830892  1
  In  In19  1  0.419108  0.419108  0.742675  1
  In  In20  1  0.830892  0.830892  0.507325  1
  In  In21  1  0.419108  0.742675  0.419108  1
  In  In22  1  0.830892  0.507325  0.830892  1
  In  In23  1  0.507325  0.830892  0.830892  1
