# generated using pymatgen
data_Ca2PaRu2
_symmetry_space_group_name_H-M   'P 1'
_cell_length_a   6.13831631
_cell_length_b   6.13831628
_cell_length_c   6.13831637
_cell_angle_alpha   140.14682183
_cell_angle_beta   123.84259061
_cell_angle_gamma   71.05851183
_symmetry_Int_Tables_number   1
_chemical_formula_structural   Ca2PaRu2
_chemical_formula_sum   'Ca2 Pa1 Ru2'
_cell_volume   120.77715309
_cell_formula_units_Z   1
loop_
 _symmetry_equiv_pos_site_id
 _symmetry_equiv_pos_as_xyz
  1  'x, y, z'
loop_
 _atom_site_type_symbol
 _atom_site_label
 _atom_site_symmetry_multiplicity
 _atom_site_fract_x
 _atom_site_fract_y
 _atom_site_fract_z
 _atom_site_occupancy
  Ca  Ca0  1  0.699856  0.199856  0.500000  1
  Ca  Ca1  1  0.300144  0.800145  0.500001  1
  Pa  Pa2  1  0.000000  0.000000  0.000000  1
  Ru  Ru3  1  0.747384  0.499999  0.247384  1
  Ru  Ru4  1  0.252615  0.500001  0.752616  1
