# generated using pymatgen
data_LiHo16Zn2CdCo4
_symmetry_space_group_name_H-M   'P 1'
_cell_length_a   9.35986329
_cell_length_b   9.35671015
_cell_length_c   9.39373556
_cell_angle_alpha   60.20504382
_cell_angle_beta   60.11920748
_cell_angle_gamma   59.98885813
_symmetry_Int_Tables_number   1
_chemical_formula_structural   LiHo16Zn2CdCo4
_chemical_formula_sum   'Li1 Ho16 Zn2 Cd1 Co4'
_cell_volume   583.09414612
_cell_formula_units_Z   1
loop_
 _symmetry_equiv_pos_site_id
 _symmetry_equiv_pos_as_xyz
  1  'x, y, z'
loop_
 _atom_site_type_symbol
 _atom_site_label
 _atom_site_symmetry_multiplicity
 _atom_site_fract_x
 _atom_site_fract_y
 _atom_site_fract_z
 _atom_site_occupancy
  Li  Li0  1  0.568032  0.572520  0.291418  1
  Ho  Ho1  1  0.940942  0.932615  0.562497  1
  Ho  Ho2  1  0.813439  0.186457  0.186664  1
  Ho  Ho3  1  0.936729  0.563485  0.563059  1
  Ho  Ho4  1  0.941999  0.561069  0.934901  1
  Ho  Ho5  1  0.812648  0.812364  0.188060  1
  Ho  Ho6  1  0.345350  0.346119  0.347612  1
  Ho  Ho7  1  0.561380  0.938487  0.938754  1
  Ho  Ho8  1  0.563948  0.932615  0.562497  1
  Ho  Ho9  1  0.191212  0.809434  0.808143  1
  Ho  Ho10  1  0.189560  0.190955  0.809033  1
  Ho  Ho11  1  0.348896  0.350989  0.951222  1
  Ho  Ho12  1  0.346196  0.958129  0.349479  1
  Ho  Ho13  1  0.810453  0.190955  0.809033  1
  Ho  Ho14  1  0.562031  0.561069  0.934901  1
  Ho  Ho15  1  0.186926  0.812364  0.188060  1
  Ho  Ho16  1  0.960920  0.346119  0.347612  1
  Zn  Zn17  1  0.256645  0.583226  0.579626  1
  Zn  Zn18  1  0.580506  0.583226  0.579626  1
  Cd  Cd19  1  0.578547  0.265582  0.577325  1
  Co  Co20  1  0.575854  0.142605  0.137972  1
  Co  Co21  1  0.143571  0.142605  0.137972  1
  Co  Co22  1  0.142921  0.576571  0.137589  1
  Co  Co23  1  0.141300  0.140447  0.576955  1
