# generated using pymatgen
data_Ho8In2IrRu
_symmetry_space_group_name_H-M   'P 1'
_cell_length_a   9.63337880
_cell_length_b   9.62085457
_cell_length_c   9.62085520
_cell_angle_alpha   59.93708896
_cell_angle_beta   59.95692920
_cell_angle_gamma   59.95692829
_symmetry_Int_Tables_number   1
_chemical_formula_structural   Ho8In2IrRu
_chemical_formula_sum   'Ho16 In4 Ir2 Ru2'
_cell_volume   629.79801003
_cell_formula_units_Z   2
loop_
 _symmetry_equiv_pos_site_id
 _symmetry_equiv_pos_as_xyz
  1  'x, y, z'
loop_
 _atom_site_type_symbol
 _atom_site_label
 _atom_site_symmetry_multiplicity
 _atom_site_fract_x
 _atom_site_fract_y
 _atom_site_fract_z
 _atom_site_occupancy
  Ho  Ho0  1  0.439491  0.441594  0.059858  1
  Ho  Ho1  1  0.651921  0.651694  0.044466  1
  Ho  Ho2  1  0.192637  0.809425  0.190589  1
  Ho  Ho3  1  0.059058  0.441594  0.059858  1
  Ho  Ho4  1  0.190819  0.809181  0.809181  1
  Ho  Ho5  1  0.060525  0.439475  0.439475  1
  Ho  Ho6  1  0.807142  0.192858  0.192858  1
  Ho  Ho7  1  0.651427  0.651641  0.651641  1
  Ho  Ho8  1  0.807349  0.190589  0.809425  1
  Ho  Ho9  1  0.192637  0.190589  0.809425  1
  Ho  Ho10  1  0.045293  0.651641  0.651641  1
  Ho  Ho11  1  0.442016  0.057984  0.057984  1
  Ho  Ho12  1  0.059058  0.059858  0.441594  1
  Ho  Ho13  1  0.651921  0.044466  0.651694  1
  Ho  Ho14  1  0.807349  0.809425  0.190589  1
  Ho  Ho15  1  0.439491  0.059858  0.441594  1
  In  In16  1  0.417029  0.417211  0.417211  1
  In  In17  1  0.416850  0.416872  0.749429  1
  In  In18  1  0.416850  0.749429  0.416872  1
  In  In19  1  0.748551  0.417211  0.417211  1
  Ir  Ir20  1  0.860287  0.421205  0.858219  1
  Ir  Ir21  1  0.860287  0.858219  0.421205  1
  Ru  Ru22  1  0.419882  0.858992  0.858992  1
  Ru  Ru23  1  0.862132  0.858992  0.858992  1
