# generated using pymatgen
data_Lu2Sc2Al15(SiIr2)3
_symmetry_space_group_name_H-M   'P 1'
_cell_length_a   7.48521500
_cell_length_b   7.49027923
_cell_length_c   9.18135600
_cell_angle_alpha   90.00000000
_cell_angle_beta   90.00000000
_cell_angle_gamma   119.75509375
_symmetry_Int_Tables_number   1
_chemical_formula_structural   Lu2Sc2Al15(SiIr2)3
_chemical_formula_sum   'Lu2 Sc2 Al15 Si3 Ir6'
_cell_volume   446.89575884
_cell_formula_units_Z   1
loop_
 _symmetry_equiv_pos_site_id
 _symmetry_equiv_pos_as_xyz
  1  'x, y, z'
loop_
 _atom_site_type_symbol
 _atom_site_label
 _atom_site_symmetry_multiplicity
 _atom_site_fract_x
 _atom_site_fract_y
 _atom_site_fract_z
 _atom_site_occupancy
  Lu  Lu0  1  0.999814  0.674361  0.250000  1
  Lu  Lu1  1  0.667861  0.989935  0.250000  1
  Sc  Sc2  1  0.004331  0.323457  0.750000  1
  Sc  Sc3  1  0.326121  0.006289  0.750000  1
  Al  Al4  1  0.999046  0.333791  0.074810  1
  Al  Al5  1  0.004693  0.664851  0.918993  1
  Al  Al6  1  0.004693  0.664851  0.581007  1
  Al  Al7  1  0.336566  0.004081  0.426346  1
  Al  Al8  1  0.999046  0.333791  0.425190  1
  Al  Al9  1  0.663430  0.001983  0.580452  1
  Al  Al10  1  0.663430  0.001983  0.919548  1
  Al  Al11  1  0.336566  0.004081  0.073654  1
  Al  Al12  1  0.332974  0.332717  0.568333  1
  Al  Al13  1  0.667110  0.664218  0.442218  1
  Al  Al14  1  0.667110  0.664218  0.057782  1
  Al  Al15  1  0.332974  0.332717  0.931667  1
  Al  Al16  1  0.666118  0.449465  0.750000  1
  Al  Al17  1  0.548295  0.339339  0.250000  1
  Al  Al18  1  0.443165  0.665445  0.750000  1
  Si  Si19  1  0.123605  0.127481  0.250000  1
  Si  Si20  1  0.873412  0.873902  0.750000  1
  Si  Si21  1  0.333797  0.543075  0.250000  1
  Ir  Ir22  1  0.673052  0.329832  0.000517  1
  Ir  Ir23  1  0.329754  0.671280  0.007974  1
  Ir  Ir24  1  0.329754  0.671280  0.492026  1
  Ir  Ir25  1  0.673052  0.329832  0.499483  1
  Ir  Ir26  1  0.000119  0.000872  0.000058  1
  Ir  Ir27  1  0.000119  0.000872  0.499942  1
