# generated using pymatgen
data_InAgAu6
_symmetry_space_group_name_H-M   'P 1'
_cell_length_a   5.93811400
_cell_length_b   5.93811523
_cell_length_c   4.86007000
_cell_angle_alpha   90.00000000
_cell_angle_beta   90.00000000
_cell_angle_gamma   119.99999312
_symmetry_Int_Tables_number   1
_chemical_formula_structural   InAgAu6
_chemical_formula_sum   'In1 Ag1 Au6'
_cell_volume   148.41245134
_cell_formula_units_Z   1
loop_
 _symmetry_equiv_pos_site_id
 _symmetry_equiv_pos_as_xyz
  1  'x, y, z'
loop_
 _atom_site_type_symbol
 _atom_site_label
 _atom_site_symmetry_multiplicity
 _atom_site_fract_x
 _atom_site_fract_y
 _atom_site_fract_z
 _atom_site_occupancy
  In  In0  1  0.333333  0.666667  0.750000  1
  Ag  Ag1  1  0.666667  0.333333  0.250000  1
  Au  Au2  1  0.166536  0.333072  0.250000  1
  Au  Au3  1  0.666928  0.833464  0.250000  1
  Au  Au4  1  0.166536  0.833464  0.250000  1
  Au  Au5  1  0.833033  0.666066  0.750000  1
  Au  Au6  1  0.333934  0.166967  0.750000  1
  Au  Au7  1  0.833033  0.166967  0.750000  1
