# generated using pymatgen
data_HfZr16Si16W3
_symmetry_space_group_name_H-M   'P 1'
_cell_length_a   7.03985205
_cell_length_b   7.03973439
_cell_length_c   12.91122330
_cell_angle_alpha   90.10710079
_cell_angle_beta   89.93368586
_cell_angle_gamma   89.96365929
_symmetry_Int_Tables_number   1
_chemical_formula_structural   HfZr16Si16W3
_chemical_formula_sum   'Hf1 Zr16 Si16 W3'
_cell_volume   639.86161830
_cell_formula_units_Z   1
loop_
 _symmetry_equiv_pos_site_id
 _symmetry_equiv_pos_as_xyz
  1  'x, y, z'
loop_
 _atom_site_type_symbol
 _atom_site_label
 _atom_site_symmetry_multiplicity
 _atom_site_fract_x
 _atom_site_fract_y
 _atom_site_fract_z
 _atom_site_occupancy
  Hf  Hf0  1  0.994333  0.145561  0.622575  1
  Zr  Zr1  1  0.174868  0.174831  0.999755  1
  Zr  Zr2  1  0.497762  0.152935  0.530511  1
  Zr  Zr3  1  0.502753  0.848183  0.033481  1
  Zr  Zr4  1  0.652861  0.999651  0.284629  1
  Zr  Zr5  1  0.348316  0.997201  0.781332  1
  Zr  Zr6  1  0.848346  0.502475  0.966290  1
  Zr  Zr7  1  0.152709  0.498380  0.469789  1
  Zr  Zr8  1  0.999508  0.654034  0.715628  1
  Zr  Zr9  1  0.997235  0.348681  0.218335  1
  Zr  Zr10  1  0.497070  0.355325  0.127216  1
  Zr  Zr11  1  0.502368  0.645723  0.625545  1
  Zr  Zr12  1  0.854189  0.000011  0.872660  1
  Zr  Zr13  1  0.145746  0.995290  0.377879  1
  Zr  Zr14  1  0.645979  0.502552  0.374665  1
  Zr  Zr15  1  0.355394  0.496751  0.872450  1
  Zr  Zr16  1  0.000059  0.854088  0.127163  1
  Si  Si17  1  0.793333  0.146058  0.070807  1
  Si  Si18  1  0.200925  0.854147  0.571972  1
  Si  Si19  1  0.646654  0.701375  0.820768  1
  Si  Si20  1  0.352156  0.297780  0.322291  1
  Si  Si21  1  0.852995  0.201106  0.429517  1
  Si  Si22  1  0.146172  0.793135  0.929077  1
  Si  Si23  1  0.701567  0.646760  0.179212  1
  Si  Si24  1  0.296103  0.351932  0.677304  1
  Si  Si25  1  0.554682  0.201254  0.932791  1
  Si  Si26  1  0.454301  0.800629  0.434789  1
  Si  Si27  1  0.698546  0.953669  0.682904  1
  Si  Si28  1  0.304719  0.042846  0.187622  1
  Si  Si29  1  0.800605  0.452968  0.565592  1
  Si  Si30  1  0.201344  0.554772  0.066927  1
  Si  Si31  1  0.953474  0.698010  0.316869  1
  Si  Si32  1  0.042981  0.304305  0.811694  1
  W  W33  1  0.677133  0.325613  0.747357  1
  W  W34  1  0.327040  0.675994  0.252075  1
  W  W35  1  0.825770  0.825975  0.500527  1
