# generated using pymatgen
data_Dy5HoB14MoOs
_symmetry_space_group_name_H-M   'P 1'
_cell_length_a   8.11142100
_cell_length_b   8.11142298
_cell_length_c   9.38902700
_cell_angle_alpha   90.00000000
_cell_angle_beta   90.00000000
_cell_angle_gamma   155.02501999
_symmetry_Int_Tables_number   1
_chemical_formula_structural   Dy5HoB14MoOs
_chemical_formula_sum   'Dy5 Ho1 B14 Mo1 Os1'
_cell_volume   260.82901717
_cell_formula_units_Z   1
loop_
 _symmetry_equiv_pos_site_id
 _symmetry_equiv_pos_as_xyz
  1  'x, y, z'
loop_
 _atom_site_type_symbol
 _atom_site_label
 _atom_site_symmetry_multiplicity
 _atom_site_fract_x
 _atom_site_fract_y
 _atom_site_fract_z
 _atom_site_occupancy
  Dy  Dy0  1  0.744658  0.255342  0.750000  1
  Dy  Dy1  1  0.605946  0.394054  0.062098  1
  Dy  Dy2  1  0.393117  0.606883  0.941127  1
  Dy  Dy3  1  0.393117  0.606883  0.558873  1
  Dy  Dy4  1  0.605946  0.394054  0.437902  1
  Ho  Ho5  1  0.257065  0.742935  0.250000  1
  B  B6  1  0.978835  0.021165  0.096795  1
  B  B7  1  0.019610  0.980390  0.908463  1
  B  B8  1  0.019610  0.980390  0.591537  1
  B  B9  1  0.978835  0.021165  0.403205  1
  B  B10  1  0.773393  0.226607  0.035440  1
  B  B11  1  0.228031  0.771969  0.968332  1
  B  B12  1  0.228031  0.771969  0.531668  1
  B  B13  1  0.773393  0.226607  0.464560  1
  B  B14  1  0.868214  0.131786  0.151451  1
  B  B15  1  0.134571  0.865429  0.852441  1
  B  B16  1  0.134571  0.865429  0.647559  1
  B  B17  1  0.868214  0.131786  0.348549  1
  B  B18  1  0.041802  0.958198  0.250000  1
  B  B19  1  0.954815  0.045185  0.750000  1
  Mo  Mo20  1  0.552635  0.447365  0.750000  1
  Os  Os21  1  0.445592  0.554408  0.250000  1
