# generated using pymatgen
data_NdU3(Al8Pt3)3
_symmetry_space_group_name_H-M   'P 1'
_cell_length_a   7.57952764
_cell_length_b   7.59366221
_cell_length_c   13.20640723
_cell_angle_alpha   84.28157171
_cell_angle_beta   78.94035438
_cell_angle_gamma   59.90316858
_symmetry_Int_Tables_number   1
_chemical_formula_structural   NdU3(Al8Pt3)3
_chemical_formula_sum   'Nd1 U3 Al24 Pt9'
_cell_volume   645.41495951
_cell_formula_units_Z   1
loop_
 _symmetry_equiv_pos_site_id
 _symmetry_equiv_pos_as_xyz
  1  'x, y, z'
loop_
 _atom_site_type_symbol
 _atom_site_label
 _atom_site_symmetry_multiplicity
 _atom_site_fract_x
 _atom_site_fract_y
 _atom_site_fract_z
 _atom_site_occupancy
  Nd  Nd0  1  0.394212  0.167051  0.810255  1
  U  U1  1  0.606292  0.831250  0.195439  1
  U  U2  1  0.735681  0.498255  0.803072  1
  U  U3  1  0.263842  0.502444  0.195802  1
  Al  Al4  1  0.685186  0.829250  0.948305  1
  Al  Al5  1  0.317756  0.165007  0.057641  1
  Al  Al6  1  0.145857  0.833686  0.560834  1
  Al  Al7  1  0.853471  0.166508  0.439317  1
  Al  Al8  1  0.481448  0.166954  0.558086  1
  Al  Al9  1  0.518328  0.834052  0.441834  1
  Al  Al10  1  0.215419  0.165692  0.330416  1
  Al  Al11  1  0.783869  0.835518  0.668246  1
  Al  Al12  1  0.436288  0.506579  0.668628  1
  Al  Al13  1  0.563120  0.493118  0.330046  1
  Al  Al14  1  0.111968  0.157525  0.667540  1
  Al  Al15  1  0.889424  0.843770  0.331610  1
  Al  Al16  1  0.354385  0.501102  0.947407  1
  Al  Al17  1  0.645695  0.501939  0.053060  1
  Al  Al18  1  0.011741  0.169618  0.953515  1
  Al  Al19  1  0.985035  0.830090  0.047808  1
  Al  Al20  1  0.186477  0.499906  0.441891  1
  Al  Al21  1  0.814254  0.499629  0.557531  1
  Al  Al22  1  0.735494  0.164725  0.181722  1
  Al  Al23  1  0.265817  0.831760  0.816912  1
  Al  Al24  1  0.057508  0.633733  0.815890  1
  Al  Al25  1  0.938484  0.368457  0.182969  1
  Al  Al26  1  0.858326  0.041347  0.816821  1
  Al  Al27  1  0.143589  0.959699  0.182477  1
  Pt  Pt28  1  0.119733  0.493142  0.637878  1
  Pt  Pt29  1  0.879452  0.508756  0.360119  1
  Pt  Pt30  1  0.659234  0.168547  0.999790  1
  Pt  Pt31  1  0.338846  0.832538  0.999923  1
  Pt  Pt32  1  0.537662  0.168342  0.360776  1
  Pt  Pt33  1  0.462675  0.831817  0.637780  1
  Pt  Pt34  1  0.780387  0.174175  0.636756  1
  Pt  Pt35  1  0.219970  0.826507  0.362224  1
  Pt  Pt36  1  0.003075  0.497510  0.999682  1
