# generated using pymatgen
data_Ni8SnMo12P3N4
_symmetry_space_group_name_H-M   'P 1'
_cell_length_a   7.86263888
_cell_length_b   7.86263886
_cell_length_c   7.86263847
_cell_angle_alpha   59.83987598
_cell_angle_beta   59.83987993
_cell_angle_gamma   59.83987384
_symmetry_Int_Tables_number   1
_chemical_formula_structural   Ni8SnMo12P3N4
_chemical_formula_sum   'Ni8 Sn1 Mo12 P3 N4'
_cell_volume   342.45920929
_cell_formula_units_Z   1
loop_
 _symmetry_equiv_pos_site_id
 _symmetry_equiv_pos_as_xyz
  1  'x, y, z'
loop_
 _atom_site_type_symbol
 _atom_site_label
 _atom_site_symmetry_multiplicity
 _atom_site_fract_x
 _atom_site_fract_y
 _atom_site_fract_z
 _atom_site_occupancy
  Ni  Ni0  1  0.006903  0.342152  0.342152  1
  Ni  Ni1  1  0.916772  0.916772  0.916772  1
  Ni  Ni2  1  0.342152  0.342152  0.006903  1
  Ni  Ni3  1  0.907848  0.907848  0.243097  1
  Ni  Ni4  1  0.243097  0.907848  0.907848  1
  Ni  Ni5  1  0.342152  0.006903  0.342152  1
  Ni  Ni6  1  0.907848  0.243097  0.907848  1
  Ni  Ni7  1  0.333228  0.333228  0.333228  1
  Sn  Sn8  1  0.125000  0.125000  0.125000  1
  Mo  Mo9  1  0.309760  0.689835  0.689835  1
  Mo  Mo10  1  0.560165  0.560165  0.940240  1
  Mo  Mo11  1  0.310214  0.687535  0.310214  1
  Mo  Mo12  1  0.310214  0.310214  0.687535  1
  Mo  Mo13  1  0.687535  0.310214  0.310214  1
  Mo  Mo14  1  0.939786  0.939786  0.562465  1
  Mo  Mo15  1  0.939786  0.562465  0.939786  1
  Mo  Mo16  1  0.940240  0.560165  0.560165  1
  Mo  Mo17  1  0.562465  0.939786  0.939786  1
  Mo  Mo18  1  0.689835  0.689835  0.309760  1
  Mo  Mo19  1  0.689835  0.309760  0.689835  1
  Mo  Mo20  1  0.560165  0.940240  0.560165  1
  P  P21  1  0.125000  0.125000  0.625000  1
  P  P22  1  0.625000  0.125000  0.125000  1
  P  P23  1  0.125000  0.625000  0.125000  1
  N  N24  1  0.625000  0.125000  0.625000  1
  N  N25  1  0.625000  0.625000  0.125000  1
  N  N26  1  0.125000  0.625000  0.625000  1
  N  N27  1  0.625000  0.625000  0.625000  1
