# generated using pymatgen
data_Dy4ZnGa3Rh4
_symmetry_space_group_name_H-M   'P 1'
_cell_length_a   4.25590800
_cell_length_b   6.83906304
_cell_length_c   7.91495704
_cell_angle_alpha   90.01157820
_cell_angle_beta   90.00000000
_cell_angle_gamma   90.00000000
_symmetry_Int_Tables_number   1
_chemical_formula_structural   Dy4ZnGa3Rh4
_chemical_formula_sum   'Dy4 Zn1 Ga3 Rh4'
_cell_volume   230.37608360
_cell_formula_units_Z   1
loop_
 _symmetry_equiv_pos_site_id
 _symmetry_equiv_pos_as_xyz
  1  'x, y, z'
loop_
 _atom_site_type_symbol
 _atom_site_label
 _atom_site_symmetry_multiplicity
 _atom_site_fract_x
 _atom_site_fract_y
 _atom_site_fract_z
 _atom_site_occupancy
  Dy  Dy0  1  0.250000  0.531067  0.187307  1
  Dy  Dy1  1  0.750000  0.469193  0.812006  1
  Dy  Dy2  1  0.250000  0.030131  0.313626  1
  Dy  Dy3  1  0.750000  0.969030  0.686746  1
  Zn  Zn4  1  0.750000  0.349749  0.431650  1
  Ga  Ga5  1  0.250000  0.151528  0.934752  1
  Ga  Ga6  1  0.750000  0.847679  0.066870  1
  Ga  Ga7  1  0.250000  0.648808  0.566457  1
  Rh  Rh8  1  0.750000  0.738615  0.386474  1
  Rh  Rh9  1  0.250000  0.262978  0.618344  1
  Rh  Rh10  1  0.750000  0.234296  0.109189  1
  Rh  Rh11  1  0.250000  0.766926  0.886578  1
