# generated using pymatgen
data_Zr4Al24Pt8Rh
_symmetry_space_group_name_H-M   'P 1'
_cell_length_a   7.45475132
_cell_length_b   7.46471033
_cell_length_c   12.94782300
_cell_angle_alpha   84.57871782
_cell_angle_beta   78.93248878
_cell_angle_gamma   59.99112118
_symmetry_Int_Tables_number   1
_chemical_formula_structural   Zr4Al24Pt8Rh
_chemical_formula_sum   'Zr4 Al24 Pt8 Rh1'
_cell_volume   612.32322549
_cell_formula_units_Z   1
loop_
 _symmetry_equiv_pos_site_id
 _symmetry_equiv_pos_as_xyz
  1  'x, y, z'
loop_
 _atom_site_type_symbol
 _atom_site_label
 _atom_site_symmetry_multiplicity
 _atom_site_fract_x
 _atom_site_fract_y
 _atom_site_fract_z
 _atom_site_occupancy
  Zr  Zr0  1  0.393657  0.167215  0.811406  1
  Zr  Zr1  1  0.606343  0.832785  0.188594  1
  Zr  Zr2  1  0.731563  0.498994  0.811147  1
  Zr  Zr3  1  0.268437  0.501006  0.188853  1
  Al  Al4  1  0.685559  0.829662  0.942659  1
  Al  Al5  1  0.314441  0.170338  0.057341  1
  Al  Al6  1  0.145534  0.832559  0.564134  1
  Al  Al7  1  0.854466  0.167441  0.435866  1
  Al  Al8  1  0.479965  0.166939  0.561708  1
  Al  Al9  1  0.520035  0.833061  0.438292  1
  Al  Al10  1  0.221022  0.165347  0.323209  1
  Al  Al11  1  0.778978  0.834653  0.676791  1
  Al  Al12  1  0.436797  0.505128  0.676667  1
  Al  Al13  1  0.563203  0.494872  0.323333  1
  Al  Al14  1  0.107974  0.162451  0.674598  1
  Al  Al15  1  0.892026  0.837549  0.325402  1
  Al  Al16  1  0.352662  0.496116  0.942770  1
  Al  Al17  1  0.647338  0.503884  0.057230  1
  Al  Al18  1  0.016521  0.174342  0.950232  1
  Al  Al19  1  0.983479  0.825658  0.049768  1
  Al  Al20  1  0.187622  0.499590  0.438559  1
  Al  Al21  1  0.812378  0.500410  0.561441  1
  Al  Al22  1  0.729382  0.163783  0.183047  1
  Al  Al23  1  0.270618  0.836217  0.816953  1
  Al  Al24  1  0.060974  0.621852  0.817734  1
  Al  Al25  1  0.939026  0.378148  0.182266  1
  Al  Al26  1  0.850654  0.046851  0.816302  1
  Al  Al27  1  0.149346  0.953149  0.183699  1
  Pt  Pt28  1  0.120060  0.490947  0.639138  1
  Pt  Pt29  1  0.879940  0.509053  0.360862  1
  Pt  Pt30  1  0.656055  0.172043  0.999720  1
  Pt  Pt31  1  0.343945  0.827957  0.000280  1
  Pt  Pt32  1  0.536502  0.166147  0.361258  1
  Pt  Pt33  1  0.463498  0.833853  0.638742  1
  Pt  Pt34  1  0.777795  0.176662  0.637541  1
  Pt  Pt35  1  0.222205  0.823338  0.362459  1
  Rh  Rh36  1  0.000000  0.500000  0.000000  1
