# generated using pymatgen
data_NaEuH9W
_symmetry_space_group_name_H-M   'P 1'
_cell_length_a   8.68388900
_cell_length_b   8.68388797
_cell_length_c   5.06173800
_cell_angle_alpha   90.00000000
_cell_angle_beta   90.00000000
_cell_angle_gamma   120.00000773
_symmetry_Int_Tables_number   1
_chemical_formula_structural   NaEuH9W
_chemical_formula_sum   'Na3 Eu3 H27 W3'
_cell_volume   330.56642071
_cell_formula_units_Z   3
loop_
 _symmetry_equiv_pos_site_id
 _symmetry_equiv_pos_as_xyz
  1  'x, y, z'
loop_
 _atom_site_type_symbol
 _atom_site_label
 _atom_site_symmetry_multiplicity
 _atom_site_fract_x
 _atom_site_fract_y
 _atom_site_fract_z
 _atom_site_occupancy
  Na  Na0  1  0.000000  0.253986  0.500000  1
  Na  Na1  1  0.746014  0.746014  0.500000  1
  Na  Na2  1  0.253986  0.000000  0.500000  1
  Eu  Eu3  1  0.000000  0.598341  0.000000  1
  Eu  Eu4  1  0.401659  0.401659  0.000000  1
  Eu  Eu5  1  0.598341  0.000000  0.000000  1
  H  H6  1  0.797545  0.310573  0.754123  1
  H  H7  1  0.689427  0.486971  0.754123  1
  H  H8  1  0.513029  0.202455  0.754123  1
  H  H9  1  0.202455  0.513029  0.245877  1
  H  H10  1  0.513029  0.202455  0.245877  1
  H  H11  1  0.797545  0.310573  0.245877  1
  H  H12  1  0.689427  0.486971  0.245877  1
  H  H13  1  0.310573  0.797545  0.754123  1
  H  H14  1  0.486971  0.689427  0.754123  1
  H  H15  1  0.202744  0.000000  0.000000  1
  H  H16  1  0.797256  0.797256  0.000000  1
  H  H17  1  0.000000  0.202744  0.000000  1
  H  H18  1  0.853296  0.000000  0.244159  1
  H  H19  1  0.146704  0.146704  0.755841  1
  H  H20  1  0.000000  0.853296  0.755841  1
  H  H21  1  0.000000  0.853296  0.244159  1
  H  H22  1  0.146704  0.146704  0.244159  1
  H  H23  1  0.853296  0.000000  0.755841  1
  H  H24  1  0.121145  0.638853  0.500000  1
  H  H25  1  0.517707  0.878855  0.500000  1
  H  H26  1  0.361147  0.482293  0.500000  1
  H  H27  1  0.482293  0.361147  0.500000  1
  H  H28  1  0.878855  0.517707  0.500000  1
  H  H29  1  0.638853  0.121145  0.500000  1
  H  H30  1  0.202455  0.513029  0.754123  1
  H  H31  1  0.310573  0.797545  0.245877  1
  H  H32  1  0.486971  0.689427  0.245877  1
  W  W33  1  0.666667  0.333333  0.500000  1
  W  W34  1  0.333333  0.666667  0.500000  1
  W  W35  1  0.000000  0.000000  0.000000  1
