# generated using pymatgen
data_Sm6PtBr10
_symmetry_space_group_name_H-M   'P 1'
_cell_length_a   7.49947015
_cell_length_b   9.40491477
_cell_length_c   9.42828452
_cell_angle_alpha   107.75725258
_cell_angle_beta   97.00733122
_cell_angle_gamma   105.30159281
_symmetry_Int_Tables_number   1
_chemical_formula_structural   Sm6PtBr10
_chemical_formula_sum   'Sm6 Pt1 Br10'
_cell_volume   595.83670285
_cell_formula_units_Z   1
loop_
 _symmetry_equiv_pos_site_id
 _symmetry_equiv_pos_as_xyz
  1  'x, y, z'
loop_
 _atom_site_type_symbol
 _atom_site_label
 _atom_site_symmetry_multiplicity
 _atom_site_fract_x
 _atom_site_fract_y
 _atom_site_fract_z
 _atom_site_occupancy
  Sm  Sm0  1  0.875482  0.955639  0.252657  1
  Sm  Sm1  1  0.124518  0.044361  0.747343  1
  Sm  Sm2  1  0.366607  0.136012  0.178519  1
  Sm  Sm3  1  0.633393  0.863988  0.821481  1
  Sm  Sm4  1  0.970446  0.302665  0.093422  1
  Sm  Sm5  1  0.029554  0.697335  0.906578  1
  Pt  Pt6  1  0.000000  0.000000  0.000000  1
  Br  Br7  1  0.353292  0.452014  0.270301  1
  Br  Br8  1  0.646708  0.547986  0.729699  1
  Br  Br9  1  0.914956  0.632877  0.177236  1
  Br  Br10  1  0.085044  0.367123  0.822764  1
  Br  Br11  1  0.454041  0.821587  0.088303  1
  Br  Br12  1  0.545959  0.178413  0.911697  1
  Br  Br13  1  0.256526  0.085590  0.456976  1
  Br  Br14  1  0.743474  0.914410  0.543024  1
  Br  Br15  1  0.788380  0.258256  0.347419  1
  Br  Br16  1  0.211620  0.741744  0.652581  1
