# generated using pymatgen
data_Tb16LuCo4Au3
_symmetry_space_group_name_H-M   'P 1'
_cell_length_a   9.54533913
_cell_length_b   9.54737011
_cell_length_c   9.54737100
_cell_angle_alpha   60.00000038
_cell_angle_beta   59.99296171
_cell_angle_gamma   59.99295514
_symmetry_Int_Tables_number   1
_chemical_formula_structural   Tb16LuCo4Au3
_chemical_formula_sum   'Tb16 Lu1 Co4 Au3'
_cell_volume   615.17360393
_cell_formula_units_Z   1
loop_
 _symmetry_equiv_pos_site_id
 _symmetry_equiv_pos_as_xyz
  1  'x, y, z'
loop_
 _atom_site_type_symbol
 _atom_site_label
 _atom_site_symmetry_multiplicity
 _atom_site_fract_x
 _atom_site_fract_y
 _atom_site_fract_z
 _atom_site_occupancy
  Tb  Tb0  1  0.803349  0.193402  0.193402  1
  Tb  Tb1  1  0.183853  0.815961  0.815961  1
  Tb  Tb2  1  0.183853  0.815961  0.184224  1
  Tb  Tb3  1  0.803349  0.193402  0.809848  1
  Tb  Tb4  1  0.183853  0.184224  0.815961  1
  Tb  Tb5  1  0.803349  0.809848  0.193402  1
  Tb  Tb6  1  0.935156  0.563144  0.563145  1
  Tb  Tb7  1  0.559711  0.938582  0.938583  1
  Tb  Tb8  1  0.559712  0.938582  0.563123  1
  Tb  Tb9  1  0.935156  0.563144  0.938557  1
  Tb  Tb10  1  0.559712  0.563122  0.938583  1
  Tb  Tb11  1  0.935156  0.938556  0.563145  1
  Tb  Tb12  1  0.343941  0.343062  0.343062  1
  Tb  Tb13  1  0.343941  0.343062  0.969935  1
  Tb  Tb14  1  0.343941  0.969935  0.343062  1
  Tb  Tb15  1  0.936709  0.354430  0.354430  1
  Lu  Lu16  1  0.336110  0.554630  0.554630  1
  Co  Co17  1  0.131357  0.144757  0.144757  1
  Co  Co18  1  0.131357  0.144757  0.579129  1
  Co  Co19  1  0.131357  0.579129  0.144757  1
  Co  Co20  1  0.578166  0.140611  0.140611  1
  Au  Au21  1  0.592304  0.593254  0.593254  1
  Au  Au22  1  0.592304  0.593254  0.221188  1
  Au  Au23  1  0.592304  0.221188  0.593254  1
