# generated using pymatgen
data_Hf3Zr5Nb2(Sn3P)2
_symmetry_space_group_name_H-M   'P 1'
_cell_length_a   8.55478780
_cell_length_b   8.55478754
_cell_length_c   5.83907201
_cell_angle_alpha   89.99723167
_cell_angle_beta   89.99723831
_cell_angle_gamma   120.07423888
_symmetry_Int_Tables_number   1
_chemical_formula_structural   Hf3Zr5Nb2(Sn3P)2
_chemical_formula_sum   'Hf3 Zr5 Nb2 Sn6 P2'
_cell_volume   369.80055346
_cell_formula_units_Z   1
loop_
 _symmetry_equiv_pos_site_id
 _symmetry_equiv_pos_as_xyz
  1  'x, y, z'
loop_
 _atom_site_type_symbol
 _atom_site_label
 _atom_site_symmetry_multiplicity
 _atom_site_fract_x
 _atom_site_fract_y
 _atom_site_fract_z
 _atom_site_occupancy
  Hf  Hf0  1  0.333756  0.666754  0.500156  1
  Hf  Hf1  1  0.666754  0.333756  0.500156  1
  Hf  Hf2  1  0.749018  0.749018  0.749025  1
  Zr  Zr3  1  0.251987  0.000131  0.749182  1
  Zr  Zr4  1  0.000131  0.251987  0.749182  1
  Zr  Zr5  1  0.250691  0.250691  0.250848  1
  Zr  Zr6  1  0.748152  0.999499  0.250929  1
  Zr  Zr7  1  0.999499  0.748152  0.250929  1
  Nb  Nb8  1  0.667024  0.334054  0.999892  1
  Nb  Nb9  1  0.334054  0.667024  0.999892  1
  Sn  Sn10  1  0.401921  0.401921  0.755427  1
  Sn  Sn11  1  0.599282  0.999804  0.755432  1
  Sn  Sn12  1  0.999804  0.599282  0.755432  1
  Sn  Sn13  1  0.598927  0.598927  0.244418  1
  Sn  Sn14  1  0.401116  0.000058  0.244594  1
  Sn  Sn15  1  0.000058  0.401116  0.244594  1
  P  P16  1  0.998773  0.998773  0.998708  1
  P  P17  1  0.999055  0.999055  0.501202  1
