# generated using pymatgen
data_Ba3LaPt6O18F
_symmetry_space_group_name_H-M   'P 1'
_cell_length_a   8.17026627
_cell_length_b   8.17026512
_cell_length_c   8.20032500
_cell_angle_alpha   109.54576988
_cell_angle_beta   109.54576702
_cell_angle_gamma   109.39657133
_symmetry_Int_Tables_number   1
_chemical_formula_structural   Ba3LaPt6O18F
_chemical_formula_sum   'Ba3 La1 Pt6 O18 F1'
_cell_volume   420.99907330
_cell_formula_units_Z   1
loop_
 _symmetry_equiv_pos_site_id
 _symmetry_equiv_pos_as_xyz
  1  'x, y, z'
loop_
 _atom_site_type_symbol
 _atom_site_label
 _atom_site_symmetry_multiplicity
 _atom_site_fract_x
 _atom_site_fract_y
 _atom_site_fract_z
 _atom_site_occupancy
  Ba  Ba0  1  0.664161  0.663105  0.663555  1
  Ba  Ba1  1  0.998944  0.335839  0.999394  1
  Ba  Ba2  1  0.336895  0.001056  0.000450  1
  La  La3  1  0.000000  0.000000  0.354231  1
  Pt  Pt4  1  0.501832  0.659834  0.155819  1
  Pt  Pt5  1  0.340166  0.841999  0.495985  1
  Pt  Pt6  1  0.841184  0.501516  0.340411  1
  Pt  Pt7  1  0.498484  0.339668  0.838895  1
  Pt  Pt8  1  0.158001  0.498168  0.653987  1
  Pt  Pt9  1  0.660332  0.158816  0.499227  1
  O  O10  1  0.656574  0.959229  0.269849  1
  O  O11  1  0.373193  0.732224  0.683670  1
  O  O12  1  0.684592  0.311637  0.043087  1
  O  O13  1  0.688363  0.372955  0.731449  1
  O  O14  1  0.040771  0.697345  0.310620  1
  O  O15  1  0.267776  0.640969  0.951446  1
  O  O16  1  0.296349  0.041224  0.673926  1
  O  O17  1  0.958776  0.255124  0.632702  1
  O  O18  1  0.744876  0.703651  0.377576  1
  O  O19  1  0.359031  0.626807  0.310477  1
  O  O20  1  0.627045  0.315408  0.358495  1
  O  O21  1  0.302655  0.343426  0.613275  1
  O  O22  1  0.647923  0.645650  0.000888  1
  O  O23  1  0.643122  0.998989  0.640504  1
  O  O24  1  0.997728  0.352077  0.352965  1
  O  O25  1  0.354350  0.002272  0.355237  1
  O  O26  1  0.001011  0.644133  0.641516  1
  O  O27  1  0.355867  0.356878  0.997382  1
  F  F28  1  0.000000  0.000000  0.052984  1
