# generated using pymatgen
data_Pr8Cd2OsRu
_symmetry_space_group_name_H-M   'P 1'
_cell_length_a   10.00640106
_cell_length_b   10.00640111
_cell_length_c   10.06608400
_cell_angle_alpha   59.80250658
_cell_angle_beta   59.80250643
_cell_angle_gamma   59.63551884
_symmetry_Int_Tables_number   1
_chemical_formula_structural   Pr8Cd2OsRu
_chemical_formula_sum   'Pr16 Cd4 Os2 Ru2'
_cell_volume   708.59002619
_cell_formula_units_Z   2
loop_
 _symmetry_equiv_pos_site_id
 _symmetry_equiv_pos_as_xyz
  1  'x, y, z'
loop_
 _atom_site_type_symbol
 _atom_site_label
 _atom_site_symmetry_multiplicity
 _atom_site_fract_x
 _atom_site_fract_y
 _atom_site_fract_z
 _atom_site_occupancy
  Pr  Pr0  1  0.345551  0.345551  0.346860  1
  Pr  Pr1  1  0.345551  0.345551  0.962035  1
  Pr  Pr2  1  0.345207  0.962936  0.345928  1
  Pr  Pr3  1  0.962936  0.345207  0.345928  1
  Pr  Pr4  1  0.808955  0.190771  0.190016  1
  Pr  Pr5  1  0.190771  0.808955  0.810258  1
  Pr  Pr6  1  0.190771  0.808955  0.190016  1
  Pr  Pr7  1  0.808955  0.190771  0.810258  1
  Pr  Pr8  1  0.190700  0.190700  0.809300  1
  Pr  Pr9  1  0.809957  0.809957  0.190043  1
  Pr  Pr10  1  0.939505  0.559344  0.561150  1
  Pr  Pr11  1  0.559344  0.939505  0.940002  1
  Pr  Pr12  1  0.559344  0.939505  0.561150  1
  Pr  Pr13  1  0.939505  0.559344  0.940002  1
  Pr  Pr14  1  0.561658  0.561658  0.938342  1
  Pr  Pr15  1  0.941174  0.941174  0.558826  1
  Cd  Cd16  1  0.578911  0.578911  0.579319  1
  Cd  Cd17  1  0.578911  0.578911  0.262859  1
  Cd  Cd18  1  0.579037  0.262167  0.579398  1
  Cd  Cd19  1  0.262167  0.579037  0.579398  1
  Os  Os20  1  0.138199  0.138199  0.139147  1
  Os  Os21  1  0.138199  0.138199  0.584455  1
  Ru  Ru22  1  0.137285  0.587409  0.137653  1
  Ru  Ru23  1  0.587409  0.137285  0.137653  1
