# generated using pymatgen
data_HoSc3Ga2(B2Ru5)2
_symmetry_space_group_name_H-M   'P 1'
_cell_length_a   9.43001135
_cell_length_b   9.43001135
_cell_length_c   3.05829900
_cell_angle_alpha   90.00000000
_cell_angle_beta   90.00000000
_cell_angle_gamma   89.31526662
_symmetry_Int_Tables_number   1
_chemical_formula_structural   HoSc3Ga2(B2Ru5)2
_chemical_formula_sum   'Ho1 Sc3 Ga2 B4 Ru10'
_cell_volume   271.94016674
_cell_formula_units_Z   1
loop_
 _symmetry_equiv_pos_site_id
 _symmetry_equiv_pos_as_xyz
  1  'x, y, z'
loop_
 _atom_site_type_symbol
 _atom_site_label
 _atom_site_symmetry_multiplicity
 _atom_site_fract_x
 _atom_site_fract_y
 _atom_site_fract_z
 _atom_site_occupancy
  Ho  Ho0  1  0.675407  0.175407  0.000000  1
  Sc  Sc1  1  0.324618  0.824618  0.000000  1
  Sc  Sc2  1  0.173970  0.326645  0.000000  1
  Sc  Sc3  1  0.826645  0.673970  0.000000  1
  Ga  Ga4  1  0.996505  0.000493  0.000000  1
  Ga  Ga5  1  0.500493  0.496505  0.000000  1
  B  B6  1  0.126316  0.626316  0.000000  1
  B  B7  1  0.880306  0.380306  0.000000  1
  B  B8  1  0.622755  0.871914  0.000000  1
  B  B9  1  0.371914  0.122755  0.000000  1
  Ru  Ru10  1  0.212715  0.070518  0.500000  1
  Ru  Ru11  1  0.783885  0.921277  0.500000  1
  Ru  Ru12  1  0.071524  0.786346  0.500000  1
  Ru  Ru13  1  0.719824  0.436852  0.500000  1
  Ru  Ru14  1  0.936852  0.219824  0.500000  1
  Ru  Ru15  1  0.286346  0.571524  0.500000  1
  Ru  Ru16  1  0.570518  0.712715  0.500000  1
  Ru  Ru17  1  0.421277  0.283885  0.500000  1
  Ru  Ru18  1  0.495043  0.995043  0.500000  1
  Ru  Ru19  1  0.003086  0.503086  0.500000  1
