# generated using pymatgen
data_Pr2VPtF14
_symmetry_space_group_name_H-M   'P 1'
_cell_length_a   5.67736100
_cell_length_b   9.20564599
_cell_length_c   12.27433333
_cell_angle_alpha   62.21841387
_cell_angle_beta   90.00000000
_cell_angle_gamma   90.00000000
_symmetry_Int_Tables_number   1
_chemical_formula_structural   Pr2VPtF14
_chemical_formula_sum   'Pr4 V2 Pt2 F28'
_cell_volume   567.55747616
_cell_formula_units_Z   2
loop_
 _symmetry_equiv_pos_site_id
 _symmetry_equiv_pos_as_xyz
  1  'x, y, z'
loop_
 _atom_site_type_symbol
 _atom_site_label
 _atom_site_symmetry_multiplicity
 _atom_site_fract_x
 _atom_site_fract_y
 _atom_site_fract_z
 _atom_site_occupancy
  Pr  Pr0  1  0.758566  0.809315  0.763186  1
  Pr  Pr1  1  0.258566  0.190685  0.736814  1
  Pr  Pr2  1  0.240084  0.192105  0.230533  1
  Pr  Pr3  1  0.740084  0.807895  0.269467  1
  V  V4  1  0.754716  0.274560  0.956409  1
  V  V5  1  0.254716  0.725440  0.543591  1
  Pt  Pt6  1  0.243962  0.727598  0.042191  1
  Pt  Pt7  1  0.743962  0.272402  0.457809  1
  F  F8  1  0.430198  0.704902  0.915650  1
  F  F9  1  0.930198  0.295098  0.584350  1
  F  F10  1  0.559947  0.288086  0.076664  1
  F  F11  1  0.059947  0.711914  0.423336  1
  F  F12  1  0.449368  0.283906  0.538806  1
  F  F13  1  0.949368  0.716094  0.961194  1
  F  F14  1  0.532809  0.717806  0.458141  1
  F  F15  1  0.032809  0.282194  0.041859  1
  F  F16  1  0.765736  0.500725  0.867619  1
  F  F17  1  0.265736  0.499275  0.632381  1
  F  F18  1  0.235387  0.486919  0.138369  1
  F  F19  1  0.735387  0.513081  0.361631  1
  F  F20  1  0.760077  0.049802  0.046332  1
  F  F21  1  0.260077  0.950198  0.453668  1
  F  F22  1  0.242384  0.968828  0.951788  1
  F  F23  1  0.742384  0.031172  0.548212  1
  F  F24  1  0.985182  0.728781  0.634019  1
  F  F25  1  0.485182  0.271219  0.865981  1
  F  F26  1  0.034866  0.267902  0.372200  1
  F  F27  1  0.534866  0.732098  0.127800  1
  F  F28  1  0.060526  0.744603  0.171918  1
  F  F29  1  0.560526  0.255397  0.328082  1
  F  F30  1  0.947406  0.258442  0.834758  1
  F  F31  1  0.447406  0.741558  0.665242  1
  F  F32  1  0.406769  0.968024  0.227835  1
  F  F33  1  0.906769  0.031976  0.272165  1
  F  F34  1  0.592015  0.031994  0.768776  1
  F  F35  1  0.092015  0.968006  0.731224  1
