# generated using pymatgen
data_Dy3ErAl18(Ir2Pt)2
_symmetry_space_group_name_H-M   'P 1'
_cell_length_a   7.57091639
_cell_length_b   7.56921858
_cell_length_c   9.45057417
_cell_angle_alpha   89.93976145
_cell_angle_beta   89.95321267
_cell_angle_gamma   119.64096739
_symmetry_Int_Tables_number   1
_chemical_formula_structural   Dy3ErAl18(Ir2Pt)2
_chemical_formula_sum   'Dy3 Er1 Al18 Ir4 Pt2'
_cell_volume   470.70351387
_cell_formula_units_Z   1
loop_
 _symmetry_equiv_pos_site_id
 _symmetry_equiv_pos_as_xyz
  1  'x, y, z'
loop_
 _atom_site_type_symbol
 _atom_site_label
 _atom_site_symmetry_multiplicity
 _atom_site_fract_x
 _atom_site_fract_y
 _atom_site_fract_z
 _atom_site_occupancy
  Dy  Dy0  1  0.004795  0.329793  0.248975  1
  Dy  Dy1  1  0.670223  0.995129  0.751032  1
  Dy  Dy2  1  0.329716  0.004736  0.248983  1
  Er  Er3  1  0.995201  0.670318  0.751077  1
  Al  Al4  1  0.127352  0.127197  0.750659  1
  Al  Al5  1  0.872586  0.872578  0.249345  1
  Al  Al6  1  0.000720  0.331509  0.577411  1
  Al  Al7  1  0.999279  0.668672  0.422857  1
  Al  Al8  1  0.999973  0.665210  0.074159  1
  Al  Al9  1  0.334603  0.999853  0.925570  1
  Al  Al10  1  0.000038  0.335003  0.925538  1
  Al  Al11  1  0.665183  0.999940  0.074346  1
  Al  Al12  1  0.668678  0.999245  0.422694  1
  Al  Al13  1  0.331119  0.000563  0.577393  1
  Al  Al14  1  0.332587  0.332583  0.051925  1
  Al  Al15  1  0.667593  0.667435  0.947941  1
  Al  Al16  1  0.669248  0.669106  0.557857  1
  Al  Al17  1  0.330926  0.330906  0.442286  1
  Al  Al18  1  0.339966  0.546894  0.753015  1
  Al  Al19  1  0.659932  0.453189  0.246990  1
  Al  Al20  1  0.547035  0.340222  0.753016  1
  Al  Al21  1  0.453203  0.659947  0.246983  1
  Ir  Ir22  1  0.328020  0.671892  0.999909  1
  Ir  Ir23  1  0.672039  0.328198  0.999918  1
  Ir  Ir24  1  0.999975  0.999902  0.500102  1
  Ir  Ir25  1  0.999965  0.999917  0.999899  1
  Pt  Pt26  1  0.672263  0.327912  0.500057  1
  Pt  Pt27  1  0.327783  0.672153  0.500062  1
