# generated using pymatgen
data_Er12AlFe4Sn
_symmetry_space_group_name_H-M   'P 1'
_cell_length_a   8.30317922
_cell_length_b   8.30316286
_cell_length_c   8.30317900
_cell_angle_alpha   111.20855106
_cell_angle_beta   110.35325576
_cell_angle_gamma   106.88371218
_symmetry_Int_Tables_number   1
_chemical_formula_structural   Er12AlFe4Sn
_chemical_formula_sum   'Er12 Al1 Fe4 Sn1'
_cell_volume   439.97060487
_cell_formula_units_Z   1
loop_
 _symmetry_equiv_pos_site_id
 _symmetry_equiv_pos_as_xyz
  1  'x, y, z'
loop_
 _atom_site_type_symbol
 _atom_site_label
 _atom_site_symmetry_multiplicity
 _atom_site_fract_x
 _atom_site_fract_y
 _atom_site_fract_z
 _atom_site_occupancy
  Er  Er0  1  0.311367  0.610168  0.298800  1
  Er  Er1  1  0.688633  0.389833  0.701200  1
  Er  Er2  1  0.311347  0.012373  0.701027  1
  Er  Er3  1  0.688653  0.987627  0.298973  1
  Er  Er4  1  0.437552  0.227362  0.210226  1
  Er  Er5  1  0.562448  0.772638  0.789774  1
  Er  Er6  1  0.017137  0.227362  0.789810  1
  Er  Er7  1  0.982863  0.772638  0.210190  1
  Er  Er8  1  0.186627  0.284944  0.471571  1
  Er  Er9  1  0.813373  0.715056  0.528429  1
  Er  Er10  1  0.186628  0.715056  0.901683  1
  Er  Er11  1  0.813372  0.284944  0.098317  1
  Al  Al12  1  0.000000  0.000000  0.000000  1
  Fe  Fe13  1  0.108662  0.608250  0.499588  1
  Fe  Fe14  1  0.891339  0.391751  0.500412  1
  Fe  Fe15  1  0.384574  0.000000  0.384574  1
  Fe  Fe16  1  0.615426  0.000000  0.615426  1
  Sn  Sn17  1  0.500000  0.500000  0.000000  1
