# generated using pymatgen
data_Er10Si6HC
_symmetry_space_group_name_H-M   'P 1'
_cell_length_a   8.35138100
_cell_length_b   8.35138116
_cell_length_c   6.27410400
_cell_angle_alpha   90.00000000
_cell_angle_beta   90.00000000
_cell_angle_gamma   120.00000332
_symmetry_Int_Tables_number   1
_chemical_formula_structural   Er10Si6HC
_chemical_formula_sum   'Er10 Si6 H1 C1'
_cell_volume   378.96485290
_cell_formula_units_Z   1
loop_
 _symmetry_equiv_pos_site_id
 _symmetry_equiv_pos_as_xyz
  1  'x, y, z'
loop_
 _atom_site_type_symbol
 _atom_site_label
 _atom_site_symmetry_multiplicity
 _atom_site_fract_x
 _atom_site_fract_y
 _atom_site_fract_z
 _atom_site_occupancy
  Er  Er0  1  0.666667  0.333333  0.000000  1
  Er  Er1  1  0.333333  0.666667  0.000000  1
  Er  Er2  1  0.333333  0.666667  0.500000  1
  Er  Er3  1  0.666667  0.333333  0.500000  1
  Er  Er4  1  0.765951  0.765951  0.732491  1
  Er  Er5  1  0.234049  0.000000  0.732491  1
  Er  Er6  1  0.000000  0.234049  0.732491  1
  Er  Er7  1  0.234049  0.234049  0.267509  1
  Er  Er8  1  0.765951  0.000000  0.267509  1
  Er  Er9  1  0.000000  0.765951  0.267509  1
  Si  Si10  1  0.398977  0.398977  0.747311  1
  Si  Si11  1  0.601023  0.000000  0.747311  1
  Si  Si12  1  0.000000  0.601023  0.747311  1
  Si  Si13  1  0.601023  0.601023  0.252689  1
  Si  Si14  1  0.398977  0.000000  0.252689  1
  Si  Si15  1  0.000000  0.398977  0.252689  1
  H  H16  1  0.000000  0.000000  0.000000  1
  C  C17  1  0.000000  0.000000  0.500000  1
