# generated using pymatgen
data_Cs2La9TbOs2Br17
_symmetry_space_group_name_H-M   'P 1'
_cell_length_a   9.63457771
_cell_length_b   11.36547314
_cell_length_c   11.36594707
_cell_angle_alpha   107.31777785
_cell_angle_beta   93.45758316
_cell_angle_gamma   93.45378919
_symmetry_Int_Tables_number   1
_chemical_formula_structural   Cs2La9TbOs2Br17
_chemical_formula_sum   'Cs2 La9 Tb1 Os2 Br17'
_cell_volume   1182.00697402
_cell_formula_units_Z   1
loop_
 _symmetry_equiv_pos_site_id
 _symmetry_equiv_pos_as_xyz
  1  'x, y, z'
loop_
 _atom_site_type_symbol
 _atom_site_label
 _atom_site_symmetry_multiplicity
 _atom_site_fract_x
 _atom_site_fract_y
 _atom_site_fract_z
 _atom_site_occupancy
  Cs  Cs0  1  0.000246  0.822255  0.177729  1
  Cs  Cs1  1  0.000225  0.177734  0.822246  1
  La  La2  1  0.573959  0.505712  0.203179  1
  La  La3  1  0.831670  0.288556  0.288564  1
  La  La4  1  0.311190  0.434149  0.434131  1
  La  La5  1  0.424817  0.805868  0.483777  1
  La  La6  1  0.573976  0.203161  0.505696  1
  La  La7  1  0.688726  0.573481  0.573479  1
  La  La8  1  0.175726  0.709043  0.709054  1
  La  La9  1  0.424822  0.483765  0.805879  1
  La  La10  1  0.561097  0.838856  0.838849  1
  Tb  Tb11  1  0.438098  0.163633  0.163631  1
  Os  Os12  1  0.573692  0.355290  0.355283  1
  Os  Os13  1  0.427863  0.646255  0.646259  1
  Br  Br14  1  0.579608  0.683649  0.022699  1
  Br  Br15  1  0.702132  0.067590  0.067607  1
  Br  Br16  1  0.859294  0.448722  0.118363  1
  Br  Br17  1  0.141265  0.202661  0.202664  1
  Br  Br18  1  0.282655  0.605862  0.255912  1
  Br  Br19  1  0.418860  0.982905  0.301553  1
  Br  Br20  1  0.714766  0.743198  0.394779  1
  Br  Br21  1  0.859322  0.118358  0.448712  1
  Br  Br22  1  0.999793  0.500056  0.500045  1
  Br  Br23  1  0.141692  0.882224  0.548642  1
  Br  Br24  1  0.282675  0.255905  0.605881  1
  Br  Br25  1  0.579606  0.022705  0.683638  1
  Br  Br26  1  0.714758  0.394787  0.743164  1
  Br  Br27  1  0.869083  0.795378  0.795381  1
  Br  Br28  1  0.141699  0.548643  0.882231  1
  Br  Br29  1  0.287848  0.938063  0.938063  1
  Br  Br30  1  0.418838  0.301538  0.982910  1
