# generated using pymatgen
data_PrHo2IrRh8
_symmetry_space_group_name_H-M   'P 1'
_cell_length_a   5.26102601
_cell_length_b   5.26102642
_cell_length_c   17.53882000
_cell_angle_alpha   90.07073452
_cell_angle_beta   89.92926547
_cell_angle_gamma   119.95960104
_symmetry_Int_Tables_number   1
_chemical_formula_structural   PrHo2IrRh8
_chemical_formula_sum   'Pr2 Ho4 Ir2 Rh16'
_cell_volume   420.57954279
_cell_formula_units_Z   2
loop_
 _symmetry_equiv_pos_site_id
 _symmetry_equiv_pos_as_xyz
  1  'x, y, z'
loop_
 _atom_site_type_symbol
 _atom_site_label
 _atom_site_symmetry_multiplicity
 _atom_site_fract_x
 _atom_site_fract_y
 _atom_site_fract_z
 _atom_site_occupancy
  Pr  Pr0  1  0.333552  0.666448  0.749599  1
  Pr  Pr1  1  0.666304  0.333696  0.250486  1
  Ho  Ho2  1  0.333200  0.666800  0.958889  1
  Ho  Ho3  1  0.666565  0.333435  0.041145  1
  Ho  Ho4  1  0.667555  0.332445  0.459386  1
  Ho  Ho5  1  0.334085  0.665915  0.540374  1
  Ir  Ir6  1  0.165364  0.834636  0.374399  1
  Ir  Ir7  1  0.002627  0.997373  0.500022  1
  Rh  Rh8  1  0.165385  0.336665  0.375780  1
  Rh  Rh9  1  0.663335  0.834615  0.375780  1
  Rh  Rh10  1  0.833414  0.166586  0.624834  1
  Rh  Rh11  1  0.833157  0.664961  0.624609  1
  Rh  Rh12  1  0.335039  0.166843  0.624609  1
  Rh  Rh13  1  0.832788  0.167212  0.875316  1
  Rh  Rh14  1  0.832962  0.665368  0.875373  1
  Rh  Rh15  1  0.334632  0.167038  0.875373  1
  Rh  Rh16  1  0.167431  0.832569  0.124381  1
  Rh  Rh17  1  0.166902  0.334496  0.124681  1
  Rh  Rh18  1  0.665504  0.833098  0.124681  1
  Rh  Rh19  1  0.333413  0.666587  0.249753  1
  Rh  Rh20  1  0.666754  0.333246  0.750411  1
  Rh  Rh21  1  0.999817  0.000183  0.249834  1
  Rh  Rh22  1  0.000616  0.999384  0.750274  1
  Rh  Rh23  1  0.999602  0.000398  0.000013  1
