# generated using pymatgen
data_Nd4Re3Si8Tc13
_symmetry_space_group_name_H-M   'P 1'
_cell_length_a   4.17372400
_cell_length_b   7.27966200
_cell_length_c   15.51924101
_cell_angle_alpha   90.00222241
_cell_angle_beta   90.00000000
_cell_angle_gamma   90.00000000
_symmetry_Int_Tables_number   1
_chemical_formula_structural   Nd4Re3Si8Tc13
_chemical_formula_sum   'Nd4 Re3 Si8 Tc13'
_cell_volume   471.52575497
_cell_formula_units_Z   1
loop_
 _symmetry_equiv_pos_site_id
 _symmetry_equiv_pos_as_xyz
  1  'x, y, z'
loop_
 _atom_site_type_symbol
 _atom_site_label
 _atom_site_symmetry_multiplicity
 _atom_site_fract_x
 _atom_site_fract_y
 _atom_site_fract_z
 _atom_site_occupancy
  Nd  Nd0  1  0.000000  0.582265  0.117678  1
  Nd  Nd1  1  0.000000  0.417619  0.882231  1
  Nd  Nd2  1  0.500000  0.082376  0.382808  1
  Nd  Nd3  1  0.500000  0.917891  0.617381  1
  Re  Re4  1  0.000000  0.135805  0.052497  1
  Re  Re5  1  0.000000  0.863005  0.946879  1
  Re  Re6  1  0.500000  0.635303  0.447724  1
  Si  Si7  1  0.000000  0.825541  0.475032  1
  Si  Si8  1  0.000000  0.174975  0.525707  1
  Si  Si9  1  0.500000  0.325711  0.025214  1
  Si  Si10  1  0.500000  0.673012  0.974746  1
  Si  Si11  1  0.000000  0.297603  0.273505  1
  Si  Si12  1  0.000000  0.704170  0.726741  1
  Si  Si13  1  0.500000  0.797968  0.226799  1
  Si  Si14  1  0.500000  0.203506  0.772653  1
  Tc  Tc15  1  0.500000  0.361301  0.552772  1
  Tc  Tc16  1  0.000000  0.732299  0.320791  1
  Tc  Tc17  1  0.000000  0.269172  0.679507  1
  Tc  Tc18  1  0.500000  0.231375  0.179658  1
  Tc  Tc19  1  0.500000  0.767373  0.820412  1
  Tc  Tc20  1  0.000000  0.433971  0.419501  1
  Tc  Tc21  1  0.000000  0.565646  0.581246  1
  Tc  Tc22  1  0.500000  0.932294  0.080421  1
  Tc  Tc23  1  0.500000  0.066994  0.918717  1
  Tc  Tc24  1  0.000000  0.993349  0.206602  1
  Tc  Tc25  1  0.000000  0.008156  0.793460  1
  Tc  Tc26  1  0.500000  0.493330  0.293650  1
  Tc  Tc27  1  0.500000  0.507989  0.705665  1
