# generated using pymatgen
data_Lu3Mg3Sc2(B6Rh)4
_symmetry_space_group_name_H-M   'P 1'
_cell_length_a   3.50839900
_cell_length_b   8.88106608
_cell_length_c   11.23461175
_cell_angle_alpha   89.91781946
_cell_angle_beta   90.00000000
_cell_angle_gamma   90.00000000
_symmetry_Int_Tables_number   1
_chemical_formula_structural   Lu3Mg3Sc2(B6Rh)4
_chemical_formula_sum   'Lu3 Mg3 Sc2 B24 Rh4'
_cell_volume   350.05130547
_cell_formula_units_Z   1
loop_
 _symmetry_equiv_pos_site_id
 _symmetry_equiv_pos_as_xyz
  1  'x, y, z'
loop_
 _atom_site_type_symbol
 _atom_site_label
 _atom_site_symmetry_multiplicity
 _atom_site_fract_x
 _atom_site_fract_y
 _atom_site_fract_z
 _atom_site_occupancy
  Lu  Lu0  1  0.000000  0.180211  0.913651  1
  Lu  Lu1  1  0.000000  0.819234  0.085333  1
  Lu  Lu2  1  0.000000  0.680848  0.585622  1
  Mg  Mg3  1  0.000000  0.948435  0.380140  1
  Mg  Mg4  1  0.000000  0.053392  0.619923  1
  Mg  Mg5  1  0.000000  0.553287  0.877266  1
  Sc  Sc6  1  0.000000  0.316998  0.415518  1
  Sc  Sc7  1  0.000000  0.445275  0.124674  1
  B  B8  1  0.500000  0.370601  0.818091  1
  B  B9  1  0.500000  0.980994  0.215017  1
  B  B10  1  0.500000  0.554457  0.434591  1
  B  B11  1  0.500000  0.294521  0.237611  1
  B  B12  1  0.500000  0.205081  0.735089  1
  B  B13  1  0.500000  0.103066  0.472325  1
  B  B14  1  0.500000  0.795701  0.264584  1
  B  B15  1  0.500000  0.444597  0.564421  1
  B  B16  1  0.500000  0.245574  0.577724  1
  B  B17  1  0.500000  0.480075  0.286619  1
  B  B18  1  0.500000  0.705394  0.763661  1
  B  B19  1  0.500000  0.755587  0.421352  1
  B  B20  1  0.500000  0.519023  0.713617  1
  B  B21  1  0.500000  0.899186  0.527340  1
  B  B22  1  0.500000  0.054384  0.065574  1
  B  B23  1  0.500000  0.602165  0.027259  1
  B  B24  1  0.500000  0.745914  0.919919  1
  B  B25  1  0.500000  0.018939  0.785236  1
  B  B26  1  0.500000  0.398256  0.972387  1
  B  B27  1  0.500000  0.945174  0.933759  1
  B  B28  1  0.500000  0.629971  0.180953  1
  B  B29  1  0.500000  0.253503  0.078999  1
  B  B30  1  0.500000  0.871766  0.680210  1
  B  B31  1  0.500000  0.130070  0.321076  1
  Rh  Rh32  1  0.000000  0.138814  0.181903  1
  Rh  Rh33  1  0.000000  0.358975  0.681363  1
  Rh  Rh34  1  0.000000  0.858670  0.818470  1
  Rh  Rh35  1  0.000000  0.641860  0.318728  1
