# generated using pymatgen
data_TbY3MoOsC4
_symmetry_space_group_name_H-M   'P 1'
_cell_length_a   5.12340700
_cell_length_b   6.60973993
_cell_length_c   9.93603834
_cell_angle_alpha   89.17353815
_cell_angle_beta   90.00000000
_cell_angle_gamma   90.00000000
_symmetry_Int_Tables_number   1
_chemical_formula_structural   TbY3MoOsC4
_chemical_formula_sum   'Tb2 Y6 Mo2 Os2 C8'
_cell_volume   336.44285185
_cell_formula_units_Z   2
loop_
 _symmetry_equiv_pos_site_id
 _symmetry_equiv_pos_as_xyz
  1  'x, y, z'
loop_
 _atom_site_type_symbol
 _atom_site_label
 _atom_site_symmetry_multiplicity
 _atom_site_fract_x
 _atom_site_fract_y
 _atom_site_fract_z
 _atom_site_occupancy
  Tb  Tb0  1  0.250000  0.679281  0.557080  1
  Tb  Tb1  1  0.750000  0.320719  0.442920  1
  Y  Y2  1  0.750000  0.823867  0.057583  1
  Y  Y3  1  0.250000  0.176133  0.942417  1
  Y  Y4  1  0.250000  0.537895  0.217954  1
  Y  Y5  1  0.750000  0.462105  0.782046  1
  Y  Y6  1  0.750000  0.968956  0.716556  1
  Y  Y7  1  0.250000  0.031044  0.283444  1
  Mo  Mo8  1  0.250000  0.717400  0.866461  1
  Mo  Mo9  1  0.750000  0.282600  0.133539  1
  Os  Os10  1  0.750000  0.779244  0.365511  1
  Os  Os11  1  0.250000  0.220756  0.634489  1
  C  C12  1  0.250000  0.449696  0.757113  1
  C  C13  1  0.750000  0.550304  0.242887  1
  C  C14  1  0.750000  0.045121  0.260350  1
  C  C15  1  0.250000  0.954879  0.739650  1
  C  C16  1  0.250000  0.822446  0.050321  1
  C  C17  1  0.750000  0.177554  0.949679  1
  C  C18  1  0.750000  0.678965  0.547188  1
  C  C19  1  0.250000  0.321035  0.452812  1
