# generated using pymatgen
data_Ho16Tl3CdPd4
_symmetry_space_group_name_H-M   'P 1'
_cell_length_a   9.68433027
_cell_length_b   9.68547107
_cell_length_c   9.68547200
_cell_angle_alpha   60.00000366
_cell_angle_beta   59.99610685
_cell_angle_gamma   59.99610527
_symmetry_Int_Tables_number   1
_chemical_formula_structural   Ho16Tl3CdPd4
_chemical_formula_sum   'Ho16 Tl3 Cd1 Pd4'
_cell_volume   642.34830265
_cell_formula_units_Z   1
loop_
 _symmetry_equiv_pos_site_id
 _symmetry_equiv_pos_as_xyz
  1  'x, y, z'
loop_
 _atom_site_type_symbol
 _atom_site_label
 _atom_site_symmetry_multiplicity
 _atom_site_fract_x
 _atom_site_fract_y
 _atom_site_fract_z
 _atom_site_occupancy
  Ho  Ho0  1  0.352012  0.352886  0.352886  1
  Ho  Ho1  1  0.352012  0.352886  0.942217  1
  Ho  Ho2  1  0.352012  0.942217  0.352886  1
  Ho  Ho3  1  0.942841  0.352386  0.352386  1
  Ho  Ho4  1  0.810990  0.188822  0.188822  1
  Ho  Ho5  1  0.187964  0.811577  0.811577  1
  Ho  Ho6  1  0.187964  0.811577  0.188880  1
  Ho  Ho7  1  0.810990  0.188822  0.811367  1
  Ho  Ho8  1  0.187964  0.188880  0.811577  1
  Ho  Ho9  1  0.810990  0.811367  0.188822  1
  Ho  Ho10  1  0.937933  0.564424  0.564424  1
  Ho  Ho11  1  0.564469  0.936004  0.936004  1
  Ho  Ho12  1  0.564469  0.936004  0.563523  1
  Ho  Ho13  1  0.937933  0.564424  0.933219  1
  Ho  Ho14  1  0.564469  0.563523  0.936004  1
  Ho  Ho15  1  0.937933  0.933219  0.564424  1
  Tl  Tl16  1  0.583264  0.586271  0.586271  1
  Tl  Tl17  1  0.583264  0.586271  0.244194  1
  Tl  Tl18  1  0.583264  0.244194  0.586271  1
  Cd  Cd19  1  0.247275  0.584241  0.584241  1
  Pd  Pd20  1  0.144121  0.143888  0.143888  1
  Pd  Pd21  1  0.144121  0.143888  0.568102  1
  Pd  Pd22  1  0.144121  0.568102  0.143888  1
  Pd  Pd23  1  0.567625  0.144125  0.144125  1
