# generated using pymatgen
data_TmLuNb3Ni9As7
_symmetry_space_group_name_H-M   'P 1'
_cell_length_a   9.64741100
_cell_length_b   9.64740974
_cell_length_c   3.81853800
_cell_angle_alpha   90.00000000
_cell_angle_beta   90.00000000
_cell_angle_gamma   120.00000498
_symmetry_Int_Tables_number   1
_chemical_formula_structural   TmLuNb3Ni9As7
_chemical_formula_sum   'Tm1 Lu1 Nb3 Ni9 As7'
_cell_volume   307.78626235
_cell_formula_units_Z   1
loop_
 _symmetry_equiv_pos_site_id
 _symmetry_equiv_pos_as_xyz
  1  'x, y, z'
loop_
 _atom_site_type_symbol
 _atom_site_label
 _atom_site_symmetry_multiplicity
 _atom_site_fract_x
 _atom_site_fract_y
 _atom_site_fract_z
 _atom_site_occupancy
  Tm  Tm0  1  0.666667  0.333333  0.500000  1
  Lu  Lu1  1  0.333333  0.666667  0.000000  1
  Nb  Nb2  1  0.224230  0.117325  0.500000  1
  Nb  Nb3  1  0.882675  0.106903  0.500000  1
  Nb  Nb4  1  0.893097  0.775770  0.500000  1
  Ni  Ni5  1  0.130108  0.285169  0.000000  1
  Ni  Ni6  1  0.714831  0.844939  0.000000  1
  Ni  Ni7  1  0.155061  0.869892  0.000000  1
  Ni  Ni8  1  0.429805  0.363796  0.000000  1
  Ni  Ni9  1  0.636204  0.066008  0.000000  1
  Ni  Ni10  1  0.933992  0.570195  0.000000  1
  Ni  Ni11  1  0.062905  0.441230  0.500000  1
  Ni  Ni12  1  0.558770  0.621675  0.500000  1
  Ni  Ni13  1  0.378325  0.937095  0.500000  1
  As  As14  1  0.295061  0.414503  0.500000  1
  As  As15  1  0.585497  0.880557  0.500000  1
  As  As16  1  0.119443  0.704939  0.500000  1
  As  As17  1  0.419111  0.111900  0.000000  1
  As  As18  1  0.888100  0.307210  0.000000  1
  As  As19  1  0.692790  0.580889  0.000000  1
  As  As20  1  0.000000  0.000000  0.000000  1
