# generated using pymatgen
data_La5Hf2ThBi10
_symmetry_space_group_name_H-M   'P 1'
_cell_length_a   9.83506300
_cell_length_b   9.83640007
_cell_length_c   6.55813300
_cell_angle_alpha   90.00000000
_cell_angle_beta   90.00000000
_cell_angle_gamma   119.99550690
_symmetry_Int_Tables_number   1
_chemical_formula_structural   La5Hf2ThBi10
_chemical_formula_sum   'La5 Hf2 Th1 Bi10'
_cell_volume   549.46981974
_cell_formula_units_Z   1
loop_
 _symmetry_equiv_pos_site_id
 _symmetry_equiv_pos_as_xyz
  1  'x, y, z'
loop_
 _atom_site_type_symbol
 _atom_site_label
 _atom_site_symmetry_multiplicity
 _atom_site_fract_x
 _atom_site_fract_y
 _atom_site_fract_z
 _atom_site_occupancy
  La  La0  1  0.381474  0.000000  0.750000  1
  La  La1  1  0.000453  0.618883  0.250000  1
  La  La2  1  0.000251  0.383619  0.750000  1
  La  La3  1  0.381568  0.381117  0.250000  1
  La  La4  1  0.616631  0.616381  0.750000  1
  Hf  Hf5  1  0.000838  0.000000  0.998137  1
  Hf  Hf6  1  0.000838  0.000000  0.501863  1
  Th  Th7  1  0.617663  0.000000  0.250000  1
  Bi  Bi8  1  0.262557  0.000000  0.250000  1
  Bi  Bi9  1  0.736934  0.000000  0.750000  1
  Bi  Bi10  1  0.997502  0.259820  0.250000  1
  Bi  Bi11  1  0.999211  0.738061  0.750000  1
  Bi  Bi12  1  0.737682  0.740180  0.250000  1
  Bi  Bi13  1  0.261151  0.261939  0.750000  1
  Bi  Bi14  1  0.336016  0.669410  0.001516  1
  Bi  Bi15  1  0.666607  0.330590  0.001516  1
  Bi  Bi16  1  0.666607  0.330590  0.498484  1
  Bi  Bi17  1  0.336016  0.669410  0.498484  1
