# generated using pymatgen
data_Eu2Ge3Pt
_symmetry_space_group_name_H-M   'P 1'
_cell_length_a   6.15972579
_cell_length_b   6.15972556
_cell_length_c   8.61936100
_cell_angle_alpha   110.55127650
_cell_angle_beta   110.55127572
_cell_angle_gamma   91.00602515
_symmetry_Int_Tables_number   1
_chemical_formula_structural   Eu2Ge3Pt
_chemical_formula_sum   'Eu4 Ge6 Pt2'
_cell_volume   283.01489584
_cell_formula_units_Z   2
loop_
 _symmetry_equiv_pos_site_id
 _symmetry_equiv_pos_as_xyz
  1  'x, y, z'
loop_
 _atom_site_type_symbol
 _atom_site_label
 _atom_site_symmetry_multiplicity
 _atom_site_fract_x
 _atom_site_fract_y
 _atom_site_fract_z
 _atom_site_occupancy
  Eu  Eu0  1  0.748007  0.251994  0.000000  1
  Eu  Eu1  1  0.251994  0.748007  0.000000  1
  Eu  Eu2  1  0.750001  0.250000  0.500001  1
  Eu  Eu3  1  0.250000  0.750001  0.500001  1
  Ge  Ge4  1  0.335703  0.335703  0.167384  1
  Ge  Ge5  1  0.831681  0.831681  0.167384  1
  Ge  Ge6  1  0.167308  0.167308  0.334616  1
  Ge  Ge7  1  0.832692  0.832692  0.665384  1
  Ge  Ge8  1  0.168319  0.168319  0.832617  1
  Ge  Ge9  1  0.664297  0.664297  0.832617  1
  Pt  Pt10  1  0.666743  0.666743  0.333485  1
  Pt  Pt11  1  0.333257  0.333257  0.666514  1
