# generated using pymatgen
data_Pr20Ga2Si9Ge
_symmetry_space_group_name_H-M   'P 1'
_cell_length_a   7.83247000
_cell_length_b   7.83247000
_cell_length_c   14.51050700
_cell_angle_alpha   90.00000000
_cell_angle_beta   90.00000000
_cell_angle_gamma   90.00000000
_symmetry_Int_Tables_number   1
_chemical_formula_structural   Pr20Ga2Si9Ge
_chemical_formula_sum   'Pr20 Ga2 Si9 Ge1'
_cell_volume   890.18458045
_cell_formula_units_Z   1
loop_
 _symmetry_equiv_pos_site_id
 _symmetry_equiv_pos_as_xyz
  1  'x, y, z'
loop_
 _atom_site_type_symbol
 _atom_site_label
 _atom_site_symmetry_multiplicity
 _atom_site_fract_x
 _atom_site_fract_y
 _atom_site_fract_z
 _atom_site_occupancy
  Pr  Pr0  1  0.812972  0.829462  0.605837  1
  Pr  Pr1  1  0.185327  0.829833  0.110048  1
  Pr  Pr2  1  0.173407  0.815702  0.394037  1
  Pr  Pr3  1  0.000000  0.500000  0.731375  1
  Pr  Pr4  1  0.826593  0.184298  0.394037  1
  Pr  Pr5  1  0.684298  0.673407  0.394037  1
  Pr  Pr6  1  0.670538  0.312972  0.605837  1
  Pr  Pr7  1  0.329462  0.687028  0.605837  1
  Pr  Pr8  1  0.000000  0.500000  0.228024  1
  Pr  Pr9  1  0.670167  0.685327  0.110048  1
  Pr  Pr10  1  0.685081  0.329652  0.889914  1
  Pr  Pr11  1  0.829652  0.814919  0.889914  1
  Pr  Pr12  1  0.315702  0.326593  0.394037  1
  Pr  Pr13  1  0.187028  0.170538  0.605837  1
  Pr  Pr14  1  0.814673  0.170167  0.110048  1
  Pr  Pr15  1  0.314919  0.670348  0.889914  1
  Pr  Pr16  1  0.329833  0.314673  0.110048  1
  Pr  Pr17  1  0.500000  0.000000  0.270163  1
  Pr  Pr18  1  0.170348  0.185081  0.889914  1
  Pr  Pr19  1  0.500000  0.000000  0.772241  1
  Ga  Ga20  1  0.500000  0.000000  0.995182  1
  Ga  Ga21  1  0.000000  0.500000  0.004748  1
  Si  Si22  1  0.613744  0.386688  0.252975  1
  Si  Si23  1  0.113583  0.886464  0.746985  1
  Si  Si24  1  0.386464  0.386417  0.746985  1
  Si  Si25  1  0.386256  0.613312  0.252975  1
  Si  Si26  1  0.886688  0.886256  0.252975  1
  Si  Si27  1  0.613536  0.613583  0.746985  1
  Si  Si28  1  0.886417  0.113536  0.746985  1
  Si  Si29  1  0.500000  0.000000  0.491681  1
  Si  Si30  1  0.113312  0.113744  0.252975  1
  Ge  Ge31  1  0.000000  0.500000  0.507403  1
