# generated using pymatgen
data_NdGaNi3Pd
_symmetry_space_group_name_H-M   'P 1'
_cell_length_a   4.87716380
_cell_length_b   5.22685473
_cell_length_c   4.10261200
_cell_angle_alpha   90.00000000
_cell_angle_beta   90.00000000
_cell_angle_gamma   116.51079159
_symmetry_Int_Tables_number   1
_chemical_formula_structural   NdGaNi3Pd
_chemical_formula_sum   'Nd1 Ga1 Ni3 Pd1'
_cell_volume   93.58766401
_cell_formula_units_Z   1
loop_
 _symmetry_equiv_pos_site_id
 _symmetry_equiv_pos_as_xyz
  1  'x, y, z'
loop_
 _atom_site_type_symbol
 _atom_site_label
 _atom_site_symmetry_multiplicity
 _atom_site_fract_x
 _atom_site_fract_y
 _atom_site_fract_z
 _atom_site_occupancy
  Nd  Nd0  1  0.000000  0.000000  0.000000  1
  Ga  Ga1  1  0.500000  0.500000  0.500000  1
  Ni  Ni2  1  0.692290  0.372206  0.000000  1
  Ni  Ni3  1  0.307710  0.627794  0.000000  1
  Ni  Ni4  1  0.000000  0.500000  0.500000  1
  Pd  Pd5  1  0.500000  0.000000  0.500000  1
