# generated using pymatgen
data_Tb5Th3(CdTc)2
_symmetry_space_group_name_H-M   'P 1'
_cell_length_a   9.72193912
_cell_length_b   9.80210295
_cell_length_c   9.80210416
_cell_angle_alpha   59.45965588
_cell_angle_beta   60.27016453
_cell_angle_gamma   60.27017026
_symmetry_Int_Tables_number   1
_chemical_formula_structural   Tb5Th3(CdTc)2
_chemical_formula_sum   'Tb10 Th6 Cd4 Tc4'
_cell_volume   660.41786353
_cell_formula_units_Z   2
loop_
 _symmetry_equiv_pos_site_id
 _symmetry_equiv_pos_as_xyz
  1  'x, y, z'
loop_
 _atom_site_type_symbol
 _atom_site_label
 _atom_site_symmetry_multiplicity
 _atom_site_fract_x
 _atom_site_fract_y
 _atom_site_fract_z
 _atom_site_occupancy
  Tb  Tb0  1  0.192069  0.807931  0.192069  1
  Tb  Tb1  1  0.807931  0.192069  0.807931  1
  Tb  Tb2  1  0.192069  0.192069  0.807931  1
  Tb  Tb3  1  0.807931  0.807931  0.192069  1
  Tb  Tb4  1  0.934864  0.565136  0.565136  1
  Tb  Tb5  1  0.565136  0.934864  0.934864  1
  Tb  Tb6  1  0.560819  0.939181  0.560819  1
  Tb  Tb7  1  0.939181  0.560819  0.939181  1
  Tb  Tb8  1  0.560819  0.560819  0.939181  1
  Tb  Tb9  1  0.939181  0.939181  0.560819  1
  Th  Th10  1  0.345334  0.348169  0.348169  1
  Th  Th11  1  0.348169  0.345334  0.958329  1
  Th  Th12  1  0.348169  0.958329  0.345334  1
  Th  Th13  1  0.958329  0.348169  0.348169  1
  Th  Th14  1  0.814032  0.185968  0.185968  1
  Th  Th15  1  0.185968  0.814032  0.814032  1
  Cd  Cd16  1  0.582880  0.580588  0.580588  1
  Cd  Cd17  1  0.580588  0.582880  0.255943  1
  Cd  Cd18  1  0.580588  0.255943  0.582880  1
  Cd  Cd19  1  0.255943  0.580588  0.580588  1
  Tc  Tc20  1  0.122878  0.148679  0.148679  1
  Tc  Tc21  1  0.148679  0.122878  0.579765  1
  Tc  Tc22  1  0.148679  0.579765  0.122878  1
  Tc  Tc23  1  0.579765  0.148679  0.148679  1
