# generated using pymatgen
data_Tb4TmLu5Sn8
_symmetry_space_group_name_H-M   'P 1'
_cell_length_a   7.95689900
_cell_length_b   8.09144607
_cell_length_c   15.28561614
_cell_angle_alpha   89.98443638
_cell_angle_beta   90.00000000
_cell_angle_gamma   90.00000000
_symmetry_Int_Tables_number   1
_chemical_formula_structural   Tb4TmLu5Sn8
_chemical_formula_sum   'Tb8 Tm2 Lu10 Sn16'
_cell_volume   984.13102375
_cell_formula_units_Z   2
loop_
 _symmetry_equiv_pos_site_id
 _symmetry_equiv_pos_as_xyz
  1  'x, y, z'
loop_
 _atom_site_type_symbol
 _atom_site_label
 _atom_site_symmetry_multiplicity
 _atom_site_fract_x
 _atom_site_fract_y
 _atom_site_fract_z
 _atom_site_occupancy
  Tb  Tb0  1  0.521058  0.320300  0.902928  1
  Tb  Tb1  1  0.021058  0.179700  0.597072  1
  Tb  Tb2  1  0.478943  0.679661  0.402903  1
  Tb  Tb3  1  0.978943  0.820339  0.097097  1
  Tb  Tb4  1  0.478950  0.679677  0.097231  1
  Tb  Tb5  1  0.978950  0.820323  0.402769  1
  Tb  Tb6  1  0.521014  0.320222  0.597019  1
  Tb  Tb7  1  0.021014  0.179778  0.902981  1
  Tm  Tm8  1  0.367173  0.836193  0.877495  1
  Tm  Tm9  1  0.867173  0.663807  0.622505  1
  Lu  Lu10  1  0.632921  0.163761  0.377245  1
  Lu  Lu11  1  0.132921  0.336239  0.122755  1
  Lu  Lu12  1  0.632931  0.163695  0.122635  1
  Lu  Lu13  1  0.132931  0.336305  0.377365  1
  Lu  Lu14  1  0.366994  0.836260  0.622604  1
  Lu  Lu15  1  0.866994  0.663740  0.877396  1
  Lu  Lu16  1  0.197537  0.504275  0.749977  1
  Lu  Lu17  1  0.697537  0.995725  0.750023  1
  Lu  Lu18  1  0.802470  0.495407  0.249967  1
  Lu  Lu19  1  0.302470  0.004593  0.250033  1
  Sn  Sn20  1  0.294736  0.037341  0.042119  1
  Sn  Sn21  1  0.794736  0.462659  0.457881  1
  Sn  Sn22  1  0.704953  0.963363  0.541771  1
  Sn  Sn23  1  0.204953  0.536637  0.958229  1
  Sn  Sn24  1  0.705602  0.963019  0.958204  1
  Sn  Sn25  1  0.205602  0.536981  0.541796  1
  Sn  Sn26  1  0.294834  0.037104  0.458133  1
  Sn  Sn27  1  0.794834  0.462896  0.041867  1
  Sn  Sn28  1  0.563949  0.621782  0.749985  1
  Sn  Sn29  1  0.063949  0.878218  0.750015  1
  Sn  Sn30  1  0.436049  0.378077  0.249994  1
  Sn  Sn31  1  0.936049  0.121923  0.250006  1
  Sn  Sn32  1  0.329555  0.146307  0.749940  1
  Sn  Sn33  1  0.829555  0.353693  0.750060  1
  Sn  Sn34  1  0.670332  0.853786  0.250007  1
  Sn  Sn35  1  0.170332  0.646214  0.249993  1
