# generated using pymatgen
data_TbLu2Ga5Ni
_symmetry_space_group_name_H-M   'P 1'
_cell_length_a   6.79364200
_cell_length_b   6.84685478
_cell_length_c   4.20096000
_cell_angle_alpha   90.00000000
_cell_angle_beta   90.00000000
_cell_angle_gamma   119.74324030
_symmetry_Int_Tables_number   1
_chemical_formula_structural   TbLu2Ga5Ni
_chemical_formula_sum   'Tb1 Lu2 Ga5 Ni1'
_cell_volume   169.66442508
_cell_formula_units_Z   1
loop_
 _symmetry_equiv_pos_site_id
 _symmetry_equiv_pos_as_xyz
  1  'x, y, z'
loop_
 _atom_site_type_symbol
 _atom_site_label
 _atom_site_symmetry_multiplicity
 _atom_site_fract_x
 _atom_site_fract_y
 _atom_site_fract_z
 _atom_site_occupancy
  Tb  Tb0  1  0.591133  0.000000  0.500000  1
  Lu  Lu1  1  0.404368  0.404983  0.500000  1
  Lu  Lu2  1  0.999385  0.595017  0.500000  1
  Ga  Ga3  1  0.235712  0.000000  0.000000  1
  Ga  Ga4  1  0.001107  0.236711  0.000000  1
  Ga  Ga5  1  0.668339  0.337324  0.000000  1
  Ga  Ga6  1  0.331014  0.662676  0.000000  1
  Ga  Ga7  1  0.764396  0.763289  0.000000  1
  Ni  Ni8  1  0.004546  0.000000  0.500000  1
