# generated using pymatgen
data_Hf8Ni2MoPt
_symmetry_space_group_name_H-M   'P 1'
_cell_length_a   8.67121223
_cell_length_b   8.67121160
_cell_length_c   8.63240100
_cell_angle_alpha   60.14795192
_cell_angle_beta   60.14795431
_cell_angle_gamma   60.16921504
_symmetry_Int_Tables_number   1
_chemical_formula_structural   Hf8Ni2MoPt
_chemical_formula_sum   'Hf16 Ni4 Mo2 Pt2'
_cell_volume   460.57314349
_cell_formula_units_Z   2
loop_
 _symmetry_equiv_pos_site_id
 _symmetry_equiv_pos_as_xyz
  1  'x, y, z'
loop_
 _atom_site_type_symbol
 _atom_site_label
 _atom_site_symmetry_multiplicity
 _atom_site_fract_x
 _atom_site_fract_y
 _atom_site_fract_z
 _atom_site_occupancy
  Hf  Hf0  1  0.683331  0.106230  0.105218  1
  Hf  Hf1  1  0.106230  0.683331  0.105218  1
  Hf  Hf2  1  0.101505  0.101505  0.693945  1
  Hf  Hf3  1  0.101505  0.101505  0.103044  1
  Hf  Hf4  1  0.315398  0.315398  0.684602  1
  Hf  Hf5  1  0.687609  0.687609  0.312391  1
  Hf  Hf6  1  0.316123  0.692468  0.314928  1
  Hf  Hf7  1  0.692468  0.316123  0.676480  1
  Hf  Hf8  1  0.692468  0.316123  0.314928  1
  Hf  Hf9  1  0.316123  0.692468  0.676480  1
  Hf  Hf10  1  0.953248  0.953248  0.546752  1
  Hf  Hf11  1  0.550190  0.550190  0.949810  1
  Hf  Hf12  1  0.944185  0.552208  0.950830  1
  Hf  Hf13  1  0.552208  0.944185  0.552779  1
  Hf  Hf14  1  0.552208  0.944185  0.950830  1
  Hf  Hf15  1  0.944185  0.552208  0.552779  1
  Ni  Ni16  1  0.324770  0.886474  0.894377  1
  Ni  Ni17  1  0.886474  0.324770  0.894377  1
  Ni  Ni18  1  0.891189  0.891189  0.321052  1
  Ni  Ni19  1  0.891189  0.891189  0.896571  1
  Mo  Mo20  1  0.998672  0.332525  0.334400  1
  Mo  Mo21  1  0.332525  0.998672  0.334400  1
  Pt  Pt22  1  0.333098  0.333098  0.994132  1
  Pt  Pt23  1  0.333098  0.333098  0.339670  1
