# generated using pymatgen
data_TbYbLuNi19B10
_symmetry_space_group_name_H-M   'P 1'
_cell_length_a   7.85015414
_cell_length_b   7.85015407
_cell_length_c   5.73998697
_cell_angle_alpha   88.94187296
_cell_angle_beta   88.94187021
_cell_angle_gamma   67.24046555
_symmetry_Int_Tables_number   1
_chemical_formula_structural   TbYbLuNi19B10
_chemical_formula_sum   'Tb1 Yb1 Lu1 Ni19 B10'
_cell_volume   326.10369367
_cell_formula_units_Z   1
loop_
 _symmetry_equiv_pos_site_id
 _symmetry_equiv_pos_as_xyz
  1  'x, y, z'
loop_
 _atom_site_type_symbol
 _atom_site_label
 _atom_site_symmetry_multiplicity
 _atom_site_fract_x
 _atom_site_fract_y
 _atom_site_fract_z
 _atom_site_occupancy
  Tb  Tb0  1  0.625335  0.625335  0.612369  1
  Yb  Yb1  1  0.000016  0.000016  0.999481  1
  Lu  Lu2  1  0.372644  0.372644  0.384368  1
  Ni  Ni3  1  0.622570  0.622570  0.125608  1
  Ni  Ni4  1  0.378272  0.378272  0.870957  1
  Ni  Ni5  1  0.838070  0.838070  0.704932  1
  Ni  Ni6  1  0.162633  0.162633  0.294938  1
  Ni  Ni7  1  0.819480  0.819480  0.270067  1
  Ni  Ni8  1  0.181932  0.181932  0.729087  1
  Ni  Ni9  1  0.000268  0.000268  0.500072  1
  Ni  Ni10  1  0.623080  0.122412  0.074684  1
  Ni  Ni11  1  0.375022  0.879474  0.926999  1
  Ni  Ni12  1  0.879474  0.375022  0.926999  1
  Ni  Ni13  1  0.122412  0.623080  0.074684  1
  Ni  Ni14  1  0.288314  0.769222  0.301312  1
  Ni  Ni15  1  0.711200  0.229640  0.699011  1
  Ni  Ni16  1  0.229640  0.711200  0.699011  1
  Ni  Ni17  1  0.769222  0.288314  0.301312  1
  Ni  Ni18  1  0.482433  0.954799  0.302342  1
  Ni  Ni19  1  0.516849  0.046782  0.697679  1
  Ni  Ni20  1  0.046782  0.516849  0.697679  1
  Ni  Ni21  1  0.954799  0.482433  0.302342  1
  B  B22  1  0.698482  0.065944  0.430745  1
  B  B23  1  0.297955  0.935693  0.569281  1
  B  B24  1  0.935693  0.297955  0.569281  1
  B  B25  1  0.065944  0.698482  0.430745  1
  B  B26  1  0.349761  0.142867  0.025896  1
  B  B27  1  0.650699  0.858457  0.974558  1
  B  B28  1  0.858457  0.650699  0.974558  1
  B  B29  1  0.142867  0.349761  0.025896  1
  B  B30  1  0.616226  0.383470  0.001553  1
  B  B31  1  0.383470  0.616226  0.001553  1
