# generated using pymatgen
data_Er3Al2GaGe2Ir
_symmetry_space_group_name_H-M   'P 1'
_cell_length_a   6.97831700
_cell_length_b   6.93378308
_cell_length_c   4.18989500
_cell_angle_alpha   90.00000000
_cell_angle_beta   90.00000000
_cell_angle_gamma   120.21269588
_symmetry_Int_Tables_number   1
_chemical_formula_structural   Er3Al2GaGe2Ir
_chemical_formula_sum   'Er3 Al2 Ga1 Ge2 Ir1'
_cell_volume   175.19427588
_cell_formula_units_Z   1
loop_
 _symmetry_equiv_pos_site_id
 _symmetry_equiv_pos_as_xyz
  1  'x, y, z'
loop_
 _atom_site_type_symbol
 _atom_site_label
 _atom_site_symmetry_multiplicity
 _atom_site_fract_x
 _atom_site_fract_y
 _atom_site_fract_z
 _atom_site_occupancy
  Er  Er0  1  0.412967  0.000000  0.000000  1
  Er  Er1  1  0.998423  0.410894  0.000000  1
  Er  Er2  1  0.587528  0.589105  0.000000  1
  Al  Al3  1  0.229826  0.228805  0.499999  1
  Al  Al4  1  0.001023  0.771196  0.499999  1
  Ga  Ga5  1  0.766999  0.000000  0.499999  1
  Ge  Ge6  1  0.666090  0.336136  0.499999  1
  Ge  Ge7  1  0.329956  0.663865  0.499999  1
  Ir  Ir8  1  0.007188  0.000000  0.000000  1
