# generated using pymatgen
data_DyYTm2InRh
_symmetry_space_group_name_H-M   'P 1'
_cell_length_a   9.61533034
_cell_length_b   9.61177917
_cell_length_c   9.63058721
_cell_angle_alpha   59.90051267
_cell_angle_beta   59.89565671
_cell_angle_gamma   59.87187307
_symmetry_Int_Tables_number   1
_chemical_formula_structural   DyYTm2InRh
_chemical_formula_sum   'Dy4 Y4 Tm8 In4 Rh4'
_cell_volume   627.78947445
_cell_formula_units_Z   4
loop_
 _symmetry_equiv_pos_site_id
 _symmetry_equiv_pos_as_xyz
  1  'x, y, z'
loop_
 _atom_site_type_symbol
 _atom_site_label
 _atom_site_symmetry_multiplicity
 _atom_site_fract_x
 _atom_site_fract_y
 _atom_site_fract_z
 _atom_site_occupancy
  Dy  Dy0  1  0.147884  0.551228  0.149096  1
  Dy  Dy1  1  0.311268  0.689651  0.687416  1
  Dy  Dy2  1  0.689441  0.310471  0.687757  1
  Dy  Dy3  1  0.551189  0.147657  0.149224  1
  Y  Y4  1  0.937966  0.562696  0.560658  1
  Y  Y5  1  0.560364  0.561157  0.938803  1
  Y  Y6  1  0.561826  0.937851  0.936439  1
  Y  Y7  1  0.938049  0.561315  0.938066  1
  Tm  Tm8  1  0.689731  0.310359  0.312506  1
  Tm  Tm9  1  0.687943  0.688282  0.311885  1
  Tm  Tm10  1  0.311231  0.689697  0.311930  1
  Tm  Tm11  1  0.938341  0.939864  0.559053  1
  Tm  Tm12  1  0.149153  0.148772  0.549994  1
  Tm  Tm13  1  0.560840  0.939921  0.559592  1
  Tm  Tm14  1  0.151663  0.151425  0.151784  1
  Tm  Tm15  1  0.311265  0.309867  0.689970  1
  In  In16  1  0.917669  0.918375  0.249564  1
  In  In17  1  0.248346  0.918589  0.917334  1
  In  In18  1  0.918384  0.247799  0.918268  1
  In  In19  1  0.917545  0.917006  0.916124  1
  Rh  Rh20  1  0.357650  0.355917  0.360120  1
  Rh  Rh21  1  0.927910  0.356491  0.358434  1
  Rh  Rh22  1  0.357251  0.357408  0.926960  1
  Rh  Rh23  1  0.357090  0.928200  0.359022  1
