# generated using pymatgen
data_ThZrP7Ru12
_symmetry_space_group_name_H-M   'P 1'
_cell_length_a   9.45168300
_cell_length_b   9.45168311
_cell_length_c   3.93493900
_cell_angle_alpha   90.00000000
_cell_angle_beta   90.00000000
_cell_angle_gamma   119.99999612
_symmetry_Int_Tables_number   1
_chemical_formula_structural   ThZrP7Ru12
_chemical_formula_sum   'Th1 Zr1 P7 Ru12'
_cell_volume   304.42965302
_cell_formula_units_Z   1
loop_
 _symmetry_equiv_pos_site_id
 _symmetry_equiv_pos_as_xyz
  1  'x, y, z'
loop_
 _atom_site_type_symbol
 _atom_site_label
 _atom_site_symmetry_multiplicity
 _atom_site_fract_x
 _atom_site_fract_y
 _atom_site_fract_z
 _atom_site_occupancy
  Th  Th0  1  0.333333  0.666667  0.000000  1
  Zr  Zr1  1  0.666667  0.333333  0.500000  1
  P  P2  1  0.604779  0.717680  0.500000  1
  P  P3  1  0.000000  0.000000  0.000000  1
  P  P4  1  0.282320  0.887100  0.500000  1
  P  P5  1  0.112900  0.395221  0.500000  1
  P  P6  1  0.885744  0.572171  0.000000  1
  P  P7  1  0.427829  0.313573  0.000000  1
  P  P8  1  0.686427  0.114256  0.000000  1
  Ru  Ru9  1  0.558330  0.953834  0.500000  1
  Ru  Ru10  1  0.395505  0.441670  0.500000  1
  Ru  Ru11  1  0.912779  0.121395  0.500000  1
  Ru  Ru12  1  0.208617  0.087221  0.500000  1
  Ru  Ru13  1  0.878605  0.791383  0.500000  1
  Ru  Ru14  1  0.726898  0.890265  0.000000  1
  Ru  Ru15  1  0.109735  0.836633  0.000000  1
  Ru  Ru16  1  0.163367  0.273102  0.000000  1
  Ru  Ru17  1  0.428135  0.075087  0.000000  1
  Ru  Ru18  1  0.924913  0.353048  0.000000  1
  Ru  Ru19  1  0.646952  0.571865  0.000000  1
  Ru  Ru20  1  0.046166  0.604495  0.500000  1
