# generated using pymatgen
data_PmNd(NiGe)2
_symmetry_space_group_name_H-M   'P 1'
_cell_length_a   5.82629779
_cell_length_b   5.82629801
_cell_length_c   5.82629816
_cell_angle_alpha   138.37166902
_cell_angle_beta   103.94526590
_cell_angle_gamma   90.66094086
_symmetry_Int_Tables_number   1
_chemical_formula_structural   PmNd(NiGe)2
_chemical_formula_sum   'Pm1 Nd1 Ni2 Ge2'
_cell_volume   121.74545182
_cell_formula_units_Z   1
loop_
 _symmetry_equiv_pos_site_id
 _symmetry_equiv_pos_as_xyz
  1  'x, y, z'
loop_
 _atom_site_type_symbol
 _atom_site_label
 _atom_site_symmetry_multiplicity
 _atom_site_fract_x
 _atom_site_fract_y
 _atom_site_fract_z
 _atom_site_occupancy
  Pm  Pm0  1  0.001586  0.000000  0.001586  1
  Nd  Nd1  1  0.500920  0.500000  0.000920  1
  Ni  Ni2  1  0.917018  0.250885  0.666133  1
  Ni  Ni3  1  0.415247  0.749114  0.666132  1
  Ge  Ge4  1  0.583787  0.251174  0.332614  1
  Ge  Ge5  1  0.081440  0.748825  0.332614  1
