# generated using pymatgen
data_Nd8Mn(Pd11Au)2
_symmetry_space_group_name_H-M   'P 1'
_cell_length_a   8.57092200
_cell_length_b   8.58862000
_cell_length_c   8.58862000
_cell_angle_alpha   90.00000000
_cell_angle_beta   90.00000000
_cell_angle_gamma   90.00000000
_symmetry_Int_Tables_number   1
_chemical_formula_structural   Nd8Mn(Pd11Au)2
_chemical_formula_sum   'Nd8 Mn1 Pd22 Au2'
_cell_volume   632.22886310
_cell_formula_units_Z   1
loop_
 _symmetry_equiv_pos_site_id
 _symmetry_equiv_pos_as_xyz
  1  'x, y, z'
loop_
 _atom_site_type_symbol
 _atom_site_label
 _atom_site_symmetry_multiplicity
 _atom_site_fract_x
 _atom_site_fract_y
 _atom_site_fract_z
 _atom_site_occupancy
  Nd  Nd0  1  0.248424  0.249077  0.249077  1
  Nd  Nd1  1  0.748999  0.748640  0.748640  1
  Nd  Nd2  1  0.748999  0.748640  0.251360  1
  Nd  Nd3  1  0.748999  0.251360  0.748640  1
  Nd  Nd4  1  0.248424  0.249077  0.750923  1
  Nd  Nd5  1  0.248424  0.750923  0.249077  1
  Nd  Nd6  1  0.248424  0.750923  0.750923  1
  Nd  Nd7  1  0.748999  0.251360  0.251360  1
  Mn  Mn8  1  0.001794  0.000000  0.000000  1
  Pd  Pd9  1  0.259722  0.500000  0.000000  1
  Pd  Pd10  1  0.737822  0.500000  0.000000  1
  Pd  Pd11  1  0.000665  0.261278  0.500000  1
  Pd  Pd12  1  0.501655  0.266499  0.000000  1
  Pd  Pd13  1  0.000665  0.738722  0.500000  1
  Pd  Pd14  1  0.501655  0.733501  0.000000  1
  Pd  Pd15  1  0.501655  0.000000  0.266499  1
  Pd  Pd16  1  0.259722  0.000000  0.500000  1
  Pd  Pd17  1  0.501655  0.000000  0.733501  1
  Pd  Pd18  1  0.737822  0.000000  0.500000  1
  Pd  Pd19  1  0.000665  0.500000  0.261278  1
  Pd  Pd20  1  0.000665  0.500000  0.738722  1
  Pd  Pd21  1  0.746429  0.500000  0.500000  1
  Pd  Pd22  1  0.498349  0.252132  0.500000  1
  Pd  Pd23  1  0.498349  0.747868  0.500000  1
  Pd  Pd24  1  0.498349  0.500000  0.252132  1
  Pd  Pd25  1  0.498349  0.500000  0.747868  1
  Pd  Pd26  1  0.703260  0.000000  0.000000  1
  Pd  Pd27  1  0.997984  0.298930  0.000000  1
  Pd  Pd28  1  0.997984  0.701070  0.000000  1
  Pd  Pd29  1  0.997984  0.000000  0.298930  1
  Pd  Pd30  1  0.997984  0.000000  0.701070  1
  Au  Au31  1  0.256439  0.500000  0.500000  1
  Au  Au32  1  0.312686  0.000000  0.000000  1
