# generated using pymatgen
data_Dy2Si5Ir2Pt
_symmetry_space_group_name_H-M   'P 1'
_cell_length_a   8.16105427
_cell_length_b   8.15086469
_cell_length_c   8.15086404
_cell_angle_alpha   137.96385163
_cell_angle_beta   103.89922457
_cell_angle_gamma   90.95925802
_symmetry_Int_Tables_number   1
_chemical_formula_structural   Dy2Si5Ir2Pt
_chemical_formula_sum   'Dy4 Si10 Ir4 Pt2'
_cell_volume   336.16204851
_cell_formula_units_Z   2
loop_
 _symmetry_equiv_pos_site_id
 _symmetry_equiv_pos_as_xyz
  1  'x, y, z'
loop_
 _atom_site_type_symbol
 _atom_site_label
 _atom_site_symmetry_multiplicity
 _atom_site_fract_x
 _atom_site_fract_y
 _atom_site_fract_z
 _atom_site_occupancy
  Dy  Dy0  1  0.859816  0.629501  0.230316  1
  Dy  Dy1  1  0.140184  0.370499  0.769684  1
  Dy  Dy2  1  0.397885  0.130050  0.267836  1
  Dy  Dy3  1  0.602115  0.869950  0.732164  1
  Si  Si4  1  0.500000  0.757191  0.257191  1
  Si  Si5  1  0.500000  0.242809  0.742809  1
  Si  Si6  1  0.223949  0.974578  0.746813  1
  Si  Si7  1  0.776051  0.522865  0.750629  1
  Si  Si8  1  0.776051  0.025422  0.253187  1
  Si  Si9  1  0.223949  0.477135  0.249371  1
  Si  Si10  1  0.050145  0.893565  0.156580  1
  Si  Si11  1  0.949855  0.106435  0.843420  1
  Si  Si12  1  0.740562  0.393356  0.347206  1
  Si  Si13  1  0.259438  0.606644  0.652794  1
  Ir  Ir14  1  0.000000  0.752104  0.752104  1
  Ir  Ir15  1  0.000000  0.247896  0.247896  1
  Ir  Ir16  1  0.247277  0.861011  0.386267  1
  Ir  Ir17  1  0.752723  0.138989  0.613733  1
  Pt  Pt18  1  0.475606  0.361097  0.114509  1
  Pt  Pt19  1  0.524394  0.638903  0.885491  1
