# generated using pymatgen
data_Tb8Lu2OsRu3
_symmetry_space_group_name_H-M   'P 1'
_cell_length_a   6.35327526
_cell_length_b   7.26236466
_cell_length_c   8.49022741
_cell_angle_alpha   96.70708405
_cell_angle_beta   112.11641094
_cell_angle_gamma   89.89115894
_symmetry_Int_Tables_number   1
_chemical_formula_structural   Tb8Lu2OsRu3
_chemical_formula_sum   'Tb8 Lu2 Os1 Ru3'
_cell_volume   360.05298644
_cell_formula_units_Z   1
loop_
 _symmetry_equiv_pos_site_id
 _symmetry_equiv_pos_as_xyz
  1  'x, y, z'
loop_
 _atom_site_type_symbol
 _atom_site_label
 _atom_site_symmetry_multiplicity
 _atom_site_fract_x
 _atom_site_fract_y
 _atom_site_fract_z
 _atom_site_occupancy
  Tb  Tb0  1  0.522726  0.083829  0.815293  1
  Tb  Tb1  1  0.477520  0.916915  0.184851  1
  Tb  Tb2  1  0.708110  0.416480  0.185181  1
  Tb  Tb3  1  0.292462  0.583594  0.815868  1
  Tb  Tb4  1  0.295664  0.312764  0.431797  1
  Tb  Tb5  1  0.702998  0.686694  0.567523  1
  Tb  Tb6  1  0.864442  0.187355  0.568499  1
  Tb  Tb7  1  0.136083  0.812413  0.431208  1
  Lu  Lu8  1  0.076233  0.250726  0.000378  1
  Lu  Lu9  1  0.925040  0.749446  0.000480  1
  Os  Os10  1  0.317639  0.574872  0.216333  1
  Ru  Ru11  1  0.681188  0.424799  0.782953  1
  Ru  Ru12  1  0.101731  0.925860  0.782632  1
  Ru  Ru13  1  0.898165  0.074253  0.217004  1
