# generated using pymatgen
data_DyPa(FeB)8
_symmetry_space_group_name_H-M   'P 1'
_cell_length_a   6.95123000
_cell_length_b   6.95123000
_cell_length_c   3.81649100
_cell_angle_alpha   90.00000000
_cell_angle_beta   90.00000000
_cell_angle_gamma   90.00000000
_symmetry_Int_Tables_number   1
_chemical_formula_structural   DyPa(FeB)8
_chemical_formula_sum   'Dy1 Pa1 Fe8 B8'
_cell_volume   184.41131285
_cell_formula_units_Z   1
loop_
 _symmetry_equiv_pos_site_id
 _symmetry_equiv_pos_as_xyz
  1  'x, y, z'
loop_
 _atom_site_type_symbol
 _atom_site_label
 _atom_site_symmetry_multiplicity
 _atom_site_fract_x
 _atom_site_fract_y
 _atom_site_fract_z
 _atom_site_occupancy
  Dy  Dy0  1  0.500000  0.500000  0.500000  1
  Pa  Pa1  1  0.000000  0.000000  0.000000  1
  Fe  Fe2  1  0.130353  0.382770  0.897095  1
  Fe  Fe3  1  0.869647  0.617230  0.897095  1
  Fe  Fe4  1  0.886696  0.366675  0.393459  1
  Fe  Fe5  1  0.113304  0.633325  0.393459  1
  Fe  Fe6  1  0.366675  0.113304  0.606541  1
  Fe  Fe7  1  0.633325  0.886696  0.606541  1
  Fe  Fe8  1  0.617230  0.130353  0.102905  1
  Fe  Fe9  1  0.382770  0.869647  0.102905  1
  B  B10  1  0.663389  0.796544  0.107135  1
  B  B11  1  0.336611  0.203456  0.107135  1
  B  B12  1  0.295854  0.834170  0.601461  1
  B  B13  1  0.704146  0.165830  0.601461  1
  B  B14  1  0.834170  0.704146  0.398539  1
  B  B15  1  0.165830  0.295854  0.398539  1
  B  B16  1  0.203456  0.663389  0.892865  1
  B  B17  1  0.796544  0.336611  0.892865  1
