# generated using pymatgen
data_YbYSiN3
_symmetry_space_group_name_H-M   'P 1'
_cell_length_a   5.82505510
_cell_length_b   5.82505382
_cell_length_c   11.27446200
_cell_angle_alpha   90.00000000
_cell_angle_beta   90.00000000
_cell_angle_gamma   125.46937542
_symmetry_Int_Tables_number   1
_chemical_formula_structural   YbYSiN3
_chemical_formula_sum   'Yb4 Y4 Si4 N12'
_cell_volume   311.56403770
_cell_formula_units_Z   4
loop_
 _symmetry_equiv_pos_site_id
 _symmetry_equiv_pos_as_xyz
  1  'x, y, z'
loop_
 _atom_site_type_symbol
 _atom_site_label
 _atom_site_symmetry_multiplicity
 _atom_site_fract_x
 _atom_site_fract_y
 _atom_site_fract_z
 _atom_site_occupancy
  Yb  Yb0  1  0.046394  0.953606  0.855655  1
  Yb  Yb1  1  0.953606  0.046394  0.144345  1
  Yb  Yb2  1  0.453606  0.546394  0.355655  1
  Yb  Yb3  1  0.546394  0.453606  0.644345  1
  Y  Y4  1  0.640884  0.359116  0.078042  1
  Y  Y5  1  0.359116  0.640884  0.921958  1
  Y  Y6  1  0.859116  0.140884  0.578042  1
  Y  Y7  1  0.140884  0.859116  0.421958  1
  Si  Si8  1  0.738596  0.261404  0.838224  1
  Si  Si9  1  0.261404  0.738596  0.161776  1
  Si  Si10  1  0.761404  0.238596  0.338224  1
  Si  Si11  1  0.238596  0.761404  0.661776  1
  N  N12  1  0.573186  0.426814  0.870123  1
  N  N13  1  0.426814  0.573186  0.129877  1
  N  N14  1  0.926814  0.073186  0.370123  1
  N  N15  1  0.073186  0.926814  0.629877  1
  N  N16  1  0.532249  0.967751  0.750000  1
  N  N17  1  0.967751  0.532249  0.250000  1
  N  N18  1  0.467751  0.032249  0.250000  1
  N  N19  1  0.032249  0.467751  0.750000  1
  N  N20  1  0.839804  0.160196  0.961633  1
  N  N21  1  0.160196  0.839804  0.038367  1
  N  N22  1  0.660196  0.339804  0.461633  1
  N  N23  1  0.339804  0.660196  0.538367  1
