# generated using pymatgen
data_Lu3In3Ir2Pb
_symmetry_space_group_name_H-M   'P 1'
_cell_length_a   7.77439100
_cell_length_b   7.77439116
_cell_length_c   3.90246500
_cell_angle_alpha   90.00000000
_cell_angle_beta   90.00000000
_cell_angle_gamma   119.99999621
_symmetry_Int_Tables_number   1
_chemical_formula_structural   Lu3In3Ir2Pb
_chemical_formula_sum   'Lu3 In3 Ir2 Pb1'
_cell_volume   204.26898541
_cell_formula_units_Z   1
loop_
 _symmetry_equiv_pos_site_id
 _symmetry_equiv_pos_as_xyz
  1  'x, y, z'
loop_
 _atom_site_type_symbol
 _atom_site_label
 _atom_site_symmetry_multiplicity
 _atom_site_fract_x
 _atom_site_fract_y
 _atom_site_fract_z
 _atom_site_occupancy
  Lu  Lu0  1  0.581383  0.618670  0.000000  1
  Lu  Lu1  1  0.381330  0.962714  0.000000  1
  Lu  Lu2  1  0.037286  0.418617  0.000000  1
  In  In3  1  0.013221  0.754844  0.500000  1
  In  In4  1  0.245156  0.258377  0.500000  1
  In  In5  1  0.741623  0.986779  0.500000  1
  Ir  Ir6  1  0.000000  0.000000  0.000000  1
  Ir  Ir7  1  0.333333  0.666667  0.500000  1
  Pb  Pb8  1  0.666667  0.333333  0.500000  1
