# generated using pymatgen
data_Ce2Ho(RhPb)3
_symmetry_space_group_name_H-M   'P 1'
_cell_length_a   7.75084514
_cell_length_b   7.75084533
_cell_length_c   3.94334700
_cell_angle_alpha   90.00000000
_cell_angle_beta   90.00000000
_cell_angle_gamma   120.39963981
_symmetry_Int_Tables_number   1
_chemical_formula_structural   Ce2Ho(RhPb)3
_chemical_formula_sum   'Ce2 Ho1 Rh3 Pb3'
_cell_volume   204.32933124
_cell_formula_units_Z   1
loop_
 _symmetry_equiv_pos_site_id
 _symmetry_equiv_pos_as_xyz
  1  'x, y, z'
loop_
 _atom_site_type_symbol
 _atom_site_label
 _atom_site_symmetry_multiplicity
 _atom_site_fract_x
 _atom_site_fract_y
 _atom_site_fract_z
 _atom_site_occupancy
  Ce  Ce0  1  0.590604  0.000006  0.500000  1
  Ce  Ce1  1  0.000006  0.590604  0.500000  1
  Ho  Ho2  1  0.404271  0.404271  0.500000  1
  Rh  Rh3  1  0.996590  0.996590  0.500000  1
  Rh  Rh4  1  0.676275  0.331454  0.000000  1
  Rh  Rh5  1  0.331454  0.676275  0.000000  1
  Pb  Pb6  1  0.732190  0.732190  0.000000  1
  Pb  Pb7  1  0.261792  0.006818  0.000000  1
  Pb  Pb8  1  0.006818  0.261792  0.000000  1
