# generated using pymatgen
data_Dy12Si12Rh3Au
_symmetry_space_group_name_H-M   'P 1'
_cell_length_a   4.25054300
_cell_length_b   10.73221716
_cell_length_c   12.39555406
_cell_angle_alpha   89.93827984
_cell_angle_beta   90.00000000
_cell_angle_gamma   90.00000000
_symmetry_Int_Tables_number   1
_chemical_formula_structural   Dy12Si12Rh3Au
_chemical_formula_sum   'Dy12 Si12 Rh3 Au1'
_cell_volume   565.45696476
_cell_formula_units_Z   1
loop_
 _symmetry_equiv_pos_site_id
 _symmetry_equiv_pos_as_xyz
  1  'x, y, z'
loop_
 _atom_site_type_symbol
 _atom_site_label
 _atom_site_symmetry_multiplicity
 _atom_site_fract_x
 _atom_site_fract_y
 _atom_site_fract_z
 _atom_site_occupancy
  Dy  Dy0  1  0.250000  0.880832  0.022320  1
  Dy  Dy1  1  0.250000  0.623445  0.518553  1
  Dy  Dy2  1  0.750000  0.120337  0.980795  1
  Dy  Dy3  1  0.750000  0.378829  0.478239  1
  Dy  Dy4  1  0.250000  0.921097  0.601346  1
  Dy  Dy5  1  0.250000  0.579320  0.103556  1
  Dy  Dy6  1  0.750000  0.080073  0.394289  1
  Dy  Dy7  1  0.750000  0.419742  0.896905  1
  Dy  Dy8  1  0.250000  0.668058  0.803524  1
  Dy  Dy9  1  0.250000  0.840164  0.301016  1
  Dy  Dy10  1  0.750000  0.341228  0.199470  1
  Dy  Dy11  1  0.750000  0.156797  0.700067  1
  Si  Si12  1  0.250000  0.009986  0.821400  1
  Si  Si13  1  0.250000  0.485958  0.324003  1
  Si  Si14  1  0.750000  0.986173  0.178005  1
  Si  Si15  1  0.750000  0.525877  0.675799  1
  Si  Si16  1  0.250000  0.239596  0.848971  1
  Si  Si17  1  0.250000  0.252146  0.339979  1
  Si  Si18  1  0.750000  0.752813  0.159125  1
  Si  Si19  1  0.750000  0.751536  0.658552  1
  Si  Si20  1  0.250000  0.187480  0.535033  1
  Si  Si21  1  0.250000  0.299872  0.043976  1
  Si  Si22  1  0.750000  0.800474  0.457783  1
  Si  Si23  1  0.750000  0.700326  0.960345  1
  Rh  Rh24  1  0.250000  0.108704  0.181090  1
  Rh  Rh25  1  0.750000  0.609183  0.317066  1
  Rh  Rh26  1  0.750000  0.890585  0.817517  1
  Au  Au27  1  0.250000  0.389368  0.681278  1
