# generated using pymatgen
data_Lu20GaSi3Sb8
_symmetry_space_group_name_H-M   'P 1'
_cell_length_a   7.80757523
_cell_length_b   8.98618800
_cell_length_c   11.52148401
_cell_angle_alpha   90.00000000
_cell_angle_beta   90.05803396
_cell_angle_gamma   90.00000000
_symmetry_Int_Tables_number   1
_chemical_formula_structural   Lu20GaSi3Sb8
_chemical_formula_sum   'Lu20 Ga1 Si3 Sb8'
_cell_volume   808.35080717
_cell_formula_units_Z   1
loop_
 _symmetry_equiv_pos_site_id
 _symmetry_equiv_pos_as_xyz
  1  'x, y, z'
loop_
 _atom_site_type_symbol
 _atom_site_label
 _atom_site_symmetry_multiplicity
 _atom_site_fract_x
 _atom_site_fract_y
 _atom_site_fract_z
 _atom_site_occupancy
  Lu  Lu0  1  0.186206  0.555805  0.442474  1
  Lu  Lu1  1  0.687091  0.942827  0.057837  1
  Lu  Lu2  1  0.814582  0.055223  0.557340  1
  Lu  Lu3  1  0.313708  0.446653  0.940555  1
  Lu  Lu4  1  0.814582  0.444777  0.557340  1
  Lu  Lu5  1  0.313708  0.053347  0.940555  1
  Lu  Lu6  1  0.186206  0.944195  0.442474  1
  Lu  Lu7  1  0.687091  0.557173  0.057837  1
  Lu  Lu8  1  0.038950  0.750000  0.990253  1
  Lu  Lu9  1  0.537777  0.750000  0.508495  1
  Lu  Lu10  1  0.964014  0.250000  0.008493  1
  Lu  Lu11  1  0.463603  0.250000  0.492191  1
  Lu  Lu12  1  0.175754  0.750000  0.712460  1
  Lu  Lu13  1  0.675911  0.750000  0.786256  1
  Lu  Lu14  1  0.825762  0.250000  0.287474  1
  Lu  Lu15  1  0.316165  0.250000  0.218021  1
  Lu  Lu16  1  0.849640  0.750000  0.294250  1
  Lu  Lu17  1  0.352580  0.750000  0.207097  1
  Lu  Lu18  1  0.148477  0.250000  0.706031  1
  Lu  Lu19  1  0.648477  0.250000  0.791969  1
  Ga  Ga20  1  0.585486  0.250000  0.040437  1
  Si  Si21  1  0.913787  0.750000  0.536613  1
  Si  Si22  1  0.414229  0.750000  0.963383  1
  Si  Si23  1  0.088377  0.250000  0.463129  1
  Sb  Sb24  1  0.939188  0.498952  0.822896  1
  Sb  Sb25  1  0.438871  0.000490  0.675387  1
  Sb  Sb26  1  0.060292  0.996809  0.176476  1
  Sb  Sb27  1  0.560567  0.499974  0.323761  1
  Sb  Sb28  1  0.060292  0.503191  0.176476  1
  Sb  Sb29  1  0.560567  0.000026  0.323761  1
  Sb  Sb30  1  0.939188  0.001048  0.822896  1
  Sb  Sb31  1  0.438871  0.499510  0.675387  1
