# generated using pymatgen
data_DyHo2Zr3(SnIr)6
_symmetry_space_group_name_H-M   'P 1'
_cell_length_a   7.47595205
_cell_length_b   7.47465545
_cell_length_c   7.61547900
_cell_angle_alpha   90.00000000
_cell_angle_beta   90.00000000
_cell_angle_gamma   119.99274214
_symmetry_Int_Tables_number   1
_chemical_formula_structural   DyHo2Zr3(SnIr)6
_chemical_formula_sum   'Dy1 Ho2 Zr3 Sn6 Ir6'
_cell_volume   368.56772302
_cell_formula_units_Z   1
loop_
 _symmetry_equiv_pos_site_id
 _symmetry_equiv_pos_as_xyz
  1  'x, y, z'
loop_
 _atom_site_type_symbol
 _atom_site_label
 _atom_site_symmetry_multiplicity
 _atom_site_fract_x
 _atom_site_fract_y
 _atom_site_fract_z
 _atom_site_occupancy
  Dy  Dy0  1  0.000782  0.407002  0.250000  1
  Ho  Ho1  1  0.406060  0.999222  0.250000  1
  Ho  Ho2  1  0.593150  0.593961  0.250000  1
  Zr  Zr3  1  0.607050  0.607852  0.750000  1
  Zr  Zr4  1  0.000806  0.392940  0.750000  1
  Zr  Zr5  1  0.392146  0.999190  0.750000  1
  Sn  Sn6  1  0.266187  0.265209  0.505307  1
  Sn  Sn7  1  0.266187  0.265209  0.994693  1
  Sn  Sn8  1  0.734673  0.000745  0.994702  1
  Sn  Sn9  1  0.999127  0.733992  0.505415  1
  Sn  Sn10  1  0.734673  0.000745  0.505298  1
  Sn  Sn11  1  0.999127  0.733992  0.994585  1
  Ir  Ir12  1  0.666489  0.333294  0.532949  1
  Ir  Ir13  1  0.666489  0.333294  0.967051  1
  Ir  Ir14  1  0.333526  0.666815  0.968750  1
  Ir  Ir15  1  0.333526  0.666815  0.531250  1
  Ir  Ir16  1  0.000001  0.999986  0.750000  1
  Ir  Ir17  1  0.000002  0.999736  0.250000  1
