# generated using pymatgen
data_La5Pr5(CoSn2)2
_symmetry_space_group_name_H-M   'P 1'
_cell_length_a   8.30456365
_cell_length_b   9.17485800
_cell_length_c   12.88329378
_cell_angle_alpha   90.00000000
_cell_angle_beta   90.18422614
_cell_angle_gamma   90.00000000
_symmetry_Int_Tables_number   1
_chemical_formula_structural   La5Pr5(CoSn2)2
_chemical_formula_sum   'La10 Pr10 Co4 Sn8'
_cell_volume   981.61420523
_cell_formula_units_Z   2
loop_
 _symmetry_equiv_pos_site_id
 _symmetry_equiv_pos_as_xyz
  1  'x, y, z'
loop_
 _atom_site_type_symbol
 _atom_site_label
 _atom_site_symmetry_multiplicity
 _atom_site_fract_x
 _atom_site_fract_y
 _atom_site_fract_z
 _atom_site_occupancy
  La  La0  1  0.841571  0.750000  0.793968  1
  La  La1  1  0.158429  0.250000  0.206032  1
  La  La2  1  0.673774  0.023562  0.566211  1
  La  La3  1  0.326226  0.976438  0.433789  1
  La  La4  1  0.174893  0.975742  0.933169  1
  La  La5  1  0.326226  0.523562  0.433789  1
  La  La6  1  0.825107  0.024258  0.066831  1
  La  La7  1  0.673774  0.476438  0.566211  1
  La  La8  1  0.825107  0.475742  0.066831  1
  La  La9  1  0.174893  0.524258  0.933169  1
  Pr  Pr10  1  0.338719  0.250000  0.710738  1
  Pr  Pr11  1  0.661281  0.750000  0.289262  1
  Pr  Pr12  1  0.363502  0.750000  0.699983  1
  Pr  Pr13  1  0.636498  0.250000  0.300017  1
  Pr  Pr14  1  0.864827  0.250000  0.801253  1
  Pr  Pr15  1  0.135173  0.750000  0.198747  1
  Pr  Pr16  1  0.950842  0.750000  0.502053  1
  Pr  Pr17  1  0.049158  0.250000  0.497947  1
  Pr  Pr18  1  0.453852  0.250000  0.999733  1
  Pr  Pr19  1  0.546148  0.750000  0.000267  1
  Co  Co20  1  0.582523  0.750000  0.515970  1
  Co  Co21  1  0.417477  0.250000  0.484030  1
  Co  Co22  1  0.082383  0.250000  0.986555  1
  Co  Co23  1  0.917617  0.750000  0.013445  1
  Sn  Sn24  1  0.564393  0.493323  0.828487  1
  Sn  Sn25  1  0.435607  0.506677  0.171513  1
  Sn  Sn26  1  0.067068  0.504290  0.671120  1
  Sn  Sn27  1  0.435607  0.993323  0.171513  1
  Sn  Sn28  1  0.932932  0.495710  0.328880  1
  Sn  Sn29  1  0.564393  0.006677  0.828487  1
  Sn  Sn30  1  0.932932  0.004290  0.328880  1
  Sn  Sn31  1  0.067068  0.995710  0.671120  1
