# generated using pymatgen
data_Tb7Co2Sn23Os4
_symmetry_space_group_name_H-M   'P 1'
_cell_length_a   9.82040306
_cell_length_b   9.86313261
_cell_length_c   10.09076118
_cell_angle_alpha   90.00000177
_cell_angle_beta   89.75283776
_cell_angle_gamma   120.14404180
_symmetry_Int_Tables_number   1
_chemical_formula_structural   Tb7Co2Sn23Os4
_chemical_formula_sum   'Tb7 Co2 Sn23 Os4'
_cell_volume   845.20323006
_cell_formula_units_Z   1
loop_
 _symmetry_equiv_pos_site_id
 _symmetry_equiv_pos_as_xyz
  1  'x, y, z'
loop_
 _atom_site_type_symbol
 _atom_site_label
 _atom_site_symmetry_multiplicity
 _atom_site_fract_x
 _atom_site_fract_y
 _atom_site_fract_z
 _atom_site_occupancy
  Tb  Tb0  1  0.000000  0.000000  0.000000  1
  Tb  Tb1  1  0.483841  0.519254  0.305620  1
  Tb  Tb2  1  0.516159  0.480746  0.694380  1
  Tb  Tb3  1  0.483841  0.964587  0.305620  1
  Tb  Tb4  1  0.516159  0.035413  0.694380  1
  Tb  Tb5  1  0.035550  0.517775  0.304231  1
  Tb  Tb6  1  0.964450  0.482225  0.695769  1
  Co  Co7  1  0.338705  0.169352  0.199721  1
  Co  Co8  1  0.661295  0.830648  0.800279  1
  Sn  Sn9  1  0.349228  0.002934  0.004748  1
  Sn  Sn10  1  0.650772  0.997066  0.995252  1
  Sn  Sn11  1  0.000000  0.349241  0.000000  1
  Sn  Sn12  1  0.000000  0.650759  0.000000  1
  Sn  Sn13  1  0.650772  0.653706  0.995252  1
  Sn  Sn14  1  0.349228  0.346294  0.004748  1
  Sn  Sn15  1  0.335660  0.667831  0.821572  1
  Sn  Sn16  1  0.664340  0.332169  0.178428  1
  Sn  Sn17  1  0.000000  0.000000  0.500000  1
  Sn  Sn18  1  0.780430  0.220057  0.461245  1
  Sn  Sn19  1  0.219570  0.779943  0.538755  1
  Sn  Sn20  1  0.780430  0.560373  0.461245  1
  Sn  Sn21  1  0.219570  0.439627  0.538755  1
  Sn  Sn22  1  0.436960  0.218480  0.454402  1
  Sn  Sn23  1  0.563040  0.781520  0.545598  1
  Sn  Sn24  1  0.335294  0.667647  0.122912  1
  Sn  Sn25  1  0.664706  0.332353  0.877088  1
  Sn  Sn26  1  0.120031  0.889539  0.275999  1
  Sn  Sn27  1  0.879969  0.110461  0.724001  1
  Sn  Sn28  1  0.120031  0.230493  0.275999  1
  Sn  Sn29  1  0.879969  0.769507  0.724001  1
  Sn  Sn30  1  0.765221  0.882611  0.276489  1
  Sn  Sn31  1  0.234779  0.117389  0.723511  1
  Os  Os32  1  0.829479  0.168105  0.200829  1
  Os  Os33  1  0.170521  0.831895  0.799171  1
  Os  Os34  1  0.829479  0.661374  0.200829  1
  Os  Os35  1  0.170521  0.338626  0.799171  1
