# generated using pymatgen
data_Cs2RbNb2Br10N
_symmetry_space_group_name_H-M   'P 1'
_cell_length_a   7.74970500
_cell_length_b   7.74970500
_cell_length_c   20.19517200
_cell_angle_alpha   90.00000000
_cell_angle_beta   90.00000000
_cell_angle_gamma   90.00000000
_symmetry_Int_Tables_number   1
_chemical_formula_structural   Cs2RbNb2Br10N
_chemical_formula_sum   'Cs4 Rb2 Nb4 Br20 N2'
_cell_volume   1212.88017758
_cell_formula_units_Z   2
loop_
 _symmetry_equiv_pos_site_id
 _symmetry_equiv_pos_as_xyz
  1  'x, y, z'
loop_
 _atom_site_type_symbol
 _atom_site_label
 _atom_site_symmetry_multiplicity
 _atom_site_fract_x
 _atom_site_fract_y
 _atom_site_fract_z
 _atom_site_occupancy
  Cs  Cs0  1  0.000000  0.500000  0.250000  1
  Cs  Cs1  1  0.500000  0.000000  0.750000  1
  Cs  Cs2  1  0.500000  0.000000  0.250000  1
  Cs  Cs3  1  0.000000  0.500000  0.750000  1
  Rb  Rb4  1  0.500000  0.500000  0.000000  1
  Rb  Rb5  1  0.000000  0.000000  0.500000  1
  Nb  Nb6  1  0.500000  0.500000  0.407016  1
  Nb  Nb7  1  0.000000  0.000000  0.907016  1
  Nb  Nb8  1  0.500000  0.500000  0.592984  1
  Nb  Nb9  1  0.000000  0.000000  0.092984  1
  Br  Br10  1  0.777067  0.682437  0.398818  1
  Br  Br11  1  0.222933  0.317563  0.398818  1
  Br  Br12  1  0.722933  0.182437  0.898818  1
  Br  Br13  1  0.277067  0.817563  0.898818  1
  Br  Br14  1  0.682437  0.222933  0.398818  1
  Br  Br15  1  0.317563  0.777067  0.398818  1
  Br  Br16  1  0.182437  0.277067  0.898818  1
  Br  Br17  1  0.817563  0.722933  0.898818  1
  Br  Br18  1  0.222933  0.317563  0.601182  1
  Br  Br19  1  0.777067  0.682437  0.601182  1
  Br  Br20  1  0.277067  0.817563  0.101182  1
  Br  Br21  1  0.722933  0.182437  0.101182  1
  Br  Br22  1  0.317563  0.777067  0.601182  1
  Br  Br23  1  0.682437  0.222933  0.601182  1
  Br  Br24  1  0.817563  0.722933  0.101182  1
  Br  Br25  1  0.182437  0.277067  0.101182  1
  Br  Br26  1  0.500000  0.500000  0.267364  1
  Br  Br27  1  0.000000  0.000000  0.767364  1
  Br  Br28  1  0.500000  0.500000  0.732636  1
  Br  Br29  1  0.000000  0.000000  0.232636  1
  N  N30  1  0.500000  0.500000  0.500000  1
  N  N31  1  0.000000  0.000000  0.000000  1
