# generated using pymatgen
data_Mn3Si3BW6
_symmetry_space_group_name_H-M   'P 1'
_cell_length_a   7.82218670
_cell_length_b   7.82218590
_cell_length_c   7.77618900
_cell_angle_alpha   60.19431663
_cell_angle_beta   60.19431997
_cell_angle_gamma   60.17816844
_symmetry_Int_Tables_number   1
_chemical_formula_structural   Mn3Si3BW6
_chemical_formula_sum   'Mn6 Si6 B2 W12'
_cell_volume   337.87982587
_cell_formula_units_Z   2
loop_
 _symmetry_equiv_pos_site_id
 _symmetry_equiv_pos_as_xyz
  1  'x, y, z'
loop_
 _atom_site_type_symbol
 _atom_site_label
 _atom_site_symmetry_multiplicity
 _atom_site_fract_x
 _atom_site_fract_y
 _atom_site_fract_z
 _atom_site_occupancy
  Mn  Mn0  1  0.330288  0.330288  0.012713  1
  Mn  Mn1  1  0.126882  0.126882  0.623916  1
  Mn  Mn2  1  0.919712  0.919712  0.923289  1
  Mn  Mn3  1  0.125000  0.625000  0.125319  1
  Mn  Mn4  1  0.123118  0.123118  0.127679  1
  Mn  Mn5  1  0.625000  0.125000  0.125319  1
  Si  Si6  1  0.916083  0.249730  0.915862  1
  Si  Si7  1  0.333917  0.000270  0.331674  1
  Si  Si8  1  0.335327  0.335327  0.332415  1
  Si  Si9  1  0.000270  0.333917  0.331674  1
  Si  Si10  1  0.914673  0.914673  0.253069  1
  Si  Si11  1  0.249730  0.916083  0.915862  1
  B  B12  1  0.749661  0.749661  0.748606  1
  B  B13  1  0.500339  0.500339  0.497926  1
  W  W14  1  0.303107  0.694306  0.697383  1
  W  W15  1  0.304029  0.304029  0.700019  1
  W  W16  1  0.549867  0.947618  0.550812  1
  W  W17  1  0.947618  0.549867  0.550812  1
  W  W18  1  0.555694  0.946893  0.944796  1
  W  W19  1  0.700133  0.302382  0.298297  1
  W  W20  1  0.946893  0.555694  0.944796  1
  W  W21  1  0.302382  0.700133  0.298297  1
  W  W22  1  0.552780  0.552780  0.944223  1
  W  W23  1  0.694306  0.303107  0.697383  1
  W  W24  1  0.697220  0.697220  0.299783  1
  W  W25  1  0.945971  0.945971  0.558076  1
