# generated using pymatgen
data_La2Sm2Zn10SiSn
_symmetry_space_group_name_H-M   'P 1'
_cell_length_a   8.47952203
_cell_length_b   8.47952167
_cell_length_c   8.97683800
_cell_angle_alpha   90.00000000
_cell_angle_beta   90.00000000
_cell_angle_gamma   149.46142497
_symmetry_Int_Tables_number   1
_chemical_formula_structural   La2Sm2Zn10SiSn
_chemical_formula_sum   'La2 Sm2 Zn10 Si1 Sn1'
_cell_volume   327.96763892
_cell_formula_units_Z   1
loop_
 _symmetry_equiv_pos_site_id
 _symmetry_equiv_pos_as_xyz
  1  'x, y, z'
loop_
 _atom_site_type_symbol
 _atom_site_label
 _atom_site_symmetry_multiplicity
 _atom_site_fract_x
 _atom_site_fract_y
 _atom_site_fract_z
 _atom_site_occupancy
  La  La0  1  0.000918  0.999082  0.487634  1
  La  La1  1  0.000918  0.999082  0.012366  1
  Sm  Sm2  1  0.203817  0.796183  0.250000  1
  Sm  Sm3  1  0.793343  0.206657  0.750000  1
  Zn  Zn4  1  0.812639  0.187361  0.390635  1
  Zn  Zn5  1  0.186366  0.813634  0.607594  1
  Zn  Zn6  1  0.812639  0.187361  0.109365  1
  Zn  Zn7  1  0.186366  0.813634  0.892406  1
  Zn  Zn8  1  0.652340  0.347660  0.474388  1
  Zn  Zn9  1  0.342580  0.657420  0.514150  1
  Zn  Zn10  1  0.652340  0.347660  0.025612  1
  Zn  Zn11  1  0.342580  0.657420  0.985850  1
  Zn  Zn12  1  0.405642  0.594358  0.250000  1
  Zn  Zn13  1  0.604319  0.395681  0.750000  1
  Si  Si14  1  0.561178  0.438822  0.250000  1
  Sn  Sn15  1  0.442010  0.557990  0.750000  1
