# generated using pymatgen
data_Nd2Zn2Ni5
_symmetry_space_group_name_H-M   'P 1'
_cell_length_a   5.19167138
_cell_length_b   5.19166947
_cell_length_c   12.40128158
_cell_angle_alpha   77.91749460
_cell_angle_beta   77.91750024
_cell_angle_gamma   59.99999347
_symmetry_Int_Tables_number   1
_chemical_formula_structural   Nd2Zn2Ni5
_chemical_formula_sum   'Nd4 Zn4 Ni10'
_cell_volume   280.89244864
_cell_formula_units_Z   2
loop_
 _symmetry_equiv_pos_site_id
 _symmetry_equiv_pos_as_xyz
  1  'x, y, z'
loop_
 _atom_site_type_symbol
 _atom_site_label
 _atom_site_symmetry_multiplicity
 _atom_site_fract_x
 _atom_site_fract_y
 _atom_site_fract_z
 _atom_site_occupancy
  Nd  Nd0  1  0.950597  0.950597  0.148211  1
  Nd  Nd1  1  0.049403  0.049403  0.851789  1
  Nd  Nd2  1  0.852626  0.852626  0.442122  1
  Nd  Nd3  1  0.147374  0.147374  0.557878  1
  Zn  Zn4  1  0.722408  0.722408  0.832776  1
  Zn  Zn5  1  0.277592  0.277592  0.167224  1
  Zn  Zn6  1  0.611586  0.611586  0.165241  1
  Zn  Zn7  1  0.388414  0.388414  0.834759  1
  Ni  Ni8  1  0.500000  0.500000  0.500000  1
  Ni  Ni9  1  0.000000  0.500000  0.000000  1
  Ni  Ni10  1  0.500000  0.000000  0.000000  1
  Ni  Ni11  1  0.500000  0.500000  0.000000  1
  Ni  Ni12  1  0.391440  0.391440  0.330705  1
  Ni  Ni13  1  0.886414  0.391440  0.330705  1
  Ni  Ni14  1  0.391440  0.886414  0.330705  1
  Ni  Ni15  1  0.608560  0.608560  0.669295  1
  Ni  Ni16  1  0.113586  0.608560  0.669295  1
  Ni  Ni17  1  0.608560  0.113586  0.669295  1
