# generated using pymatgen
data_Ta8BeGa2Fe
_symmetry_space_group_name_H-M   'P 1'
_cell_length_a   6.24326100
_cell_length_b   6.24326100
_cell_length_c   5.02344100
_cell_angle_alpha   90.00000000
_cell_angle_beta   90.00000000
_cell_angle_gamma   90.00000000
_symmetry_Int_Tables_number   1
_chemical_formula_structural   Ta8BeGa2Fe
_chemical_formula_sum   'Ta8 Be1 Ga2 Fe1'
_cell_volume   195.80523009
_cell_formula_units_Z   1
loop_
 _symmetry_equiv_pos_site_id
 _symmetry_equiv_pos_as_xyz
  1  'x, y, z'
loop_
 _atom_site_type_symbol
 _atom_site_label
 _atom_site_symmetry_multiplicity
 _atom_site_fract_x
 _atom_site_fract_y
 _atom_site_fract_z
 _atom_site_occupancy
  Ta  Ta0  1  0.327335  0.144488  0.503067  1
  Ta  Ta1  1  0.672665  0.855512  0.503067  1
  Ta  Ta2  1  0.144488  0.672665  0.503067  1
  Ta  Ta3  1  0.855512  0.327335  0.503067  1
  Ta  Ta4  1  0.327335  0.855512  0.996933  1
  Ta  Ta5  1  0.855512  0.672665  0.996933  1
  Ta  Ta6  1  0.144488  0.327335  0.996933  1
  Ta  Ta7  1  0.672665  0.144488  0.996933  1
  Be  Be8  1  0.000000  0.000000  0.750000  1
  Ga  Ga9  1  0.500000  0.500000  0.750000  1
  Ga  Ga10  1  0.500000  0.500000  0.250000  1
  Fe  Fe11  1  0.000000  0.000000  0.250000  1
