# generated using pymatgen
data_Sc(BeCu2)4
_symmetry_space_group_name_H-M   'P 1'
_cell_length_a   6.14723170
_cell_length_b   6.14723221
_cell_length_c   6.14723118
_cell_angle_alpha   97.85274225
_cell_angle_beta   97.85274375
_cell_angle_gamma   136.61420717
_symmetry_Int_Tables_number   1
_chemical_formula_structural   Sc(BeCu2)4
_chemical_formula_sum   'Sc1 Be4 Cu8'
_cell_volume   148.26409167
_cell_formula_units_Z   1
loop_
 _symmetry_equiv_pos_site_id
 _symmetry_equiv_pos_as_xyz
  1  'x, y, z'
loop_
 _atom_site_type_symbol
 _atom_site_label
 _atom_site_symmetry_multiplicity
 _atom_site_fract_x
 _atom_site_fract_y
 _atom_site_fract_z
 _atom_site_occupancy
  Sc  Sc0  1  0.000000  0.000000  0.000000  1
  Be  Be1  1  0.500001  0.000000  0.000000  1
  Be  Be2  1  0.000000  0.500001  0.000000  1
  Be  Be3  1  0.000000  0.000000  0.500001  1
  Be  Be4  1  0.500001  0.500001  0.500001  1
  Cu  Cu5  1  0.718296  0.499999  0.218297  1
  Cu  Cu6  1  0.499999  0.718296  0.218297  1
  Cu  Cu7  1  0.348124  0.000000  0.348124  1
  Cu  Cu8  1  0.000000  0.348124  0.348124  1
  Cu  Cu9  1  0.651876  0.000000  0.651876  1
  Cu  Cu10  1  0.000000  0.651876  0.651876  1
  Cu  Cu11  1  0.500000  0.281703  0.781703  1
  Cu  Cu12  1  0.281703  0.500000  0.781703  1
