# generated using pymatgen
data_Dy4Ir2Ru5W
_symmetry_space_group_name_H-M   'P 1'
_cell_length_a   5.48092863
_cell_length_b   5.19690222
_cell_length_c   9.03836300
_cell_angle_alpha   90.00000000
_cell_angle_beta   90.00000000
_cell_angle_gamma   121.73432161
_symmetry_Int_Tables_number   1
_chemical_formula_structural   Dy4Ir2Ru5W
_chemical_formula_sum   'Dy4 Ir2 Ru5 W1'
_cell_volume   218.95801281
_cell_formula_units_Z   1
loop_
 _symmetry_equiv_pos_site_id
 _symmetry_equiv_pos_as_xyz
  1  'x, y, z'
loop_
 _atom_site_type_symbol
 _atom_site_label
 _atom_site_symmetry_multiplicity
 _atom_site_fract_x
 _atom_site_fract_y
 _atom_site_fract_z
 _atom_site_occupancy
  Dy  Dy0  1  0.672975  0.346469  0.563767  1
  Dy  Dy1  1  0.335881  0.671865  0.430220  1
  Dy  Dy2  1  0.335881  0.671865  0.069780  1
  Dy  Dy3  1  0.672975  0.346469  0.936233  1
  Ir  Ir4  1  0.008448  0.016941  0.498443  1
  Ir  Ir5  1  0.008448  0.016941  0.001557  1
  Ru  Ru6  1  0.169853  0.817702  0.750000  1
  Ru  Ru7  1  0.647444  0.817097  0.750000  1
  Ru  Ru8  1  0.822881  0.645197  0.250000  1
  Ru  Ru9  1  0.834647  0.165775  0.250000  1
  Ru  Ru10  1  0.332254  0.166678  0.250000  1
  W  W11  1  0.158313  0.317002  0.750000  1
