# generated using pymatgen
data_Rb4TiReCl12
_symmetry_space_group_name_H-M   'P 1'
_cell_length_a   7.24001900
_cell_length_b   7.24006000
_cell_length_c   10.23970900
_cell_angle_alpha   90.00000000
_cell_angle_beta   90.00000000
_cell_angle_gamma   90.00000000
_symmetry_Int_Tables_number   1
_chemical_formula_structural   Rb4TiReCl12
_chemical_formula_sum   'Rb4 Ti1 Re1 Cl12'
_cell_volume   536.74682719
_cell_formula_units_Z   1
loop_
 _symmetry_equiv_pos_site_id
 _symmetry_equiv_pos_as_xyz
  1  'x, y, z'
loop_
 _atom_site_type_symbol
 _atom_site_label
 _atom_site_symmetry_multiplicity
 _atom_site_fract_x
 _atom_site_fract_y
 _atom_site_fract_z
 _atom_site_occupancy
  Rb  Rb0  1  0.500000  0.000000  0.753041  1
  Rb  Rb1  1  0.000000  0.500000  0.246965  1
  Rb  Rb2  1  0.500000  0.000000  0.246959  1
  Rb  Rb3  1  0.000000  0.500000  0.753035  1
  Ti  Ti4  1  0.000000  0.000000  0.000000  1
  Re  Re5  1  0.500000  0.500000  0.500000  1
  Cl  Cl6  1  0.000000  0.000000  0.769415  1
  Cl  Cl7  1  0.500000  0.500000  0.267618  1
  Cl  Cl8  1  0.732243  0.732232  0.500000  1
  Cl  Cl9  1  0.231254  0.231250  0.000000  1
  Cl  Cl10  1  0.732243  0.267768  0.500000  1
  Cl  Cl11  1  0.231254  0.768750  0.000000  1
  Cl  Cl12  1  0.000000  0.000000  0.230585  1
  Cl  Cl13  1  0.500000  0.500000  0.732382  1
  Cl  Cl14  1  0.267757  0.267768  0.500000  1
  Cl  Cl15  1  0.768746  0.768750  0.000000  1
  Cl  Cl16  1  0.267757  0.732232  0.500000  1
  Cl  Cl17  1  0.768746  0.231250  0.000000  1
