# generated using pymatgen
data_YbPrGa12Pt
_symmetry_space_group_name_H-M   'P 1'
_cell_length_a   6.14747500
_cell_length_b   6.14747500
_cell_length_c   15.66049600
_cell_angle_alpha   90.00000000
_cell_angle_beta   90.00000000
_cell_angle_gamma   90.00000000
_symmetry_Int_Tables_number   1
_chemical_formula_structural   YbPrGa12Pt
_chemical_formula_sum   'Yb2 Pr2 Ga24 Pt2'
_cell_volume   591.83283395
_cell_formula_units_Z   2
loop_
 _symmetry_equiv_pos_site_id
 _symmetry_equiv_pos_as_xyz
  1  'x, y, z'
loop_
 _atom_site_type_symbol
 _atom_site_label
 _atom_site_symmetry_multiplicity
 _atom_site_fract_x
 _atom_site_fract_y
 _atom_site_fract_z
 _atom_site_occupancy
  Yb  Yb0  1  0.750000  0.250000  0.243940  1
  Yb  Yb1  1  0.250000  0.750000  0.243940  1
  Pr  Pr2  1  0.250000  0.750000  0.755958  1
  Pr  Pr3  1  0.750000  0.250000  0.755958  1
  Ga  Ga4  1  0.250000  0.250000  0.189232  1
  Ga  Ga5  1  0.750000  0.750000  0.189232  1
  Ga  Ga6  1  0.750000  0.750000  0.810991  1
  Ga  Ga7  1  0.250000  0.250000  0.810991  1
  Ga  Ga8  1  0.250000  0.250000  0.345998  1
  Ga  Ga9  1  0.750000  0.750000  0.345998  1
  Ga  Ga10  1  0.750000  0.750000  0.652637  1
  Ga  Ga11  1  0.250000  0.250000  0.652637  1
  Ga  Ga12  1  0.500001  0.000001  0.912065  1
  Ga  Ga13  1  0.000001  0.999999  0.912065  1
  Ga  Ga14  1  0.499999  0.500001  0.912065  1
  Ga  Ga15  1  0.999999  0.499999  0.912065  1
  Ga  Ga16  1  0.500223  0.000223  0.091644  1
  Ga  Ga17  1  0.000223  0.999777  0.091644  1
  Ga  Ga18  1  0.499777  0.500223  0.091644  1
  Ga  Ga19  1  0.999777  0.499777  0.091644  1
  Ga  Ga20  1  0.581447  0.081447  0.430095  1
  Ga  Ga21  1  0.081447  0.918553  0.430095  1
  Ga  Ga22  1  0.418553  0.581447  0.430095  1
  Ga  Ga23  1  0.918553  0.418553  0.430095  1
  Ga  Ga24  1  0.416348  0.916348  0.567143  1
  Ga  Ga25  1  0.916348  0.083652  0.567143  1
  Ga  Ga26  1  0.583652  0.416348  0.567143  1
  Ga  Ga27  1  0.083652  0.583652  0.567143  1
  Pt  Pt28  1  0.750000  0.250000  0.999349  1
  Pt  Pt29  1  0.250000  0.750000  0.999349  1
