# generated using pymatgen
data_Tm2Ta3Co9As7
_symmetry_space_group_name_H-M   'P 1'
_cell_length_a   3.78962700
_cell_length_b   9.51380937
_cell_length_c   9.51380900
_cell_angle_alpha   119.99999523
_cell_angle_beta   90.00000000
_cell_angle_gamma   90.00000000
_symmetry_Int_Tables_number   1
_chemical_formula_structural   Tm2Ta3Co9As7
_chemical_formula_sum   'Tm2 Ta3 Co9 As7'
_cell_volume   297.05440169
_cell_formula_units_Z   1
loop_
 _symmetry_equiv_pos_site_id
 _symmetry_equiv_pos_as_xyz
  1  'x, y, z'
loop_
 _atom_site_type_symbol
 _atom_site_label
 _atom_site_symmetry_multiplicity
 _atom_site_fract_x
 _atom_site_fract_y
 _atom_site_fract_z
 _atom_site_occupancy
  Tm  Tm0  1  0.000000  0.666667  0.333333  1
  Tm  Tm1  1  0.500000  0.333333  0.666667  1
  Ta  Ta2  1  0.500000  0.774840  0.896618  1
  Ta  Ta3  1  0.500000  0.121778  0.225160  1
  Ta  Ta4  1  0.500000  0.103382  0.878222  1
  Co  Co5  1  0.000000  0.571117  0.935767  1
  Co  Co6  1  0.000000  0.364651  0.428883  1
  Co  Co7  1  0.000000  0.064233  0.635349  1
  Co  Co8  1  0.000000  0.877943  0.159608  1
  Co  Co9  1  0.000000  0.281666  0.122057  1
  Co  Co10  1  0.000000  0.840392  0.718334  1
  Co  Co11  1  0.500000  0.947661  0.383943  1
  Co  Co12  1  0.500000  0.436281  0.052339  1
  Co  Co13  1  0.500000  0.616057  0.563719  1
  As  As14  1  0.000000  0.000000  0.000000  1
  As  As15  1  0.500000  0.707776  0.126073  1
  As  As16  1  0.500000  0.418297  0.292224  1
  As  As17  1  0.500000  0.873927  0.581703  1
  As  As18  1  0.000000  0.578362  0.691334  1
  As  As19  1  0.000000  0.112971  0.421638  1
  As  As20  1  0.000000  0.308666  0.887029  1
