# generated using pymatgen
data_ScTa7(TcOs)4
_symmetry_space_group_name_H-M   'P 1'
_cell_length_a   6.37560400
_cell_length_b   4.51640500
_cell_length_c   9.02206800
_cell_angle_alpha   90.00000000
_cell_angle_beta   89.99998466
_cell_angle_gamma   90.00000000
_symmetry_Int_Tables_number   1
_chemical_formula_structural   ScTa7(TcOs)4
_chemical_formula_sum   'Sc1 Ta7 Tc4 Os4'
_cell_volume   259.78873191
_cell_formula_units_Z   1
loop_
 _symmetry_equiv_pos_site_id
 _symmetry_equiv_pos_as_xyz
  1  'x, y, z'
loop_
 _atom_site_type_symbol
 _atom_site_label
 _atom_site_symmetry_multiplicity
 _atom_site_fract_x
 _atom_site_fract_y
 _atom_site_fract_z
 _atom_site_occupancy
  Sc  Sc0  1  0.500428  0.749999  0.125011  1
  Ta  Ta1  1  0.999724  0.749999  0.125000  1
  Ta  Ta2  1  0.499867  0.250000  0.373537  1
  Ta  Ta3  1  0.000014  0.250000  0.373576  1
  Ta  Ta4  1  0.999831  0.749999  0.625006  1
  Ta  Ta5  1  0.499371  0.749999  0.625005  1
  Ta  Ta6  1  0.000013  0.250000  0.876422  1
  Ta  Ta7  1  0.499869  0.250000  0.876474  1
  Tc  Tc8  1  0.752411  0.250000  0.124994  1
  Tc  Tc9  1  0.248907  0.749999  0.377870  1
  Tc  Tc10  1  0.749949  0.250000  0.624987  1
  Tc  Tc11  1  0.248898  0.749999  0.872116  1
  Os  Os12  1  0.247418  0.250000  0.124992  1
  Os  Os13  1  0.751519  0.749999  0.378011  1
  Os  Os14  1  0.250255  0.250000  0.625008  1
  Os  Os15  1  0.751528  0.749999  0.871992  1
