# generated using pymatgen
data_Cs2FeNiSe4
_symmetry_space_group_name_H-M   'P 1'
_cell_length_a   7.44090971
_cell_length_b   7.44090973
_cell_length_c   5.72566385
_cell_angle_alpha   79.02911762
_cell_angle_beta   79.02911420
_cell_angle_gamma   117.59510654
_symmetry_Int_Tables_number   1
_chemical_formula_structural   Cs2FeNiSe4
_chemical_formula_sum   'Cs2 Fe1 Ni1 Se4'
_cell_volume   261.30792914
_cell_formula_units_Z   1
loop_
 _symmetry_equiv_pos_site_id
 _symmetry_equiv_pos_as_xyz
  1  'x, y, z'
loop_
 _atom_site_type_symbol
 _atom_site_label
 _atom_site_symmetry_multiplicity
 _atom_site_fract_x
 _atom_site_fract_y
 _atom_site_fract_z
 _atom_site_occupancy
  Cs  Cs0  1  0.144511  0.855489  0.000000  1
  Cs  Cs1  1  0.855412  0.144588  0.500000  1
  Fe  Fe2  1  0.498336  0.501664  0.500000  1
  Ni  Ni3  1  0.501886  0.498114  0.000000  1
  Se  Se4  1  0.216536  0.420132  0.841768  1
  Se  Se5  1  0.579868  0.783464  0.158232  1
  Se  Se6  1  0.783350  0.579899  0.657244  1
  Se  Se7  1  0.420101  0.216650  0.342756  1
