# generated using pymatgen
data_Cs16LaPaSb8
_symmetry_space_group_name_H-M   'P 1'
_cell_length_a   12.57818820
_cell_length_b   12.57818806
_cell_length_c   12.57818800
_cell_angle_alpha   59.99999490
_cell_angle_beta   59.99999528
_cell_angle_gamma   59.99999648
_symmetry_Int_Tables_number   1
_chemical_formula_structural   Cs16LaPaSb8
_chemical_formula_sum   'Cs16 La1 Pa1 Sb8'
_cell_volume   1407.14616837
_cell_formula_units_Z   1
loop_
 _symmetry_equiv_pos_site_id
 _symmetry_equiv_pos_as_xyz
  1  'x, y, z'
loop_
 _atom_site_type_symbol
 _atom_site_label
 _atom_site_symmetry_multiplicity
 _atom_site_fract_x
 _atom_site_fract_y
 _atom_site_fract_z
 _atom_site_occupancy
  Cs  Cs0  1  0.623212  0.130362  0.623212  1
  Cs  Cs1  1  0.623212  0.623212  0.130362  1
  Cs  Cs2  1  0.130362  0.623212  0.623212  1
  Cs  Cs3  1  0.623212  0.623212  0.623212  1
  Cs  Cs4  1  0.033655  0.033655  0.466345  1
  Cs  Cs5  1  0.776401  0.223599  0.223599  1
  Cs  Cs6  1  0.223599  0.776401  0.776401  1
  Cs  Cs7  1  0.776401  0.776401  0.223599  1
  Cs  Cs8  1  0.776401  0.223599  0.776401  1
  Cs  Cs9  1  0.223599  0.776401  0.223599  1
  Cs  Cs10  1  0.466345  0.033655  0.466345  1
  Cs  Cs11  1  0.466345  0.033655  0.033655  1
  Cs  Cs12  1  0.033655  0.466345  0.466345  1
  Cs  Cs13  1  0.033655  0.466345  0.033655  1
  Cs  Cs14  1  0.223599  0.223599  0.776401  1
  Cs  Cs15  1  0.466345  0.466345  0.033655  1
  La  La16  1  0.500000  0.500000  0.500000  1
  Pa  Pa17  1  0.750000  0.750000  0.750000  1
  Sb  Sb18  1  0.395820  0.812543  0.395820  1
  Sb  Sb19  1  0.847409  0.847409  0.457775  1
  Sb  Sb20  1  0.457775  0.847409  0.847409  1
  Sb  Sb21  1  0.847409  0.847409  0.847409  1
  Sb  Sb22  1  0.812543  0.395820  0.395820  1
  Sb  Sb23  1  0.395820  0.395820  0.395820  1
  Sb  Sb24  1  0.395820  0.395820  0.812543  1
  Sb  Sb25  1  0.847409  0.457775  0.847409  1
