# generated using pymatgen
data_YLu2(FeCo2)3
_symmetry_space_group_name_H-M   'P 1'
_cell_length_a   5.06970400
_cell_length_b   5.06970447
_cell_length_c   15.68026100
_cell_angle_alpha   90.00000000
_cell_angle_beta   90.00000000
_cell_angle_gamma   119.99999691
_symmetry_Int_Tables_number   1
_chemical_formula_structural   YLu2(FeCo2)3
_chemical_formula_sum   'Y2 Lu4 Fe6 Co12'
_cell_volume   349.01908828
_cell_formula_units_Z   2
loop_
 _symmetry_equiv_pos_site_id
 _symmetry_equiv_pos_as_xyz
  1  'x, y, z'
loop_
 _atom_site_type_symbol
 _atom_site_label
 _atom_site_symmetry_multiplicity
 _atom_site_fract_x
 _atom_site_fract_y
 _atom_site_fract_z
 _atom_site_occupancy
  Y  Y0  1  0.333333  0.666667  0.750000  1
  Y  Y1  1  0.666667  0.333333  0.250000  1
  Lu  Lu2  1  0.333333  0.666667  0.961857  1
  Lu  Lu3  1  0.666667  0.333333  0.038143  1
  Lu  Lu4  1  0.666667  0.333333  0.461857  1
  Lu  Lu5  1  0.333333  0.666667  0.538143  1
  Fe  Fe6  1  0.333333  0.666667  0.250000  1
  Fe  Fe7  1  0.666667  0.333333  0.750000  1
  Fe  Fe8  1  0.000000  0.000000  0.250000  1
  Fe  Fe9  1  0.000000  0.000000  0.750000  1
  Fe  Fe10  1  0.000000  0.000000  0.500000  1
  Fe  Fe11  1  0.000000  0.000000  0.000000  1
  Co  Co12  1  0.167601  0.832399  0.374483  1
  Co  Co13  1  0.167601  0.335201  0.374483  1
  Co  Co14  1  0.664799  0.832399  0.374483  1
  Co  Co15  1  0.832399  0.167601  0.625517  1
  Co  Co16  1  0.832399  0.664799  0.625517  1
  Co  Co17  1  0.335201  0.167601  0.625517  1
  Co  Co18  1  0.832399  0.167601  0.874483  1
  Co  Co19  1  0.832399  0.664799  0.874483  1
  Co  Co20  1  0.335201  0.167601  0.874483  1
  Co  Co21  1  0.167601  0.832399  0.125517  1
  Co  Co22  1  0.167601  0.335201  0.125517  1
  Co  Co23  1  0.664799  0.832399  0.125517  1
