# generated using pymatgen
data_DyTl(TcO4)6
_symmetry_space_group_name_H-M   'P 1'
_cell_length_a   10.03952200
_cell_length_b   10.03952278
_cell_length_c   6.09720100
_cell_angle_alpha   90.00000000
_cell_angle_beta   90.00000000
_cell_angle_gamma   119.99999741
_symmetry_Int_Tables_number   1
_chemical_formula_structural   DyTl(TcO4)6
_chemical_formula_sum   'Dy1 Tl1 Tc6 O24'
_cell_volume   532.21518388
_cell_formula_units_Z   1
loop_
 _symmetry_equiv_pos_site_id
 _symmetry_equiv_pos_as_xyz
  1  'x, y, z'
loop_
 _atom_site_type_symbol
 _atom_site_label
 _atom_site_symmetry_multiplicity
 _atom_site_fract_x
 _atom_site_fract_y
 _atom_site_fract_z
 _atom_site_occupancy
  Dy  Dy0  1  0.666667  0.333333  0.750000  1
  Tl  Tl1  1  0.333333  0.666667  0.250000  1
  Tc  Tc2  1  0.092235  0.395316  0.750000  1
  Tc  Tc3  1  0.390936  0.297403  0.250000  1
  Tc  Tc4  1  0.604684  0.696917  0.750000  1
  Tc  Tc5  1  0.906465  0.609064  0.250000  1
  Tc  Tc6  1  0.303083  0.907765  0.750000  1
  Tc  Tc7  1  0.702597  0.093535  0.250000  1
  O  O8  1  0.487173  0.641498  0.515813  1
  O  O9  1  0.358502  0.845676  0.515813  1
  O  O10  1  0.833021  0.730488  0.250000  1
  O  O11  1  0.109092  0.838255  0.750000  1
  O  O12  1  0.269512  0.102533  0.250000  1
  O  O13  1  0.161745  0.270837  0.750000  1
  O  O14  1  0.509444  0.352515  0.017198  1
  O  O15  1  0.897467  0.166979  0.250000  1
  O  O16  1  0.105778  0.716504  0.250000  1
  O  O17  1  0.154324  0.512827  0.984187  1
  O  O18  1  0.154324  0.512827  0.515813  1
  O  O19  1  0.892705  0.293041  0.750000  1
  O  O20  1  0.283496  0.389275  0.250000  1
  O  O21  1  0.706959  0.599664  0.750000  1
  O  O22  1  0.843073  0.490556  0.482802  1
  O  O23  1  0.400336  0.107295  0.750000  1
  O  O24  1  0.647485  0.156927  0.017198  1
  O  O25  1  0.487173  0.641498  0.984187  1
  O  O26  1  0.358502  0.845676  0.984187  1
  O  O27  1  0.647485  0.156927  0.482802  1
  O  O28  1  0.509444  0.352515  0.482802  1
  O  O29  1  0.843073  0.490556  0.017198  1
  O  O30  1  0.729163  0.890908  0.750000  1
  O  O31  1  0.610725  0.894222  0.250000  1
