# generated using pymatgen
data_Mn6Co11Si6Ni
_symmetry_space_group_name_H-M   'P 1'
_cell_length_a   3.99019300
_cell_length_b   5.65019700
_cell_length_c   11.97189000
_cell_angle_alpha   90.00000000
_cell_angle_beta   90.00117739
_cell_angle_gamma   90.00000000
_symmetry_Int_Tables_number   1
_chemical_formula_structural   Mn6Co11Si6Ni
_chemical_formula_sum   'Mn6 Co11 Si6 Ni1'
_cell_volume   269.91076765
_cell_formula_units_Z   1
loop_
 _symmetry_equiv_pos_site_id
 _symmetry_equiv_pos_as_xyz
  1  'x, y, z'
loop_
 _atom_site_type_symbol
 _atom_site_label
 _atom_site_symmetry_multiplicity
 _atom_site_fract_x
 _atom_site_fract_y
 _atom_site_fract_z
 _atom_site_occupancy
  Mn  Mn0  1  0.000000  0.503530  0.000000  1
  Mn  Mn1  1  0.499893  0.998513  0.167879  1
  Mn  Mn2  1  0.999920  0.499777  0.333448  1
  Mn  Mn3  1  0.499999  0.000165  0.500000  1
  Mn  Mn4  1  0.000080  0.499777  0.666552  1
  Mn  Mn5  1  0.500109  0.998513  0.832121  1
  Co  Co6  1  0.499999  0.749551  0.000000  1
  Co  Co7  1  0.999889  0.249922  0.165369  1
  Co  Co8  1  0.999891  0.750143  0.166445  1
  Co  Co9  1  0.499904  0.250049  0.333066  1
  Co  Co10  1  0.499904  0.750201  0.333576  1
  Co  Co11  1  0.000000  0.249933  0.500000  1
  Co  Co12  1  0.000000  0.749909  0.500000  1
  Co  Co13  1  0.500095  0.250049  0.666934  1
  Co  Co14  1  0.500095  0.750201  0.666424  1
  Co  Co15  1  0.000110  0.249922  0.834631  1
  Co  Co16  1  0.000108  0.750143  0.833555  1
  Si  Si17  1  0.000000  0.994678  0.000000  1
  Si  Si18  1  0.499887  0.502543  0.168981  1
  Si  Si19  1  0.999886  0.000069  0.333900  1
  Si  Si20  1  0.499999  0.499935  0.500000  1
  Si  Si21  1  0.000116  0.000069  0.666100  1
  Si  Si22  1  0.500112  0.502543  0.831019  1
  Ni  Ni23  1  0.499999  0.249869  0.000000  1
