# generated using pymatgen
data_Ho5Mn4(P4Ir5)3
_symmetry_space_group_name_H-M   'P 1'
_cell_length_a   12.46030600
_cell_length_b   12.52713169
_cell_length_c   3.93223900
_cell_angle_alpha   90.00000000
_cell_angle_beta   90.00000000
_cell_angle_gamma   119.84147188
_symmetry_Int_Tables_number   1
_chemical_formula_structural   Ho5Mn4(P4Ir5)3
_chemical_formula_sum   'Ho5 Mn4 P12 Ir15'
_cell_volume   532.40537518
_cell_formula_units_Z   1
loop_
 _symmetry_equiv_pos_site_id
 _symmetry_equiv_pos_as_xyz
  1  'x, y, z'
loop_
 _atom_site_type_symbol
 _atom_site_label
 _atom_site_symmetry_multiplicity
 _atom_site_fract_x
 _atom_site_fract_y
 _atom_site_fract_z
 _atom_site_occupancy
  Ho  Ho0  1  0.672470  0.335446  0.000000  1
  Ho  Ho1  1  0.331357  0.665503  0.000000  1
  Ho  Ho2  1  0.816225  0.816129  0.500000  1
  Ho  Ho3  1  0.182564  0.000269  0.500000  1
  Ho  Ho4  1  0.998835  0.184005  0.500000  1
  Mn  Mn5  1  0.291952  0.292278  0.500000  1
  Mn  Mn6  1  0.707870  0.000105  0.500000  1
  Mn  Mn7  1  0.997635  0.706625  0.500000  1
  Mn  Mn8  1  0.876718  0.359882  0.500000  1
  P  P9  1  0.699480  0.177194  0.500000  1
  P  P10  1  0.839340  0.514541  0.500000  1
  P  P11  1  0.478622  0.311631  0.500000  1
  P  P12  1  0.164663  0.688424  0.500000  1
  P  P13  1  0.523345  0.835008  0.500000  1
  P  P14  1  0.309149  0.476303  0.500000  1
  P  P15  1  0.640539  0.639881  0.000000  1
  P  P16  1  0.360498  0.000965  0.000000  1
  P  P17  1  0.990329  0.360088  0.000000  1
  P  P18  1  0.181958  0.183375  0.000000  1
  P  P19  1  0.816468  0.999284  0.000000  1
  P  P20  1  0.997842  0.816786  0.000000  1
  Ir  Ir21  1  0.801846  0.177014  0.000000  1
  Ir  Ir22  1  0.819564  0.625668  0.000000  1
  Ir  Ir23  1  0.376067  0.196695  0.000000  1
  Ir  Ir24  1  0.178981  0.806036  0.000000  1
  Ir  Ir25  1  0.624068  0.819528  0.000000  1
  Ir  Ir26  1  0.191151  0.373350  0.000000  1
  Ir  Ir27  1  0.453278  0.453713  0.000000  1
  Ir  Ir28  1  0.545189  0.998523  0.000000  1
  Ir  Ir29  1  0.999280  0.548682  0.000000  1
  Ir  Ir30  1  0.640513  0.506988  0.500000  1
  Ir  Ir31  1  0.495196  0.131417  0.500000  1
  Ir  Ir32  1  0.360562  0.869046  0.500000  1
  Ir  Ir33  1  0.508448  0.637810  0.500000  1
  Ir  Ir34  1  0.127621  0.491223  0.500000  1
  Ir  Ir35  1  0.000374  0.000581  0.000000  1
