# generated using pymatgen
data_Lu2AlZnNi2
_symmetry_space_group_name_H-M   'P 1'
_cell_length_a   4.03516200
_cell_length_b   6.60344654
_cell_length_c   7.71824885
_cell_angle_alpha   89.58938478
_cell_angle_beta   90.00000000
_cell_angle_gamma   90.00000000
_symmetry_Int_Tables_number   1
_chemical_formula_structural   Lu2AlZnNi2
_chemical_formula_sum   'Lu4 Al2 Zn2 Ni4'
_cell_volume   205.65499661
_cell_formula_units_Z   2
loop_
 _symmetry_equiv_pos_site_id
 _symmetry_equiv_pos_as_xyz
  1  'x, y, z'
loop_
 _atom_site_type_symbol
 _atom_site_label
 _atom_site_symmetry_multiplicity
 _atom_site_fract_x
 _atom_site_fract_y
 _atom_site_fract_z
 _atom_site_occupancy
  Lu  Lu0  1  0.250000  0.537337  0.176588  1
  Lu  Lu1  1  0.750000  0.462663  0.823412  1
  Lu  Lu2  1  0.750000  0.966630  0.685198  1
  Lu  Lu3  1  0.250000  0.033370  0.314802  1
  Al  Al4  1  0.250000  0.638381  0.559206  1
  Al  Al5  1  0.750000  0.361619  0.440794  1
  Zn  Zn6  1  0.750000  0.860900  0.059459  1
  Zn  Zn7  1  0.250000  0.139100  0.940541  1
  Ni  Ni8  1  0.250000  0.755841  0.869177  1
  Ni  Ni9  1  0.750000  0.244159  0.130823  1
  Ni  Ni10  1  0.750000  0.734587  0.383686  1
  Ni  Ni11  1  0.250000  0.265413  0.616314  1
