# generated using pymatgen
data_BaIn3Ag2Pt
_symmetry_space_group_name_H-M   'P 1'
_cell_length_a   4.69825300
_cell_length_b   7.76850400
_cell_length_c   9.39364300
_cell_angle_alpha   90.00000000
_cell_angle_beta   90.00000000
_cell_angle_gamma   90.00000000
_symmetry_Int_Tables_number   1
_chemical_formula_structural   BaIn3Ag2Pt
_chemical_formula_sum   'Ba2 In6 Ag4 Pt2'
_cell_volume   342.85291359
_cell_formula_units_Z   2
loop_
 _symmetry_equiv_pos_site_id
 _symmetry_equiv_pos_as_xyz
  1  'x, y, z'
loop_
 _atom_site_type_symbol
 _atom_site_label
 _atom_site_symmetry_multiplicity
 _atom_site_fract_x
 _atom_site_fract_y
 _atom_site_fract_z
 _atom_site_occupancy
  Ba  Ba0  1  0.500000  0.000000  0.745753  1
  Ba  Ba1  1  0.000000  0.500000  0.254247  1
  In  In2  1  0.000000  0.303797  0.889953  1
  In  In3  1  0.500000  0.196203  0.110047  1
  In  In4  1  0.000000  0.696203  0.889953  1
  In  In5  1  0.000000  0.000000  0.350381  1
  In  In6  1  0.500000  0.803797  0.110047  1
  In  In7  1  0.500000  0.500000  0.649619  1
  Ag  Ag8  1  0.000000  0.718220  0.582258  1
  Ag  Ag9  1  0.500000  0.781780  0.417742  1
  Ag  Ag10  1  0.500000  0.218220  0.417742  1
  Ag  Ag11  1  0.000000  0.281780  0.582258  1
  Pt  Pt12  1  0.500000  0.500000  0.948848  1
  Pt  Pt13  1  0.000000  0.000000  0.051152  1
