# generated using pymatgen
data_Zr4Al17ZnIr6
_symmetry_space_group_name_H-M   'P 1'
_cell_length_a   7.45589616
_cell_length_b   7.45589622
_cell_length_c   9.29990200
_cell_angle_alpha   90.00000000
_cell_angle_beta   90.00000000
_cell_angle_gamma   119.64049175
_symmetry_Int_Tables_number   1
_chemical_formula_structural   Zr4Al17ZnIr6
_chemical_formula_sum   'Zr4 Al17 Zn1 Ir6'
_cell_volume   449.33539691
_cell_formula_units_Z   1
loop_
 _symmetry_equiv_pos_site_id
 _symmetry_equiv_pos_as_xyz
  1  'x, y, z'
loop_
 _atom_site_type_symbol
 _atom_site_label
 _atom_site_symmetry_multiplicity
 _atom_site_fract_x
 _atom_site_fract_y
 _atom_site_fract_z
 _atom_site_occupancy
  Zr  Zr0  1  0.993638  0.673009  0.250000  1
  Zr  Zr1  1  0.006083  0.328659  0.750000  1
  Zr  Zr2  1  0.673009  0.993637  0.250000  1
  Zr  Zr3  1  0.328659  0.006084  0.750000  1
  Al  Al4  1  0.874096  0.874096  0.750000  1
  Al  Al5  1  0.999046  0.332077  0.078499  1
  Al  Al6  1  0.001694  0.664846  0.923910  1
  Al  Al7  1  0.001694  0.664846  0.576090  1
  Al  Al8  1  0.332078  0.999046  0.421501  1
  Al  Al9  1  0.999046  0.332077  0.421501  1
  Al  Al10  1  0.664846  0.001694  0.576090  1
  Al  Al11  1  0.664846  0.001694  0.923910  1
  Al  Al12  1  0.332078  0.999046  0.078499  1
  Al  Al13  1  0.332020  0.332020  0.557259  1
  Al  Al14  1  0.668327  0.668327  0.441057  1
  Al  Al15  1  0.668327  0.668327  0.058943  1
  Al  Al16  1  0.332020  0.332020  0.942741  1
  Al  Al17  1  0.338212  0.550921  0.250000  1
  Al  Al18  1  0.661217  0.447212  0.750000  1
  Al  Al19  1  0.550921  0.338212  0.250000  1
  Al  Al20  1  0.447212  0.661217  0.750000  1
  Zn  Zn21  1  0.132500  0.132500  0.250000  1
  Ir  Ir22  1  0.672879  0.327622  0.000229  1
  Ir  Ir23  1  0.327621  0.672879  0.000229  1
  Ir  Ir24  1  0.327621  0.672879  0.499771  1
  Ir  Ir25  1  0.672879  0.327622  0.499771  1
  Ir  Ir26  1  0.998716  0.998716  0.995422  1
  Ir  Ir27  1  0.998716  0.998716  0.504578  1
