# generated using pymatgen
data_Tb8In2CoPd
_symmetry_space_group_name_H-M   'P 1'
_cell_length_a   9.67641335
_cell_length_b   9.68508831
_cell_length_c   9.68508802
_cell_angle_alpha   60.17153174
_cell_angle_beta   60.02962438
_cell_angle_gamma   60.02962802
_symmetry_Int_Tables_number   1
_chemical_formula_structural   Tb8In2CoPd
_chemical_formula_sum   'Tb16 In4 Co2 Pd2'
_cell_volume   642.92637924
_cell_formula_units_Z   2
loop_
 _symmetry_equiv_pos_site_id
 _symmetry_equiv_pos_as_xyz
  1  'x, y, z'
loop_
 _atom_site_type_symbol
 _atom_site_label
 _atom_site_symmetry_multiplicity
 _atom_site_fract_x
 _atom_site_fract_y
 _atom_site_fract_z
 _atom_site_occupancy
  Tb  Tb0  1  0.439782  0.439739  0.050624  1
  Tb  Tb1  1  0.587928  0.601301  0.601301  1
  Tb  Tb2  1  0.185198  0.814802  0.814802  1
  Tb  Tb3  1  0.069856  0.050624  0.439739  1
  Tb  Tb4  1  0.438670  0.061330  0.061330  1
  Tb  Tb5  1  0.810744  0.189066  0.814778  1
  Tb  Tb6  1  0.439782  0.050624  0.439739  1
  Tb  Tb7  1  0.595753  0.196348  0.612146  1
  Tb  Tb8  1  0.810744  0.814778  0.189066  1
  Tb  Tb9  1  0.209471  0.601301  0.601301  1
  Tb  Tb10  1  0.809826  0.190174  0.190174  1
  Tb  Tb11  1  0.059552  0.440448  0.440448  1
  Tb  Tb12  1  0.185413  0.814778  0.189066  1
  Tb  Tb13  1  0.595753  0.612146  0.196348  1
  Tb  Tb14  1  0.185413  0.189066  0.814778  1
  Tb  Tb15  1  0.069856  0.439739  0.050624  1
  In  In16  1  0.832643  0.829766  0.504948  1
  In  In17  1  0.834576  0.831813  0.831813  1
  In  In18  1  0.501798  0.831813  0.831813  1
  In  In19  1  0.832643  0.504948  0.829766  1
  Co  Co20  1  0.392801  0.824665  0.389735  1
  Co  Co21  1  0.392801  0.389735  0.824665  1
  Pd  Pd22  1  0.397321  0.390500  0.390500  1
  Pd  Pd23  1  0.821678  0.390500  0.390500  1
