# generated using pymatgen
data_Cs2Li3NiO4
_symmetry_space_group_name_H-M   'P 1'
_cell_length_a   8.19219850
_cell_length_b   8.19219741
_cell_length_c   8.19219815
_cell_angle_alpha   144.11385455
_cell_angle_beta   104.31639671
_cell_angle_gamma   86.70598314
_symmetry_Int_Tables_number   1
_chemical_formula_structural   Cs2Li3NiO4
_chemical_formula_sum   'Cs4 Li6 Ni2 O8'
_cell_volume   302.22690921
_cell_formula_units_Z   2
loop_
 _symmetry_equiv_pos_site_id
 _symmetry_equiv_pos_as_xyz
  1  'x, y, z'
loop_
 _atom_site_type_symbol
 _atom_site_label
 _atom_site_symmetry_multiplicity
 _atom_site_fract_x
 _atom_site_fract_y
 _atom_site_fract_z
 _atom_site_occupancy
  Cs  Cs0  1  0.373310  0.241045  0.614355  1
  Cs  Cs1  1  0.626690  0.758955  0.385645  1
  Cs  Cs2  1  0.873310  0.258955  0.132265  1
  Cs  Cs3  1  0.126690  0.741045  0.867735  1
  Li  Li4  1  0.492941  0.750000  0.742941  1
  Li  Li5  1  0.992941  0.250000  0.742941  1
  Li  Li6  1  0.007059  0.750000  0.257059  1
  Li  Li7  1  0.250000  0.750000  0.500000  1
  Li  Li8  1  0.507059  0.250000  0.257059  1
  Li  Li9  1  0.750000  0.250000  0.500000  1
  Ni  Ni10  1  0.750000  0.750000  0.000000  1
  Ni  Ni11  1  0.250000  0.250000  0.000000  1
  O  O12  1  0.058088  0.943232  0.648871  1
  O  O13  1  0.205640  0.556768  0.114856  1
  O  O14  1  0.794360  0.443232  0.885144  1
  O  O15  1  0.558088  0.909216  0.114856  1
  O  O16  1  0.941912  0.056768  0.351129  1
  O  O17  1  0.705640  0.590784  0.648871  1
  O  O18  1  0.441912  0.090784  0.885144  1
  O  O19  1  0.294360  0.409216  0.351129  1
