# generated using pymatgen
data_LiSc4Ti(B2Rh5)2
_symmetry_space_group_name_H-M   'P 1'
_cell_length_a   3.07018700
_cell_length_b   9.37910300
_cell_length_c   9.37910300
_cell_angle_alpha   90.00000000
_cell_angle_beta   90.00000000
_cell_angle_gamma   90.00000000
_symmetry_Int_Tables_number   1
_chemical_formula_structural   LiSc4Ti(B2Rh5)2
_chemical_formula_sum   'Li1 Sc4 Ti1 B4 Rh10'
_cell_volume   270.07689931
_cell_formula_units_Z   1
loop_
 _symmetry_equiv_pos_site_id
 _symmetry_equiv_pos_as_xyz
  1  'x, y, z'
loop_
 _atom_site_type_symbol
 _atom_site_label
 _atom_site_symmetry_multiplicity
 _atom_site_fract_x
 _atom_site_fract_y
 _atom_site_fract_z
 _atom_site_occupancy
  Li  Li0  1  0.000000  0.500000  0.000000  1
  Sc  Sc1  1  0.000000  0.178123  0.172223  1
  Sc  Sc2  1  0.000000  0.672223  0.321877  1
  Sc  Sc3  1  0.000000  0.327777  0.678123  1
  Sc  Sc4  1  0.000000  0.821877  0.827777  1
  Ti  Ti5  1  0.000000  0.000000  0.500000  1
  B  B6  1  0.000000  0.867097  0.117594  1
  B  B7  1  0.000000  0.382406  0.367099  1
  B  B8  1  0.000000  0.617595  0.632902  1
  B  B9  1  0.000000  0.132901  0.882404  1
  Rh  Rh10  1  0.500000  0.000000  0.000000  1
  Rh  Rh11  1  0.500000  0.715187  0.070599  1
  Rh  Rh12  1  0.500000  0.429400  0.215188  1
  Rh  Rh13  1  0.500000  0.929733  0.282490  1
  Rh  Rh14  1  0.500000  0.217510  0.429732  1
  Rh  Rh15  1  0.500000  0.500000  0.500000  1
  Rh  Rh16  1  0.500000  0.782490  0.570267  1
  Rh  Rh17  1  0.500000  0.070267  0.717509  1
  Rh  Rh18  1  0.500000  0.570599  0.784812  1
  Rh  Rh19  1  0.500000  0.284812  0.929401  1
