# generated using pymatgen
data_Tb7YTi7Si16Mo5
_symmetry_space_group_name_H-M   'P 1'
_cell_length_a   6.81587176
_cell_length_b   7.01293588
_cell_length_c   13.23289308
_cell_angle_alpha   89.95403961
_cell_angle_beta   89.96284281
_cell_angle_gamma   90.04762079
_symmetry_Int_Tables_number   1
_chemical_formula_structural   Tb7YTi7Si16Mo5
_chemical_formula_sum   'Tb7 Y1 Ti7 Si16 Mo5'
_cell_volume   632.52209453
_cell_formula_units_Z   1
loop_
 _symmetry_equiv_pos_site_id
 _symmetry_equiv_pos_as_xyz
  1  'x, y, z'
loop_
 _atom_site_type_symbol
 _atom_site_label
 _atom_site_symmetry_multiplicity
 _atom_site_fract_x
 _atom_site_fract_y
 _atom_site_fract_z
 _atom_site_occupancy
  Tb  Tb0  1  0.497562  0.328467  0.096519  1
  Tb  Tb1  1  0.502880  0.669485  0.597254  1
  Tb  Tb2  1  0.001957  0.829478  0.903167  1
  Tb  Tb3  1  0.002922  0.829580  0.597645  1
  Tb  Tb4  1  0.502494  0.670278  0.904873  1
  Tb  Tb5  1  0.496008  0.331042  0.401335  1
  Tb  Tb6  1  0.998965  0.168967  0.096092  1
  Y  Y7  1  0.997689  0.169443  0.402669  1
  Ti  Ti8  1  0.833479  0.675547  0.371221  1
  Ti  Ti9  1  0.666415  0.173499  0.627082  1
  Ti  Ti10  1  0.165703  0.325759  0.874439  1
  Ti  Ti11  1  0.165442  0.326682  0.627035  1
  Ti  Ti12  1  0.665101  0.171930  0.873950  1
  Ti  Ti13  1  0.837966  0.674063  0.126435  1
  Ti  Ti14  1  0.333108  0.826049  0.372610  1
  Si  Si15  1  0.341219  0.040888  0.543561  1
  Si  Si16  1  0.840929  0.460024  0.956604  1
  Si  Si17  1  0.656387  0.959633  0.044793  1
  Si  Si18  1  0.157876  0.540859  0.456269  1
  Si  Si19  1  0.162381  0.541705  0.043978  1
  Si  Si20  1  0.657707  0.960099  0.456260  1
  Si  Si21  1  0.841696  0.459282  0.543745  1
  Si  Si22  1  0.338447  0.040950  0.958149  1
  Si  Si23  1  0.800043  0.378106  0.248873  1
  Si  Si24  1  0.301868  0.120602  0.249716  1
  Si  Si25  1  0.699657  0.877261  0.750226  1
  Si  Si26  1  0.201221  0.622083  0.750755  1
  Si  Si27  1  0.039933  0.873123  0.249683  1
  Si  Si28  1  0.536507  0.630139  0.247750  1
  Si  Si29  1  0.461332  0.370808  0.750760  1
  Si  Si30  1  0.961901  0.127978  0.750537  1
  Mo  Mo31  1  0.332520  0.828265  0.126362  1
  Mo  Mo32  1  0.336791  0.009027  0.750346  1
  Mo  Mo33  1  0.664477  0.988690  0.249577  1
  Mo  Mo34  1  0.161182  0.511838  0.249446  1
  Mo  Mo35  1  0.838234  0.488373  0.750287  1
