# generated using pymatgen
data_Dy5(YTe4)3
_symmetry_space_group_name_H-M   'P 1'
_cell_length_a   14.51764090
_cell_length_b   13.84160733
_cell_length_c   7.56130165
_cell_angle_alpha   79.54015466
_cell_angle_beta   69.65067102
_cell_angle_gamma   30.80665559
_symmetry_Int_Tables_number   1
_chemical_formula_structural   Dy5(YTe4)3
_chemical_formula_sum   'Dy5 Y3 Te12'
_cell_volume   707.55787880
_cell_formula_units_Z   1
loop_
 _symmetry_equiv_pos_site_id
 _symmetry_equiv_pos_as_xyz
  1  'x, y, z'
loop_
 _atom_site_type_symbol
 _atom_site_label
 _atom_site_symmetry_multiplicity
 _atom_site_fract_x
 _atom_site_fract_y
 _atom_site_fract_z
 _atom_site_occupancy
  Dy  Dy0  1  0.082733  0.082733  0.917267  1
  Dy  Dy1  1  0.999791  0.999791  0.500209  1
  Dy  Dy2  1  0.500212  0.500212  0.999788  1
  Dy  Dy3  1  0.250213  0.250213  0.749787  1
  Dy  Dy4  1  0.749789  0.749789  0.250211  1
  Y  Y5  1  0.332735  0.332735  0.167265  1
  Y  Y6  1  0.167277  0.167277  0.332723  1
  Y  Y7  1  0.917254  0.917254  0.082746  1
  Te  Te8  1  0.998679  0.501319  0.501392  1
  Te  Te9  1  0.501319  0.998679  0.998609  1
  Te  Te10  1  0.251252  0.748829  0.748669  1
  Te  Te11  1  0.748829  0.251252  0.251250  1
  Te  Te12  1  0.665731  0.168896  0.833890  1
  Te  Te13  1  0.833977  0.331395  0.665864  1
  Te  Te14  1  0.331395  0.833977  0.168764  1
  Te  Te15  1  0.168896  0.665731  0.331484  1
  Te  Te16  1  0.584260  0.081114  0.416109  1
  Te  Te17  1  0.415965  0.918579  0.584376  1
  Te  Te18  1  0.918579  0.415965  0.081080  1
  Te  Te19  1  0.081114  0.584260  0.918517  1
