# generated using pymatgen
data_KTiIO6
_symmetry_space_group_name_H-M   'P 1'
_cell_length_a   5.23116800
_cell_length_b   5.23116767
_cell_length_c   12.17273200
_cell_angle_alpha   90.00000000
_cell_angle_beta   90.00000000
_cell_angle_gamma   120.00000208
_symmetry_Int_Tables_number   1
_chemical_formula_structural   KTiIO6
_chemical_formula_sum   'K2 Ti2 I2 O12'
_cell_volume   288.48018723
_cell_formula_units_Z   2
loop_
 _symmetry_equiv_pos_site_id
 _symmetry_equiv_pos_as_xyz
  1  'x, y, z'
loop_
 _atom_site_type_symbol
 _atom_site_label
 _atom_site_symmetry_multiplicity
 _atom_site_fract_x
 _atom_site_fract_y
 _atom_site_fract_z
 _atom_site_occupancy
  K  K0  1  0.666667  0.333333  0.250000  1
  K  K1  1  0.666667  0.333333  0.750000  1
  Ti  Ti2  1  0.333333  0.666667  0.500000  1
  Ti  Ti3  1  0.333333  0.666667  0.000000  1
  I  I4  1  0.000000  0.000000  0.000000  1
  I  I5  1  0.000000  0.000000  0.500000  1
  O  O6  1  0.048666  0.322090  0.410707  1
  O  O7  1  0.048666  0.322090  0.910707  1
  O  O8  1  0.273424  0.951334  0.410707  1
  O  O9  1  0.273424  0.951334  0.910707  1
  O  O10  1  0.273424  0.322090  0.089293  1
  O  O11  1  0.273424  0.322090  0.589293  1
  O  O12  1  0.677910  0.726576  0.410707  1
  O  O13  1  0.677910  0.726576  0.910707  1
  O  O14  1  0.677910  0.951334  0.089293  1
  O  O15  1  0.677910  0.951334  0.589293  1
  O  O16  1  0.048666  0.726576  0.089293  1
  O  O17  1  0.048666  0.726576  0.589293  1
