# generated using pymatgen
data_Ca2La7TmSi8O3
_symmetry_space_group_name_H-M   'P 1'
_cell_length_a   10.77042700
_cell_length_b   10.73456401
_cell_length_c   4.57302400
_cell_angle_alpha   90.00000000
_cell_angle_beta   90.00000000
_cell_angle_gamma   120.11058050
_symmetry_Int_Tables_number   1
_chemical_formula_structural   Ca2La7TmSi8O3
_chemical_formula_sum   'Ca2 La7 Tm1 Si8 O3'
_cell_volume   457.36869725
_cell_formula_units_Z   1
loop_
 _symmetry_equiv_pos_site_id
 _symmetry_equiv_pos_as_xyz
  1  'x, y, z'
loop_
 _atom_site_type_symbol
 _atom_site_label
 _atom_site_symmetry_multiplicity
 _atom_site_fract_x
 _atom_site_fract_y
 _atom_site_fract_z
 _atom_site_occupancy
  Ca  Ca0  1  0.000000  0.500000  0.500000  1
  Ca  Ca1  1  0.500000  0.500000  0.500000  1
  La  La2  1  0.208240  0.783722  0.000000  1
  La  La3  1  0.575481  0.783722  0.000000  1
  La  La4  1  0.786883  0.573765  0.000000  1
  La  La5  1  0.000000  0.000000  0.000000  1
  La  La6  1  0.213117  0.426235  0.000000  1
  La  La7  1  0.424519  0.216278  0.000000  1
  La  La8  1  0.791760  0.216278  0.000000  1
  Tm  Tm9  1  0.500000  0.000000  0.500000  1
  Si  Si10  1  0.000095  0.781361  0.500000  1
  Si  Si11  1  0.999905  0.218639  0.500000  1
  Si  Si12  1  0.218735  0.218639  0.500000  1
  Si  Si13  1  0.776721  0.000000  0.500000  1
  Si  Si14  1  0.337731  0.675464  0.500000  1
  Si  Si15  1  0.223279  0.000000  0.500000  1
  Si  Si16  1  0.662269  0.324536  0.500000  1
  Si  Si17  1  0.781265  0.781361  0.500000  1
  O  O18  1  0.000000  0.500000  0.000000  1
  O  O19  1  0.500000  0.500000  0.000000  1
  O  O20  1  0.500000  0.000000  0.000000  1
