# generated using pymatgen
data_Ho2Er3LuGaCo2
_symmetry_space_group_name_H-M   'P 1'
_cell_length_a   8.18560146
_cell_length_b   8.18560195
_cell_length_c   8.18560111
_cell_angle_alpha   106.89637365
_cell_angle_beta   109.36218589
_cell_angle_gamma   112.19871457
_symmetry_Int_Tables_number   1
_chemical_formula_structural   Ho2Er3LuGaCo2
_chemical_formula_sum   'Ho4 Er6 Lu2 Ga2 Co4'
_cell_volume   421.30425116
_cell_formula_units_Z   2
loop_
 _symmetry_equiv_pos_site_id
 _symmetry_equiv_pos_as_xyz
  1  'x, y, z'
loop_
 _atom_site_type_symbol
 _atom_site_label
 _atom_site_symmetry_multiplicity
 _atom_site_fract_x
 _atom_site_fract_y
 _atom_site_fract_z
 _atom_site_occupancy
  Ho  Ho0  1  0.698768  0.261859  0.960842  1
  Ho  Ho1  1  0.301016  0.737926  0.039158  1
  Ho  Ho2  1  0.698768  0.737926  0.436912  1
  Ho  Ho3  1  0.301016  0.261859  0.563088  1
  Er  Er4  1  0.189221  0.862477  0.673256  1
  Er  Er5  1  0.189221  0.515966  0.326744  1
  Er  Er6  1  0.601834  0.781330  0.820504  1
  Er  Er7  1  0.960825  0.781330  0.179496  1
  Er  Er8  1  0.037956  0.218892  0.819064  1
  Er  Er9  1  0.399828  0.218892  0.180936  1
  Lu  Lu10  1  0.811237  0.138641  0.327404  1
  Lu  Lu11  1  0.811237  0.483833  0.672596  1
  Ga  Ga12  1  0.500010  0.500010  0.000000  1
  Ga  Ga13  1  0.500836  0.000836  0.500000  1
  Co  Co14  1  0.841398  0.499240  0.342158  1
  Co  Co15  1  0.157083  0.499240  0.657842  1
  Co  Co16  1  0.999872  0.115622  0.115750  1
  Co  Co17  1  0.999872  0.884122  0.884250  1
