# generated using pymatgen
data_Pr2Sm4RuI10
_symmetry_space_group_name_H-M   'P 1'
_cell_length_a   7.95830576
_cell_length_b   9.92408653
_cell_length_c   10.01733610
_cell_angle_alpha   107.07817741
_cell_angle_beta   96.48147781
_cell_angle_gamma   104.94590748
_symmetry_Int_Tables_number   1
_chemical_formula_structural   Pr2Sm4RuI10
_chemical_formula_sum   'Pr2 Sm4 Ru1 I10'
_cell_volume   715.28600605
_cell_formula_units_Z   1
loop_
 _symmetry_equiv_pos_site_id
 _symmetry_equiv_pos_as_xyz
  1  'x, y, z'
loop_
 _atom_site_type_symbol
 _atom_site_label
 _atom_site_symmetry_multiplicity
 _atom_site_fract_x
 _atom_site_fract_y
 _atom_site_fract_z
 _atom_site_occupancy
  Pr  Pr0  1  0.117606  0.043806  0.759447  1
  Pr  Pr1  1  0.882394  0.956194  0.240553  1
  Sm  Sm2  1  0.968647  0.279936  0.082614  1
  Sm  Sm3  1  0.647006  0.872807  0.832285  1
  Sm  Sm4  1  0.352994  0.127193  0.167715  1
  Sm  Sm5  1  0.031353  0.720064  0.917386  1
  Ru  Ru6  1  0.000000  0.000000  0.000000  1
  I  I7  1  0.347004  0.448207  0.270061  1
  I  I8  1  0.652996  0.551793  0.729939  1
  I  I9  1  0.736709  0.911836  0.543257  1
  I  I10  1  0.084605  0.374001  0.823656  1
  I  I11  1  0.915395  0.625999  0.176344  1
  I  I12  1  0.449482  0.815650  0.088717  1
  I  I13  1  0.550518  0.184350  0.911283  1
  I  I14  1  0.780716  0.260640  0.342975  1
  I  I15  1  0.219284  0.739360  0.657025  1
  I  I16  1  0.263291  0.088164  0.456743  1
