# generated using pymatgen
data_La2Er2TmPt4
_symmetry_space_group_name_H-M   'P 1'
_cell_length_a   7.67331500
_cell_length_b   7.79993400
_cell_length_c   14.63717800
_cell_angle_alpha   90.00000000
_cell_angle_beta   90.00000000
_cell_angle_gamma   90.00000000
_symmetry_Int_Tables_number   1
_chemical_formula_structural   La2Er2TmPt4
_chemical_formula_sum   'La8 Er8 Tm4 Pt16'
_cell_volume   876.05487170
_cell_formula_units_Z   4
loop_
 _symmetry_equiv_pos_site_id
 _symmetry_equiv_pos_as_xyz
  1  'x, y, z'
loop_
 _atom_site_type_symbol
 _atom_site_label
 _atom_site_symmetry_multiplicity
 _atom_site_fract_x
 _atom_site_fract_y
 _atom_site_fract_z
 _atom_site_occupancy
  La  La0  1  0.513078  0.325564  0.901634  1
  La  La1  1  0.013078  0.174436  0.598366  1
  La  La2  1  0.486922  0.674436  0.401634  1
  La  La3  1  0.986922  0.825564  0.098366  1
  La  La4  1  0.486922  0.674436  0.098366  1
  La  La5  1  0.986922  0.825564  0.401634  1
  La  La6  1  0.513078  0.325564  0.598366  1
  La  La7  1  0.013078  0.174436  0.901634  1
  Er  Er8  1  0.354087  0.834949  0.876602  1
  Er  Er9  1  0.854087  0.665051  0.623398  1
  Er  Er10  1  0.645913  0.165051  0.376602  1
  Er  Er11  1  0.145913  0.334949  0.123398  1
  Er  Er12  1  0.645913  0.165051  0.123398  1
  Er  Er13  1  0.145913  0.334949  0.376602  1
  Er  Er14  1  0.354087  0.834949  0.623398  1
  Er  Er15  1  0.854087  0.665051  0.876602  1
  Tm  Tm16  1  0.192635  0.497901  0.750000  1
  Tm  Tm17  1  0.692635  0.002099  0.750000  1
  Tm  Tm18  1  0.807365  0.502099  0.250000  1
  Tm  Tm19  1  0.307365  0.997901  0.250000  1
  Pt  Pt20  1  0.315173  0.036967  0.045610  1
  Pt  Pt21  1  0.815173  0.463033  0.454390  1
  Pt  Pt22  1  0.684827  0.963033  0.545610  1
  Pt  Pt23  1  0.184827  0.536967  0.954390  1
  Pt  Pt24  1  0.684827  0.963033  0.954390  1
  Pt  Pt25  1  0.184827  0.536967  0.545610  1
  Pt  Pt26  1  0.315173  0.036967  0.454390  1
  Pt  Pt27  1  0.815173  0.463033  0.045610  1
  Pt  Pt28  1  0.559532  0.631437  0.750000  1
  Pt  Pt29  1  0.059532  0.868563  0.750000  1
  Pt  Pt30  1  0.440468  0.368563  0.250000  1
  Pt  Pt31  1  0.940468  0.131437  0.250000  1
  Pt  Pt32  1  0.327263  0.135192  0.750000  1
  Pt  Pt33  1  0.827263  0.364808  0.750000  1
  Pt  Pt34  1  0.672737  0.864808  0.250000  1
  Pt  Pt35  1  0.172737  0.635192  0.250000  1
