# generated using pymatgen
data_La9PrIrRu3
_symmetry_space_group_name_H-M   'P 1'
_cell_length_a   9.13616883
_cell_length_b   9.18800141
_cell_length_c   7.38347003
_cell_angle_alpha   85.14216689
_cell_angle_beta   85.22417538
_cell_angle_gamma   42.93751999
_symmetry_Int_Tables_number   1
_chemical_formula_structural   La9PrIrRu3
_chemical_formula_sum   'La9 Pr1 Ir1 Ru3'
_cell_volume   420.47927778
_cell_formula_units_Z   1
loop_
 _symmetry_equiv_pos_site_id
 _symmetry_equiv_pos_as_xyz
  1  'x, y, z'
loop_
 _atom_site_type_symbol
 _atom_site_label
 _atom_site_symmetry_multiplicity
 _atom_site_fract_x
 _atom_site_fract_y
 _atom_site_fract_z
 _atom_site_occupancy
  La  La0  1  0.010640  0.806466  0.914546  1
  La  La1  1  0.198350  0.986929  0.591924  1
  La  La2  1  0.989123  0.195747  0.093803  1
  La  La3  1  0.800612  0.016305  0.406222  1
  La  La4  1  0.362135  0.209563  0.817776  1
  La  La5  1  0.787255  0.640242  0.682315  1
  La  La6  1  0.641321  0.786601  0.182508  1
  La  La7  1  0.211720  0.357199  0.316126  1
  La  La8  1  0.571448  0.428963  0.749467  1
  Pr  Pr9  1  0.426381  0.574710  0.249318  1
  Ir  Ir10  1  0.175171  0.596648  0.579623  1
  Ru  Ru11  1  0.392713  0.832178  0.915098  1
  Ru  Ru12  1  0.830616  0.396780  0.421869  1
  Ru  Ru13  1  0.602515  0.171671  0.079404  1
