# generated using pymatgen
data_Zr6Sc3(In2Rh)7
_symmetry_space_group_name_H-M   'P 1'
_cell_length_a   9.67239163
_cell_length_b   9.67239278
_cell_length_c   9.65083000
_cell_angle_alpha   60.07371767
_cell_angle_beta   60.07371376
_cell_angle_gamma   60.07844196
_symmetry_Int_Tables_number   1
_chemical_formula_structural   Zr6Sc3(In2Rh)7
_chemical_formula_sum   'Zr6 Sc3 In14 Rh7'
_cell_volume   639.52545526
_cell_formula_units_Z   1
loop_
 _symmetry_equiv_pos_site_id
 _symmetry_equiv_pos_as_xyz
  1  'x, y, z'
loop_
 _atom_site_type_symbol
 _atom_site_label
 _atom_site_symmetry_multiplicity
 _atom_site_fract_x
 _atom_site_fract_y
 _atom_site_fract_z
 _atom_site_occupancy
  Zr  Zr0  1  0.879188  0.873108  0.877575  1
  Zr  Zr1  1  0.629150  0.123084  0.123884  1
  Zr  Zr2  1  0.879188  0.873108  0.370128  1
  Zr  Zr3  1  0.126892  0.120812  0.122425  1
  Zr  Zr4  1  0.876916  0.370850  0.876116  1
  Zr  Zr5  1  0.126892  0.120812  0.629872  1
  Sc  Sc6  1  0.124854  0.634459  0.120343  1
  Sc  Sc7  1  0.365541  0.875146  0.879657  1
  Sc  Sc8  1  0.497605  0.502395  0.500000  1
  In  In9  1  0.502590  0.842583  0.151919  1
  In  In10  1  0.502590  0.842583  0.502909  1
  In  In11  1  0.499504  0.156018  0.500103  1
  In  In12  1  0.499364  0.500636  0.844388  1
  In  In13  1  0.157417  0.497410  0.497091  1
  In  In14  1  0.844065  0.155935  0.500000  1
  In  In15  1  0.153850  0.846150  0.500000  1
  In  In16  1  0.499504  0.156018  0.844375  1
  In  In17  1  0.157417  0.497410  0.848081  1
  In  In18  1  0.499364  0.500636  0.155612  1
  In  In19  1  0.843982  0.500496  0.499897  1
  In  In20  1  0.843982  0.500496  0.155625  1
  In  In21  1  0.247274  0.254484  0.249121  1
  In  In22  1  0.745516  0.752726  0.750879  1
  Rh  Rh23  1  0.775594  0.779572  0.222417  1
  Rh  Rh24  1  0.998585  0.001415  0.000000  1
  Rh  Rh25  1  0.222142  0.777858  0.226575  1
  Rh  Rh26  1  0.222142  0.777858  0.773425  1
  Rh  Rh27  1  0.220428  0.224406  0.777583  1
  Rh  Rh28  1  0.779232  0.220768  0.778517  1
  Rh  Rh29  1  0.779232  0.220768  0.221483  1
