# generated using pymatgen
data_Ti2Nb6Co8Si13P
_symmetry_space_group_name_H-M   'P 1'
_cell_length_a   9.18038195
_cell_length_b   9.18070390
_cell_length_c   9.20631179
_cell_angle_alpha   94.27747921
_cell_angle_beta   94.16484506
_cell_angle_gamma   148.47139607
_symmetry_Int_Tables_number   1
_chemical_formula_structural   Ti2Nb6Co8Si13P
_chemical_formula_sum   'Ti2 Nb6 Co8 Si13 P1'
_cell_volume   390.57665140
_cell_formula_units_Z   1
loop_
 _symmetry_equiv_pos_site_id
 _symmetry_equiv_pos_as_xyz
  1  'x, y, z'
loop_
 _atom_site_type_symbol
 _atom_site_label
 _atom_site_symmetry_multiplicity
 _atom_site_fract_x
 _atom_site_fract_y
 _atom_site_fract_z
 _atom_site_occupancy
  Ti  Ti0  1  0.307077  0.497492  0.804615  1
  Ti  Ti1  1  0.691897  0.498890  0.190845  1
  Nb  Nb2  1  0.134158  0.133864  0.268002  1
  Nb  Nb3  1  0.866262  0.866604  0.732860  1
  Nb  Nb4  1  0.866536  0.133746  0.000286  1
  Nb  Nb5  1  0.133874  0.866827  0.000679  1
  Nb  Nb6  1  0.499106  0.690281  0.189335  1
  Nb  Nb7  1  0.497776  0.308671  0.806388  1
  Co  Co8  1  0.399612  0.899336  0.797953  1
  Co  Co9  1  0.101305  0.601632  0.202139  1
  Co  Co10  1  0.102304  0.904906  0.501669  1
  Co  Co11  1  0.400589  0.598087  0.502175  1
  Co  Co12  1  0.596810  0.399368  0.501668  1
  Co  Co13  1  0.904070  0.101592  0.502182  1
  Co  Co14  1  0.898595  0.398321  0.797909  1
  Co  Co15  1  0.600529  0.100864  0.202165  1
  Si  Si16  1  0.704920  0.703894  0.409003  1
  Si  Si17  1  0.707433  0.293195  0.000544  1
  Si  Si18  1  0.292077  0.706190  0.998337  1
  Si  Si19  1  0.000198  0.298079  0.298366  1
  Si  Si20  1  0.000078  0.702416  0.702713  1
  Si  Si21  1  0.704200  0.000306  0.704363  1
  Si  Si22  1  0.296590  0.000281  0.296678  1
  Si  Si23  1  0.501246  0.905040  0.406133  1
  Si  Si24  1  0.500284  0.093410  0.593494  1
  Si  Si25  1  0.093617  0.499997  0.593787  1
  Si  Si26  1  0.904709  0.501135  0.406043  1
  Si  Si27  1  0.749416  0.749494  0.999771  1
  Si  Si28  1  0.250274  0.250352  0.999766  1
  P  P29  1  0.294460  0.295729  0.590129  1
