# generated using pymatgen
data_Cs3K(MoO4)2
_symmetry_space_group_name_H-M   'P 1'
_cell_length_a   6.67232801
_cell_length_b   6.67244117
_cell_length_c   8.51497900
_cell_angle_alpha   89.99998801
_cell_angle_beta   89.99799320
_cell_angle_gamma   120.00065359
_symmetry_Int_Tables_number   1
_chemical_formula_structural   Cs3K(MoO4)2
_chemical_formula_sum   'Cs3 K1 Mo2 O8'
_cell_volume   328.30197371
_cell_formula_units_Z   1
loop_
 _symmetry_equiv_pos_site_id
 _symmetry_equiv_pos_as_xyz
  1  'x, y, z'
loop_
 _atom_site_type_symbol
 _atom_site_label
 _atom_site_symmetry_multiplicity
 _atom_site_fract_x
 _atom_site_fract_y
 _atom_site_fract_z
 _atom_site_occupancy
  Cs  Cs0  1  0.666657  0.333328  0.329609  1
  Cs  Cs1  1  0.333343  0.666672  0.670391  1
  Cs  Cs2  1  0.000000  0.000000  0.000000  1
  K  K3  1  0.000000  0.000000  0.500000  1
  Mo  Mo4  1  0.333347  0.666673  0.221911  1
  Mo  Mo5  1  0.666653  0.333327  0.778089  1
  O  O6  1  0.186662  0.813264  0.296103  1
  O  O7  1  0.186744  0.373397  0.296102  1
  O  O8  1  0.626618  0.813349  0.296114  1
  O  O9  1  0.813338  0.186736  0.703897  1
  O  O10  1  0.813256  0.626603  0.703898  1
  O  O11  1  0.373382  0.186651  0.703886  1
  O  O12  1  0.333375  0.666688  0.012294  1
  O  O13  1  0.666625  0.333312  0.987706  1
