# generated using pymatgen
data_Eu2DyTl3(SbO7)2
_symmetry_space_group_name_H-M   'P 1'
_cell_length_a   6.59236850
_cell_length_b   6.46753073
_cell_length_c   7.73615800
_cell_angle_alpha   90.00000000
_cell_angle_beta   90.00000000
_cell_angle_gamma   110.97372813
_symmetry_Int_Tables_number   1
_chemical_formula_structural   Eu2DyTl3(SbO7)2
_chemical_formula_sum   'Eu2 Dy1 Tl3 Sb2 O14'
_cell_volume   307.98774386
_cell_formula_units_Z   1
loop_
 _symmetry_equiv_pos_site_id
 _symmetry_equiv_pos_as_xyz
  1  'x, y, z'
loop_
 _atom_site_type_symbol
 _atom_site_label
 _atom_site_symmetry_multiplicity
 _atom_site_fract_x
 _atom_site_fract_y
 _atom_site_fract_z
 _atom_site_occupancy
  Eu  Eu0  1  0.502944  0.502069  0.502634  1
  Eu  Eu1  1  0.502944  0.502069  0.997366  1
  Dy  Dy2  1  0.996728  0.459120  0.750000  1
  Tl  Tl3  1  0.506481  0.992252  0.750000  1
  Tl  Tl4  1  0.999952  0.525388  0.250000  1
  Tl  Tl5  1  0.485804  0.006064  0.250000  1
  Sb  Sb6  1  0.999516  0.998242  0.499803  1
  Sb  Sb7  1  0.999516  0.998242  0.000197  1
  O  O8  1  0.677816  0.921856  0.480803  1
  O  O9  1  0.927501  0.676319  0.540056  1
  O  O10  1  0.677816  0.921856  0.019197  1
  O  O11  1  0.927501  0.676319  0.959944  1
  O  O12  1  0.322964  0.078752  0.514358  1
  O  O13  1  0.074593  0.326589  0.476110  1
  O  O14  1  0.322964  0.078752  0.985642  1
  O  O15  1  0.074593  0.326589  0.023890  1
  O  O16  1  0.969930  0.080269  0.750000  1
  O  O17  1  0.034019  0.927314  0.250000  1
  O  O18  1  0.366810  0.632898  0.750000  1
  O  O19  1  0.639761  0.374504  0.250000  1
  O  O20  1  0.632129  0.350190  0.750000  1
  O  O21  1  0.357718  0.644346  0.250000  1
