# generated using pymatgen
data_Th10ZnBiPb6
_symmetry_space_group_name_H-M   'P 1'
_cell_length_a   9.74404014
_cell_length_b   9.74403954
_cell_length_c   6.66751701
_cell_angle_alpha   90.00260844
_cell_angle_beta   90.00261046
_cell_angle_gamma   120.05545250
_symmetry_Int_Tables_number   1
_chemical_formula_structural   Th10ZnBiPb6
_chemical_formula_sum   'Th10 Zn1 Bi1 Pb6'
_cell_volume   547.93610637
_cell_formula_units_Z   1
loop_
 _symmetry_equiv_pos_site_id
 _symmetry_equiv_pos_as_xyz
  1  'x, y, z'
loop_
 _atom_site_type_symbol
 _atom_site_label
 _atom_site_symmetry_multiplicity
 _atom_site_fract_x
 _atom_site_fract_y
 _atom_site_fract_z
 _atom_site_occupancy
  Th  Th0  1  0.667186  0.333353  0.500536  1
  Th  Th1  1  0.333353  0.667186  0.500536  1
  Th  Th2  1  0.333425  0.667321  0.999440  1
  Th  Th3  1  0.667321  0.333425  0.999440  1
  Th  Th4  1  0.725734  0.725734  0.260578  1
  Th  Th5  1  0.273590  0.999090  0.260442  1
  Th  Th6  1  0.999090  0.273590  0.260442  1
  Th  Th7  1  0.274107  0.274107  0.739151  1
  Th  Th8  1  0.725796  0.000040  0.739687  1
  Th  Th9  1  0.000040  0.725796  0.739687  1
  Zn  Zn10  1  0.999910  0.999910  0.500245  1
  Bi  Bi11  1  0.380487  0.380487  0.246417  1
  Pb  Pb12  1  0.999945  0.999945  0.999927  1
  Pb  Pb13  1  0.620300  0.999895  0.246517  1
  Pb  Pb14  1  0.999895  0.620300  0.246517  1
  Pb  Pb15  1  0.620531  0.620531  0.753514  1
  Pb  Pb16  1  0.379609  0.999680  0.753462  1
  Pb  Pb17  1  0.999680  0.379609  0.753462  1
