# generated using pymatgen
data_Ho3ErGa12Os
_symmetry_space_group_name_H-M   'P 1'
_cell_length_a   7.44892209
_cell_length_b   7.44892244
_cell_length_c   7.44892128
_cell_angle_alpha   109.41861148
_cell_angle_beta   109.41859902
_cell_angle_gamma   109.41860135
_symmetry_Int_Tables_number   1
_chemical_formula_structural   Ho3ErGa12Os
_chemical_formula_sum   'Ho3 Er1 Ga12 Os1'
_cell_volume   318.78769058
_cell_formula_units_Z   1
loop_
 _symmetry_equiv_pos_site_id
 _symmetry_equiv_pos_as_xyz
  1  'x, y, z'
loop_
 _atom_site_type_symbol
 _atom_site_label
 _atom_site_symmetry_multiplicity
 _atom_site_fract_x
 _atom_site_fract_y
 _atom_site_fract_z
 _atom_site_occupancy
  Ho  Ho0  1  0.000000  0.000000  0.500000  1
  Ho  Ho1  1  0.000000  0.500000  0.000000  1
  Ho  Ho2  1  0.500000  0.000000  0.000000  1
  Er  Er3  1  0.500000  0.500000  0.500000  1
  Ga  Ga4  1  0.749564  0.250436  0.500000  1
  Ga  Ga5  1  0.749564  0.500000  0.250436  1
  Ga  Ga6  1  0.500000  0.250436  0.749564  1
  Ga  Ga7  1  0.250436  0.500000  0.749564  1
  Ga  Ga8  1  0.250436  0.749564  0.500000  1
  Ga  Ga9  1  0.500000  0.749564  0.250436  1
  Ga  Ga10  1  0.708087  0.708087  0.999264  1
  Ga  Ga11  1  0.291913  0.000736  0.291913  1
  Ga  Ga12  1  0.000736  0.291913  0.291913  1
  Ga  Ga13  1  0.291913  0.291913  0.000736  1
  Ga  Ga14  1  0.708087  0.999264  0.708087  1
  Ga  Ga15  1  0.999264  0.708087  0.708087  1
  Os  Os16  1  0.000000  0.000000  0.000000  1
