# generated using pymatgen
data_BaYbI26
_symmetry_space_group_name_H-M   'P 1'
_cell_length_a   13.79274205
_cell_length_b   11.79320670
_cell_length_c   16.56413976
_cell_angle_alpha   127.39472665
_cell_angle_beta   79.03013803
_cell_angle_gamma   99.28959802
_symmetry_Int_Tables_number   1
_chemical_formula_structural   BaYbI26
_chemical_formula_sum   'Ba1 Yb1 I26'
_cell_volume   2097.81942082
_cell_formula_units_Z   1
loop_
 _symmetry_equiv_pos_site_id
 _symmetry_equiv_pos_as_xyz
  1  'x, y, z'
loop_
 _atom_site_type_symbol
 _atom_site_label
 _atom_site_symmetry_multiplicity
 _atom_site_fract_x
 _atom_site_fract_y
 _atom_site_fract_z
 _atom_site_occupancy
  Ba  Ba0  1  0.651520  0.073565  0.061322  1
  Yb  Yb1  1  0.353156  0.921235  0.935123  1
  I  I2  1  0.422700  0.715387  0.977052  1
  I  I3  1  0.577530  0.290123  0.004926  1
  I  I4  1  0.599284  0.859486  0.411331  1
  I  I5  1  0.400794  0.123012  0.575522  1
  I  I6  1  0.728171  0.661124  0.032950  1
  I  I7  1  0.288920  0.337496  0.961417  1
  I  I8  1  0.732154  0.961186  0.187652  1
  I  I9  1  0.292920  0.033712  0.822387  1
  I  I10  1  0.414578  0.187622  0.138634  1
  I  I11  1  0.559324  0.806242  0.830380  1
  I  I12  1  0.211207  0.662178  0.779453  1
  I  I13  1  0.775068  0.339886  0.274596  1
  I  I14  1  0.130105  0.891652  0.019391  1
  I  I15  1  0.898937  0.143659  0.994097  1
  I  I16  1  0.065684  0.151176  0.209774  1
  I  I17  1  0.940522  0.881350  0.797825  1
  I  I18  1  0.263405  0.888362  0.431772  1
  I  I19  1  0.735598  0.096113  0.551057  1
  I  I20  1  0.304179  0.384908  0.680256  1
  I  I21  1  0.685357  0.600315  0.347116  1
  I  I22  1  0.859456  0.333221  0.696797  1
  I  I23  1  0.144294  0.653359  0.282408  1
  I  I24  1  0.931225  0.632461  0.577154  1
  I  I25  1  0.029188  0.374875  0.438666  1
  I  I26  1  0.285922  0.663545  0.108262  1
  I  I27  1  0.718799  0.332752  0.872681  1
