# generated using pymatgen
data_Nd3Pa(InPd2)2
_symmetry_space_group_name_H-M   'P 1'
_cell_length_a   7.93285243
_cell_length_b   7.93285243
_cell_length_c   3.78690600
_cell_angle_alpha   90.00000000
_cell_angle_beta   90.00000000
_cell_angle_gamma   91.67596178
_symmetry_Int_Tables_number   1
_chemical_formula_structural   Nd3Pa(InPd2)2
_chemical_formula_sum   'Nd3 Pa1 In2 Pd4'
_cell_volume   238.20860880
_cell_formula_units_Z   1
loop_
 _symmetry_equiv_pos_site_id
 _symmetry_equiv_pos_as_xyz
  1  'x, y, z'
loop_
 _atom_site_type_symbol
 _atom_site_label
 _atom_site_symmetry_multiplicity
 _atom_site_fract_x
 _atom_site_fract_y
 _atom_site_fract_z
 _atom_site_occupancy
  Nd  Nd0  1  0.822688  0.673770  0.500000  1
  Nd  Nd1  1  0.173770  0.322688  0.500000  1
  Nd  Nd2  1  0.676871  0.176871  0.500000  1
  Pa  Pa3  1  0.329683  0.829683  0.500000  1
  In  In4  1  0.000397  0.996235  0.000000  1
  In  In5  1  0.496235  0.500397  0.000000  1
  Pd  Pd6  1  0.364285  0.109232  0.000000  1
  Pd  Pd7  1  0.882220  0.382220  0.000000  1
  Pd  Pd8  1  0.144618  0.644618  0.000000  1
  Pd  Pd9  1  0.609232  0.864285  0.000000  1
