# generated using pymatgen
data_Er2TmSc3MnSb2
_symmetry_space_group_name_H-M   'P 1'
_cell_length_a   7.78363001
_cell_length_b   7.78277683
_cell_length_c   4.18338700
_cell_angle_alpha   90.00000000
_cell_angle_beta   90.00000000
_cell_angle_gamma   119.99636881
_symmetry_Int_Tables_number   1
_chemical_formula_structural   Er2TmSc3MnSb2
_chemical_formula_sum   'Er2 Tm1 Sc3 Mn1 Sb2'
_cell_volume   219.47816737
_cell_formula_units_Z   1
loop_
 _symmetry_equiv_pos_site_id
 _symmetry_equiv_pos_as_xyz
  1  'x, y, z'
loop_
 _atom_site_type_symbol
 _atom_site_label
 _atom_site_symmetry_multiplicity
 _atom_site_fract_x
 _atom_site_fract_y
 _atom_site_fract_z
 _atom_site_occupancy
  Er  Er0  1  0.391755  0.391800  0.500000  1
  Er  Er1  1  0.608245  0.000046  0.500000  1
  Tm  Tm2  1  0.000000  0.608980  0.500000  1
  Sc  Sc3  1  0.228360  0.999600  0.000000  1
  Sc  Sc4  1  0.771640  0.771240  0.000000  1
  Sc  Sc5  1  0.000000  0.228412  0.000000  1
  Mn  Mn6  1  0.000000  0.999660  0.500000  1
  Sb  Sb7  1  0.332733  0.666497  0.000000  1
  Sb  Sb8  1  0.667267  0.333764  0.000000  1
