# generated using pymatgen
data_Yb9PaRu4
_symmetry_space_group_name_H-M   'P 1'
_cell_length_a   8.60646275
_cell_length_b   8.60646134
_cell_length_c   7.31830688
_cell_angle_alpha   82.43647290
_cell_angle_beta   82.43646623
_cell_angle_gamma   43.43203350
_symmetry_Int_Tables_number   1
_chemical_formula_structural   Yb9PaRu4
_chemical_formula_sum   'Yb9 Pa1 Ru4'
_cell_volume   368.91420670
_cell_formula_units_Z   1
loop_
 _symmetry_equiv_pos_site_id
 _symmetry_equiv_pos_as_xyz
  1  'x, y, z'
loop_
 _atom_site_type_symbol
 _atom_site_label
 _atom_site_symmetry_multiplicity
 _atom_site_fract_x
 _atom_site_fract_y
 _atom_site_fract_z
 _atom_site_occupancy
  Yb  Yb0  1  0.423200  0.576800  0.750000  1
  Yb  Yb1  1  0.353943  0.204286  0.316360  1
  Yb  Yb2  1  0.208226  0.966272  0.079057  1
  Yb  Yb3  1  0.793095  0.031177  0.920990  1
  Yb  Yb4  1  0.968823  0.206905  0.579010  1
  Yb  Yb5  1  0.634001  0.793722  0.677812  1
  Yb  Yb6  1  0.206278  0.365999  0.822188  1
  Yb  Yb7  1  0.795714  0.646057  0.183640  1
  Yb  Yb8  1  0.033728  0.791774  0.420943  1
  Pa  Pa9  1  0.572906  0.427094  0.250000  1
  Ru  Ru10  1  0.418873  0.790823  0.418633  1
  Ru  Ru11  1  0.209177  0.581127  0.081367  1
  Ru  Ru12  1  0.784604  0.402568  0.975344  1
  Ru  Ru13  1  0.597432  0.215396  0.524656  1
