# generated using pymatgen
data_NdSm2Cd3CuPt2
_symmetry_space_group_name_H-M   'P 1'
_cell_length_a   7.84459690
_cell_length_b   7.84459728
_cell_length_c   3.83430400
_cell_angle_alpha   90.00000000
_cell_angle_beta   90.00000000
_cell_angle_gamma   120.12809188
_symmetry_Int_Tables_number   1
_chemical_formula_structural   NdSm2Cd3CuPt2
_chemical_formula_sum   'Nd1 Sm2 Cd3 Cu1 Pt2'
_cell_volume   204.07812272
_cell_formula_units_Z   1
loop_
 _symmetry_equiv_pos_site_id
 _symmetry_equiv_pos_as_xyz
  1  'x, y, z'
loop_
 _atom_site_type_symbol
 _atom_site_label
 _atom_site_symmetry_multiplicity
 _atom_site_fract_x
 _atom_site_fract_y
 _atom_site_fract_z
 _atom_site_occupancy
  Nd  Nd0  1  0.414511  0.414511  0.500000  1
  Sm  Sm1  1  0.585198  0.000055  0.500000  1
  Sm  Sm2  1  0.000055  0.585198  0.500000  1
  Cd  Cd3  1  0.754760  0.754760  0.000000  1
  Cd  Cd4  1  0.246048  0.999020  0.000000  1
  Cd  Cd5  1  0.999020  0.246048  0.000000  1
  Cu  Cu6  1  0.999380  0.999380  0.500000  1
  Pt  Pt7  1  0.668293  0.332734  0.000000  1
  Pt  Pt8  1  0.332734  0.668293  0.000000  1
