# generated using pymatgen
data_Mn20Cr(WC3)2
_symmetry_space_group_name_H-M   'P 1'
_cell_length_a   7.40244885
_cell_length_b   7.40153368
_cell_length_c   7.40153310
_cell_angle_alpha   60.12383458
_cell_angle_beta   59.99591600
_cell_angle_gamma   59.99591138
_symmetry_Int_Tables_number   1
_chemical_formula_structural   Mn20Cr(WC3)2
_chemical_formula_sum   'Mn20 Cr1 W2 C6'
_cell_volume   286.99989972
_cell_formula_units_Z   1
loop_
 _symmetry_equiv_pos_site_id
 _symmetry_equiv_pos_as_xyz
  1  'x, y, z'
loop_
 _atom_site_type_symbol
 _atom_site_label
 _atom_site_symmetry_multiplicity
 _atom_site_fract_x
 _atom_site_fract_y
 _atom_site_fract_z
 _atom_site_occupancy
  Mn  Mn0  1  0.000718  0.000000  0.000000  1
  Mn  Mn1  1  0.615703  0.615460  0.152801  1
  Mn  Mn2  1  0.615703  0.152800  0.615460  1
  Mn  Mn3  1  0.153119  0.615774  0.615774  1
  Mn  Mn4  1  0.614228  0.616090  0.616090  1
  Mn  Mn5  1  0.383964  0.384540  0.847199  1
  Mn  Mn6  1  0.383964  0.847199  0.384540  1
  Mn  Mn7  1  0.846407  0.383910  0.383910  1
  Mn  Mn8  1  0.384668  0.384226  0.384226  1
  Mn  Mn9  1  0.000675  0.000068  0.337135  1
  Mn  Mn10  1  0.662367  0.998638  0.338180  1
  Mn  Mn11  1  0.000521  0.663136  0.336864  1
  Mn  Mn12  1  0.662367  0.338180  0.998638  1
  Mn  Mn13  1  0.000675  0.337135  0.000068  1
  Mn  Mn14  1  0.000521  0.336864  0.663136  1
  Mn  Mn15  1  0.337878  0.662865  0.999932  1
  Mn  Mn16  1  0.337878  0.999932  0.662865  1
  Mn  Mn17  1  0.338132  0.000000  0.000000  1
  Mn  Mn18  1  0.999186  0.001362  0.661820  1
  Mn  Mn19  1  0.999186  0.661820  0.001362  1
  Cr  Cr20  1  0.662930  0.000000  0.000000  1
  W  W21  1  0.750018  0.749358  0.749358  1
  W  W22  1  0.248734  0.250642  0.250642  1
  C  C23  1  0.725924  0.721616  0.278384  1
  C  C24  1  0.274545  0.725987  0.274013  1
  C  C25  1  0.726197  0.273563  0.273563  1
  C  C26  1  0.274545  0.274013  0.725987  1
  C  C27  1  0.725924  0.278384  0.721616  1
  C  C28  1  0.273324  0.726437  0.726437  1
