# generated using pymatgen
data_Dy3YHo4(ReC2)4
_symmetry_space_group_name_H-M   'P 1'
_cell_length_a   5.10560800
_cell_length_b   6.58379200
_cell_length_c   9.85787200
_cell_angle_alpha   89.99876892
_cell_angle_beta   90.00000000
_cell_angle_gamma   90.00000000
_symmetry_Int_Tables_number   1
_chemical_formula_structural   Dy3YHo4(ReC2)4
_chemical_formula_sum   'Dy3 Y1 Ho4 Re4 C8'
_cell_volume   331.36508331
_cell_formula_units_Z   1
loop_
 _symmetry_equiv_pos_site_id
 _symmetry_equiv_pos_as_xyz
  1  'x, y, z'
loop_
 _atom_site_type_symbol
 _atom_site_label
 _atom_site_symmetry_multiplicity
 _atom_site_fract_x
 _atom_site_fract_y
 _atom_site_fract_z
 _atom_site_occupancy
  Dy  Dy0  1  0.750000  0.033542  0.284365  1
  Dy  Dy1  1  0.250000  0.966438  0.715623  1
  Dy  Dy2  1  0.750000  0.533582  0.215644  1
  Y  Y3  1  0.250000  0.466263  0.784314  1
  Ho  Ho4  1  0.250000  0.821995  0.056787  1
  Ho  Ho5  1  0.750000  0.678167  0.556805  1
  Ho  Ho6  1  0.250000  0.321847  0.443118  1
  Ho  Ho7  1  0.750000  0.178159  0.943141  1
  Re  Re8  1  0.250000  0.279543  0.133998  1
  Re  Re9  1  0.750000  0.220328  0.633736  1
  Re  Re10  1  0.250000  0.779658  0.366134  1
  Re  Re11  1  0.750000  0.720604  0.866207  1
  C  C12  1  0.250000  0.175429  0.951136  1
  C  C13  1  0.750000  0.824375  0.049129  1
  C  C14  1  0.250000  0.675917  0.549074  1
  C  C15  1  0.750000  0.324125  0.450776  1
  C  C16  1  0.250000  0.046836  0.259231  1
  C  C17  1  0.750000  0.453117  0.759165  1
  C  C18  1  0.250000  0.546968  0.240805  1
  C  C19  1  0.750000  0.953108  0.740810  1
