# generated using pymatgen
data_Y2Ho3Co2Rh
_symmetry_space_group_name_H-M   'P 1'
_cell_length_a   7.09843370
_cell_length_b   7.09843367
_cell_length_c   8.76596524
_cell_angle_alpha   113.88397948
_cell_angle_beta   113.88398236
_cell_angle_gamma   90.00000105
_symmetry_Int_Tables_number   1
_chemical_formula_structural   Y2Ho3Co2Rh
_chemical_formula_sum   'Y4 Ho6 Co4 Rh2'
_cell_volume   362.12037940
_cell_formula_units_Z   2
loop_
 _symmetry_equiv_pos_site_id
 _symmetry_equiv_pos_as_xyz
  1  'x, y, z'
loop_
 _atom_site_type_symbol
 _atom_site_label
 _atom_site_symmetry_multiplicity
 _atom_site_fract_x
 _atom_site_fract_y
 _atom_site_fract_z
 _atom_site_occupancy
  Y  Y0  1  0.464279  0.319355  0.283633  1
  Y  Y1  1  0.964280  0.464279  0.283633  1
  Y  Y2  1  0.319355  0.819354  0.283633  1
  Y  Y3  1  0.819354  0.964280  0.283633  1
  Ho  Ho4  1  0.998900  0.998900  0.997800  1
  Ho  Ho5  1  0.498900  0.498900  0.997800  1
  Ho  Ho6  1  0.181498  0.036572  0.718069  1
  Ho  Ho7  1  0.681497  0.181498  0.718069  1
  Ho  Ho8  1  0.036572  0.536571  0.718069  1
  Ho  Ho9  1  0.536571  0.681497  0.718069  1
  Co  Co10  1  0.610685  0.110685  0.997413  1
  Co  Co11  1  0.110685  0.386729  0.997413  1
  Co  Co12  1  0.886728  0.610685  0.997413  1
  Co  Co13  1  0.386729  0.886728  0.997413  1
  Rh  Rh14  1  0.251983  0.251983  0.503967  1
  Rh  Rh15  1  0.751983  0.751983  0.503967  1
