# generated using pymatgen
data_TiNb3(B2Mo)2
_symmetry_space_group_name_H-M   'P 1'
_cell_length_a   6.10975997
_cell_length_b   6.10975997
_cell_length_c   3.26771600
_cell_angle_alpha   90.00000000
_cell_angle_beta   90.00000000
_cell_angle_gamma   89.64711485
_symmetry_Int_Tables_number   1
_chemical_formula_structural   TiNb3(B2Mo)2
_chemical_formula_sum   'Ti1 Nb3 B4 Mo2'
_cell_volume   121.97880236
_cell_formula_units_Z   1
loop_
 _symmetry_equiv_pos_site_id
 _symmetry_equiv_pos_as_xyz
  1  'x, y, z'
loop_
 _atom_site_type_symbol
 _atom_site_label
 _atom_site_symmetry_multiplicity
 _atom_site_fract_x
 _atom_site_fract_y
 _atom_site_fract_z
 _atom_site_occupancy
  Ti  Ti0  1  0.679074  0.179074  0.500000  1
  Nb  Nb1  1  0.321234  0.821234  0.500000  1
  Nb  Nb2  1  0.178921  0.320320  0.500000  1
  Nb  Nb3  1  0.820320  0.678921  0.500000  1
  B  B4  1  0.107558  0.607558  0.000000  1
  B  B5  1  0.890104  0.390104  0.000000  1
  B  B6  1  0.608233  0.896023  0.000000  1
  B  B7  1  0.396023  0.108233  0.000000  1
  Mo  Mo8  1  0.996872  0.001660  0.000000  1
  Mo  Mo9  1  0.501660  0.496872  0.000000  1
