# generated using pymatgen
data_Y2Lu11Th3(CdIr)4
_symmetry_space_group_name_H-M   'P 1'
_cell_length_a   9.58683203
_cell_length_b   9.58651163
_cell_length_c   9.59302100
_cell_angle_alpha   59.97753932
_cell_angle_beta   59.97864588
_cell_angle_gamma   59.90044298
_symmetry_Int_Tables_number   1
_chemical_formula_structural   Y2Lu11Th3(CdIr)4
_chemical_formula_sum   'Y2 Lu11 Th3 Cd4 Ir4'
_cell_volume   622.73692522
_cell_formula_units_Z   1
loop_
 _symmetry_equiv_pos_site_id
 _symmetry_equiv_pos_as_xyz
  1  'x, y, z'
loop_
 _atom_site_type_symbol
 _atom_site_label
 _atom_site_symmetry_multiplicity
 _atom_site_fract_x
 _atom_site_fract_y
 _atom_site_fract_z
 _atom_site_occupancy
  Y  Y0  1  0.818007  0.817721  0.182138  1
  Y  Y1  1  0.185190  0.185502  0.814651  1
  Lu  Lu2  1  0.197523  0.601771  0.600354  1
  Lu  Lu3  1  0.062202  0.438210  0.438934  1
  Lu  Lu4  1  0.435418  0.063882  0.064382  1
  Lu  Lu5  1  0.435409  0.063880  0.436323  1
  Lu  Lu6  1  0.062218  0.438206  0.060663  1
  Lu  Lu7  1  0.435779  0.436780  0.063715  1
  Lu  Lu8  1  0.063111  0.061087  0.437912  1
  Lu  Lu9  1  0.187019  0.813396  0.812695  1
  Lu  Lu10  1  0.815533  0.185389  0.184203  1
  Lu  Lu11  1  0.815525  0.185394  0.814873  1
  Lu  Lu12  1  0.187019  0.813396  0.186888  1
  Th  Th13  1  0.598582  0.601032  0.600884  1
  Th  Th14  1  0.598589  0.601034  0.199498  1
  Th  Th15  1  0.599134  0.198276  0.601294  1
  Cd  Cd16  1  0.836342  0.830648  0.830604  1
  Cd  Cd17  1  0.836341  0.830655  0.502400  1
  Cd  Cd18  1  0.834787  0.501531  0.831841  1
  Cd  Cd19  1  0.499348  0.831822  0.834418  1
  Ir  Ir20  1  0.391114  0.392539  0.391840  1
  Ir  Ir21  1  0.391119  0.392540  0.824501  1
  Ir  Ir22  1  0.390000  0.824723  0.392639  1
  Ir  Ir23  1  0.824693  0.390593  0.392359  1
