# generated using pymatgen
data_Ac3Al11Ga
_symmetry_space_group_name_H-M   'P 1'
_cell_length_a   8.93774669
_cell_length_b   8.93774563
_cell_length_c   8.93774554
_cell_angle_alpha   150.07777134
_cell_angle_beta   105.11274280
_cell_angle_gamma   82.67931786
_symmetry_Int_Tables_number   1
_chemical_formula_structural   Ac3Al11Ga
_chemical_formula_sum   'Ac3 Al11 Ga1'
_cell_volume   336.55559594
_cell_formula_units_Z   1
loop_
 _symmetry_equiv_pos_site_id
 _symmetry_equiv_pos_as_xyz
  1  'x, y, z'
loop_
 _atom_site_type_symbol
 _atom_site_label
 _atom_site_symmetry_multiplicity
 _atom_site_fract_x
 _atom_site_fract_y
 _atom_site_fract_z
 _atom_site_occupancy
  Ac  Ac0  1  0.001346  0.000000  0.001346  1
  Ac  Ac1  1  0.334997  0.333980  0.001017  1
  Ac  Ac2  1  0.667036  0.666020  0.001017  1
  Al  Al3  1  0.381704  0.000000  0.381704  1
  Al  Al4  1  0.254192  0.500000  0.754192  1
  Al  Al5  1  0.747575  0.500000  0.247575  1
  Al  Al6  1  0.587173  0.834416  0.752757  1
  Al  Al7  1  0.918342  0.165584  0.752757  1
  Al  Al8  1  0.288192  0.667122  0.621070  1
  Al  Al9  1  0.953949  0.332878  0.621070  1
  Al  Al10  1  0.046499  0.666959  0.379540  1
  Al  Al11  1  0.712578  0.333041  0.379540  1
  Al  Al12  1  0.082791  0.834597  0.248194  1
  Al  Al13  1  0.413596  0.165403  0.248194  1
  Ga  Ga14  1  0.621030  0.000000  0.621030  1
