# generated using pymatgen
data_Y4Er12InAg3Rh4
_symmetry_space_group_name_H-M   'P 1'
_cell_length_a   9.49615243
_cell_length_b   9.49177820
_cell_length_c   9.49361682
_cell_angle_alpha   60.18715917
_cell_angle_beta   60.17077787
_cell_angle_gamma   60.28416211
_symmetry_Int_Tables_number   1
_chemical_formula_structural   Y4Er12InAg3Rh4
_chemical_formula_sum   'Y4 Er12 In1 Ag3 Rh4'
_cell_volume   608.00970491
_cell_formula_units_Z   1
loop_
 _symmetry_equiv_pos_site_id
 _symmetry_equiv_pos_as_xyz
  1  'x, y, z'
loop_
 _atom_site_type_symbol
 _atom_site_label
 _atom_site_symmetry_multiplicity
 _atom_site_fract_x
 _atom_site_fract_y
 _atom_site_fract_z
 _atom_site_occupancy
  Y  Y0  1  0.189542  0.189918  0.809851  1
  Y  Y1  1  0.436411  0.062962  0.063336  1
  Y  Y2  1  0.435181  0.060895  0.435042  1
  Y  Y3  1  0.062994  0.436407  0.063933  1
  Er  Er4  1  0.649304  0.052724  0.648016  1
  Er  Er5  1  0.189082  0.811749  0.812252  1
  Er  Er6  1  0.062352  0.062922  0.436786  1
  Er  Er7  1  0.810067  0.189595  0.189832  1
  Er  Er8  1  0.812716  0.811953  0.189015  1
  Er  Er9  1  0.648357  0.648255  0.053009  1
  Er  Er10  1  0.649042  0.648683  0.648710  1
  Er  Er11  1  0.060184  0.435871  0.435227  1
  Er  Er12  1  0.052707  0.649158  0.647922  1
  Er  Er13  1  0.812134  0.189090  0.811854  1
  Er  Er14  1  0.435662  0.436208  0.060072  1
  Er  Er15  1  0.189512  0.809771  0.190086  1
  In  In16  1  0.420972  0.421163  0.421017  1
  Ag  Ag17  1  0.417237  0.748029  0.417887  1
  Ag  Ag18  1  0.417977  0.418016  0.748065  1
  Ag  Ag19  1  0.748625  0.417296  0.417921  1
  Rh  Rh20  1  0.854903  0.430292  0.856978  1
  Rh  Rh21  1  0.857265  0.856731  0.428933  1
  Rh  Rh22  1  0.430222  0.854713  0.857357  1
  Rh  Rh23  1  0.857554  0.857599  0.856900  1
