# generated using pymatgen
data_Li2La2TlSi2
_symmetry_space_group_name_H-M   'P 1'
_cell_length_a   9.90981200
_cell_length_b   9.90981272
_cell_length_c   6.95382000
_cell_angle_alpha   90.00000000
_cell_angle_beta   90.00000000
_cell_angle_gamma   152.83152889
_symmetry_Int_Tables_number   1
_chemical_formula_structural   Li2La2TlSi2
_chemical_formula_sum   'Li4 La4 Tl2 Si4'
_cell_volume   311.81588073
_cell_formula_units_Z   2
loop_
 _symmetry_equiv_pos_site_id
 _symmetry_equiv_pos_as_xyz
  1  'x, y, z'
loop_
 _atom_site_type_symbol
 _atom_site_label
 _atom_site_symmetry_multiplicity
 _atom_site_fract_x
 _atom_site_fract_y
 _atom_site_fract_z
 _atom_site_occupancy
  Li  Li0  1  0.817774  0.182226  0.442429  1
  Li  Li1  1  0.182226  0.817774  0.557571  1
  Li  Li2  1  0.817774  0.182226  0.057571  1
  Li  Li3  1  0.182226  0.817774  0.942429  1
  La  La4  1  0.545879  0.454121  0.750000  1
  La  La5  1  0.454121  0.545879  0.250000  1
  La  La6  1  0.350554  0.649446  0.750000  1
  La  La7  1  0.649446  0.350554  0.250000  1
  Tl  Tl8  1  0.719597  0.280403  0.750000  1
  Tl  Tl9  1  0.280403  0.719597  0.250000  1
  Si  Si10  1  0.943219  0.056781  0.924425  1
  Si  Si11  1  0.056781  0.943219  0.075575  1
  Si  Si12  1  0.943219  0.056781  0.575575  1
  Si  Si13  1  0.056781  0.943219  0.424425  1
