# generated using pymatgen
data_TbY2Pa3(Co3P2)6
_symmetry_space_group_name_H-M   'P 1'
_cell_length_a   3.72724000
_cell_length_b   10.46383444
_cell_length_c   12.19396600
_cell_angle_alpha   90.10708194
_cell_angle_beta   90.00000000
_cell_angle_gamma   90.00000000
_symmetry_Int_Tables_number   1
_chemical_formula_structural   TbY2Pa3(Co3P2)6
_chemical_formula_sum   'Tb1 Y2 Pa3 Co18 P12'
_cell_volume   475.57874764
_cell_formula_units_Z   1
loop_
 _symmetry_equiv_pos_site_id
 _symmetry_equiv_pos_as_xyz
  1  'x, y, z'
loop_
 _atom_site_type_symbol
 _atom_site_label
 _atom_site_symmetry_multiplicity
 _atom_site_fract_x
 _atom_site_fract_y
 _atom_site_fract_z
 _atom_site_occupancy
  Tb  Tb0  1  0.000000  0.314199  0.792956  1
  Y  Y1  1  0.500000  0.186970  0.205733  1
  Y  Y2  1  0.000000  0.685856  0.794293  1
  Pa  Pa3  1  0.000000  0.498976  0.528154  1
  Pa  Pa4  1  0.500000  0.000830  0.474450  1
  Pa  Pa5  1  0.500000  0.817951  0.208360  1
  Co  Co6  1  0.500000  0.500128  0.159449  1
  Co  Co7  1  0.000000  0.999005  0.843419  1
  Co  Co8  1  0.500000  0.499260  0.694729  1
  Co  Co9  1  0.000000  0.993844  0.300621  1
  Co  Co10  1  0.000000  0.499955  0.981264  1
  Co  Co11  1  0.500000  0.000201  0.016593  1
  Co  Co12  1  0.500000  0.335322  0.993019  1
  Co  Co13  1  0.500000  0.666136  0.994653  1
  Co  Co14  1  0.000000  0.167627  0.006192  1
  Co  Co15  1  0.000000  0.834838  0.008130  1
  Co  Co16  1  0.500000  0.300827  0.430830  1
  Co  Co17  1  0.500000  0.696566  0.430218  1
  Co  Co18  1  0.000000  0.195370  0.567575  1
  Co  Co19  1  0.000000  0.803284  0.570828  1
  Co  Co20  1  0.500000  0.880959  0.712490  1
  Co  Co21  1  0.500000  0.118817  0.711756  1
  Co  Co22  1  0.000000  0.622735  0.286383  1
  Co  Co23  1  0.000000  0.381384  0.288554  1
  P  P24  1  0.500000  0.500301  0.876971  1
  P  P25  1  0.000000  0.003203  0.119324  1
  P  P26  1  0.500000  0.498597  0.343373  1
  P  P27  1  0.000000  0.999563  0.659035  1
  P  P28  1  0.500000  0.305320  0.615470  1
  P  P29  1  0.500000  0.693235  0.616908  1
  P  P30  1  0.000000  0.190708  0.382209  1
  P  P31  1  0.000000  0.806208  0.388772  1
  P  P32  1  0.500000  0.848269  0.895002  1
  P  P33  1  0.500000  0.152993  0.894928  1
  P  P34  1  0.000000  0.650529  0.102761  1
  P  P35  1  0.000000  0.350032  0.104601  1
