# generated using pymatgen
data_Zn11FeAu2
_symmetry_space_group_name_H-M   'P 1'
_cell_length_a   6.73138596
_cell_length_b   6.73138603
_cell_length_c   5.11550732
_cell_angle_alpha   80.17226660
_cell_angle_beta   80.17227525
_cell_angle_gamma   70.31360464
_symmetry_Int_Tables_number   1
_chemical_formula_structural   Zn11FeAu2
_chemical_formula_sum   'Zn11 Fe1 Au2'
_cell_volume   213.43444754
_cell_formula_units_Z   1
loop_
 _symmetry_equiv_pos_site_id
 _symmetry_equiv_pos_as_xyz
  1  'x, y, z'
loop_
 _atom_site_type_symbol
 _atom_site_label
 _atom_site_symmetry_multiplicity
 _atom_site_fract_x
 _atom_site_fract_y
 _atom_site_fract_z
 _atom_site_occupancy
  Zn  Zn0  1  0.000000  0.000000  0.000000  1
  Zn  Zn1  1  0.780138  0.780138  0.381608  1
  Zn  Zn2  1  0.219862  0.219862  0.618392  1
  Zn  Zn3  1  0.216309  0.638898  0.313082  1
  Zn  Zn4  1  0.361102  0.783691  0.686918  1
  Zn  Zn5  1  0.783691  0.361102  0.686918  1
  Zn  Zn6  1  0.638898  0.216309  0.313082  1
  Zn  Zn7  1  0.003486  0.648063  0.796827  1
  Zn  Zn8  1  0.351937  0.996514  0.203173  1
  Zn  Zn9  1  0.996514  0.351937  0.203173  1
  Zn  Zn10  1  0.648063  0.003486  0.796827  1
  Fe  Fe11  1  0.000000  0.000000  0.500000  1
  Au  Au12  1  0.377371  0.377371  0.936655  1
  Au  Au13  1  0.622629  0.622629  0.063345  1
