# generated using pymatgen
data_Ta3Nb3Re2(Si3Ru2)2
_symmetry_space_group_name_H-M   'P 1'
_cell_length_a   7.44851934
_cell_length_b   7.49937458
_cell_length_c   7.44851814
_cell_angle_alpha   127.04244397
_cell_angle_beta   122.46735121
_cell_angle_gamma   81.81519689
_symmetry_Int_Tables_number   1
_chemical_formula_structural   Ta3Nb3Re2(Si3Ru2)2
_chemical_formula_sum   'Ta3 Nb3 Re2 Si6 Ru4'
_cell_volume   269.88114495
_cell_formula_units_Z   1
loop_
 _symmetry_equiv_pos_site_id
 _symmetry_equiv_pos_as_xyz
  1  'x, y, z'
loop_
 _atom_site_type_symbol
 _atom_site_label
 _atom_site_symmetry_multiplicity
 _atom_site_fract_x
 _atom_site_fract_y
 _atom_site_fract_z
 _atom_site_occupancy
  Ta  Ta0  1  0.552885  0.095374  0.042489  1
  Ta  Ta1  1  0.437308  0.467512  0.530204  1
  Ta  Ta2  1  0.967191  0.496212  0.029021  1
  Nb  Nb3  1  0.044542  0.074697  0.530155  1
  Nb  Nb4  1  0.753139  0.919851  0.666712  1
  Nb  Nb5  1  0.248777  0.921658  0.172880  1
  Re  Re6  1  0.526003  0.250374  0.777349  1
  Re  Re7  1  0.973025  0.250374  0.224372  1
  Si  Si8  1  0.781078  0.560436  0.279359  1
  Si  Si9  1  0.224519  0.479104  0.754586  1
  Si  Si10  1  0.338489  0.823160  0.498511  1
  Si  Si11  1  0.667036  0.155802  0.487769  1
  Si  Si12  1  0.824649  0.823160  0.984672  1
  Si  Si13  1  0.168033  0.155802  0.988767  1
  Ru  Ru14  1  0.159226  0.743904  0.652557  1
  Ru  Ru15  1  0.839885  0.490436  0.587568  1
  Ru  Ru16  1  0.591347  0.743904  0.084679  1
  Ru  Ru17  1  0.402869  0.490436  0.150552  1
