# generated using pymatgen
data_Dy5Y15Cd6NiOs
_symmetry_space_group_name_H-M   'P 1'
_cell_length_a   9.64475500
_cell_length_b   9.64475575
_cell_length_c   9.84519400
_cell_angle_alpha   90.00000000
_cell_angle_beta   90.00000000
_cell_angle_gamma   119.99999399
_symmetry_Int_Tables_number   1
_chemical_formula_structural   Dy5Y15Cd6NiOs
_chemical_formula_sum   'Dy5 Y15 Cd6 Ni1 Os1'
_cell_volume   793.11720336
_cell_formula_units_Z   1
loop_
 _symmetry_equiv_pos_site_id
 _symmetry_equiv_pos_as_xyz
  1  'x, y, z'
loop_
 _atom_site_type_symbol
 _atom_site_label
 _atom_site_symmetry_multiplicity
 _atom_site_fract_x
 _atom_site_fract_y
 _atom_site_fract_z
 _atom_site_occupancy
  Dy  Dy0  1  0.000000  0.000000  0.499650  1
  Dy  Dy1  1  0.000000  0.000000  0.000224  1
  Dy  Dy2  1  0.209484  0.790516  0.439928  1
  Dy  Dy3  1  0.209484  0.418969  0.439928  1
  Dy  Dy4  1  0.581031  0.790516  0.439928  1
  Y  Y5  1  0.540560  0.459440  0.250169  1
  Y  Y6  1  0.540560  0.081119  0.250169  1
  Y  Y7  1  0.918881  0.459440  0.250169  1
  Y  Y8  1  0.456966  0.543034  0.749776  1
  Y  Y9  1  0.456966  0.913933  0.749776  1
  Y  Y10  1  0.086067  0.543034  0.749776  1
  Y  Y11  1  0.789170  0.210830  0.562361  1
  Y  Y12  1  0.789170  0.578341  0.562361  1
  Y  Y13  1  0.421659  0.210830  0.562361  1
  Y  Y14  1  0.789112  0.210888  0.937542  1
  Y  Y15  1  0.789112  0.578225  0.937542  1
  Y  Y16  1  0.421775  0.210888  0.937542  1
  Y  Y17  1  0.209101  0.790899  0.059824  1
  Y  Y18  1  0.209101  0.418203  0.059824  1
  Y  Y19  1  0.581797  0.790899  0.059824  1
  Cd  Cd20  1  0.885076  0.114924  0.249959  1
  Cd  Cd21  1  0.885076  0.770153  0.249959  1
  Cd  Cd22  1  0.229847  0.114924  0.249959  1
  Cd  Cd23  1  0.114979  0.885021  0.750084  1
  Cd  Cd24  1  0.114979  0.229959  0.750084  1
  Cd  Cd25  1  0.770041  0.885021  0.750084  1
  Ni  Ni26  1  0.666667  0.333333  0.749896  1
  Os  Os27  1  0.333333  0.666667  0.251301  1
