# generated using pymatgen
data_Tb12Pr8Si15Se
_symmetry_space_group_name_H-M   'P 1'
_cell_length_a   7.88540288
_cell_length_b   7.82742195
_cell_length_c   14.61299900
_cell_angle_alpha   90.36051373
_cell_angle_beta   89.09765659
_cell_angle_gamma   90.24623079
_symmetry_Int_Tables_number   1
_chemical_formula_structural   Tb12Pr8Si15Se
_chemical_formula_sum   'Tb12 Pr8 Si15 Se1'
_cell_volume   901.81135834
_cell_formula_units_Z   1
loop_
 _symmetry_equiv_pos_site_id
 _symmetry_equiv_pos_as_xyz
  1  'x, y, z'
loop_
 _atom_site_type_symbol
 _atom_site_label
 _atom_site_symmetry_multiplicity
 _atom_site_fract_x
 _atom_site_fract_y
 _atom_site_fract_z
 _atom_site_occupancy
  Tb  Tb0  1  0.356054  0.494909  0.381384  1
  Tb  Tb1  1  0.852751  0.013845  0.369849  1
  Tb  Tb2  1  0.989293  0.138634  0.125535  1
  Tb  Tb3  1  0.019476  0.859369  0.621122  1
  Tb  Tb4  1  0.641919  0.510764  0.876601  1
  Tb  Tb5  1  0.498121  0.355153  0.626920  1
  Tb  Tb6  1  0.507966  0.639521  0.123511  1
  Tb  Tb7  1  0.138334  0.990962  0.874503  1
  Tb  Tb8  1  0.671062  0.685626  0.502073  1
  Tb  Tb9  1  0.822525  0.184038  0.749187  1
  Tb  Tb10  1  0.180154  0.815435  0.245528  1
  Tb  Tb11  1  0.317284  0.316368  0.000788  1
  Pr  Pr12  1  0.994772  0.635202  0.044751  1
  Pr  Pr13  1  0.010801  0.362023  0.542605  1
  Pr  Pr14  1  0.639474  0.992801  0.956231  1
  Pr  Pr15  1  0.142423  0.509403  0.791500  1
  Pr  Pr16  1  0.847954  0.484965  0.287097  1
  Pr  Pr17  1  0.504252  0.137608  0.206182  1
  Pr  Pr18  1  0.501149  0.865697  0.710610  1
  Pr  Pr19  1  0.363007  0.005745  0.457652  1
  Si  Si20  1  0.934032  0.288272  0.939354  1
  Si  Si21  1  0.716959  0.064709  0.559547  1
  Si  Si22  1  0.209564  0.435500  0.191438  1
  Si  Si23  1  0.798701  0.566020  0.688504  1
  Si  Si24  1  0.435972  0.213957  0.813098  1
  Si  Si25  1  0.557810  0.789458  0.311708  1
  Si  Si26  1  0.289736  0.935037  0.060021  1
  Si  Si27  1  0.850448  0.796552  0.805282  1
  Si  Si28  1  0.153029  0.203442  0.311674  1
  Si  Si29  1  0.795774  0.844787  0.189297  1
  Si  Si30  1  0.318606  0.649028  0.577820  1
  Si  Si31  1  0.703010  0.345599  0.059306  1
  Si  Si32  1  0.654364  0.300599  0.441378  1
  Si  Si33  1  0.346397  0.704446  0.941514  1
  Si  Si34  1  0.202522  0.154693  0.690952  1
  Se  Se35  1  0.034309  0.709836  0.425479  1
