# generated using pymatgen
data_Pr7Ho(IrO6)4
_symmetry_space_group_name_H-M   'P 1'
_cell_length_a   5.48564019
_cell_length_b   9.48880770
_cell_length_c   10.23059800
_cell_angle_alpha   90.07774247
_cell_angle_beta   89.98487610
_cell_angle_gamma   90.03688403
_symmetry_Int_Tables_number   1
_chemical_formula_structural   Pr7Ho(IrO6)4
_chemical_formula_sum   'Pr7 Ho1 Ir4 O24'
_cell_volume   532.52435953
_cell_formula_units_Z   1
loop_
 _symmetry_equiv_pos_site_id
 _symmetry_equiv_pos_as_xyz
  1  'x, y, z'
loop_
 _atom_site_type_symbol
 _atom_site_label
 _atom_site_symmetry_multiplicity
 _atom_site_fract_x
 _atom_site_fract_y
 _atom_site_fract_z
 _atom_site_occupancy
  Pr  Pr0  1  0.476130  0.600065  0.536641  1
  Pr  Pr1  1  0.974814  0.899093  0.461954  1
  Pr  Pr2  1  0.525160  0.102962  0.963623  1
  Pr  Pr3  1  0.023381  0.397593  0.039423  1
  Pr  Pr4  1  0.965972  0.782778  0.867392  1
  Pr  Pr5  1  0.465843  0.718574  0.133874  1
  Pr  Pr6  1  0.037185  0.281108  0.629878  1
  Ho  Ho7  1  0.537675  0.217435  0.369660  1
  Ir  Ir8  1  0.457293  0.998214  0.640631  1
  Ir  Ir9  1  0.955023  0.499031  0.356856  1
  Ir  Ir10  1  0.544548  0.496677  0.856991  1
  Ir  Ir11  1  0.044376  0.006673  0.146464  1
  O  O12  1  0.258288  0.090889  0.500086  1
  O  O13  1  0.745274  0.405582  0.492245  1
  O  O14  1  0.750779  0.588693  0.994549  1
  O  O15  1  0.250805  0.914008  0.008433  1
  O  O16  1  0.722449  0.114119  0.559630  1
  O  O17  1  0.230942  0.382891  0.429995  1
  O  O18  1  0.276134  0.612625  0.934396  1
  O  O19  1  0.776607  0.890058  0.067065  1
  O  O20  1  0.565698  0.849962  0.520358  1
  O  O21  1  0.064088  0.645570  0.479764  1
  O  O22  1  0.433987  0.350915  0.979598  1
  O  O23  1  0.938365  0.150165  0.021324  1
  O  O24  1  0.172179  0.860822  0.258947  1
  O  O25  1  0.675857  0.639575  0.742104  1
  O  O26  1  0.813364  0.356021  0.244825  1
  O  O27  1  0.324532  0.139610  0.756669  1
  O  O28  1  0.831249  0.062435  0.286664  1
  O  O29  1  0.338288  0.442294  0.714662  1
  O  O30  1  0.158239  0.556093  0.214863  1
  O  O31  1  0.662263  0.944517  0.783591  1
  O  O32  1  0.319079  0.132995  0.187834  1
  O  O33  1  0.816031  0.369159  0.820334  1
  O  O34  1  0.684960  0.629097  0.320925  1
  O  O35  1  0.183140  0.871702  0.677755  1
