# generated using pymatgen
data_Rb6YLuBi4
_symmetry_space_group_name_H-M   'P 1'
_cell_length_a   10.37806887
_cell_length_b   10.37806995
_cell_length_c   10.37806877
_cell_angle_alpha   128.14418064
_cell_angle_beta   70.33156675
_cell_angle_gamma   135.96655046
_symmetry_Int_Tables_number   1
_chemical_formula_structural   Rb6YLuBi4
_chemical_formula_sum   'Rb6 Y1 Lu1 Bi4'
_cell_volume   599.10157190
_cell_formula_units_Z   1
loop_
 _symmetry_equiv_pos_site_id
 _symmetry_equiv_pos_as_xyz
  1  'x, y, z'
loop_
 _atom_site_type_symbol
 _atom_site_label
 _atom_site_symmetry_multiplicity
 _atom_site_fract_x
 _atom_site_fract_y
 _atom_site_fract_z
 _atom_site_occupancy
  Rb  Rb0  1  0.250000  0.250000  0.000000  1
  Rb  Rb1  1  0.750000  0.750000  0.000000  1
  Rb  Rb2  1  0.314112  0.806483  0.119826  1
  Rb  Rb3  1  0.185888  0.305714  0.492370  1
  Rb  Rb4  1  0.813345  0.693518  0.507631  1
  Rb  Rb5  1  0.686655  0.194285  0.880173  1
  Y  Y6  1  0.250000  0.749999  0.499999  1
  Lu  Lu7  1  0.750000  0.250000  0.500000  1
  Bi  Bi8  1  0.898771  0.302493  0.206750  1
  Bi  Bi9  1  0.601229  0.807981  0.403722  1
  Bi  Bi10  1  0.404259  0.197507  0.596278  1
  Bi  Bi11  1  0.095741  0.692019  0.793249  1
