# generated using pymatgen
data_La2Zn(GeRh2)3
_symmetry_space_group_name_H-M   'P 1'
_cell_length_a   5.73766640
_cell_length_b   6.84699993
_cell_length_c   6.84700099
_cell_angle_alpha   66.87204024
_cell_angle_beta   65.36697834
_cell_angle_gamma   65.36696769
_symmetry_Int_Tables_number   1
_chemical_formula_structural   La2Zn(GeRh2)3
_chemical_formula_sum   'La2 Zn1 Ge3 Rh6'
_cell_volume   214.30600092
_cell_formula_units_Z   1
loop_
 _symmetry_equiv_pos_site_id
 _symmetry_equiv_pos_as_xyz
  1  'x, y, z'
loop_
 _atom_site_type_symbol
 _atom_site_label
 _atom_site_symmetry_multiplicity
 _atom_site_fract_x
 _atom_site_fract_y
 _atom_site_fract_z
 _atom_site_occupancy
  La  La0  1  0.544035  0.752857  0.752857  1
  La  La1  1  0.461647  0.246386  0.246386  1
  Zn  Zn2  1  0.879307  0.914434  0.914434  1
  Ge  Ge3  1  0.195610  0.593634  0.593634  1
  Ge  Ge4  1  0.789771  0.420426  0.420426  1
  Ge  Ge5  1  0.133000  0.072281  0.072281  1
  Rh  Rh6  1  0.498411  0.233218  0.767252  1
  Rh  Rh7  1  0.000845  0.718852  0.283178  1
  Rh  Rh8  1  0.498411  0.767252  0.233218  1
  Rh  Rh9  1  0.000845  0.283178  0.718852  1
  Rh  Rh10  1  0.999060  0.485018  0.012464  1
  Rh  Rh11  1  0.999060  0.012464  0.485018  1
