# generated using pymatgen
data_TbNd15InHg3Ir4
_symmetry_space_group_name_H-M   'P 1'
_cell_length_a   9.92872262
_cell_length_b   9.95534289
_cell_length_c   9.92391694
_cell_angle_alpha   60.03960669
_cell_angle_beta   59.98397981
_cell_angle_gamma   60.08840903
_symmetry_Int_Tables_number   1
_chemical_formula_structural   TbNd15InHg3Ir4
_chemical_formula_sum   'Tb1 Nd15 In1 Hg3 Ir4'
_cell_volume   694.19958484
_cell_formula_units_Z   1
loop_
 _symmetry_equiv_pos_site_id
 _symmetry_equiv_pos_as_xyz
  1  'x, y, z'
loop_
 _atom_site_type_symbol
 _atom_site_label
 _atom_site_symmetry_multiplicity
 _atom_site_fract_x
 _atom_site_fract_y
 _atom_site_fract_z
 _atom_site_occupancy
  Tb  Tb0  1  0.558571  0.942683  0.940174  1
  Nd  Nd1  1  0.099602  0.701068  0.099729  1
  Nd  Nd2  1  0.939570  0.939608  0.560438  1
  Nd  Nd3  1  0.941658  0.559239  0.939807  1
  Nd  Nd4  1  0.311940  0.692265  0.307367  1
  Nd  Nd5  1  0.940998  0.558783  0.559220  1
  Nd  Nd6  1  0.312337  0.309706  0.689247  1
  Nd  Nd7  1  0.101194  0.099001  0.098843  1
  Nd  Nd8  1  0.559295  0.559239  0.939807  1
  Nd  Nd9  1  0.099883  0.100445  0.699791  1
  Nd  Nd10  1  0.688710  0.309706  0.689247  1
  Nd  Nd11  1  0.688427  0.692265  0.307367  1
  Nd  Nd12  1  0.690336  0.310528  0.308798  1
  Nd  Nd13  1  0.310873  0.690989  0.687266  1
  Nd  Nd14  1  0.560383  0.939608  0.560438  1
  Nd  Nd15  1  0.700963  0.099001  0.098843  1
  In  In16  1  0.330698  0.328269  0.010335  1
  Hg  Hg17  1  0.333749  0.334086  0.333642  1
  Hg  Hg18  1  0.998524  0.334086  0.333642  1
  Hg  Hg19  1  0.334943  0.997418  0.332696  1
  Ir  Ir20  1  0.887273  0.892893  0.893422  1
  Ir  Ir21  1  0.892100  0.891874  0.323926  1
  Ir  Ir22  1  0.326413  0.892893  0.893422  1
  Ir  Ir23  1  0.891560  0.324347  0.892532  1
