# generated using pymatgen
data_Tm2Cr3Fe9P7
_symmetry_space_group_name_H-M   'P 1'
_cell_length_a   9.00636600
_cell_length_b   9.00636535
_cell_length_c   3.61474200
_cell_angle_alpha   90.00000000
_cell_angle_beta   90.00000000
_cell_angle_gamma   120.00000239
_symmetry_Int_Tables_number   1
_chemical_formula_structural   Tm2Cr3Fe9P7
_chemical_formula_sum   'Tm2 Cr3 Fe9 P7'
_cell_volume   253.92594577
_cell_formula_units_Z   1
loop_
 _symmetry_equiv_pos_site_id
 _symmetry_equiv_pos_as_xyz
  1  'x, y, z'
loop_
 _atom_site_type_symbol
 _atom_site_label
 _atom_site_symmetry_multiplicity
 _atom_site_fract_x
 _atom_site_fract_y
 _atom_site_fract_z
 _atom_site_occupancy
  Tm  Tm0  1  0.000000  0.000000  0.000000  1
  Tm  Tm1  1  0.666667  0.333333  0.500000  1
  Cr  Cr2  1  0.449894  0.566834  0.500000  1
  Cr  Cr3  1  0.433166  0.883061  0.500000  1
  Cr  Cr4  1  0.116939  0.550106  0.500000  1
  Fe  Fe5  1  0.707778  0.612247  0.000000  1
  Fe  Fe6  1  0.387753  0.095531  0.000000  1
  Fe  Fe7  1  0.904469  0.292222  0.000000  1
  Fe  Fe8  1  0.212670  0.390606  0.000000  1
  Fe  Fe9  1  0.609394  0.822064  0.000000  1
  Fe  Fe10  1  0.177936  0.787330  0.000000  1
  Fe  Fe11  1  0.285046  0.232988  0.500000  1
  Fe  Fe12  1  0.767012  0.052057  0.500000  1
  Fe  Fe13  1  0.947943  0.714954  0.500000  1
  P  P14  1  0.448804  0.371371  0.000000  1
  P  P15  1  0.628629  0.077434  0.000000  1
  P  P16  1  0.922566  0.551196  0.000000  1
  P  P17  1  0.043809  0.259817  0.500000  1
  P  P18  1  0.740183  0.783993  0.500000  1
  P  P19  1  0.216007  0.956191  0.500000  1
  P  P20  1  0.333333  0.666667  0.000000  1
