# generated using pymatgen
data_Ba2MgV5(PO4)6
_symmetry_space_group_name_H-M   'P 1'
_cell_length_a   9.32068649
_cell_length_b   9.32068603
_cell_length_c   9.31703209
_cell_angle_alpha   137.34728194
_cell_angle_beta   110.23675548
_cell_angle_gamma   85.35681778
_symmetry_Int_Tables_number   1
_chemical_formula_structural   Ba2MgV5(PO4)6
_chemical_formula_sum   'Ba2 Mg1 V5 P6 O24'
_cell_volume   495.04800202
_cell_formula_units_Z   1
loop_
 _symmetry_equiv_pos_site_id
 _symmetry_equiv_pos_as_xyz
  1  'x, y, z'
loop_
 _atom_site_type_symbol
 _atom_site_label
 _atom_site_symmetry_multiplicity
 _atom_site_fract_x
 _atom_site_fract_y
 _atom_site_fract_z
 _atom_site_occupancy
  Ba  Ba0  1  0.750051  0.142629  0.393698  1
  Ba  Ba1  1  0.248931  0.856353  0.606302  1
  Mg  Mg2  1  0.617244  0.617244  0.500000  1
  V  V3  1  0.999582  0.001219  0.001350  1
  V  V4  1  0.499869  0.498233  0.998650  1
  V  V5  1  0.880171  0.380171  0.000000  1
  V  V6  1  0.119326  0.619326  0.000000  1
  V  V7  1  0.382981  0.382981  0.500000  1
  P  P8  1  0.818679  0.818679  0.500000  1
  P  P9  1  0.676723  0.176723  0.000000  1
  P  P10  1  0.322640  0.822640  0.000000  1
  P  P11  1  0.178390  0.178390  0.500000  1
  P  P12  1  0.750545  0.652641  0.900574  1
  P  P13  1  0.252066  0.349970  0.099426  1
  O  O14  1  0.636625  0.519092  0.644987  1
  O  O15  1  0.133671  0.487825  0.121343  1
  O  O16  1  0.374106  0.491639  0.355013  1
  O  O17  1  0.866483  0.512328  0.878657  1
  O  O18  1  0.159999  0.130453  0.975272  1
  O  O19  1  0.845221  0.875759  0.034590  1
  O  O20  1  0.655180  0.684727  0.024728  1
  O  O21  1  0.341170  0.310631  0.965410  1
  O  O22  1  0.854382  0.791566  0.657807  1
  O  O23  1  0.862953  0.206572  0.066851  1
  O  O24  1  0.359908  0.702169  0.065019  1
  O  O25  1  0.363890  0.298849  0.656763  1
  O  O26  1  0.142086  0.207126  0.343237  1
  O  O27  1  0.137148  0.794888  0.934981  1
  O  O28  1  0.639720  0.296100  0.933149  1
  O  O29  1  0.633757  0.696574  0.342193  1
  O  O30  1  0.844511  0.060246  0.643550  1
  O  O31  1  0.582281  0.934253  0.783032  1
  O  O32  1  0.347661  0.703678  0.783726  1
  O  O33  1  0.081323  0.297004  0.644149  1
  O  O34  1  0.152855  0.937173  0.355851  1
  O  O35  1  0.419953  0.063937  0.216274  1
  O  O36  1  0.651222  0.299250  0.216968  1
  O  O37  1  0.916695  0.700961  0.356450  1
