# generated using pymatgen
data_La4Cd2IrPd3
_symmetry_space_group_name_H-M   'P 1'
_cell_length_a   7.88034958
_cell_length_b   7.88034958
_cell_length_c   3.99645200
_cell_angle_alpha   90.00000000
_cell_angle_beta   90.00000000
_cell_angle_gamma   90.27430981
_symmetry_Int_Tables_number   1
_chemical_formula_structural   La4Cd2IrPd3
_chemical_formula_sum   'La4 Cd2 Ir1 Pd3'
_cell_volume   248.17646315
_cell_formula_units_Z   1
loop_
 _symmetry_equiv_pos_site_id
 _symmetry_equiv_pos_as_xyz
  1  'x, y, z'
loop_
 _atom_site_type_symbol
 _atom_site_label
 _atom_site_symmetry_multiplicity
 _atom_site_fract_x
 _atom_site_fract_y
 _atom_site_fract_z
 _atom_site_occupancy
  La  La0  1  0.670131  0.170131  0.500000  1
  La  La1  1  0.317133  0.817133  0.500000  1
  La  La2  1  0.175132  0.339090  0.500000  1
  La  La3  1  0.839090  0.675132  0.500000  1
  Cd  Cd4  1  0.000325  0.003024  0.000000  1
  Cd  Cd5  1  0.503024  0.500325  0.000000  1
  Ir  Ir6  1  0.129003  0.629003  0.000000  1
  Pd  Pd7  1  0.865109  0.365109  0.000000  1
  Pd  Pd8  1  0.630012  0.871041  0.000000  1
  Pd  Pd9  1  0.371041  0.130012  0.000000  1
