# generated using pymatgen
data_Tb3Dy3Al24ZnOs7
_symmetry_space_group_name_H-M   'P 1'
_cell_length_a   8.86292949
_cell_length_b   8.86200803
_cell_length_c   9.54921211
_cell_angle_alpha   89.95284772
_cell_angle_beta   90.04046486
_cell_angle_gamma   119.99187837
_symmetry_Int_Tables_number   1
_chemical_formula_structural   Tb3Dy3Al24ZnOs7
_chemical_formula_sum   'Tb3 Dy3 Al24 Zn1 Os7'
_cell_volume   649.59544251
_cell_formula_units_Z   1
loop_
 _symmetry_equiv_pos_site_id
 _symmetry_equiv_pos_as_xyz
  1  'x, y, z'
loop_
 _atom_site_type_symbol
 _atom_site_label
 _atom_site_symmetry_multiplicity
 _atom_site_fract_x
 _atom_site_fract_y
 _atom_site_fract_z
 _atom_site_occupancy
  Tb  Tb0  1  0.191111  0.385840  0.248201  1
  Tb  Tb1  1  0.808840  0.614116  0.751797  1
  Tb  Tb2  1  0.614166  0.808910  0.248217  1
  Dy  Dy3  1  0.386149  0.191170  0.751679  1
  Dy  Dy4  1  0.194300  0.805665  0.253189  1
  Dy  Dy5  1  0.805606  0.194321  0.746805  1
  Al  Al6  1  0.329484  0.670513  0.020053  1
  Al  Al7  1  0.670395  0.329443  0.979852  1
  Al  Al8  1  0.666034  0.333801  0.517041  1
  Al  Al9  1  0.333846  0.666133  0.483048  1
  Al  Al10  1  0.162576  0.325772  0.573872  1
  Al  Al11  1  0.837486  0.674191  0.426179  1
  Al  Al12  1  0.674210  0.837476  0.573856  1
  Al  Al13  1  0.848836  0.677282  0.080703  1
  Al  Al14  1  0.325805  0.162516  0.426265  1
  Al  Al15  1  0.151214  0.322683  0.919244  1
  Al  Al16  1  0.162967  0.837163  0.575035  1
  Al  Al17  1  0.322702  0.151144  0.080628  1
  Al  Al18  1  0.837084  0.162930  0.425010  1
  Al  Al19  1  0.677302  0.848850  0.919273  1
  Al  Al20  1  0.836675  0.163302  0.076069  1
  Al  Al21  1  0.163378  0.836791  0.923881  1
  Al  Al22  1  0.561429  0.121538  0.249276  1
  Al  Al23  1  0.438521  0.878614  0.750712  1
  Al  Al24  1  0.878462  0.438567  0.249296  1
  Al  Al25  1  0.121556  0.561441  0.750707  1
  Al  Al26  1  0.563626  0.436361  0.254620  1
  Al  Al27  1  0.436340  0.563466  0.745409  1
  Al  Al28  1  0.999148  0.000861  0.250550  1
  Al  Al29  1  0.001016  0.999230  0.749458  1
  Zn  Zn30  1  0.499980  0.499976  0.999979  1
  Os  Os31  1  0.499940  0.000085  0.999884  1
  Os  Os32  1  0.999955  0.499964  0.999980  1
  Os  Os33  1  0.499956  0.000058  0.500095  1
  Os  Os34  1  0.999932  0.499963  0.500029  1
  Os  Os35  1  0.499947  0.499856  0.500100  1
  Os  Os36  1  0.000002  0.999997  0.999975  1
  Os  Os37  1  0.000022  0.000010  0.500032  1
