# generated using pymatgen
data_LaH2Br
_symmetry_space_group_name_H-M   'P 1'
_cell_length_a   11.28610524
_cell_length_b   11.28610486
_cell_length_c   11.28610515
_cell_angle_alpha   20.70321441
_cell_angle_beta   20.70321933
_cell_angle_gamma   20.70321720
_symmetry_Int_Tables_number   1
_chemical_formula_structural   LaH2Br
_chemical_formula_sum   'La2 H4 Br2'
_cell_volume   157.29224329
_cell_formula_units_Z   2
loop_
 _symmetry_equiv_pos_site_id
 _symmetry_equiv_pos_as_xyz
  1  'x, y, z'
loop_
 _atom_site_type_symbol
 _atom_site_label
 _atom_site_symmetry_multiplicity
 _atom_site_fract_x
 _atom_site_fract_y
 _atom_site_fract_z
 _atom_site_occupancy
  La  La0  1  0.885951  0.885951  0.885951  1
  La  La1  1  0.114049  0.114049  0.114049  1
  H  H2  1  0.812778  0.812778  0.812778  1
  H  H3  1  0.187222  0.187222  0.187222  1
  H  H4  1  0.546076  0.546076  0.546076  1
  H  H5  1  0.453924  0.453924  0.453924  1
  Br  Br6  1  0.720629  0.720629  0.720629  1
  Br  Br7  1  0.279371  0.279371  0.279371  1
