# generated using pymatgen
data_Li4ThNpBr12
_symmetry_space_group_name_H-M   'P 1'
_cell_length_a   7.02042600
_cell_length_b   7.02042527
_cell_length_c   13.59205000
_cell_angle_alpha   90.00000000
_cell_angle_beta   90.00000000
_cell_angle_gamma   119.99999400
_symmetry_Int_Tables_number   1
_chemical_formula_structural   Li4ThNpBr12
_chemical_formula_sum   'Li4 Th1 Np1 Br12'
_cell_volume   580.15295465
_cell_formula_units_Z   1
loop_
 _symmetry_equiv_pos_site_id
 _symmetry_equiv_pos_as_xyz
  1  'x, y, z'
loop_
 _atom_site_type_symbol
 _atom_site_label
 _atom_site_symmetry_multiplicity
 _atom_site_fract_x
 _atom_site_fract_y
 _atom_site_fract_z
 _atom_site_occupancy
  Li  Li0  1  0.000000  0.000000  0.750000  1
  Li  Li1  1  0.666667  0.333333  0.750000  1
  Li  Li2  1  0.333333  0.666667  0.250000  1
  Li  Li3  1  0.000000  0.000000  0.250000  1
  Th  Th4  1  0.333333  0.666667  0.750000  1
  Np  Np5  1  0.666667  0.333333  0.250000  1
  Br  Br6  1  0.994519  0.327659  0.633842  1
  Br  Br7  1  0.333141  0.005481  0.633842  1
  Br  Br8  1  0.672341  0.666859  0.633842  1
  Br  Br9  1  0.672341  0.005481  0.866158  1
  Br  Br10  1  0.333141  0.327659  0.866158  1
  Br  Br11  1  0.994519  0.666859  0.866158  1
  Br  Br12  1  0.996781  0.333200  0.136993  1
  Br  Br13  1  0.336417  0.003219  0.136993  1
  Br  Br14  1  0.666800  0.663583  0.136993  1
  Br  Br15  1  0.666800  0.003219  0.363007  1
  Br  Br16  1  0.336417  0.333200  0.363007  1
  Br  Br17  1  0.996781  0.663583  0.363007  1
