# generated using pymatgen
data_Er4Tm8TcOs3
_symmetry_space_group_name_H-M   'P 1'
_cell_length_a   7.36997293
_cell_length_b   8.90887200
_cell_length_c   6.23138402
_cell_angle_alpha   90.00000000
_cell_angle_beta   89.92622985
_cell_angle_gamma   90.00000000
_symmetry_Int_Tables_number   1
_chemical_formula_structural   Er4Tm8TcOs3
_chemical_formula_sum   'Er4 Tm8 Tc1 Os3'
_cell_volume   409.14077976
_cell_formula_units_Z   1
loop_
 _symmetry_equiv_pos_site_id
 _symmetry_equiv_pos_as_xyz
  1  'x, y, z'
loop_
 _atom_site_type_symbol
 _atom_site_label
 _atom_site_symmetry_multiplicity
 _atom_site_fract_x
 _atom_site_fract_y
 _atom_site_fract_z
 _atom_site_occupancy
  Er  Er0  1  0.040004  0.250000  0.627384  1
  Er  Er1  1  0.959856  0.750000  0.371145  1
  Er  Er2  1  0.460635  0.750000  0.129081  1
  Er  Er3  1  0.539178  0.250000  0.874593  1
  Tm  Tm4  1  0.174602  0.062274  0.164312  1
  Tm  Tm5  1  0.824859  0.938088  0.833678  1
  Tm  Tm6  1  0.325411  0.937437  0.664978  1
  Tm  Tm7  1  0.824859  0.561912  0.833678  1
  Tm  Tm8  1  0.675009  0.062466  0.334781  1
  Tm  Tm9  1  0.174602  0.437726  0.164312  1
  Tm  Tm10  1  0.675009  0.437534  0.334781  1
  Tm  Tm11  1  0.325411  0.562563  0.664978  1
  Tc  Tc12  1  0.382463  0.250000  0.463502  1
  Os  Os13  1  0.618517  0.750000  0.539137  1
  Os  Os14  1  0.117609  0.750000  0.961686  1
  Os  Os15  1  0.881973  0.250000  0.037971  1
