# generated using pymatgen
data_Ho3Er5Re(B8Ir)3
_symmetry_space_group_name_H-M   'P 1'
_cell_length_a   3.64294400
_cell_length_b   9.14817796
_cell_length_c   11.48328603
_cell_angle_alpha   90.13816561
_cell_angle_beta   90.00000000
_cell_angle_gamma   90.00000000
_symmetry_Int_Tables_number   1
_chemical_formula_structural   Ho3Er5Re(B8Ir)3
_chemical_formula_sum   'Ho3 Er5 Re1 B24 Ir3'
_cell_volume   382.69432292
_cell_formula_units_Z   1
loop_
 _symmetry_equiv_pos_site_id
 _symmetry_equiv_pos_as_xyz
  1  'x, y, z'
loop_
 _atom_site_type_symbol
 _atom_site_label
 _atom_site_symmetry_multiplicity
 _atom_site_fract_x
 _atom_site_fract_y
 _atom_site_fract_z
 _atom_site_occupancy
  Ho  Ho0  1  0.000000  0.320799  0.413531  1
  Ho  Ho1  1  0.000000  0.683218  0.590685  1
  Ho  Ho2  1  0.000000  0.820861  0.082874  1
  Er  Er3  1  0.000000  0.175859  0.912136  1
  Er  Er4  1  0.000000  0.943732  0.373254  1
  Er  Er5  1  0.000000  0.053956  0.626176  1
  Er  Er6  1  0.000000  0.443473  0.125950  1
  Er  Er7  1  0.000000  0.557327  0.875183  1
  Re  Re8  1  0.000000  0.862748  0.821287  1
  B  B9  1  0.500000  0.553423  0.434346  1
  B  B10  1  0.500000  0.447721  0.566605  1
  B  B11  1  0.500000  0.053230  0.066183  1
  B  B12  1  0.500000  0.947069  0.933290  1
  B  B13  1  0.500000  0.750198  0.420720  1
  B  B14  1  0.500000  0.250662  0.579003  1
  B  B15  1  0.500000  0.248852  0.078757  1
  B  B16  1  0.500000  0.751964  0.920065  1
  B  B17  1  0.500000  0.792040  0.265196  1
  B  B18  1  0.500000  0.207760  0.733342  1
  B  B19  1  0.500000  0.292796  0.234791  1
  B  B20  1  0.500000  0.707947  0.766374  1
  B  B21  1  0.500000  0.631048  0.184571  1
  B  B22  1  0.500000  0.368124  0.815702  1
  B  B23  1  0.500000  0.131989  0.315432  1
  B  B24  1  0.500000  0.868966  0.685578  1
  B  B25  1  0.500000  0.981449  0.212787  1
  B  B26  1  0.500000  0.017814  0.786591  1
  B  B27  1  0.500000  0.481065  0.287415  1
  B  B28  1  0.500000  0.518231  0.714031  1
  B  B29  1  0.500000  0.608526  0.031339  1
  B  B30  1  0.500000  0.388809  0.970009  1
  B  B31  1  0.500000  0.109577  0.469155  1
  B  B32  1  0.500000  0.891453  0.528780  1
  Ir  Ir33  1  0.000000  0.637139  0.322599  1
  Ir  Ir34  1  0.000000  0.362731  0.678118  1
  Ir  Ir35  1  0.000000  0.137442  0.178146  1
