# generated using pymatgen
data_Pr3Al12Ru3Rh
_symmetry_space_group_name_H-M   'P 1'
_cell_length_a   8.98556100
_cell_length_b   8.92198349
_cell_length_c   9.71951700
_cell_angle_alpha   90.00000000
_cell_angle_beta   90.00000000
_cell_angle_gamma   120.23600175
_symmetry_Int_Tables_number   1
_chemical_formula_structural   Pr3Al12Ru3Rh
_chemical_formula_sum   'Pr6 Al24 Ru6 Rh2'
_cell_volume   673.20015490
_cell_formula_units_Z   2
loop_
 _symmetry_equiv_pos_site_id
 _symmetry_equiv_pos_as_xyz
  1  'x, y, z'
loop_
 _atom_site_type_symbol
 _atom_site_label
 _atom_site_symmetry_multiplicity
 _atom_site_fract_x
 _atom_site_fract_y
 _atom_site_fract_z
 _atom_site_occupancy
  Pr  Pr0  1  0.193875  0.387749  0.250000  1
  Pr  Pr1  1  0.806125  0.612251  0.750000  1
  Pr  Pr2  1  0.616362  0.804926  0.250000  1
  Pr  Pr3  1  0.383638  0.195074  0.750000  1
  Pr  Pr4  1  0.188565  0.804926  0.250000  1
  Pr  Pr5  1  0.811435  0.195074  0.750000  1
  Al  Al6  1  0.332507  0.665015  0.010228  1
  Al  Al7  1  0.667493  0.334985  0.989772  1
  Al  Al8  1  0.667493  0.334985  0.510228  1
  Al  Al9  1  0.332507  0.665015  0.489772  1
  Al  Al10  1  0.163013  0.326026  0.575927  1
  Al  Al11  1  0.836987  0.673974  0.424073  1
  Al  Al12  1  0.676057  0.837545  0.576412  1
  Al  Al13  1  0.836987  0.673974  0.075927  1
  Al  Al14  1  0.323943  0.162455  0.423588  1
  Al  Al15  1  0.163013  0.326026  0.924073  1
  Al  Al16  1  0.161489  0.837545  0.576412  1
  Al  Al17  1  0.323943  0.162455  0.076412  1
  Al  Al18  1  0.838511  0.162455  0.423588  1
  Al  Al19  1  0.676057  0.837545  0.923588  1
  Al  Al20  1  0.838511  0.162455  0.076412  1
  Al  Al21  1  0.161489  0.837545  0.923588  1
  Al  Al22  1  0.562104  0.124207  0.250000  1
  Al  Al23  1  0.437896  0.875793  0.750000  1
  Al  Al24  1  0.873121  0.435131  0.250000  1
  Al  Al25  1  0.126879  0.564869  0.750000  1
  Al  Al26  1  0.562010  0.435131  0.250000  1
  Al  Al27  1  0.437990  0.564869  0.750000  1
  Al  Al28  1  0.999607  0.999214  0.250000  1
  Al  Al29  1  0.000393  0.000786  0.750000  1
  Ru  Ru30  1  0.000000  0.500000  0.000000  1
  Ru  Ru31  1  0.500000  0.500000  0.000000  1
  Ru  Ru32  1  0.000000  0.500000  0.500000  1
  Ru  Ru33  1  0.500000  0.500000  0.500000  1
  Ru  Ru34  1  0.000000  0.000000  0.000000  1
  Ru  Ru35  1  0.000000  0.000000  0.500000  1
  Rh  Rh36  1  0.500000  0.000000  0.000000  1
  Rh  Rh37  1  0.500000  0.000000  0.500000  1
