# generated using pymatgen
data_Hf16NbTc3Ni4
_symmetry_space_group_name_H-M   'P 1'
_cell_length_a   8.67738111
_cell_length_b   8.67738153
_cell_length_c   8.67738179
_cell_angle_alpha   60.10433703
_cell_angle_beta   60.10433908
_cell_angle_gamma   60.10433636
_symmetry_Int_Tables_number   1
_chemical_formula_structural   Hf16NbTc3Ni4
_chemical_formula_sum   'Hf16 Nb1 Tc3 Ni4'
_cell_volume   463.10188323
_cell_formula_units_Z   1
loop_
 _symmetry_equiv_pos_site_id
 _symmetry_equiv_pos_as_xyz
  1  'x, y, z'
loop_
 _atom_site_type_symbol
 _atom_site_label
 _atom_site_symmetry_multiplicity
 _atom_site_fract_x
 _atom_site_fract_y
 _atom_site_fract_z
 _atom_site_occupancy
  Hf  Hf0  1  0.690214  0.102899  0.102899  1
  Hf  Hf1  1  0.102899  0.690214  0.102899  1
  Hf  Hf2  1  0.102899  0.102899  0.690214  1
  Hf  Hf3  1  0.102924  0.102924  0.102924  1
  Hf  Hf4  1  0.314944  0.314944  0.689139  1
  Hf  Hf5  1  0.685000  0.685000  0.315572  1
  Hf  Hf6  1  0.314944  0.689139  0.314944  1
  Hf  Hf7  1  0.685000  0.315572  0.685000  1
  Hf  Hf8  1  0.689139  0.314944  0.314944  1
  Hf  Hf9  1  0.315572  0.685000  0.685000  1
  Hf  Hf10  1  0.953478  0.953478  0.546329  1
  Hf  Hf11  1  0.549665  0.549665  0.950521  1
  Hf  Hf12  1  0.953478  0.546329  0.953478  1
  Hf  Hf13  1  0.549665  0.950521  0.549665  1
  Hf  Hf14  1  0.546329  0.953478  0.953478  1
  Hf  Hf15  1  0.950521  0.549665  0.549665  1
  Nb  Nb16  1  0.330191  0.330191  0.330191  1
  Tc  Tc17  1  0.994336  0.334101  0.334101  1
  Tc  Tc18  1  0.334101  0.994336  0.334101  1
  Tc  Tc19  1  0.334101  0.334101  0.994336  1
  Ni  Ni20  1  0.324424  0.891990  0.891990  1
  Ni  Ni21  1  0.891990  0.324424  0.891990  1
  Ni  Ni22  1  0.891990  0.891990  0.324424  1
  Ni  Ni23  1  0.892196  0.892196  0.892196  1
