# generated using pymatgen
data_TbHo(ZnSi)2
_symmetry_space_group_name_H-M   'P 1'
_cell_length_a   4.16729700
_cell_length_b   4.16729806
_cell_length_c   15.58562000
_cell_angle_alpha   90.00000000
_cell_angle_beta   90.00000000
_cell_angle_gamma   119.99999954
_symmetry_Int_Tables_number   1
_chemical_formula_structural   TbHo(ZnSi)2
_chemical_formula_sum   'Tb2 Ho2 Zn4 Si4'
_cell_volume   234.40330676
_cell_formula_units_Z   2
loop_
 _symmetry_equiv_pos_site_id
 _symmetry_equiv_pos_as_xyz
  1  'x, y, z'
loop_
 _atom_site_type_symbol
 _atom_site_label
 _atom_site_symmetry_multiplicity
 _atom_site_fract_x
 _atom_site_fract_y
 _atom_site_fract_z
 _atom_site_occupancy
  Tb  Tb0  1  0.000000  0.000000  0.000136  1
  Tb  Tb1  1  0.000000  0.000000  0.499837  1
  Ho  Ho2  1  0.000000  0.000000  0.250013  1
  Ho  Ho3  1  0.000000  0.000000  0.749681  1
  Zn  Zn4  1  0.333333  0.666667  0.141050  1
  Zn  Zn5  1  0.666667  0.333333  0.858626  1
  Zn  Zn6  1  0.666667  0.333333  0.640310  1
  Zn  Zn7  1  0.333333  0.666667  0.359608  1
  Si  Si8  1  0.333333  0.666667  0.618706  1
  Si  Si9  1  0.666667  0.333333  0.381137  1
  Si  Si10  1  0.666667  0.333333  0.119548  1
  Si  Si11  1  0.333333  0.666667  0.881348  1
