# generated using pymatgen
data_Tb2Er2ReB12Ru
_symmetry_space_group_name_H-M   'P 1'
_cell_length_a   3.66509900
_cell_length_b   9.14352940
_cell_length_c   11.54127613
_cell_angle_alpha   90.19091185
_cell_angle_beta   90.00000000
_cell_angle_gamma   90.00000000
_symmetry_Int_Tables_number   1
_chemical_formula_structural   Tb2Er2ReB12Ru
_chemical_formula_sum   'Tb4 Er4 Re2 B24 Ru2'
_cell_volume   386.76841151
_cell_formula_units_Z   2
loop_
 _symmetry_equiv_pos_site_id
 _symmetry_equiv_pos_as_xyz
  1  'x, y, z'
loop_
 _atom_site_type_symbol
 _atom_site_label
 _atom_site_symmetry_multiplicity
 _atom_site_fract_x
 _atom_site_fract_y
 _atom_site_fract_z
 _atom_site_occupancy
  Tb  Tb0  1  0.000000  0.321047  0.412574  1
  Tb  Tb1  1  0.000000  0.678953  0.587426  1
  Tb  Tb2  1  0.000000  0.824340  0.084709  1
  Tb  Tb3  1  0.000000  0.175660  0.915291  1
  Er  Er4  1  0.000000  0.942903  0.370550  1
  Er  Er5  1  0.000000  0.057097  0.629450  1
  Er  Er6  1  0.000000  0.442989  0.129308  1
  Er  Er7  1  0.000000  0.557011  0.870692  1
  Re  Re8  1  0.000000  0.138835  0.180124  1
  Re  Re9  1  0.000000  0.861165  0.819876  1
  B  B10  1  0.500000  0.554280  0.432586  1
  B  B11  1  0.500000  0.445720  0.567414  1
  B  B12  1  0.500000  0.053492  0.067252  1
  B  B13  1  0.500000  0.946508  0.932748  1
  B  B14  1  0.500000  0.749086  0.418473  1
  B  B15  1  0.500000  0.250914  0.581527  1
  B  B16  1  0.500000  0.249562  0.081427  1
  B  B17  1  0.500000  0.750438  0.918573  1
  B  B18  1  0.500000  0.790779  0.266107  1
  B  B19  1  0.500000  0.209221  0.733893  1
  B  B20  1  0.500000  0.291950  0.234564  1
  B  B21  1  0.500000  0.708050  0.765436  1
  B  B22  1  0.500000  0.630575  0.186038  1
  B  B23  1  0.500000  0.369425  0.813962  1
  B  B24  1  0.500000  0.130881  0.314926  1
  B  B25  1  0.500000  0.869119  0.685074  1
  B  B26  1  0.500000  0.982766  0.212860  1
  B  B27  1  0.500000  0.017234  0.787140  1
  B  B28  1  0.500000  0.483585  0.287819  1
  B  B29  1  0.500000  0.516415  0.712181  1
  B  B30  1  0.500000  0.602006  0.028342  1
  B  B31  1  0.500000  0.397994  0.971658  1
  B  B32  1  0.500000  0.102487  0.471811  1
  B  B33  1  0.500000  0.897513  0.528189  1
  Ru  Ru34  1  0.000000  0.638240  0.321062  1
  Ru  Ru35  1  0.000000  0.361760  0.678938  1
