# generated using pymatgen
data_Tb3Dy2MoRuO12
_symmetry_space_group_name_H-M   'P 1'
_cell_length_a   6.84806570
_cell_length_b   6.85013073
_cell_length_c   7.54437164
_cell_angle_alpha   73.79862135
_cell_angle_beta   73.82023649
_cell_angle_gamma   49.63778021
_symmetry_Int_Tables_number   1
_chemical_formula_structural   Tb3Dy2MoRuO12
_chemical_formula_sum   'Tb3 Dy2 Mo1 Ru1 O12'
_cell_volume   256.62505268
_cell_formula_units_Z   1
loop_
 _symmetry_equiv_pos_site_id
 _symmetry_equiv_pos_as_xyz
  1  'x, y, z'
loop_
 _atom_site_type_symbol
 _atom_site_label
 _atom_site_symmetry_multiplicity
 _atom_site_fract_x
 _atom_site_fract_y
 _atom_site_fract_z
 _atom_site_occupancy
  Tb  Tb0  1  0.316440  0.292262  0.358124  1
  Tb  Tb1  1  0.707801  0.683654  0.641162  1
  Tb  Tb2  1  0.319681  0.307816  0.825692  1
  Dy  Dy3  1  0.691988  0.680297  0.174695  1
  Dy  Dy4  1  0.007885  0.992256  0.499777  1
  Mo  Mo5  1  0.201076  0.798925  0.000050  1
  Ru  Ru6  1  0.762978  0.236983  0.000333  1
  O  O7  1  0.912441  0.427855  0.916038  1
  O  O8  1  0.412072  0.906630  0.918030  1
  O  O9  1  0.092154  0.588770  0.082831  1
  O  O10  1  0.573608  0.085587  0.085098  1
  O  O11  1  0.107211  0.590323  0.571225  1
  O  O12  1  0.600492  0.088137  0.576448  1
  O  O13  1  0.911152  0.400205  0.422350  1
  O  O14  1  0.410317  0.892149  0.427561  1
  O  O15  1  0.993888  0.004384  0.797071  1
  O  O16  1  0.995455  0.006366  0.202887  1
  O  O17  1  0.492212  0.509178  0.822057  1
  O  O18  1  0.491150  0.508224  0.178569  1
