# generated using pymatgen
data_Er4Al13Au9
_symmetry_space_group_name_H-M   'P 1'
_cell_length_a   11.74680700
_cell_length_b   11.74680515
_cell_length_c   4.12296400
_cell_angle_alpha   90.00000000
_cell_angle_beta   90.00000000
_cell_angle_gamma   119.99999677
_symmetry_Int_Tables_number   1
_chemical_formula_structural   Er4Al13Au9
_chemical_formula_sum   'Er4 Al13 Au9'
_cell_volume   492.69685116
_cell_formula_units_Z   1
loop_
 _symmetry_equiv_pos_site_id
 _symmetry_equiv_pos_as_xyz
  1  'x, y, z'
loop_
 _atom_site_type_symbol
 _atom_site_label
 _atom_site_symmetry_multiplicity
 _atom_site_fract_x
 _atom_site_fract_y
 _atom_site_fract_z
 _atom_site_occupancy
  Er  Er0  1  0.205772  0.794228  0.500000  1
  Er  Er1  1  0.588455  0.794228  0.500000  1
  Er  Er2  1  0.205772  0.411545  0.500000  1
  Er  Er3  1  0.666667  0.333333  0.000000  1
  Al  Al4  1  0.950197  0.294550  0.000000  1
  Al  Al5  1  0.705450  0.655646  0.000000  1
  Al  Al6  1  0.950197  0.655646  0.000000  1
  Al  Al7  1  0.344354  0.049803  0.000000  1
  Al  Al8  1  0.170688  0.085343  0.500000  1
  Al  Al9  1  0.914657  0.829312  0.500000  1
  Al  Al10  1  0.705450  0.049803  0.000000  1
  Al  Al11  1  0.532045  0.064088  0.500000  1
  Al  Al12  1  0.914657  0.085343  0.500000  1
  Al  Al13  1  0.344354  0.294550  0.000000  1
  Al  Al14  1  0.532045  0.467955  0.500000  1
  Al  Al15  1  0.935912  0.467955  0.500000  1
  Al  Al16  1  0.333333  0.666667  0.000000  1
  Au  Au17  1  0.454307  0.545693  0.000000  1
  Au  Au18  1  0.822626  0.911313  0.000000  1
  Au  Au19  1  0.454307  0.908612  0.000000  1
  Au  Au20  1  0.088687  0.177374  0.000000  1
  Au  Au21  1  0.088687  0.911313  0.000000  1
  Au  Au22  1  0.785631  0.571261  0.500000  1
  Au  Au23  1  0.091388  0.545693  0.000000  1
  Au  Au24  1  0.785631  0.214369  0.500000  1
  Au  Au25  1  0.428739  0.214369  0.500000  1
