# generated using pymatgen
data_Ho(BIr)4
_symmetry_space_group_name_H-M   'P 1'
_cell_length_a   7.63051100
_cell_length_b   7.63051100
_cell_length_c   3.99504100
_cell_angle_alpha   90.00000000
_cell_angle_beta   90.00000000
_cell_angle_gamma   90.00000000
_symmetry_Int_Tables_number   1
_chemical_formula_structural   Ho(BIr)4
_chemical_formula_sum   'Ho2 B8 Ir8'
_cell_volume   232.61005621
_cell_formula_units_Z   2
loop_
 _symmetry_equiv_pos_site_id
 _symmetry_equiv_pos_as_xyz
  1  'x, y, z'
loop_
 _atom_site_type_symbol
 _atom_site_label
 _atom_site_symmetry_multiplicity
 _atom_site_fract_x
 _atom_site_fract_y
 _atom_site_fract_z
 _atom_site_occupancy
  Ho  Ho0  1  0.500000  0.500000  0.000000  1
  Ho  Ho1  1  0.000000  0.000000  0.500000  1
  B  B2  1  0.657684  0.777973  0.611831  1
  B  B3  1  0.157684  0.277973  0.888169  1
  B  B4  1  0.277973  0.842316  0.111831  1
  B  B5  1  0.722027  0.157684  0.111831  1
  B  B6  1  0.342316  0.222027  0.611831  1
  B  B7  1  0.842316  0.722027  0.888169  1
  B  B8  1  0.222027  0.657684  0.388169  1
  B  B9  1  0.777973  0.342316  0.388169  1
  Ir  Ir10  1  0.339871  0.109600  0.113156  1
  Ir  Ir11  1  0.660129  0.890400  0.113156  1
  Ir  Ir12  1  0.609600  0.160129  0.613156  1
  Ir  Ir13  1  0.109600  0.660129  0.886844  1
  Ir  Ir14  1  0.160129  0.390400  0.386844  1
  Ir  Ir15  1  0.839871  0.609600  0.386844  1
  Ir  Ir16  1  0.890400  0.339871  0.886844  1
  Ir  Ir17  1  0.390400  0.839871  0.613156  1
