# generated using pymatgen
data_Ce2Pr3Tc2
_symmetry_space_group_name_H-M   'P 1'
_cell_length_a   6.53629292
_cell_length_b   7.24356215
_cell_length_c   9.11308681
_cell_angle_alpha   94.42453766
_cell_angle_beta   111.01555079
_cell_angle_gamma   90.00000012
_symmetry_Int_Tables_number   1
_chemical_formula_structural   Ce2Pr3Tc2
_chemical_formula_sum   'Ce4 Pr6 Tc4'
_cell_volume   401.39087605
_cell_formula_units_Z   2
loop_
 _symmetry_equiv_pos_site_id
 _symmetry_equiv_pos_as_xyz
  1  'x, y, z'
loop_
 _atom_site_type_symbol
 _atom_site_label
 _atom_site_symmetry_multiplicity
 _atom_site_fract_x
 _atom_site_fract_y
 _atom_site_fract_z
 _atom_site_occupancy
  Ce  Ce0  1  0.001647  0.902065  0.185346  1
  Ce  Ce1  1  0.816300  0.597935  0.814654  1
  Ce  Ce2  1  0.998353  0.097935  0.814654  1
  Ce  Ce3  1  0.183700  0.402065  0.185346  1
  Pr  Pr4  1  0.651544  0.822372  0.426520  1
  Pr  Pr5  1  0.225023  0.677628  0.573480  1
  Pr  Pr6  1  0.348456  0.177628  0.573480  1
  Pr  Pr7  1  0.774977  0.322372  0.426520  1
  Pr  Pr8  1  0.430467  0.750000  0.000000  1
  Pr  Pr9  1  0.569533  0.250000  0.000000  1
  Tc  Tc10  1  0.878178  0.597992  0.212034  1
  Tc  Tc11  1  0.666144  0.902008  0.787966  1
  Tc  Tc12  1  0.121822  0.402008  0.787966  1
  Tc  Tc13  1  0.333856  0.097992  0.212034  1
