# generated using pymatgen
data_Dy13Ho7(Bi2Os)4
_symmetry_space_group_name_H-M   'P 1'
_cell_length_a   7.94989503
_cell_length_b   9.03253604
_cell_length_c   12.50036604
_cell_angle_alpha   90.00717023
_cell_angle_beta   89.99459278
_cell_angle_gamma   90.00856203
_symmetry_Int_Tables_number   1
_chemical_formula_structural   Dy13Ho7(Bi2Os)4
_chemical_formula_sum   'Dy13 Ho7 Bi8 Os4'
_cell_volume   897.62268090
_cell_formula_units_Z   1
loop_
 _symmetry_equiv_pos_site_id
 _symmetry_equiv_pos_as_xyz
  1  'x, y, z'
loop_
 _atom_site_type_symbol
 _atom_site_label
 _atom_site_symmetry_multiplicity
 _atom_site_fract_x
 _atom_site_fract_y
 _atom_site_fract_z
 _atom_site_occupancy
  Dy  Dy0  1  0.839702  0.749977  0.792114  1
  Dy  Dy1  1  0.160321  0.250009  0.207920  1
  Dy  Dy2  1  0.339594  0.250046  0.707953  1
  Dy  Dy3  1  0.660326  0.749993  0.292047  1
  Dy  Dy4  1  0.374924  0.749944  0.690521  1
  Dy  Dy5  1  0.624944  0.250083  0.309449  1
  Dy  Dy6  1  0.875033  0.250022  0.809531  1
  Dy  Dy7  1  0.124957  0.749987  0.190473  1
  Dy  Dy8  1  0.943752  0.749918  0.504375  1
  Dy  Dy9  1  0.056409  0.250049  0.495604  1
  Dy  Dy10  1  0.443641  0.250007  0.995603  1
  Dy  Dy11  1  0.556327  0.749998  0.004416  1
  Dy  Dy12  1  0.673907  0.041378  0.564731  1
  Ho  Ho13  1  0.326376  0.958584  0.435260  1
  Ho  Ho14  1  0.173485  0.958645  0.935311  1
  Ho  Ho15  1  0.326563  0.541377  0.435334  1
  Ho  Ho16  1  0.826545  0.041454  0.064691  1
  Ho  Ho17  1  0.673480  0.458613  0.564677  1
  Ho  Ho18  1  0.826550  0.458549  0.064695  1
  Ho  Ho19  1  0.173485  0.541367  0.935305  1
  Bi  Bi20  1  0.566279  0.493337  0.827388  1
  Bi  Bi21  1  0.433721  0.506670  0.172608  1
  Bi  Bi22  1  0.066261  0.506671  0.672613  1
  Bi  Bi23  1  0.433727  0.993333  0.172612  1
  Bi  Bi24  1  0.933730  0.493348  0.327385  1
  Bi  Bi25  1  0.566242  0.006663  0.827432  1
  Bi  Bi26  1  0.933707  0.006663  0.327376  1
  Bi  Bi27  1  0.066412  0.993312  0.672668  1
  Os  Os28  1  0.575013  0.749830  0.509555  1
  Os  Os29  1  0.424571  0.250178  0.490368  1
  Os  Os30  1  0.075129  0.249989  0.990425  1
  Os  Os31  1  0.924885  0.750007  0.009558  1
