# generated using pymatgen
data_LiSmCr2O8
_symmetry_space_group_name_H-M   'P 1'
_cell_length_a   6.01411757
_cell_length_b   6.01411779
_cell_length_c   6.01411729
_cell_angle_alpha   105.74474417
_cell_angle_beta   105.74474111
_cell_angle_gamma   117.21273819
_symmetry_Int_Tables_number   1
_chemical_formula_structural   LiSmCr2O8
_chemical_formula_sum   'Li1 Sm1 Cr2 O8'
_cell_volume   165.13155919
_cell_formula_units_Z   1
loop_
 _symmetry_equiv_pos_site_id
 _symmetry_equiv_pos_as_xyz
  1  'x, y, z'
loop_
 _atom_site_type_symbol
 _atom_site_label
 _atom_site_symmetry_multiplicity
 _atom_site_fract_x
 _atom_site_fract_y
 _atom_site_fract_z
 _atom_site_occupancy
  Li  Li0  1  0.750000  0.250000  0.500000  1
  Sm  Sm1  1  0.500000  0.500000  0.000000  1
  Cr  Cr2  1  0.250000  0.750000  0.500000  1
  Cr  Cr3  1  0.000000  0.000000  0.000000  1
  O  O4  1  0.834037  0.013871  0.179834  1
  O  O5  1  0.907476  0.590285  0.317191  1
  O  O6  1  0.273094  0.590285  0.682809  1
  O  O7  1  0.834037  0.654203  0.820166  1
  O  O8  1  0.345797  0.165963  0.179834  1
  O  O9  1  0.409715  0.726906  0.317191  1
  O  O10  1  0.409715  0.092524  0.682809  1
  O  O11  1  0.986129  0.165963  0.820166  1
