# generated using pymatgen
data_Y2Er4PtRh17
_symmetry_space_group_name_H-M   'P 1'
_cell_length_a   5.26466600
_cell_length_b   5.26466593
_cell_length_c   17.55225900
_cell_angle_alpha   90.00000000
_cell_angle_beta   90.00000000
_cell_angle_gamma   119.99998785
_symmetry_Int_Tables_number   1
_chemical_formula_structural   Y2Er4PtRh17
_chemical_formula_sum   'Y2 Er4 Pt1 Rh17'
_cell_volume   421.31347167
_cell_formula_units_Z   1
loop_
 _symmetry_equiv_pos_site_id
 _symmetry_equiv_pos_as_xyz
  1  'x, y, z'
loop_
 _atom_site_type_symbol
 _atom_site_label
 _atom_site_symmetry_multiplicity
 _atom_site_fract_x
 _atom_site_fract_y
 _atom_site_fract_z
 _atom_site_occupancy
  Y  Y0  1  0.333333  0.666667  0.750534  1
  Y  Y1  1  0.666667  0.333333  0.249466  1
  Er  Er2  1  0.333333  0.666667  0.958362  1
  Er  Er3  1  0.666667  0.333333  0.041638  1
  Er  Er4  1  0.666667  0.333333  0.457011  1
  Er  Er5  1  0.333333  0.666667  0.542989  1
  Pt  Pt6  1  0.000000  0.000000  0.500000  1
  Rh  Rh7  1  0.167971  0.832029  0.373654  1
  Rh  Rh8  1  0.167971  0.335941  0.373654  1
  Rh  Rh9  1  0.664059  0.832029  0.373654  1
  Rh  Rh10  1  0.832029  0.167971  0.626346  1
  Rh  Rh11  1  0.832029  0.664059  0.626346  1
  Rh  Rh12  1  0.335941  0.167971  0.626346  1
  Rh  Rh13  1  0.832477  0.167523  0.875176  1
  Rh  Rh14  1  0.832477  0.664955  0.875176  1
  Rh  Rh15  1  0.335045  0.167523  0.875176  1
  Rh  Rh16  1  0.167523  0.832477  0.124824  1
  Rh  Rh17  1  0.167523  0.335045  0.124824  1
  Rh  Rh18  1  0.664955  0.832477  0.124824  1
  Rh  Rh19  1  0.333333  0.666667  0.250076  1
  Rh  Rh20  1  0.666667  0.333333  0.749924  1
  Rh  Rh21  1  0.000000  0.000000  0.249197  1
  Rh  Rh22  1  0.000000  0.000000  0.750803  1
  Rh  Rh23  1  0.000000  0.000000  0.000000  1
