# generated using pymatgen
data_Tm2Nb6Fe5Co11P12
_symmetry_space_group_name_H-M   'P 1'
_cell_length_a   11.95724190
_cell_length_b   11.95331699
_cell_length_c   3.64539500
_cell_angle_alpha   90.00000000
_cell_angle_beta   90.00000000
_cell_angle_gamma   119.86341946
_symmetry_Int_Tables_number   1
_chemical_formula_structural   Tm2Nb6Fe5Co11P12
_chemical_formula_sum   'Tm2 Nb6 Fe5 Co11 P12'
_cell_volume   451.84631254
_cell_formula_units_Z   1
loop_
 _symmetry_equiv_pos_site_id
 _symmetry_equiv_pos_as_xyz
  1  'x, y, z'
loop_
 _atom_site_type_symbol
 _atom_site_label
 _atom_site_symmetry_multiplicity
 _atom_site_fract_x
 _atom_site_fract_y
 _atom_site_fract_z
 _atom_site_occupancy
  Tm  Tm0  1  0.332334  0.666290  0.000000  1
  Tm  Tm1  1  0.666433  0.332762  0.000000  1
  Nb  Nb2  1  0.822529  0.001089  0.500000  1
  Nb  Nb3  1  0.003867  0.823403  0.500000  1
  Nb  Nb4  1  0.177962  0.178980  0.500000  1
  Nb  Nb5  1  0.442943  0.999468  0.000000  1
  Nb  Nb6  1  0.999836  0.443096  0.000000  1
  Nb  Nb7  1  0.555288  0.555611  0.000000  1
  Fe  Fe8  1  0.275845  0.002608  0.500000  1
  Fe  Fe9  1  0.996895  0.272876  0.500000  1
  Fe  Fe10  1  0.635254  0.808560  0.000000  1
  Fe  Fe11  1  0.190569  0.824185  0.000000  1
  Fe  Fe12  1  0.175642  0.366148  0.000000  1
  Co  Co13  1  0.727856  0.725529  0.500000  1
  Co  Co14  1  0.367115  0.178192  0.000000  1
  Co  Co15  1  0.810618  0.634532  0.000000  1
  Co  Co16  1  0.821658  0.188831  0.000000  1
  Co  Co17  1  0.521622  0.874856  0.500000  1
  Co  Co18  1  0.123033  0.645598  0.500000  1
  Co  Co19  1  0.354480  0.479372  0.500000  1
  Co  Co20  1  0.480407  0.353277  0.500000  1
  Co  Co21  1  0.872443  0.519899  0.500000  1
  Co  Co22  1  0.646484  0.125706  0.500000  1
  Co  Co23  1  0.000807  0.000771  0.000000  1
  P  P24  1  0.173960  0.999519  0.000000  1
  P  P25  1  0.001236  0.174802  0.000000  1
  P  P26  1  0.827528  0.828275  0.000000  1
  P  P27  1  0.522757  0.691696  0.500000  1
  P  P28  1  0.306578  0.831382  0.500000  1
  P  P29  1  0.167844  0.474872  0.500000  1
  P  P30  1  0.477840  0.168151  0.500000  1
  P  P31  1  0.689122  0.520652  0.500000  1
  P  P32  1  0.831049  0.308961  0.500000  1
  P  P33  1  0.648521  0.997754  0.000000  1
  P  P34  1  0.001384  0.650323  0.000000  1
  P  P35  1  0.350258  0.351972  0.000000  1
