# generated using pymatgen
data_TbPa7MnS17
_symmetry_space_group_name_H-M   'P 1'
_cell_length_a   7.90700856
_cell_length_b   7.87896271
_cell_length_c   10.38122100
_cell_angle_alpha   80.47965647
_cell_angle_beta   80.48119737
_cell_angle_gamma   64.81984735
_symmetry_Int_Tables_number   1
_chemical_formula_structural   TbPa7MnS17
_chemical_formula_sum   'Tb1 Pa7 Mn1 S17'
_cell_volume   573.94279620
_cell_formula_units_Z   1
loop_
 _symmetry_equiv_pos_site_id
 _symmetry_equiv_pos_as_xyz
  1  'x, y, z'
loop_
 _atom_site_type_symbol
 _atom_site_label
 _atom_site_symmetry_multiplicity
 _atom_site_fract_x
 _atom_site_fract_y
 _atom_site_fract_z
 _atom_site_occupancy
  Tb  Tb0  1  0.811226  0.307023  0.295644  1
  Pa  Pa1  1  0.297633  0.818196  0.294531  1
  Pa  Pa2  1  0.181159  0.700919  0.703449  1
  Pa  Pa3  1  0.702541  0.181128  0.706208  1
  Pa  Pa4  1  0.797532  0.797557  0.455503  1
  Pa  Pa5  1  0.203517  0.201550  0.543659  1
  Pa  Pa6  1  0.316159  0.317021  0.016944  1
  Pa  Pa7  1  0.685141  0.682372  0.982671  1
  Mn  Mn8  1  0.000943  0.997981  0.997985  1
  S  S9  1  0.178233  0.566229  0.465234  1
  S  S10  1  0.569815  0.175487  0.470683  1
  S  S11  1  0.823744  0.430990  0.535610  1
  S  S12  1  0.432877  0.820257  0.532931  1
  S  S13  1  0.941284  0.329163  0.026946  1
  S  S14  1  0.329132  0.942099  0.028049  1
  S  S15  1  0.057418  0.672202  0.970088  1
  S  S16  1  0.672431  0.058423  0.971517  1
  S  S17  1  0.943281  0.940682  0.228327  1
  S  S18  1  0.061192  0.060384  0.772001  1
  S  S19  1  0.786821  0.787944  0.723043  1
  S  S20  1  0.213482  0.208913  0.277852  1
  S  S21  1  0.692049  0.704732  0.244132  1
  S  S22  1  0.304391  0.302229  0.754570  1
  S  S23  1  0.473447  0.484873  0.165251  1
  S  S24  1  0.520031  0.520905  0.831232  1
  S  S25  1  0.004520  0.990742  0.505941  1
