# generated using pymatgen
data_Ca2Cu(SiPd2)3
_symmetry_space_group_name_H-M   'P 1'
_cell_length_a   6.77025361
_cell_length_b   6.73029006
_cell_length_c   6.77025418
_cell_angle_alpha   130.11435309
_cell_angle_beta   114.28020920
_cell_angle_gamma   87.01821473
_symmetry_Int_Tables_number   1
_chemical_formula_structural   Ca2Cu(SiPd2)3
_chemical_formula_sum   'Ca2 Cu1 Si3 Pd6'
_cell_volume   204.77694725
_cell_formula_units_Z   1
loop_
 _symmetry_equiv_pos_site_id
 _symmetry_equiv_pos_as_xyz
  1  'x, y, z'
loop_
 _atom_site_type_symbol
 _atom_site_label
 _atom_site_symmetry_multiplicity
 _atom_site_fract_x
 _atom_site_fract_y
 _atom_site_fract_z
 _atom_site_occupancy
  Ca  Ca0  1  0.006379  0.977790  0.971410  1
  Ca  Ca1  1  0.496019  0.053910  0.557891  1
  Cu  Cu2  1  0.356967  0.433984  0.077016  1
  Si  Si3  1  0.808218  0.240692  0.432474  1
  Si  Si4  1  0.640075  0.695802  0.055727  1
  Si  Si5  1  0.199711  0.620560  0.420850  1
  Pd  Pd6  1  0.942909  0.501423  0.950528  1
  Pd  Pd7  1  0.550894  0.501423  0.558513  1
  Pd  Pd8  1  0.033385  0.994480  0.533390  1
  Pd  Pd9  1  0.799064  0.485230  0.279941  1
  Pd  Pd10  1  0.205289  0.485230  0.686165  1
  Pd  Pd11  1  0.461089  0.994480  0.961094  1
