# generated using pymatgen
data_Er5Lu5(Tl2Bi)2
_symmetry_space_group_name_H-M   'P 1'
_cell_length_a   8.90226400
_cell_length_b   8.87254420
_cell_length_c   6.50634300
_cell_angle_alpha   90.00000000
_cell_angle_beta   90.00000000
_cell_angle_gamma   119.69677406
_symmetry_Int_Tables_number   1
_chemical_formula_structural   Er5Lu5(Tl2Bi)2
_chemical_formula_sum   'Er5 Lu5 Tl4 Bi2'
_cell_volume   446.41124259
_cell_formula_units_Z   1
loop_
 _symmetry_equiv_pos_site_id
 _symmetry_equiv_pos_as_xyz
  1  'x, y, z'
loop_
 _atom_site_type_symbol
 _atom_site_label
 _atom_site_symmetry_multiplicity
 _atom_site_fract_x
 _atom_site_fract_y
 _atom_site_fract_z
 _atom_site_occupancy
  Er  Er0  1  0.770451  0.760198  0.750000  1
  Er  Er1  1  0.228532  0.991158  0.750000  1
  Er  Er2  1  0.000016  0.237429  0.750000  1
  Er  Er3  1  0.764982  0.001169  0.250000  1
  Er  Er4  1  0.000439  0.764118  0.250000  1
  Lu  Lu5  1  0.671274  0.338426  0.007539  1
  Lu  Lu6  1  0.328389  0.666882  0.007659  1
  Lu  Lu7  1  0.328389  0.666882  0.492341  1
  Lu  Lu8  1  0.671274  0.338426  0.492461  1
  Lu  Lu9  1  0.235113  0.235782  0.250000  1
  Tl  Tl10  1  0.000353  0.596203  0.750000  1
  Tl  Tl11  1  0.601833  0.604976  0.250000  1
  Tl  Tl12  1  0.397004  0.004347  0.250000  1
  Tl  Tl13  1  0.000926  0.397149  0.250000  1
  Bi  Bi14  1  0.397039  0.396793  0.750000  1
  Bi  Bi15  1  0.603985  0.000063  0.750000  1
