# generated using pymatgen
data_Hf12Zn5Pd7N4
_symmetry_space_group_name_H-M   'P 1'
_cell_length_a   8.55005826
_cell_length_b   8.54392080
_cell_length_c   8.55005800
_cell_angle_alpha   59.97622114
_cell_angle_beta   59.99995769
_cell_angle_gamma   59.97620554
_symmetry_Int_Tables_number   1
_chemical_formula_structural   Hf12Zn5Pd7N4
_chemical_formula_sum   'Hf12 Zn5 Pd7 N4'
_cell_volume   441.49315479
_cell_formula_units_Z   1
loop_
 _symmetry_equiv_pos_site_id
 _symmetry_equiv_pos_as_xyz
  1  'x, y, z'
loop_
 _atom_site_type_symbol
 _atom_site_label
 _atom_site_symmetry_multiplicity
 _atom_site_fract_x
 _atom_site_fract_y
 _atom_site_fract_z
 _atom_site_occupancy
  Hf  Hf0  1  0.812098  0.190176  0.185626  1
  Hf  Hf1  1  0.188029  0.812006  0.188029  1
  Hf  Hf2  1  0.811936  0.812006  0.188029  1
  Hf  Hf3  1  0.188029  0.812007  0.811936  1
  Hf  Hf4  1  0.812099  0.190176  0.812099  1
  Hf  Hf5  1  0.185626  0.190175  0.812099  1
  Hf  Hf6  1  0.439427  0.059404  0.061743  1
  Hf  Hf7  1  0.064005  0.434993  0.064005  1
  Hf  Hf8  1  0.436997  0.434993  0.064005  1
  Hf  Hf9  1  0.064005  0.434992  0.436997  1
  Hf  Hf10  1  0.439426  0.059404  0.439427  1
  Hf  Hf11  1  0.061743  0.059404  0.439427  1
  Zn  Zn12  1  0.830969  0.507092  0.830969  1
  Zn  Zn13  1  0.625445  0.622249  0.126861  1
  Zn  Zn14  1  0.625445  0.622250  0.625445  1
  Zn  Zn15  1  0.126861  0.622249  0.625445  1
  Zn  Zn16  1  0.625439  0.123683  0.625439  1
  Pd  Pd17  1  0.411419  0.411449  0.765712  1
  Pd  Pd18  1  0.411420  0.411449  0.411420  1
  Pd  Pd19  1  0.765712  0.411448  0.411420  1
  Pd  Pd20  1  0.411529  0.765412  0.411529  1
  Pd  Pd21  1  0.838555  0.837533  0.485356  1
  Pd  Pd22  1  0.838556  0.837534  0.838556  1
  Pd  Pd23  1  0.485356  0.837533  0.838555  1
  N  N24  1  0.125643  0.124773  0.623942  1
  N  N25  1  0.125643  0.124773  0.125642  1
  N  N26  1  0.623941  0.124773  0.125643  1
  N  N27  1  0.124645  0.626065  0.124645  1
