# generated using pymatgen
data_TbPr4Ta2BiO14
_symmetry_space_group_name_H-M   'P 1'
_cell_length_a   6.65220450
_cell_length_b   6.79253030
_cell_length_c   7.68426300
_cell_angle_alpha   90.00000000
_cell_angle_beta   90.00000000
_cell_angle_gamma   110.57992087
_symmetry_Int_Tables_number   1
_chemical_formula_structural   TbPr4Ta2BiO14
_chemical_formula_sum   'Tb1 Pr4 Ta2 Bi1 O14'
_cell_volume   325.05739120
_cell_formula_units_Z   1
loop_
 _symmetry_equiv_pos_site_id
 _symmetry_equiv_pos_as_xyz
  1  'x, y, z'
loop_
 _atom_site_type_symbol
 _atom_site_label
 _atom_site_symmetry_multiplicity
 _atom_site_fract_x
 _atom_site_fract_y
 _atom_site_fract_z
 _atom_site_occupancy
  Tb  Tb0  1  0.946485  0.492494  0.750000  1
  Pr  Pr1  1  0.017411  0.034340  0.997683  1
  Pr  Pr2  1  0.017411  0.034340  0.502317  1
  Pr  Pr3  1  0.523575  0.072822  0.250000  1
  Pr  Pr4  1  0.071728  0.527996  0.250000  1
  Ta  Ta5  1  0.509763  0.509474  0.999204  1
  Ta  Ta6  1  0.509763  0.509474  0.500796  1
  Bi  Bi7  1  0.472214  0.969771  0.750000  1
  O  O8  1  0.583218  0.538183  0.750000  1
  O  O9  1  0.427783  0.423155  0.250000  1
  O  O10  1  0.831805  0.136656  0.750000  1
  O  O11  1  0.146625  0.891621  0.250000  1
  O  O12  1  0.084266  0.844476  0.750000  1
  O  O13  1  0.894543  0.162094  0.250000  1
  O  O14  1  0.416602  0.170007  0.965989  1
  O  O15  1  0.572331  0.803994  0.459610  1
  O  O16  1  0.190497  0.438260  0.958529  1
  O  O17  1  0.802275  0.514292  0.465909  1
  O  O18  1  0.416602  0.170007  0.534011  1
  O  O19  1  0.572331  0.803994  0.040390  1
  O  O20  1  0.802275  0.514292  0.034091  1
  O  O21  1  0.190497  0.438260  0.541471  1
