# generated using pymatgen
data_Nb4GaFe4Os3
_symmetry_space_group_name_H-M   'P 1'
_cell_length_a   4.99497872
_cell_length_b   4.99497878
_cell_length_c   8.25827700
_cell_angle_alpha   90.00000000
_cell_angle_beta   90.00000000
_cell_angle_gamma   121.44007621
_symmetry_Int_Tables_number   1
_chemical_formula_structural   Nb4GaFe4Os3
_chemical_formula_sum   'Nb4 Ga1 Fe4 Os3'
_cell_volume   175.79257946
_cell_formula_units_Z   1
loop_
 _symmetry_equiv_pos_site_id
 _symmetry_equiv_pos_as_xyz
  1  'x, y, z'
loop_
 _atom_site_type_symbol
 _atom_site_label
 _atom_site_symmetry_multiplicity
 _atom_site_fract_x
 _atom_site_fract_y
 _atom_site_fract_z
 _atom_site_occupancy
  Nb  Nb0  1  0.338306  0.661694  0.433122  1
  Nb  Nb1  1  0.670829  0.329171  0.565705  1
  Nb  Nb2  1  0.670829  0.329171  0.934295  1
  Nb  Nb3  1  0.338306  0.661694  0.066878  1
  Ga  Ga4  1  0.819981  0.180019  0.250000  1
  Fe  Fe5  1  0.176115  0.344115  0.750000  1
  Fe  Fe6  1  0.655885  0.823885  0.750000  1
  Fe  Fe7  1  0.826185  0.665364  0.250000  1
  Fe  Fe8  1  0.334636  0.173815  0.250000  1
  Os  Os9  1  0.999010  0.000990  0.499860  1
  Os  Os10  1  0.999010  0.000990  0.000140  1
  Os  Os11  1  0.170905  0.829095  0.750000  1
