# generated using pymatgen
data_Tm3Lu(Si4Tc3)2
_symmetry_space_group_name_H-M   'P 1'
_cell_length_a   6.75772722
_cell_length_b   6.71432708
_cell_length_c   6.75341222
_cell_angle_alpha   69.98293838
_cell_angle_beta   89.97259659
_cell_angle_gamma   89.99945693
_symmetry_Int_Tables_number   1
_chemical_formula_structural   Tm3Lu(Si4Tc3)2
_chemical_formula_sum   'Tm3 Lu1 Si8 Tc6'
_cell_volume   287.91552166
_cell_formula_units_Z   1
loop_
 _symmetry_equiv_pos_site_id
 _symmetry_equiv_pos_as_xyz
  1  'x, y, z'
loop_
 _atom_site_type_symbol
 _atom_site_label
 _atom_site_symmetry_multiplicity
 _atom_site_fract_x
 _atom_site_fract_y
 _atom_site_fract_z
 _atom_site_occupancy
  Tm  Tm0  1  0.832026  0.942424  0.191831  1
  Tm  Tm1  1  0.667909  0.442449  0.191760  1
  Tm  Tm2  1  0.168054  0.057561  0.808190  1
  Lu  Lu3  1  0.331757  0.557467  0.807857  1
  Si  Si4  1  0.550246  0.876499  0.897907  1
  Si  Si5  1  0.050589  0.623181  0.101734  1
  Si  Si6  1  0.449521  0.123461  0.101799  1
  Si  Si7  1  0.950018  0.376966  0.897944  1
  Si  Si8  1  0.141818  0.867404  0.488071  1
  Si  Si9  1  0.641236  0.632153  0.512553  1
  Si  Si10  1  0.858432  0.132204  0.512329  1
  Si  Si11  1  0.358419  0.368001  0.488055  1
  Tc  Tc12  1  0.499849  0.999652  0.500181  1
  Tc  Tc13  1  0.000231  0.500078  0.500162  1
  Tc  Tc14  1  0.850542  0.757692  0.762657  1
  Tc  Tc15  1  0.350491  0.742294  0.236999  1
  Tc  Tc16  1  0.149677  0.242454  0.237132  1
  Tc  Tc17  1  0.649188  0.258060  0.762838  1
