# generated using pymatgen
data_La5TbTl5InO18
_symmetry_space_group_name_H-M   'P 1'
_cell_length_a   6.75657402
_cell_length_b   6.75300186
_cell_length_c   12.57573800
_cell_angle_alpha   90.11818976
_cell_angle_beta   89.80955286
_cell_angle_gamma   120.00392039
_symmetry_Int_Tables_number   1
_chemical_formula_structural   La5TbTl5InO18
_chemical_formula_sum   'La5 Tb1 Tl5 In1 O18'
_cell_volume   496.89876510
_cell_formula_units_Z   1
loop_
 _symmetry_equiv_pos_site_id
 _symmetry_equiv_pos_as_xyz
  1  'x, y, z'
loop_
 _atom_site_type_symbol
 _atom_site_label
 _atom_site_symmetry_multiplicity
 _atom_site_fract_x
 _atom_site_fract_y
 _atom_site_fract_z
 _atom_site_occupancy
  La  La0  1  0.335959  0.670654  0.238362  1
  La  La1  1  0.995704  0.000485  0.263044  1
  La  La2  1  0.997615  0.999817  0.764026  1
  La  La3  1  0.337638  0.669923  0.729639  1
  La  La4  1  0.667638  0.329912  0.730376  1
  Tb  Tb5  1  0.665730  0.329421  0.230041  1
  Tl  Tl6  1  0.996767  0.664173  0.493240  1
  Tl  Tl7  1  0.000131  0.335672  0.998160  1
  Tl  Tl8  1  0.336631  0.332720  0.493231  1
  Tl  Tl9  1  0.665261  0.663489  0.998333  1
  Tl  Tl10  1  0.334799  0.000760  0.998028  1
  In  In11  1  0.667359  0.003427  0.493610  1
  O  O12  1  0.003549  0.690787  0.665541  1
  O  O13  1  0.982716  0.629985  0.323300  1
  O  O14  1  0.999794  0.357657  0.824751  1
  O  O15  1  0.991911  0.314717  0.172702  1
  O  O16  1  0.334099  0.667433  0.027541  1
  O  O17  1  0.983785  0.000310  0.464733  1
  O  O18  1  0.348719  0.682235  0.512683  1
  O  O19  1  0.999440  0.999892  0.969582  1
  O  O20  1  0.309424  0.312512  0.665476  1
  O  O21  1  0.369674  0.352583  0.323334  1
  O  O22  1  0.320837  0.008857  0.172529  1
  O  O23  1  0.643275  0.640918  0.824865  1
  O  O24  1  0.686032  0.676990  0.172923  1
  O  O25  1  0.357401  0.001183  0.824564  1
  O  O26  1  0.666970  0.318266  0.525352  1
  O  O27  1  0.666641  0.332350  0.032312  1
  O  O28  1  0.644366  0.016867  0.324176  1
  O  O29  1  0.690135  0.996008  0.666119  1
