# generated using pymatgen
data_Ba4TeAs2
_symmetry_space_group_name_H-M   'P 1'
_cell_length_a   8.85923348
_cell_length_b   8.85923283
_cell_length_c   8.85923217
_cell_angle_alpha   109.27874953
_cell_angle_beta   109.27874986
_cell_angle_gamma   109.85685101
_symmetry_Int_Tables_number   1
_chemical_formula_structural   Ba4TeAs2
_chemical_formula_sum   'Ba8 Te2 As4'
_cell_volume   535.24385979
_cell_formula_units_Z   2
loop_
 _symmetry_equiv_pos_site_id
 _symmetry_equiv_pos_as_xyz
  1  'x, y, z'
loop_
 _atom_site_type_symbol
 _atom_site_label
 _atom_site_symmetry_multiplicity
 _atom_site_fract_x
 _atom_site_fract_y
 _atom_site_fract_z
 _atom_site_occupancy
  Ba  Ba0  1  0.372760  0.369036  0.356706  1
  Ba  Ba1  1  0.127240  0.483946  0.996277  1
  Ba  Ba2  1  0.987669  0.130964  0.503723  1
  Ba  Ba3  1  0.869036  0.872760  0.856706  1
  Ba  Ba4  1  0.512331  0.016054  0.143294  1
  Ba  Ba5  1  0.630964  0.487669  0.003723  1
  Ba  Ba6  1  0.516054  0.012331  0.643294  1
  Ba  Ba7  1  0.983946  0.627240  0.496277  1
  Te  Te8  1  0.125000  0.875000  0.250000  1
  Te  Te9  1  0.375000  0.625000  0.750000  1
  As  As10  1  0.877057  0.250000  0.127057  1
  As  As11  1  0.622943  0.750000  0.372943  1
  As  As12  1  0.250000  0.122943  0.872943  1
  As  As13  1  0.750000  0.377057  0.627057  1
