# generated using pymatgen
data_Y2Ho8Al3Ru
_symmetry_space_group_name_H-M   'P 1'
_cell_length_a   9.50172713
_cell_length_b   9.49899253
_cell_length_c   9.60298800
_cell_angle_alpha   90.00000000
_cell_angle_beta   90.00000000
_cell_angle_gamma   119.99048274
_symmetry_Int_Tables_number   1
_chemical_formula_structural   Y2Ho8Al3Ru
_chemical_formula_sum   'Y4 Ho16 Al6 Ru2'
_cell_volume   750.68676714
_cell_formula_units_Z   2
loop_
 _symmetry_equiv_pos_site_id
 _symmetry_equiv_pos_as_xyz
  1  'x, y, z'
loop_
 _atom_site_type_symbol
 _atom_site_label
 _atom_site_symmetry_multiplicity
 _atom_site_fract_x
 _atom_site_fract_y
 _atom_site_fract_z
 _atom_site_occupancy
  Y  Y0  1  0.919524  0.459762  0.250000  1
  Y  Y1  1  0.460155  0.539729  0.750000  1
  Y  Y2  1  0.460155  0.920427  0.750000  1
  Y  Y3  1  0.079540  0.539770  0.750000  1
  Ho  Ho4  1  0.000051  0.000026  0.499959  1
  Ho  Ho5  1  0.000051  0.000026  0.000041  1
  Ho  Ho6  1  0.207191  0.793381  0.439501  1
  Ho  Ho7  1  0.207191  0.413811  0.439501  1
  Ho  Ho8  1  0.586256  0.793129  0.439331  1
  Ho  Ho9  1  0.792817  0.206757  0.560080  1
  Ho  Ho10  1  0.792817  0.586059  0.560080  1
  Ho  Ho11  1  0.414322  0.207160  0.559802  1
  Ho  Ho12  1  0.792817  0.206757  0.939920  1
  Ho  Ho13  1  0.792817  0.586059  0.939920  1
  Ho  Ho14  1  0.414322  0.207160  0.940198  1
  Ho  Ho15  1  0.207191  0.793381  0.060499  1
  Ho  Ho16  1  0.207191  0.413811  0.060499  1
  Ho  Ho17  1  0.586256  0.793129  0.060669  1
  Ho  Ho18  1  0.539766  0.460069  0.250000  1
  Ho  Ho19  1  0.539766  0.079697  0.250000  1
  Al  Al20  1  0.888636  0.110894  0.250000  1
  Al  Al21  1  0.888636  0.777743  0.250000  1
  Al  Al22  1  0.222528  0.111264  0.250000  1
  Al  Al23  1  0.111069  0.888957  0.750000  1
  Al  Al24  1  0.111069  0.222111  0.750000  1
  Al  Al25  1  0.777901  0.888950  0.750000  1
  Ru  Ru26  1  0.333639  0.666820  0.250000  1
  Ru  Ru27  1  0.666327  0.333163  0.750000  1
