# generated using pymatgen
data_SrV7O18
_symmetry_space_group_name_H-M   'P 1'
_cell_length_a   8.32029898
_cell_length_b   8.36607987
_cell_length_c   10.72470800
_cell_angle_alpha   57.29735230
_cell_angle_beta   122.25292065
_cell_angle_gamma   127.89344726
_symmetry_Int_Tables_number   1
_chemical_formula_structural   SrV7O18
_chemical_formula_sum   'Sr1 V7 O18'
_cell_volume   472.29180727
_cell_formula_units_Z   1
loop_
 _symmetry_equiv_pos_site_id
 _symmetry_equiv_pos_as_xyz
  1  'x, y, z'
loop_
 _atom_site_type_symbol
 _atom_site_label
 _atom_site_symmetry_multiplicity
 _atom_site_fract_x
 _atom_site_fract_y
 _atom_site_fract_z
 _atom_site_occupancy
  Sr  Sr0  1  0.379914  0.123820  0.355642  1
  V  V1  1  0.867841  0.613881  0.849008  1
  V  V2  1  0.681694  0.159295  0.161387  1
  V  V3  1  0.904449  0.366646  0.694920  1
  V  V4  1  0.057991  0.077770  0.538813  1
  V  V5  1  0.869182  0.887179  0.012076  1
  V  V6  1  0.350033  0.564498  0.618748  1
  V  V7  1  0.398733  0.694037  0.068280  1
  O  O8  1  0.869973  0.101123  0.347100  1
  O  O9  1  0.924131  0.144813  0.865880  1
  O  O10  1  0.218960  0.015569  0.547788  1
  O  O11  1  0.926971  0.746169  0.983550  1
  O  O12  1  0.937671  0.892308  0.682784  1
  O  O13  1  0.024432  0.925306  0.183687  1
  O  O14  1  0.213960  0.341381  0.556786  1
  O  O15  1  0.590437  0.759060  0.996143  1
  O  O16  1  0.559178  0.250277  0.169272  1
  O  O17  1  0.806095  0.481708  0.712412  1
  O  O18  1  0.486888  0.905875  0.125209  1
  O  O19  1  0.172679  0.547279  0.677328  1
  O  O20  1  0.414879  0.789651  0.474338  1
  O  O21  1  0.152565  0.660618  0.925051  1
  O  O22  1  0.370847  0.473439  0.219685  1
  O  O23  1  0.580451  0.559112  0.772098  1
  O  O24  1  0.740062  0.282390  0.541306  1
  O  O25  1  0.800587  0.336202  0.016501  1
