# generated using pymatgen
data_Nb10B4AsP
_symmetry_space_group_name_H-M   'P 1'
_cell_length_a   7.32254309
_cell_length_b   7.32254428
_cell_length_c   7.32254398
_cell_angle_alpha   129.37617739
_cell_angle_beta   129.37618606
_cell_angle_gamma   74.40603355
_symmetry_Int_Tables_number   1
_chemical_formula_structural   Nb10B4AsP
_chemical_formula_sum   'Nb10 B4 As1 P1'
_cell_volume   228.66299530
_cell_formula_units_Z   1
loop_
 _symmetry_equiv_pos_site_id
 _symmetry_equiv_pos_as_xyz
  1  'x, y, z'
loop_
 _atom_site_type_symbol
 _atom_site_label
 _atom_site_symmetry_multiplicity
 _atom_site_fract_x
 _atom_site_fract_y
 _atom_site_fract_z
 _atom_site_occupancy
  Nb  Nb0  1  0.999585  0.999585  0.000000  1
  Nb  Nb1  1  0.500415  0.500415  0.000000  1
  Nb  Nb2  1  0.810002  0.303736  0.835812  1
  Nb  Nb3  1  0.196264  0.689998  0.164188  1
  Nb  Nb4  1  0.467925  0.974191  0.164188  1
  Nb  Nb5  1  0.303736  0.467925  0.493734  1
  Nb  Nb6  1  0.032075  0.196264  0.506266  1
  Nb  Nb7  1  0.525809  0.032075  0.835812  1
  Nb  Nb8  1  0.689998  0.525809  0.493734  1
  Nb  Nb9  1  0.974191  0.810002  0.506266  1
  B  B10  1  0.113182  0.613182  0.726363  1
  B  B11  1  0.886818  0.386818  0.273637  1
  B  B12  1  0.613182  0.886818  0.500000  1
  B  B13  1  0.386818  0.113182  0.500000  1
  As  As14  1  0.750000  0.750000  0.000000  1
  P  P15  1  0.250000  0.250000  0.000000  1
