# generated using pymatgen
data_Er7Co5Sn23Ru
_symmetry_space_group_name_H-M   'P 1'
_cell_length_a   9.71035471
_cell_length_b   9.71035354
_cell_length_c   9.95598211
_cell_angle_alpha   90.17335608
_cell_angle_beta   89.82664679
_cell_angle_gamma   119.97749472
_symmetry_Int_Tables_number   1
_chemical_formula_structural   Er7Co5Sn23Ru
_chemical_formula_sum   'Er7 Co5 Sn23 Ru1'
_cell_volume   813.16872865
_cell_formula_units_Z   1
loop_
 _symmetry_equiv_pos_site_id
 _symmetry_equiv_pos_as_xyz
  1  'x, y, z'
loop_
 _atom_site_type_symbol
 _atom_site_label
 _atom_site_symmetry_multiplicity
 _atom_site_fract_x
 _atom_site_fract_y
 _atom_site_fract_z
 _atom_site_occupancy
  Er  Er0  1  0.996878  0.003122  0.003231  1
  Er  Er1  1  0.479277  0.520723  0.306996  1
  Er  Er2  1  0.521159  0.478841  0.693664  1
  Er  Er3  1  0.479746  0.958287  0.306080  1
  Er  Er4  1  0.520356  0.042407  0.693926  1
  Er  Er5  1  0.041713  0.520254  0.306080  1
  Er  Er6  1  0.957593  0.479644  0.693926  1
  Co  Co7  1  0.167626  0.832374  0.803992  1
  Co  Co8  1  0.832237  0.663688  0.196041  1
  Co  Co9  1  0.169560  0.335251  0.801524  1
  Co  Co10  1  0.336312  0.167763  0.196041  1
  Co  Co11  1  0.664749  0.830440  0.801524  1
  Sn  Sn12  1  0.344881  0.999273  0.999994  1
  Sn  Sn13  1  0.649075  0.995845  0.995433  1
  Sn  Sn14  1  0.004155  0.350925  0.995433  1
  Sn  Sn15  1  0.000727  0.655119  0.999994  1
  Sn  Sn16  1  0.653483  0.653535  0.999578  1
  Sn  Sn17  1  0.346465  0.346517  0.999578  1
  Sn  Sn18  1  0.333419  0.666581  0.816069  1
  Sn  Sn19  1  0.665492  0.334508  0.182424  1
  Sn  Sn20  1  0.999125  0.000875  0.501654  1
  Sn  Sn21  1  0.779594  0.220406  0.456734  1
  Sn  Sn22  1  0.218401  0.781599  0.549839  1
  Sn  Sn23  1  0.781143  0.562671  0.450769  1
  Sn  Sn24  1  0.218601  0.437435  0.549155  1
  Sn  Sn25  1  0.437329  0.218857  0.450769  1
  Sn  Sn26  1  0.562565  0.781399  0.549155  1
  Sn  Sn27  1  0.333515  0.666485  0.118420  1
  Sn  Sn28  1  0.666370  0.333630  0.880739  1
  Sn  Sn29  1  0.117611  0.882389  0.273620  1
  Sn  Sn30  1  0.881952  0.118048  0.725955  1
  Sn  Sn31  1  0.124016  0.236983  0.276612  1
  Sn  Sn32  1  0.883192  0.764328  0.725643  1
  Sn  Sn33  1  0.763017  0.875984  0.276612  1
  Sn  Sn34  1  0.235672  0.116808  0.725643  1
  Ru  Ru35  1  0.832992  0.167008  0.197146  1
