# generated using pymatgen
data_Lu5(In2Ir)2
_symmetry_space_group_name_H-M   'P 1'
_cell_length_a   3.51766100
_cell_length_b   7.96434800
_cell_length_c   18.09847200
_cell_angle_alpha   90.00000000
_cell_angle_beta   90.00000000
_cell_angle_gamma   90.00000000
_symmetry_Int_Tables_number   1
_chemical_formula_structural   Lu5(In2Ir)2
_chemical_formula_sum   'Lu10 In8 Ir4'
_cell_volume   507.04455368
_cell_formula_units_Z   2
loop_
 _symmetry_equiv_pos_site_id
 _symmetry_equiv_pos_as_xyz
  1  'x, y, z'
loop_
 _atom_site_type_symbol
 _atom_site_label
 _atom_site_symmetry_multiplicity
 _atom_site_fract_x
 _atom_site_fract_y
 _atom_site_fract_z
 _atom_site_occupancy
  Lu  Lu0  1  0.000000  0.883055  0.087167  1
  Lu  Lu1  1  0.000000  0.755551  0.279100  1
  Lu  Lu2  1  0.000000  0.744449  0.779100  1
  Lu  Lu3  1  0.000000  0.383055  0.412833  1
  Lu  Lu4  1  0.000000  0.116945  0.912833  1
  Lu  Lu5  1  0.000000  0.244449  0.720900  1
  Lu  Lu6  1  0.000000  0.500000  0.000000  1
  Lu  Lu7  1  0.000000  0.255551  0.220900  1
  Lu  Lu8  1  0.000000  0.616945  0.587167  1
  Lu  Lu9  1  0.000000  0.000000  0.500000  1
  In  In10  1  0.500000  0.207434  0.066465  1
  In  In11  1  0.500000  0.425837  0.850628  1
  In  In12  1  0.500000  0.574163  0.149372  1
  In  In13  1  0.500000  0.074163  0.350628  1
  In  In14  1  0.500000  0.925837  0.649372  1
  In  In15  1  0.500000  0.792566  0.933535  1
  In  In16  1  0.500000  0.707434  0.433535  1
  In  In17  1  0.500000  0.292566  0.566465  1
  Ir  Ir18  1  0.500000  0.975434  0.196251  1
  Ir  Ir19  1  0.500000  0.024566  0.803749  1
  Ir  Ir20  1  0.500000  0.524566  0.696251  1
  Ir  Ir21  1  0.500000  0.475434  0.303749  1
