# generated using pymatgen
data_CaAc3(SiRh)4
_symmetry_space_group_name_H-M   'P 1'
_cell_length_a   6.44692451
_cell_length_b   6.44692330
_cell_length_c   6.44692400
_cell_angle_alpha   90.27359675
_cell_angle_beta   89.72639441
_cell_angle_gamma   90.27359371
_symmetry_Int_Tables_number   1
_chemical_formula_structural   CaAc3(SiRh)4
_chemical_formula_sum   'Ca1 Ac3 Si4 Rh4'
_cell_volume   267.94325643
_cell_formula_units_Z   1
loop_
 _symmetry_equiv_pos_site_id
 _symmetry_equiv_pos_as_xyz
  1  'x, y, z'
loop_
 _atom_site_type_symbol
 _atom_site_label
 _atom_site_symmetry_multiplicity
 _atom_site_fract_x
 _atom_site_fract_y
 _atom_site_fract_z
 _atom_site_occupancy
  Ca  Ca0  1  0.860820  0.639180  0.360820  1
  Ac  Ac1  1  0.645837  0.360257  0.857516  1
  Ac  Ac2  1  0.357516  0.854163  0.639743  1
  Ac  Ac3  1  0.139743  0.142484  0.145837  1
  Si  Si4  1  0.157001  0.342999  0.657001  1
  Si  Si5  1  0.658688  0.160048  0.340963  1
  Si  Si6  1  0.339952  0.659037  0.158688  1
  Si  Si7  1  0.840963  0.841312  0.839952  1
  Rh  Rh8  1  0.583719  0.916281  0.083719  1
  Rh  Rh9  1  0.080585  0.582893  0.918071  1
  Rh  Rh10  1  0.418071  0.419415  0.417107  1
  Rh  Rh11  1  0.917107  0.081929  0.580585  1
