# generated using pymatgen
data_Eu2Dy2Al18Pd5Pt
_symmetry_space_group_name_H-M   'P 1'
_cell_length_a   7.67466016
_cell_length_b   7.67819219
_cell_length_c   9.54612601
_cell_angle_alpha   89.99413477
_cell_angle_beta   89.99781582
_cell_angle_gamma   119.64403727
_symmetry_Int_Tables_number   1
_chemical_formula_structural   Eu2Dy2Al18Pd5Pt
_chemical_formula_sum   'Eu2 Dy2 Al18 Pd5 Pt1'
_cell_volume   488.90283119
_cell_formula_units_Z   1
loop_
 _symmetry_equiv_pos_site_id
 _symmetry_equiv_pos_as_xyz
  1  'x, y, z'
loop_
 _atom_site_type_symbol
 _atom_site_label
 _atom_site_symmetry_multiplicity
 _atom_site_fract_x
 _atom_site_fract_y
 _atom_site_fract_z
 _atom_site_occupancy
  Eu  Eu0  1  0.994858  0.667973  0.249972  1
  Eu  Eu1  1  0.005186  0.331935  0.750048  1
  Dy  Dy2  1  0.669423  0.995101  0.249961  1
  Dy  Dy3  1  0.330615  0.004769  0.749996  1
  Al  Al4  1  0.129610  0.130657  0.249982  1
  Al  Al5  1  0.870320  0.869384  0.750006  1
  Al  Al6  1  0.001308  0.334512  0.075902  1
  Al  Al7  1  0.998677  0.665508  0.924112  1
  Al  Al8  1  0.998570  0.665481  0.575998  1
  Al  Al9  1  0.334738  0.000476  0.424457  1
  Al  Al10  1  0.001405  0.334417  0.424029  1
  Al  Al11  1  0.665342  0.999503  0.575493  1
  Al  Al12  1  0.665360  0.999582  0.924521  1
  Al  Al13  1  0.334614  0.000306  0.075480  1
  Al  Al14  1  0.333548  0.333187  0.556586  1
  Al  Al15  1  0.666459  0.666792  0.443452  1
  Al  Al16  1  0.666502  0.666951  0.056465  1
  Al  Al17  1  0.333356  0.333211  0.943499  1
  Al  Al18  1  0.342952  0.548306  0.249990  1
  Al  Al19  1  0.657029  0.451898  0.749874  1
  Al  Al20  1  0.543821  0.336532  0.250142  1
  Al  Al21  1  0.456041  0.663547  0.750031  1
  Pd  Pd22  1  0.330515  0.673025  0.999777  1
  Pd  Pd23  1  0.330584  0.672974  0.500237  1
  Pd  Pd24  1  0.669495  0.326986  0.499758  1
  Pd  Pd25  1  0.000015  0.999980  0.000007  1
  Pd  Pd26  1  0.000061  0.999962  0.499989  1
  Pt  Pt27  1  0.669597  0.327050  0.000235  1
