# generated using pymatgen
data_LiCa4Rh7
_symmetry_space_group_name_H-M   'P 1'
_cell_length_a   5.41812900
_cell_length_b   5.41812794
_cell_length_c   8.58743600
_cell_angle_alpha   90.00000000
_cell_angle_beta   90.00000000
_cell_angle_gamma   119.99998814
_symmetry_Int_Tables_number   1
_chemical_formula_structural   LiCa4Rh7
_chemical_formula_sum   'Li1 Ca4 Rh7'
_cell_volume   218.31963374
_cell_formula_units_Z   1
loop_
 _symmetry_equiv_pos_site_id
 _symmetry_equiv_pos_as_xyz
  1  'x, y, z'
loop_
 _atom_site_type_symbol
 _atom_site_label
 _atom_site_symmetry_multiplicity
 _atom_site_fract_x
 _atom_site_fract_y
 _atom_site_fract_z
 _atom_site_occupancy
  Li  Li0  1  0.000000  0.000000  0.500000  1
  Ca  Ca1  1  0.333333  0.666667  0.061252  1
  Ca  Ca2  1  0.666667  0.333333  0.572485  1
  Ca  Ca3  1  0.666667  0.333333  0.938748  1
  Ca  Ca4  1  0.333333  0.666667  0.427515  1
  Rh  Rh5  1  0.000000  0.000000  0.000000  1
  Rh  Rh6  1  0.830038  0.660077  0.247373  1
  Rh  Rh7  1  0.169962  0.830038  0.752627  1
  Rh  Rh8  1  0.660077  0.830038  0.752627  1
  Rh  Rh9  1  0.339923  0.169962  0.247373  1
  Rh  Rh10  1  0.830038  0.169962  0.247373  1
  Rh  Rh11  1  0.169962  0.339923  0.752627  1
