# generated using pymatgen
data_CeSm(Dy3Sb10)2
_symmetry_space_group_name_H-M   'P 1'
_cell_length_a   4.17583600
_cell_length_b   13.23641284
_cell_length_c   14.77809994
_cell_angle_alpha   78.32043421
_cell_angle_beta   90.00000000
_cell_angle_gamma   90.00000000
_symmetry_Int_Tables_number   1
_chemical_formula_structural   CeSm(Dy3Sb10)2
_chemical_formula_sum   'Ce1 Sm1 Dy6 Sb20'
_cell_volume   799.91880440
_cell_formula_units_Z   1
loop_
 _symmetry_equiv_pos_site_id
 _symmetry_equiv_pos_as_xyz
  1  'x, y, z'
loop_
 _atom_site_type_symbol
 _atom_site_label
 _atom_site_symmetry_multiplicity
 _atom_site_fract_x
 _atom_site_fract_y
 _atom_site_fract_z
 _atom_site_occupancy
  Ce  Ce0  1  0.250000  0.669916  0.573414  1
  Sm  Sm1  1  0.250000  0.663527  0.857228  1
  Dy  Dy2  1  0.750000  0.328887  0.425099  1
  Dy  Dy3  1  0.250000  0.391422  0.773243  1
  Dy  Dy4  1  0.750000  0.605187  0.228558  1
  Dy  Dy5  1  0.250000  0.953790  0.356639  1
  Dy  Dy6  1  0.750000  0.049639  0.640800  1
  Dy  Dy7  1  0.750000  0.337607  0.144522  1
  Sb  Sb8  1  0.250000  0.425951  0.553125  1
  Sb  Sb9  1  0.750000  0.570845  0.445516  1
  Sb  Sb10  1  0.250000  0.720124  0.064603  1
  Sb  Sb11  1  0.750000  0.278145  0.938470  1
  Sb  Sb12  1  0.250000  0.419679  0.977211  1
  Sb  Sb13  1  0.750000  0.578548  0.025467  1
  Sb  Sb14  1  0.250000  0.863829  0.677530  1
  Sb  Sb15  1  0.750000  0.139471  0.322248  1
  Sb  Sb16  1  0.250000  0.153323  0.172498  1
  Sb  Sb17  1  0.750000  0.851636  0.825844  1
  Sb  Sb18  1  0.250000  0.712911  0.346889  1
  Sb  Sb19  1  0.750000  0.286611  0.652765  1
  Sb  Sb20  1  0.250000  0.143688  0.776439  1
  Sb  Sb21  1  0.750000  0.855763  0.223522  1
  Sb  Sb22  1  0.250000  0.422912  0.266867  1
  Sb  Sb23  1  0.750000  0.574146  0.732055  1
  Sb  Sb24  1  0.250000  0.140717  0.482082  1
  Sb  Sb25  1  0.750000  0.858464  0.515188  1
  Sb  Sb26  1  0.250000  0.971128  0.099593  1
  Sb  Sb27  1  0.750000  0.032132  0.902587  1
