# generated using pymatgen
data_CoCu3Se8
_symmetry_space_group_name_H-M   'P 1'
_cell_length_a   6.06733639
_cell_length_b   6.06733639
_cell_length_c   6.06733639
_cell_angle_alpha   89.24977306
_cell_angle_beta   89.24977306
_cell_angle_gamma   89.24977306
_symmetry_Int_Tables_number   1
_chemical_formula_structural   CoCu3Se8
_chemical_formula_sum   'Co1 Cu3 Se8'
_cell_volume   223.29730640
_cell_formula_units_Z   1
loop_
 _symmetry_equiv_pos_site_id
 _symmetry_equiv_pos_as_xyz
  1  'x, y, z'
loop_
 _atom_site_type_symbol
 _atom_site_label
 _atom_site_symmetry_multiplicity
 _atom_site_fract_x
 _atom_site_fract_y
 _atom_site_fract_z
 _atom_site_occupancy
  Co  Co0  1  0.000000  0.000000  0.000000  1
  Cu  Cu1  1  0.500000  0.000000  0.500000  1
  Cu  Cu2  1  0.500000  0.500000  0.000000  1
  Cu  Cu3  1  0.000000  0.500000  0.500000  1
  Se  Se4  1  0.388189  0.388189  0.388189  1
  Se  Se5  1  0.109055  0.630508  0.891438  1
  Se  Se6  1  0.891438  0.109055  0.630508  1
  Se  Se7  1  0.630508  0.891438  0.109055  1
  Se  Se8  1  0.611811  0.611811  0.611811  1
  Se  Se9  1  0.890945  0.369492  0.108562  1
  Se  Se10  1  0.108562  0.890945  0.369492  1
  Se  Se11  1  0.369492  0.108562  0.890945  1
