# generated using pymatgen
data_Lu4TcRu6W
_symmetry_space_group_name_H-M   'P 1'
_cell_length_a   5.36405880
_cell_length_b   5.25512881
_cell_length_c   8.95046900
_cell_angle_alpha   90.00000000
_cell_angle_beta   90.00000000
_cell_angle_gamma   122.32528193
_symmetry_Int_Tables_number   1
_chemical_formula_structural   Lu4TcRu6W
_chemical_formula_sum   'Lu4 Tc1 Ru6 W1'
_cell_volume   213.20272053
_cell_formula_units_Z   1
loop_
 _symmetry_equiv_pos_site_id
 _symmetry_equiv_pos_as_xyz
  1  'x, y, z'
loop_
 _atom_site_type_symbol
 _atom_site_label
 _atom_site_symmetry_multiplicity
 _atom_site_fract_x
 _atom_site_fract_y
 _atom_site_fract_z
 _atom_site_occupancy
  Lu  Lu0  1  0.338148  0.668719  0.433172  1
  Lu  Lu1  1  0.670800  0.344591  0.563999  1
  Lu  Lu2  1  0.670800  0.344591  0.936001  1
  Lu  Lu3  1  0.338148  0.668719  0.066828  1
  Tc  Tc4  1  0.329403  0.163203  0.250000  1
  Ru  Ru5  1  0.168531  0.820536  0.750000  1
  Ru  Ru6  1  0.815279  0.643989  0.250000  1
  Ru  Ru7  1  0.648325  0.816957  0.750000  1
  Ru  Ru8  1  0.017683  0.019961  0.001501  1
  Ru  Ru9  1  0.824720  0.165334  0.250000  1
  Ru  Ru10  1  0.017683  0.019961  0.498499  1
  W  W11  1  0.160481  0.323439  0.750000  1
