# generated using pymatgen
data_TbCeY14(CdIr)4
_symmetry_space_group_name_H-M   'P 1'
_cell_length_a   9.69089568
_cell_length_b   9.69089468
_cell_length_c   9.70158948
_cell_angle_alpha   59.74260542
_cell_angle_beta   59.74260846
_cell_angle_gamma   59.72348991
_symmetry_Int_Tables_number   1
_chemical_formula_structural   TbCeY14(CdIr)4
_chemical_formula_sum   'Tb1 Ce1 Y14 Cd4 Ir4'
_cell_volume   640.39271243
_cell_formula_units_Z   1
loop_
 _symmetry_equiv_pos_site_id
 _symmetry_equiv_pos_as_xyz
  1  'x, y, z'
loop_
 _atom_site_type_symbol
 _atom_site_label
 _atom_site_symmetry_multiplicity
 _atom_site_fract_x
 _atom_site_fract_y
 _atom_site_fract_z
 _atom_site_occupancy
  Tb  Tb0  1  0.350860  0.350860  0.949051  1
  Ce  Ce1  1  0.344046  0.344046  0.344753  1
  Y  Y2  1  0.351502  0.947590  0.351464  1
  Y  Y3  1  0.947590  0.351502  0.351464  1
  Y  Y4  1  0.811439  0.189491  0.189727  1
  Y  Y5  1  0.188568  0.810758  0.810697  1
  Y  Y6  1  0.189491  0.811439  0.189727  1
  Y  Y7  1  0.810758  0.188568  0.810697  1
  Y  Y8  1  0.189461  0.189461  0.811597  1
  Y  Y9  1  0.810790  0.810790  0.188706  1
  Y  Y10  1  0.939390  0.563066  0.563249  1
  Y  Y11  1  0.561261  0.939279  0.938585  1
  Y  Y12  1  0.563066  0.939390  0.563249  1
  Y  Y13  1  0.939279  0.561261  0.938585  1
  Y  Y14  1  0.562830  0.562830  0.939258  1
  Y  Y15  1  0.938919  0.938919  0.561222  1
  Cd  Cd16  1  0.579562  0.579562  0.579209  1
  Cd  Cd17  1  0.580026  0.580026  0.256011  1
  Cd  Cd18  1  0.579840  0.256416  0.579572  1
  Cd  Cd19  1  0.256416  0.579840  0.579572  1
  Ir  Ir20  1  0.142896  0.142896  0.142877  1
  Ir  Ir21  1  0.144216  0.144216  0.573446  1
  Ir  Ir22  1  0.144705  0.573087  0.143642  1
  Ir  Ir23  1  0.573087  0.144705  0.143642  1
