# generated using pymatgen
data_NaPrNd5OsBr12
_symmetry_space_group_name_H-M   'P 1'
_cell_length_a   9.57784846
_cell_length_b   9.58714725
_cell_length_c   9.58158350
_cell_angle_alpha   107.16352247
_cell_angle_beta   107.12683999
_cell_angle_gamma   107.27596748
_symmetry_Int_Tables_number   1
_chemical_formula_structural   NaPrNd5OsBr12
_chemical_formula_sum   'Na1 Pr1 Nd5 Os1 Br12'
_cell_volume   728.91670067
_cell_formula_units_Z   1
loop_
 _symmetry_equiv_pos_site_id
 _symmetry_equiv_pos_as_xyz
  1  'x, y, z'
loop_
 _atom_site_type_symbol
 _atom_site_label
 _atom_site_symmetry_multiplicity
 _atom_site_fract_x
 _atom_site_fract_y
 _atom_site_fract_z
 _atom_site_occupancy
  Na  Na0  1  0.500037  0.499990  0.500050  1
  Pr  Pr1  1  0.112733  0.321054  0.031487  1
  Nd  Nd2  1  0.319653  0.031322  0.111945  1
  Nd  Nd3  1  0.031385  0.111372  0.319330  1
  Nd  Nd4  1  0.968365  0.887714  0.680487  1
  Nd  Nd5  1  0.680281  0.968321  0.888133  1
  Nd  Nd6  1  0.887465  0.680270  0.968266  1
  Os  Os7  1  0.999836  0.999560  0.999816  1
  Br  Br8  1  0.217749  0.686237  0.071563  1
  Br  Br9  1  0.456307  0.372418  0.155762  1
  Br  Br10  1  0.685211  0.071678  0.217577  1
  Br  Br11  1  0.929209  0.781990  0.315318  1
  Br  Br12  1  0.154956  0.454178  0.374599  1
  Br  Br13  1  0.372137  0.154440  0.453585  1
  Br  Br14  1  0.627889  0.845553  0.546417  1
  Br  Br15  1  0.845267  0.546286  0.627710  1
  Br  Br16  1  0.070332  0.216940  0.682402  1
  Br  Br17  1  0.314785  0.928286  0.782432  1
  Br  Br18  1  0.546150  0.627617  0.845199  1
  Br  Br19  1  0.780253  0.314776  0.927925  1
