# generated using pymatgen
data_K4Fe4Cl10O
_symmetry_space_group_name_H-M   'P 1'
_cell_length_a   10.89498458
_cell_length_b   10.89563858
_cell_length_c   9.26541972
_cell_angle_alpha   79.60807458
_cell_angle_beta   79.55097018
_cell_angle_gamma   90.49411447
_symmetry_Int_Tables_number   1
_chemical_formula_structural   K4Fe4Cl10O
_chemical_formula_sum   'K8 Fe8 Cl20 O2'
_cell_volume   1062.92386538
_cell_formula_units_Z   2
loop_
 _symmetry_equiv_pos_site_id
 _symmetry_equiv_pos_as_xyz
  1  'x, y, z'
loop_
 _atom_site_type_symbol
 _atom_site_label
 _atom_site_symmetry_multiplicity
 _atom_site_fract_x
 _atom_site_fract_y
 _atom_site_fract_z
 _atom_site_occupancy
  K  K0  1  0.294611  0.441856  0.139270  1
  K  K1  1  0.713483  0.964845  0.873724  1
  K  K2  1  0.964919  0.713648  0.373845  1
  K  K3  1  0.558226  0.705513  0.360634  1
  K  K4  1  0.441774  0.294487  0.639366  1
  K  K5  1  0.035081  0.286352  0.626155  1
  K  K6  1  0.705389  0.558144  0.860730  1
  K  K7  1  0.286517  0.035155  0.126276  1
  Fe  Fe8  1  0.954310  0.235876  0.115792  1
  Fe  Fe9  1  0.045690  0.764124  0.884208  1
  Fe  Fe10  1  0.646679  0.230801  0.126304  1
  Fe  Fe11  1  0.769074  0.353205  0.373590  1
  Fe  Fe12  1  0.230926  0.646795  0.626410  1
  Fe  Fe13  1  0.353321  0.769199  0.873696  1
  Fe  Fe14  1  0.764674  0.045780  0.384422  1
  Fe  Fe15  1  0.235326  0.954220  0.615578  1
  Cl  Cl16  1  0.151243  0.268364  0.955489  1
  Cl  Cl17  1  0.982539  0.017565  0.250707  1
  Cl  Cl18  1  0.731502  0.848889  0.544340  1
  Cl  Cl19  1  0.400100  0.994321  0.779870  1
  Cl  Cl20  1  0.262209  0.488720  0.480056  1
  Cl  Cl21  1  0.005687  0.600065  0.721001  1
  Cl  Cl22  1  0.827457  0.275297  0.911215  1
  Cl  Cl23  1  0.418507  0.581577  0.749916  1
  Cl  Cl24  1  0.488670  0.262332  0.979903  1
  Cl  Cl25  1  0.017461  0.982435  0.749293  1
  Cl  Cl26  1  0.274398  0.827232  0.411080  1
  Cl  Cl27  1  0.994313  0.399935  0.278999  1
  Cl  Cl28  1  0.848757  0.731636  0.044511  1
  Cl  Cl29  1  0.737791  0.511280  0.519944  1
  Cl  Cl30  1  0.599900  0.005679  0.220130  1
  Cl  Cl31  1  0.725602  0.172768  0.588920  1
  Cl  Cl32  1  0.172543  0.724703  0.088785  1
  Cl  Cl33  1  0.581493  0.418423  0.250084  1
  Cl  Cl34  1  0.268498  0.151111  0.455660  1
  Cl  Cl35  1  0.511330  0.737668  0.020097  1
  O  O36  1  0.217928  0.782351  0.749942  1
  O  O37  1  0.782072  0.217649  0.250058  1
