# generated using pymatgen
data_RbBaCrS4
_symmetry_space_group_name_H-M   'P 1'
_cell_length_a   6.72662500
_cell_length_b   10.13328400
_cell_length_c   11.97448100
_cell_angle_alpha   90.00000000
_cell_angle_beta   90.00000000
_cell_angle_gamma   90.00000000
_symmetry_Int_Tables_number   1
_chemical_formula_structural   RbBaCrS4
_chemical_formula_sum   'Rb4 Ba4 Cr4 S16'
_cell_volume   816.21417131
_cell_formula_units_Z   4
loop_
 _symmetry_equiv_pos_site_id
 _symmetry_equiv_pos_as_xyz
  1  'x, y, z'
loop_
 _atom_site_type_symbol
 _atom_site_label
 _atom_site_symmetry_multiplicity
 _atom_site_fract_x
 _atom_site_fract_y
 _atom_site_fract_z
 _atom_site_occupancy
  Rb  Rb0  1  0.250000  0.858847  0.927760  1
  Rb  Rb1  1  0.250000  0.641153  0.427760  1
  Rb  Rb2  1  0.750000  0.141153  0.072240  1
  Rb  Rb3  1  0.750000  0.358847  0.572240  1
  Ba  Ba4  1  0.250000  0.401388  0.851881  1
  Ba  Ba5  1  0.250000  0.098612  0.351881  1
  Ba  Ba6  1  0.750000  0.598612  0.148119  1
  Ba  Ba7  1  0.750000  0.901388  0.648119  1
  Cr  Cr8  1  0.250000  0.115225  0.673922  1
  Cr  Cr9  1  0.250000  0.384775  0.173922  1
  Cr  Cr10  1  0.750000  0.884775  0.326078  1
  Cr  Cr11  1  0.750000  0.615225  0.826078  1
  S  S12  1  0.997853  0.126251  0.779800  1
  S  S13  1  0.502147  0.373749  0.279800  1
  S  S14  1  0.497853  0.873749  0.220200  1
  S  S15  1  0.002147  0.626251  0.720200  1
  S  S16  1  0.002147  0.873749  0.220200  1
  S  S17  1  0.497853  0.626251  0.720200  1
  S  S18  1  0.502147  0.126251  0.779800  1
  S  S19  1  0.997853  0.373749  0.279800  1
  S  S20  1  0.250000  0.285182  0.567630  1
  S  S21  1  0.250000  0.214818  0.067630  1
  S  S22  1  0.750000  0.714818  0.432370  1
  S  S23  1  0.750000  0.785182  0.932370  1
  S  S24  1  0.250000  0.934803  0.582071  1
  S  S25  1  0.250000  0.565197  0.082071  1
  S  S26  1  0.750000  0.065197  0.417929  1
  S  S27  1  0.750000  0.434803  0.917929  1
