# generated using pymatgen
data_Y3HfCo7NiP6
_symmetry_space_group_name_H-M   'P 1'
_cell_length_a   3.73582900
_cell_length_b   10.69367600
_cell_length_c   12.42417500
_cell_angle_alpha   90.00000000
_cell_angle_beta   90.00000000
_cell_angle_gamma   90.00000000
_symmetry_Int_Tables_number   1
_chemical_formula_structural   Y3HfCo7NiP6
_chemical_formula_sum   'Y6 Hf2 Co14 Ni2 P12'
_cell_volume   496.34262206
_cell_formula_units_Z   2
loop_
 _symmetry_equiv_pos_site_id
 _symmetry_equiv_pos_as_xyz
  1  'x, y, z'
loop_
 _atom_site_type_symbol
 _atom_site_label
 _atom_site_symmetry_multiplicity
 _atom_site_fract_x
 _atom_site_fract_y
 _atom_site_fract_z
 _atom_site_occupancy
  Y  Y0  1  0.000000  0.500000  0.526590  1
  Y  Y1  1  0.500000  0.000000  0.473410  1
  Y  Y2  1  0.500000  0.820267  0.204059  1
  Y  Y3  1  0.500000  0.179733  0.204059  1
  Y  Y4  1  0.000000  0.679733  0.795941  1
  Y  Y5  1  0.000000  0.320267  0.795941  1
  Hf  Hf6  1  0.500000  0.500000  0.157154  1
  Hf  Hf7  1  0.000000  0.000000  0.842846  1
  Co  Co8  1  0.000000  0.500000  0.987305  1
  Co  Co9  1  0.500000  0.000000  0.012695  1
  Co  Co10  1  0.500000  0.332308  0.993250  1
  Co  Co11  1  0.500000  0.667692  0.993250  1
  Co  Co12  1  0.000000  0.167692  0.006750  1
  Co  Co13  1  0.000000  0.832308  0.006750  1
  Co  Co14  1  0.500000  0.295856  0.433450  1
  Co  Co15  1  0.500000  0.704144  0.433450  1
  Co  Co16  1  0.000000  0.204144  0.566550  1
  Co  Co17  1  0.000000  0.795856  0.566550  1
  Co  Co18  1  0.500000  0.877758  0.704161  1
  Co  Co19  1  0.500000  0.122242  0.704161  1
  Co  Co20  1  0.000000  0.622242  0.295839  1
  Co  Co21  1  0.000000  0.377758  0.295839  1
  Ni  Ni22  1  0.500000  0.500000  0.702464  1
  Ni  Ni23  1  0.000000  0.000000  0.297536  1
  P  P24  1  0.500000  0.500000  0.884027  1
  P  P25  1  0.000000  0.000000  0.115973  1
  P  P26  1  0.500000  0.500000  0.361132  1
  P  P27  1  0.000000  0.000000  0.638868  1
  P  P28  1  0.500000  0.308779  0.615043  1
  P  P29  1  0.500000  0.691221  0.615043  1
  P  P30  1  0.000000  0.191221  0.384957  1
  P  P31  1  0.000000  0.808779  0.384957  1
  P  P32  1  0.500000  0.838884  0.893928  1
  P  P33  1  0.500000  0.161116  0.893928  1
  P  P34  1  0.000000  0.661116  0.106072  1
  P  P35  1  0.000000  0.338884  0.106072  1
