# generated using pymatgen
data_ErZnCdCuPt2
_symmetry_space_group_name_H-M   'P 1'
_cell_length_a   5.21152988
_cell_length_b   5.54787024
_cell_length_c   5.26189488
_cell_angle_alpha   58.18527542
_cell_angle_beta   58.70772954
_cell_angle_gamma   57.84111709
_symmetry_Int_Tables_number   1
_chemical_formula_structural   ErZnCdCuPt2
_chemical_formula_sum   'Er1 Zn1 Cd1 Cu1 Pt2'
_cell_volume   103.23840206
_cell_formula_units_Z   1
loop_
 _symmetry_equiv_pos_site_id
 _symmetry_equiv_pos_as_xyz
  1  'x, y, z'
loop_
 _atom_site_type_symbol
 _atom_site_label
 _atom_site_symmetry_multiplicity
 _atom_site_fract_x
 _atom_site_fract_y
 _atom_site_fract_z
 _atom_site_occupancy
  Er  Er0  1  0.741777  0.756476  0.745272  1
  Zn  Zn1  1  0.878552  0.371760  0.377926  1
  Cd  Cd2  1  0.993448  0.004927  0.996698  1
  Cu  Cu3  1  0.379476  0.371927  0.876669  1
  Pt  Pt4  1  0.378373  0.873566  0.376718  1
  Pt  Pt5  1  0.378373  0.371342  0.376718  1
