# generated using pymatgen
data_Y3Zn3RuAu2
_symmetry_space_group_name_H-M   'P 1'
_cell_length_a   7.46148900
_cell_length_b   7.46148886
_cell_length_c   3.86145100
_cell_angle_alpha   90.00000000
_cell_angle_beta   90.00000000
_cell_angle_gamma   120.00001391
_symmetry_Int_Tables_number   1
_chemical_formula_structural   Y3Zn3RuAu2
_chemical_formula_sum   'Y3 Zn3 Ru1 Au2'
_cell_volume   186.17960185
_cell_formula_units_Z   1
loop_
 _symmetry_equiv_pos_site_id
 _symmetry_equiv_pos_as_xyz
  1  'x, y, z'
loop_
 _atom_site_type_symbol
 _atom_site_label
 _atom_site_symmetry_multiplicity
 _atom_site_fract_x
 _atom_site_fract_y
 _atom_site_fract_z
 _atom_site_occupancy
  Y  Y0  1  0.581333  0.977240  0.000000  1
  Y  Y1  1  0.022760  0.604093  0.000000  1
  Y  Y2  1  0.395907  0.418667  0.000000  1
  Zn  Zn3  1  0.257638  0.986741  0.500000  1
  Zn  Zn4  1  0.013259  0.270897  0.500000  1
  Zn  Zn5  1  0.729103  0.742362  0.500000  1
  Ru  Ru6  1  0.333333  0.666667  0.500000  1
  Au  Au7  1  0.666667  0.333333  0.500000  1
  Au  Au8  1  0.000000  0.000000  0.000000  1
