# generated using pymatgen
data_CrAgSbSe4
_symmetry_space_group_name_H-M   'P 1'
_cell_length_a   7.88772467
_cell_length_b   7.88772386
_cell_length_c   7.88772459
_cell_angle_alpha   120.76780579
_cell_angle_beta   118.82106309
_cell_angle_gamma   90.36463635
_symmetry_Int_Tables_number   1
_chemical_formula_structural   CrAgSbSe4
_chemical_formula_sum   'Cr2 Ag2 Sb2 Se8'
_cell_volume   347.95451603
_cell_formula_units_Z   2
loop_
 _symmetry_equiv_pos_site_id
 _symmetry_equiv_pos_as_xyz
  1  'x, y, z'
loop_
 _atom_site_type_symbol
 _atom_site_label
 _atom_site_symmetry_multiplicity
 _atom_site_fract_x
 _atom_site_fract_y
 _atom_site_fract_z
 _atom_site_occupancy
  Cr  Cr0  1  0.500000  0.000000  0.000000  1
  Cr  Cr1  1  0.500000  0.500000  0.500000  1
  Ag  Ag2  1  0.887152  0.637152  0.250000  1
  Ag  Ag3  1  0.112848  0.362848  0.750000  1
  Sb  Sb4  1  0.500000  0.000000  0.500000  1
  Sb  Sb5  1  0.000000  0.000000  0.000000  1
  Se  Se6  1  0.725651  0.726872  0.501221  1
  Se  Se7  1  0.725651  0.224429  0.998779  1
  Se  Se8  1  0.711555  0.751277  0.960278  1
  Se  Se9  1  0.290999  0.751277  0.539722  1
  Se  Se10  1  0.274349  0.273128  0.498779  1
  Se  Se11  1  0.274349  0.775571  0.001221  1
  Se  Se12  1  0.288445  0.248723  0.039722  1
  Se  Se13  1  0.709001  0.248723  0.460278  1
