# generated using pymatgen
data_Tb2Nd4Si3Ag
_symmetry_space_group_name_H-M   'P 1'
_cell_length_a   7.74840799
_cell_length_b   7.74840799
_cell_length_c   4.40126800
_cell_angle_alpha   90.00000000
_cell_angle_beta   90.00000000
_cell_angle_gamma   87.57008123
_symmetry_Int_Tables_number   1
_chemical_formula_structural   Tb2Nd4Si3Ag
_chemical_formula_sum   'Tb2 Nd4 Si3 Ag1'
_cell_volume   264.00496398
_cell_formula_units_Z   1
loop_
 _symmetry_equiv_pos_site_id
 _symmetry_equiv_pos_as_xyz
  1  'x, y, z'
loop_
 _atom_site_type_symbol
 _atom_site_label
 _atom_site_symmetry_multiplicity
 _atom_site_fract_x
 _atom_site_fract_y
 _atom_site_fract_z
 _atom_site_occupancy
  Tb  Tb0  1  0.007874  0.002295  0.000000  1
  Tb  Tb1  1  0.502295  0.507874  0.000000  1
  Nd  Nd2  1  0.674188  0.174188  0.500000  1
  Nd  Nd3  1  0.339800  0.839800  0.500000  1
  Nd  Nd4  1  0.172619  0.313477  0.500000  1
  Nd  Nd5  1  0.813477  0.672619  0.500000  1
  Si  Si6  1  0.870079  0.370079  0.000000  1
  Si  Si7  1  0.618608  0.886377  0.000000  1
  Si  Si8  1  0.386377  0.118608  0.000000  1
  Ag  Ag9  1  0.114683  0.614683  0.000000  1
