# generated using pymatgen
data_DyEr3Re5Os3
_symmetry_space_group_name_H-M   'P 1'
_cell_length_a   5.35987641
_cell_length_b   5.25190607
_cell_length_c   9.00027504
_cell_angle_alpha   89.99999918
_cell_angle_beta   90.00961963
_cell_angle_gamma   119.33585678
_symmetry_Int_Tables_number   1
_chemical_formula_structural   DyEr3Re5Os3
_chemical_formula_sum   'Dy1 Er3 Re5 Os3'
_cell_volume   220.86446634
_cell_formula_units_Z   1
loop_
 _symmetry_equiv_pos_site_id
 _symmetry_equiv_pos_as_xyz
  1  'x, y, z'
loop_
 _atom_site_type_symbol
 _atom_site_label
 _atom_site_symmetry_multiplicity
 _atom_site_fract_x
 _atom_site_fract_y
 _atom_site_fract_z
 _atom_site_occupancy
  Dy  Dy0  1  0.332738  0.666369  0.438202  1
  Er  Er1  1  0.670255  0.335128  0.564007  1
  Er  Er2  1  0.670242  0.335121  0.936192  1
  Er  Er3  1  0.332406  0.666203  0.061966  1
  Re  Re4  1  0.829626  0.170035  0.249320  1
  Re  Re5  1  0.829626  0.659591  0.249320  1
  Re  Re6  1  0.344342  0.172172  0.249282  1
  Re  Re7  1  0.163902  0.828952  0.750542  1
  Re  Re8  1  0.163902  0.334951  0.750542  1
  Os  Os9  1  0.009140  0.004570  0.500850  1
  Os  Os10  1  0.009378  0.004689  0.999141  1
  Os  Os11  1  0.644441  0.822220  0.750635  1
