# generated using pymatgen
data_YHoTlF7
_symmetry_space_group_name_H-M   'P 1'
_cell_length_a   6.73052300
_cell_length_b   6.73052232
_cell_length_c   4.38513500
_cell_angle_alpha   90.00000000
_cell_angle_beta   90.00000000
_cell_angle_gamma   116.65948516
_symmetry_Int_Tables_number   1
_chemical_formula_structural   YHoTlF7
_chemical_formula_sum   'Y1 Ho1 Tl1 F7'
_cell_volume   177.52801903
_cell_formula_units_Z   1
loop_
 _symmetry_equiv_pos_site_id
 _symmetry_equiv_pos_as_xyz
  1  'x, y, z'
loop_
 _atom_site_type_symbol
 _atom_site_label
 _atom_site_symmetry_multiplicity
 _atom_site_fract_x
 _atom_site_fract_y
 _atom_site_fract_z
 _atom_site_occupancy
  Y  Y0  1  0.692528  0.307472  0.500000  1
  Ho  Ho1  1  0.306962  0.693038  0.500000  1
  Tl  Tl2  1  0.000052  0.999948  0.000000  1
  F  F3  1  0.707149  0.292850  0.000000  1
  F  F4  1  0.293495  0.706504  0.000000  1
  F  F5  1  0.334047  0.041760  0.500000  1
  F  F6  1  0.044942  0.336378  0.500000  1
  F  F7  1  0.498963  0.501037  0.500000  1
  F  F8  1  0.958240  0.665953  0.500000  1
  F  F9  1  0.663622  0.955058  0.500000  1
