# generated using pymatgen
data_Zr7TiCo16(SiP5)2
_symmetry_space_group_name_H-M   'P 1'
_cell_length_a   12.13156146
_cell_length_b   12.12420514
_cell_length_c   3.65357300
_cell_angle_alpha   90.00000000
_cell_angle_beta   90.00000000
_cell_angle_gamma   120.04606338
_symmetry_Int_Tables_number   1
_chemical_formula_structural   Zr7TiCo16(SiP5)2
_chemical_formula_sum   'Zr7 Ti1 Co16 Si2 P10'
_cell_volume   465.17528036
_cell_formula_units_Z   1
loop_
 _symmetry_equiv_pos_site_id
 _symmetry_equiv_pos_as_xyz
  1  'x, y, z'
loop_
 _atom_site_type_symbol
 _atom_site_label
 _atom_site_symmetry_multiplicity
 _atom_site_fract_x
 _atom_site_fract_y
 _atom_site_fract_z
 _atom_site_occupancy
  Zr  Zr0  1  0.557061  0.000457  0.000000  1
  Zr  Zr1  1  0.999796  0.554087  0.000000  1
  Zr  Zr2  1  0.665150  0.334293  0.000000  1
  Zr  Zr3  1  0.334103  0.666517  0.000000  1
  Zr  Zr4  1  0.823436  0.822878  0.500000  1
  Zr  Zr5  1  0.174234  0.000170  0.500000  1
  Zr  Zr6  1  0.000842  0.176170  0.500000  1
  Ti  Ti7  1  0.440127  0.440777  0.000000  1
  Co  Co8  1  0.197474  0.372433  0.000000  1
  Co  Co9  1  0.175054  0.802971  0.000000  1
  Co  Co10  1  0.823112  0.626897  0.000000  1
  Co  Co11  1  0.807961  0.178637  0.000000  1
  Co  Co12  1  0.372949  0.201717  0.000000  1
  Co  Co13  1  0.128368  0.478443  0.500000  1
  Co  Co14  1  0.354937  0.873716  0.500000  1
  Co  Co15  1  0.515958  0.641848  0.500000  1
  Co  Co16  1  0.641739  0.516421  0.500000  1
  Co  Co17  1  0.874536  0.353563  0.500000  1
  Co  Co18  1  0.481608  0.130214  0.500000  1
  Co  Co19  1  0.000464  0.000955  0.000000  1
  Co  Co20  1  0.723317  0.001518  0.500000  1
  Co  Co21  1  0.999459  0.721127  0.500000  1
  Co  Co22  1  0.627856  0.823217  0.000000  1
  Co  Co23  1  0.280702  0.282541  0.500000  1
  Si  Si24  1  0.647283  0.647019  0.000000  1
  Si  Si25  1  0.345399  0.002286  0.000000  1
  P  P26  1  0.002587  0.345256  0.000000  1
  P  P27  1  0.480672  0.313370  0.500000  1
  P  P28  1  0.691890  0.174658  0.500000  1
  P  P29  1  0.824942  0.518053  0.500000  1
  P  P30  1  0.518707  0.825363  0.500000  1
  P  P31  1  0.174383  0.691818  0.500000  1
  P  P32  1  0.824573  0.998753  0.000000  1
  P  P33  1  0.999340  0.824363  0.000000  1
  P  P34  1  0.313541  0.481587  0.500000  1
  P  P35  1  0.176437  0.175908  0.000000  1
