# generated using pymatgen
data_Tb8Dy4TcRu3
_symmetry_space_group_name_H-M   'P 1'
_cell_length_a   6.31523027
_cell_length_b   7.34904678
_cell_length_c   9.24289407
_cell_angle_alpha   89.98624409
_cell_angle_beta   90.00155931
_cell_angle_gamma   90.00895618
_symmetry_Int_Tables_number   1
_chemical_formula_structural   Tb8Dy4TcRu3
_chemical_formula_sum   'Tb8 Dy4 Tc1 Ru3'
_cell_volume   428.97122400
_cell_formula_units_Z   1
loop_
 _symmetry_equiv_pos_site_id
 _symmetry_equiv_pos_as_xyz
  1  'x, y, z'
loop_
 _atom_site_type_symbol
 _atom_site_label
 _atom_site_symmetry_multiplicity
 _atom_site_fract_x
 _atom_site_fract_y
 _atom_site_fract_z
 _atom_site_occupancy
  Tb  Tb0  1  0.668842  0.323720  0.934830  1
  Tb  Tb1  1  0.833859  0.824497  0.563718  1
  Tb  Tb2  1  0.332243  0.676122  0.434659  1
  Tb  Tb3  1  0.168144  0.176189  0.065110  1
  Tb  Tb4  1  0.866225  0.540596  0.249971  1
  Tb  Tb5  1  0.629534  0.042357  0.250028  1
  Tb  Tb6  1  0.135930  0.456823  0.750007  1
  Tb  Tb7  1  0.364829  0.957491  0.749996  1
  Dy  Dy8  1  0.332228  0.676199  0.065285  1
  Dy  Dy9  1  0.168307  0.176526  0.435028  1
  Dy  Dy10  1  0.668992  0.323606  0.565085  1
  Dy  Dy11  1  0.833738  0.824410  0.936381  1
  Tc  Tc12  1  0.038911  0.886831  0.249486  1
  Ru  Ru13  1  0.459447  0.385778  0.250421  1
  Ru  Ru14  1  0.958305  0.115237  0.749569  1
  Ru  Ru15  1  0.540469  0.613617  0.750425  1
