# generated using pymatgen
data_LuHf2ScCN3
_symmetry_space_group_name_H-M   'P 1'
_cell_length_a   10.82338238
_cell_length_b   10.82338209
_cell_length_c   10.82338252
_cell_angle_alpha   17.32229109
_cell_angle_beta   17.32229846
_cell_angle_gamma   17.32229003
_symmetry_Int_Tables_number   1
_chemical_formula_structural   LuHf2ScCN3
_chemical_formula_sum   'Lu1 Hf2 Sc1 C1 N3'
_cell_volume   98.08610130
_cell_formula_units_Z   1
loop_
 _symmetry_equiv_pos_site_id
 _symmetry_equiv_pos_as_xyz
  1  'x, y, z'
loop_
 _atom_site_type_symbol
 _atom_site_label
 _atom_site_symmetry_multiplicity
 _atom_site_fract_x
 _atom_site_fract_y
 _atom_site_fract_z
 _atom_site_occupancy
  Lu  Lu0  1  0.873847  0.873847  0.873847  1
  Hf  Hf1  1  0.375357  0.375357  0.375357  1
  Hf  Hf2  1  0.626466  0.626466  0.626466  1
  Sc  Sc3  1  0.124240  0.124240  0.124240  1
  C  C4  1  0.000809  0.000809  0.000809  1
  N  N5  1  0.251575  0.251575  0.251575  1
  N  N6  1  0.497868  0.497868  0.497868  1
  N  N7  1  0.749838  0.749838  0.749838  1
