# generated using pymatgen
data_DyEr2Tm5Ga3Co
_symmetry_space_group_name_H-M   'P 1'
_cell_length_a   9.90179201
_cell_length_b   9.90179249
_cell_length_c   6.86052300
_cell_angle_alpha   90.00000000
_cell_angle_beta   90.00000000
_cell_angle_gamma   119.99411324
_symmetry_Int_Tables_number   1
_chemical_formula_structural   DyEr2Tm5Ga3Co
_chemical_formula_sum   'Dy2 Er4 Tm10 Ga6 Co2'
_cell_volume   582.56076996
_cell_formula_units_Z   2
loop_
 _symmetry_equiv_pos_site_id
 _symmetry_equiv_pos_as_xyz
  1  'x, y, z'
loop_
 _atom_site_type_symbol
 _atom_site_label
 _atom_site_symmetry_multiplicity
 _atom_site_fract_x
 _atom_site_fract_y
 _atom_site_fract_z
 _atom_site_occupancy
  Dy  Dy0  1  0.999993  0.000007  0.270295  1
  Dy  Dy1  1  0.000007  0.999993  0.770295  1
  Er  Er2  1  0.463784  0.927541  0.293222  1
  Er  Er3  1  0.072459  0.536216  0.293222  1
  Er  Er4  1  0.927541  0.463784  0.793222  1
  Er  Er5  1  0.536216  0.072459  0.793222  1
  Tm  Tm6  1  0.173592  0.826408  0.990666  1
  Tm  Tm7  1  0.826408  0.173592  0.490666  1
  Tm  Tm8  1  0.173703  0.347261  0.990675  1
  Tm  Tm9  1  0.652739  0.826297  0.990675  1
  Tm  Tm10  1  0.347261  0.173703  0.490675  1
  Tm  Tm11  1  0.826297  0.652739  0.490675  1
  Tm  Tm12  1  0.333378  0.666622  0.672651  1
  Tm  Tm13  1  0.666622  0.333378  0.172651  1
  Tm  Tm14  1  0.463763  0.536237  0.293253  1
  Tm  Tm15  1  0.536237  0.463763  0.793253  1
  Ga  Ga16  1  0.163784  0.836216  0.540362  1
  Ga  Ga17  1  0.836216  0.163784  0.040362  1
  Ga  Ga18  1  0.163825  0.327592  0.540343  1
  Ga  Ga19  1  0.672408  0.836175  0.540343  1
  Ga  Ga20  1  0.327592  0.163825  0.040343  1
  Ga  Ga21  1  0.836175  0.672408  0.040343  1
  Co  Co22  1  0.333370  0.666630  0.057350  1
  Co  Co23  1  0.666630  0.333370  0.557350  1
