# generated using pymatgen
data_Hf3ZrSi2(B2Ru5)2
_symmetry_space_group_name_H-M   'P 1'
_cell_length_a   9.32754498
_cell_length_b   9.32754498
_cell_length_c   3.03582500
_cell_angle_alpha   90.00000000
_cell_angle_beta   90.00000000
_cell_angle_gamma   90.09153768
_symmetry_Int_Tables_number   1
_chemical_formula_structural   Hf3ZrSi2(B2Ru5)2
_chemical_formula_sum   'Hf3 Zr1 Si2 B4 Ru10'
_cell_volume   264.12583464
_cell_formula_units_Z   1
loop_
 _symmetry_equiv_pos_site_id
 _symmetry_equiv_pos_as_xyz
  1  'x, y, z'
loop_
 _atom_site_type_symbol
 _atom_site_label
 _atom_site_symmetry_multiplicity
 _atom_site_fract_x
 _atom_site_fract_y
 _atom_site_fract_z
 _atom_site_occupancy
  Hf  Hf0  1  0.675244  0.175330  0.000000  1
  Hf  Hf1  1  0.324670  0.824756  0.000000  1
  Hf  Hf2  1  0.175629  0.324371  0.000000  1
  Zr  Zr3  1  0.824615  0.675385  0.000000  1
  Si  Si4  1  0.999921  0.999889  0.000000  1
  Si  Si5  1  0.500111  0.500079  0.000000  1
  B  B6  1  0.124541  0.624142  0.000000  1
  B  B7  1  0.875858  0.375459  0.000000  1
  B  B8  1  0.623679  0.876321  0.000000  1
  B  B9  1  0.375789  0.124211  0.000000  1
  Ru  Ru10  1  0.210785  0.068397  0.500000  1
  Ru  Ru11  1  0.788871  0.933238  0.500000  1
  Ru  Ru12  1  0.069475  0.789482  0.500000  1
  Ru  Ru13  1  0.710518  0.430525  0.500000  1
  Ru  Ru14  1  0.931761  0.210752  0.500000  1
  Ru  Ru15  1  0.289248  0.568239  0.500000  1
  Ru  Ru16  1  0.566762  0.711129  0.500000  1
  Ru  Ru17  1  0.431603  0.289215  0.500000  1
  Ru  Ru18  1  0.499844  0.000156  0.500000  1
  Ru  Ru19  1  0.001078  0.498922  0.500000  1
