# generated using pymatgen
data_Y4Tm8Co5Sb
_symmetry_space_group_name_H-M   'P 1'
_cell_length_a   8.22544867
_cell_length_b   8.22544952
_cell_length_c   8.22544863
_cell_angle_alpha   110.91446262
_cell_angle_beta   110.57590685
_cell_angle_gamma   106.95246468
_symmetry_Int_Tables_number   1
_chemical_formula_structural   Y4Tm8Co5Sb
_chemical_formula_sum   'Y4 Tm8 Co5 Sb1'
_cell_volume   427.78595505
_cell_formula_units_Z   1
loop_
 _symmetry_equiv_pos_site_id
 _symmetry_equiv_pos_as_xyz
  1  'x, y, z'
loop_
 _atom_site_type_symbol
 _atom_site_label
 _atom_site_symmetry_multiplicity
 _atom_site_fract_x
 _atom_site_fract_y
 _atom_site_fract_z
 _atom_site_occupancy
  Y  Y0  1  0.289839  0.187346  0.477185  1
  Y  Y1  1  0.710161  0.812654  0.522815  1
  Y  Y2  1  0.289839  0.812654  0.102491  1
  Y  Y3  1  0.710161  0.187346  0.897509  1
  Tm  Tm4  1  0.622377  0.312531  0.309846  1
  Tm  Tm5  1  0.377623  0.687469  0.690154  1
  Tm  Tm6  1  0.002686  0.312531  0.690154  1
  Tm  Tm7  1  0.997314  0.687469  0.309846  1
  Tm  Tm8  1  0.207708  0.400814  0.193107  1
  Tm  Tm9  1  0.792292  0.599186  0.806893  1
  Tm  Tm10  1  0.207708  0.014600  0.806893  1
  Tm  Tm11  1  0.792292  0.985400  0.193107  1
  Co  Co12  1  0.000000  0.375485  0.375485  1
  Co  Co13  1  0.000000  0.624515  0.624515  1
  Co  Co14  1  0.387295  0.887295  0.500000  1
  Co  Co15  1  0.612705  0.112705  0.500000  1
  Co  Co16  1  0.000000  0.000000  0.000000  1
  Sb  Sb17  1  0.500000  0.500000  0.000000  1
