# generated using pymatgen
data_La3Nd9(GaI3)4
_symmetry_space_group_name_H-M   'P 1'
_cell_length_a   10.92555406
_cell_length_b   10.94252250
_cell_length_c   10.96259258
_cell_angle_alpha   109.36512992
_cell_angle_beta   109.30795595
_cell_angle_gamma   109.63378224
_symmetry_Int_Tables_number   1
_chemical_formula_structural   La3Nd9(GaI3)4
_chemical_formula_sum   'La3 Nd9 Ga4 I12'
_cell_volume   1010.23025001
_cell_formula_units_Z   1
loop_
 _symmetry_equiv_pos_site_id
 _symmetry_equiv_pos_as_xyz
  1  'x, y, z'
loop_
 _atom_site_type_symbol
 _atom_site_label
 _atom_site_symmetry_multiplicity
 _atom_site_fract_x
 _atom_site_fract_y
 _atom_site_fract_z
 _atom_site_occupancy
  La  La0  1  0.011442  0.487505  0.749928  1
  La  La1  1  0.262521  0.012585  0.025103  1
  La  La2  1  0.238557  0.262478  0.750006  1
  Nd  Nd3  1  0.470772  0.486739  0.236821  1
  Nd  Nd4  1  0.750468  0.234690  0.264372  1
  Nd  Nd5  1  0.748165  0.012936  0.483353  1
  Nd  Nd6  1  0.235196  0.470440  0.483362  1
  Nd  Nd7  1  0.266010  0.750069  0.236856  1
  Nd  Nd8  1  0.029559  0.265652  0.017555  1
  Nd  Nd9  1  0.013897  0.029640  0.264359  1
  Nd  Nd10  1  0.488009  0.751896  0.017542  1
  Nd  Nd11  1  0.484644  0.234639  0.469282  1
  Ga  Ga12  1  0.250247  0.250123  0.250171  1
  Ga  Ga13  1  0.499846  0.000047  0.250116  1
  Ga  Ga14  1  0.999578  0.249539  0.499033  1
  Ga  Ga15  1  0.250897  0.500905  0.001799  1
  I  I16  1  0.255003  0.756765  0.742544  1
  I  I17  1  0.514941  0.510096  0.755083  1
  I  I18  1  0.985269  0.743266  0.998326  1
  I  I19  1  0.740159  0.244990  0.755092  1
  I  I20  1  0.987539  0.985769  0.742532  1
  I  I21  1  0.249484  0.991228  0.503383  1
  I  I22  1  0.753887  0.512147  0.503382  1
  I  I23  1  0.513071  0.255042  0.998324  1
  I  I24  1  0.756671  0.743676  0.250428  1
  I  I25  1  0.744311  0.994299  0.988619  1
  I  I26  1  0.993760  0.506749  0.250439  1
  I  I27  1  0.506095  0.756090  0.512196  1
