# generated using pymatgen
data_Ho16Hg4Ir3Ru
_symmetry_space_group_name_H-M   'P 1'
_cell_length_a   9.56772265
_cell_length_b   9.56890875
_cell_length_c   9.56891000
_cell_angle_alpha   60.00000261
_cell_angle_beta   59.99590164
_cell_angle_gamma   59.99590000
_symmetry_Int_Tables_number   1
_chemical_formula_structural   Ho16Hg4Ir3Ru
_chemical_formula_sum   'Ho16 Hg4 Ir3 Ru1'
_cell_volume   619.42903707
_cell_formula_units_Z   1
loop_
 _symmetry_equiv_pos_site_id
 _symmetry_equiv_pos_as_xyz
  1  'x, y, z'
loop_
 _atom_site_type_symbol
 _atom_site_label
 _atom_site_symmetry_multiplicity
 _atom_site_fract_x
 _atom_site_fract_y
 _atom_site_fract_z
 _atom_site_occupancy
  Ho  Ho0  1  0.437528  0.439685  0.061394  1
  Ho  Ho1  1  0.649545  0.650535  0.049385  1
  Ho  Ho2  1  0.191112  0.810310  0.188268  1
  Ho  Ho3  1  0.061801  0.438047  0.062107  1
  Ho  Ho4  1  0.191112  0.810310  0.810310  1
  Ho  Ho5  1  0.061801  0.438047  0.438047  1
  Ho  Ho6  1  0.810521  0.189959  0.189959  1
  Ho  Ho7  1  0.649545  0.650535  0.650535  1
  Ho  Ho8  1  0.810521  0.189959  0.809561  1
  Ho  Ho9  1  0.191112  0.188268  0.810310  1
  Ho  Ho10  1  0.049639  0.650121  0.650121  1
  Ho  Ho11  1  0.437528  0.061394  0.061394  1
  Ho  Ho12  1  0.061801  0.062107  0.438047  1
  Ho  Ho13  1  0.649545  0.049385  0.650535  1
  Ho  Ho14  1  0.810521  0.809561  0.189959  1
  Ho  Ho15  1  0.437528  0.061394  0.439685  1
  Hg  Hg16  1  0.416403  0.416452  0.416452  1
  Hg  Hg17  1  0.416403  0.416452  0.750695  1
  Hg  Hg18  1  0.416403  0.750695  0.416452  1
  Hg  Hg19  1  0.750112  0.416630  0.416630  1
  Ir  Ir20  1  0.858408  0.857836  0.857836  1
  Ir  Ir21  1  0.858408  0.425920  0.857836  1
  Ir  Ir22  1  0.858408  0.857836  0.425920  1
  Ru  Ru23  1  0.424294  0.858568  0.858568  1
