# generated using pymatgen
data_Yb3ErTmGe4
_symmetry_space_group_name_H-M   'P 1'
_cell_length_a   7.35349300
_cell_length_b   7.87749500
_cell_length_c   15.10234000
_cell_angle_alpha   90.00000000
_cell_angle_beta   90.00000000
_cell_angle_gamma   90.00000000
_symmetry_Int_Tables_number   1
_chemical_formula_structural   Yb3ErTmGe4
_chemical_formula_sum   'Yb12 Er4 Tm4 Ge16'
_cell_volume   874.83482496
_cell_formula_units_Z   4
loop_
 _symmetry_equiv_pos_site_id
 _symmetry_equiv_pos_as_xyz
  1  'x, y, z'
loop_
 _atom_site_type_symbol
 _atom_site_label
 _atom_site_symmetry_multiplicity
 _atom_site_fract_x
 _atom_site_fract_y
 _atom_site_fract_z
 _atom_site_occupancy
  Yb  Yb0  1  0.981450  0.813023  0.405662  1
  Yb  Yb1  1  0.481450  0.686977  0.094338  1
  Yb  Yb2  1  0.518550  0.313023  0.594338  1
  Yb  Yb3  1  0.018550  0.186977  0.905662  1
  Yb  Yb4  1  0.018704  0.187002  0.594340  1
  Yb  Yb5  1  0.518704  0.312998  0.905660  1
  Yb  Yb6  1  0.481296  0.687002  0.405660  1
  Yb  Yb7  1  0.981296  0.812998  0.094340  1
  Yb  Yb8  1  0.342655  0.020900  0.749993  1
  Yb  Yb9  1  0.842655  0.479100  0.750007  1
  Yb  Yb10  1  0.157345  0.520900  0.250007  1
  Yb  Yb11  1  0.657345  0.979100  0.249993  1
  Er  Er12  1  0.318013  0.171577  0.121409  1
  Er  Er13  1  0.818013  0.328423  0.378591  1
  Er  Er14  1  0.181987  0.671577  0.878591  1
  Er  Er15  1  0.681987  0.828423  0.621409  1
  Tm  Tm16  1  0.318019  0.171380  0.378600  1
  Tm  Tm17  1  0.818019  0.328620  0.121400  1
  Tm  Tm18  1  0.181981  0.671380  0.621400  1
  Tm  Tm19  1  0.681981  0.828620  0.878600  1
  Ge  Ge20  1  0.843957  0.534321  0.540129  1
  Ge  Ge21  1  0.343957  0.965679  0.959871  1
  Ge  Ge22  1  0.656043  0.034321  0.459871  1
  Ge  Ge23  1  0.156043  0.465679  0.040129  1
  Ge  Ge24  1  0.156481  0.465720  0.459955  1
  Ge  Ge25  1  0.656481  0.034280  0.040045  1
  Ge  Ge26  1  0.343519  0.965720  0.540045  1
  Ge  Ge27  1  0.843519  0.534280  0.959955  1
  Ge  Ge28  1  0.977028  0.874598  0.750040  1
  Ge  Ge29  1  0.477028  0.625402  0.749960  1
  Ge  Ge30  1  0.522972  0.374598  0.249960  1
  Ge  Ge31  1  0.022972  0.125402  0.250040  1
  Ge  Ge32  1  0.237260  0.387019  0.749933  1
  Ge  Ge33  1  0.737260  0.112981  0.750067  1
  Ge  Ge34  1  0.262740  0.887019  0.250067  1
  Ge  Ge35  1  0.762740  0.612981  0.249933  1
