# generated using pymatgen
data_Dy4Os5Ru2W
_symmetry_space_group_name_H-M   'P 1'
_cell_length_a   5.43591932
_cell_length_b   5.21709873
_cell_length_c   9.09514500
_cell_angle_alpha   90.00000000
_cell_angle_beta   90.00000000
_cell_angle_gamma   121.31134117
_symmetry_Int_Tables_number   1
_chemical_formula_structural   Dy4Os5Ru2W
_chemical_formula_sum   'Dy4 Os5 Ru2 W1'
_cell_volume   220.36902409
_cell_formula_units_Z   1
loop_
 _symmetry_equiv_pos_site_id
 _symmetry_equiv_pos_as_xyz
  1  'x, y, z'
loop_
 _atom_site_type_symbol
 _atom_site_label
 _atom_site_symmetry_multiplicity
 _atom_site_fract_x
 _atom_site_fract_y
 _atom_site_fract_z
 _atom_site_occupancy
  Dy  Dy0  1  0.671718  0.343742  0.563482  1
  Dy  Dy1  1  0.334882  0.669827  0.433392  1
  Dy  Dy2  1  0.334882  0.669827  0.066608  1
  Dy  Dy3  1  0.671718  0.343742  0.936518  1
  Os  Os4  1  0.171474  0.821214  0.750000  1
  Os  Os5  1  0.649162  0.821535  0.750000  1
  Os  Os6  1  0.825392  0.650247  0.250000  1
  Os  Os7  1  0.831208  0.165475  0.250000  1
  Os  Os8  1  0.335243  0.165759  0.250000  1
  Ru  Ru9  1  0.008268  0.016507  0.498231  1
  Ru  Ru10  1  0.008268  0.016507  0.001769  1
  W  W11  1  0.157785  0.315619  0.750000  1
