# generated using pymatgen
data_Tb2Nd9Er(Si2Ni)4
_symmetry_space_group_name_H-M   'P 1'
_cell_length_a   4.20041700
_cell_length_b   11.71943257
_cell_length_c   11.48776879
_cell_angle_alpha   89.70230796
_cell_angle_beta   90.00000000
_cell_angle_gamma   90.00000000
_symmetry_Int_Tables_number   1
_chemical_formula_structural   Tb2Nd9Er(Si2Ni)4
_chemical_formula_sum   'Tb2 Nd9 Er1 Si8 Ni4'
_cell_volume   565.49506128
_cell_formula_units_Z   1
loop_
 _symmetry_equiv_pos_site_id
 _symmetry_equiv_pos_as_xyz
  1  'x, y, z'
loop_
 _atom_site_type_symbol
 _atom_site_label
 _atom_site_symmetry_multiplicity
 _atom_site_fract_x
 _atom_site_fract_y
 _atom_site_fract_z
 _atom_site_occupancy
  Tb  Tb0  1  0.750000  0.195055  0.289251  1
  Tb  Tb1  1  0.750000  0.304969  0.788659  1
  Nd  Nd2  1  0.250000  0.059048  0.887404  1
  Nd  Nd3  1  0.250000  0.439648  0.383364  1
  Nd  Nd4  1  0.750000  0.939315  0.117898  1
  Nd  Nd5  1  0.750000  0.557795  0.612420  1
  Nd  Nd6  1  0.250000  0.122821  0.561505  1
  Nd  Nd7  1  0.250000  0.378440  0.060980  1
  Nd  Nd8  1  0.750000  0.878600  0.437104  1
  Nd  Nd9  1  0.750000  0.621584  0.939807  1
  Nd  Nd10  1  0.250000  0.802138  0.710093  1
  Er  Er11  1  0.250000  0.690603  0.209148  1
  Si  Si12  1  0.250000  0.809146  0.973803  1
  Si  Si13  1  0.250000  0.688459  0.462688  1
  Si  Si14  1  0.750000  0.189731  0.031837  1
  Si  Si15  1  0.750000  0.310646  0.530781  1
  Si  Si16  1  0.250000  0.484857  0.800346  1
  Si  Si17  1  0.250000  0.017622  0.301922  1
  Si  Si18  1  0.750000  0.515539  0.197939  1
  Si  Si19  1  0.750000  0.989165  0.701686  1
  Ni  Ni20  1  0.250000  0.361846  0.632475  1
  Ni  Ni21  1  0.250000  0.139880  0.133830  1
  Ni  Ni22  1  0.750000  0.639797  0.362900  1
  Ni  Ni23  1  0.750000  0.863296  0.872160  1
