# generated using pymatgen
data_Tb5Er3(Sc3Pt4)4
_symmetry_space_group_name_H-M   'P 1'
_cell_length_a   7.39930227
_cell_length_b   7.30165504
_cell_length_c   13.88457839
_cell_angle_alpha   90.00486949
_cell_angle_beta   90.06670705
_cell_angle_gamma   89.98971466
_symmetry_Int_Tables_number   1
_chemical_formula_structural   Tb5Er3(Sc3Pt4)4
_chemical_formula_sum   'Tb5 Er3 Sc12 Pt16'
_cell_volume   750.14371346
_cell_formula_units_Z   1
loop_
 _symmetry_equiv_pos_site_id
 _symmetry_equiv_pos_as_xyz
  1  'x, y, z'
loop_
 _atom_site_type_symbol
 _atom_site_label
 _atom_site_symmetry_multiplicity
 _atom_site_fract_x
 _atom_site_fract_y
 _atom_site_fract_z
 _atom_site_occupancy
  Tb  Tb0  1  0.005616  0.177237  0.095132  1
  Tb  Tb1  1  0.994721  0.822897  0.904799  1
  Tb  Tb2  1  0.494764  0.677191  0.905356  1
  Tb  Tb3  1  0.993439  0.823780  0.593344  1
  Tb  Tb4  1  0.505561  0.322621  0.095231  1
  Er  Er5  1  0.005972  0.178278  0.405105  1
  Er  Er6  1  0.505582  0.322877  0.405741  1
  Er  Er7  1  0.493023  0.676931  0.593964  1
  Sc  Sc8  1  0.169878  0.496724  0.748882  1
  Sc  Sc9  1  0.830163  0.503784  0.251299  1
  Sc  Sc10  1  0.330288  0.996340  0.251322  1
  Sc  Sc11  1  0.669743  0.003585  0.748826  1
  Sc  Sc12  1  0.337421  0.161958  0.623209  1
  Sc  Sc13  1  0.662767  0.838225  0.377141  1
  Sc  Sc14  1  0.164193  0.660580  0.376530  1
  Sc  Sc15  1  0.663185  0.838415  0.125162  1
  Sc  Sc16  1  0.836599  0.338648  0.623099  1
  Sc  Sc17  1  0.337886  0.161850  0.875476  1
  Sc  Sc18  1  0.837453  0.338518  0.875302  1
  Sc  Sc19  1  0.162353  0.661839  0.124867  1
  Pt  Pt20  1  0.035304  0.127046  0.749352  1
  Pt  Pt21  1  0.965456  0.874229  0.251767  1
  Pt  Pt22  1  0.465599  0.625525  0.251194  1
  Pt  Pt23  1  0.534227  0.373693  0.748802  1
  Pt  Pt24  1  0.297805  0.853811  0.748308  1
  Pt  Pt25  1  0.703449  0.146144  0.252575  1
  Pt  Pt26  1  0.203818  0.353458  0.252004  1
  Pt  Pt27  1  0.795079  0.645585  0.748422  1
  Pt  Pt28  1  0.176559  0.454173  0.541904  1
  Pt  Pt29  1  0.823557  0.542307  0.456707  1
  Pt  Pt30  1  0.323644  0.956623  0.456734  1
  Pt  Pt31  1  0.824959  0.545151  0.042871  1
  Pt  Pt32  1  0.673893  0.045693  0.542169  1
  Pt  Pt33  1  0.175418  0.454628  0.957195  1
  Pt  Pt34  1  0.675413  0.044976  0.957204  1
  Pt  Pt35  1  0.325214  0.954682  0.043003  1
