# generated using pymatgen
data_HoTe16
_symmetry_space_group_name_H-M   'P 1'
_cell_length_a   4.40155051
_cell_length_b   4.40154912
_cell_length_c   33.60469000
_cell_angle_alpha   86.24501345
_cell_angle_beta   86.24501533
_cell_angle_gamma   60.00000923
_symmetry_Int_Tables_number   1
_chemical_formula_structural   HoTe16
_chemical_formula_sum   'Ho1 Te16'
_cell_volume   562.20728648
_cell_formula_units_Z   1
loop_
 _symmetry_equiv_pos_site_id
 _symmetry_equiv_pos_as_xyz
  1  'x, y, z'
loop_
 _atom_site_type_symbol
 _atom_site_label
 _atom_site_symmetry_multiplicity
 _atom_site_fract_x
 _atom_site_fract_y
 _atom_site_fract_z
 _atom_site_occupancy
  Ho  Ho0  1  0.000000  0.000000  0.000000  1
  Te  Te1  1  0.291053  0.291053  0.126842  1
  Te  Te2  1  0.708947  0.708947  0.873158  1
  Te  Te3  1  0.233769  0.233769  0.298693  1
  Te  Te4  1  0.766231  0.766231  0.701307  1
  Te  Te5  1  0.470559  0.470559  0.588324  1
  Te  Te6  1  0.529441  0.529441  0.411676  1
  Te  Te7  1  0.350700  0.350700  0.947900  1
  Te  Te8  1  0.649300  0.649300  0.052100  1
  Te  Te9  1  0.059684  0.059684  0.820948  1
  Te  Te10  1  0.940316  0.940316  0.179052  1
  Te  Te11  1  0.411890  0.411890  0.764331  1
  Te  Te12  1  0.588110  0.588110  0.235669  1
  Te  Te13  1  0.117573  0.117573  0.647281  1
  Te  Te14  1  0.882427  0.882427  0.352719  1
  Te  Te15  1  0.175845  0.175845  0.472464  1
  Te  Te16  1  0.824155  0.824155  0.527536  1
