# generated using pymatgen
data_Dy4YThRh18
_symmetry_space_group_name_H-M   'P 1'
_cell_length_a   5.28771400
_cell_length_b   5.28771603
_cell_length_c   17.57641300
_cell_angle_alpha   90.00000000
_cell_angle_beta   90.00000000
_cell_angle_gamma   119.99998728
_symmetry_Int_Tables_number   1
_chemical_formula_structural   Dy4YThRh18
_chemical_formula_sum   'Dy4 Y1 Th1 Rh18'
_cell_volume   425.59549036
_cell_formula_units_Z   1
loop_
 _symmetry_equiv_pos_site_id
 _symmetry_equiv_pos_as_xyz
  1  'x, y, z'
loop_
 _atom_site_type_symbol
 _atom_site_label
 _atom_site_symmetry_multiplicity
 _atom_site_fract_x
 _atom_site_fract_y
 _atom_site_fract_z
 _atom_site_occupancy
  Dy  Dy0  1  0.333333  0.666667  0.959918  1
  Dy  Dy1  1  0.666667  0.333333  0.042442  1
  Dy  Dy2  1  0.666667  0.333333  0.457558  1
  Dy  Dy3  1  0.333333  0.666667  0.540082  1
  Y  Y4  1  0.666667  0.333333  0.250000  1
  Th  Th5  1  0.333333  0.666667  0.750000  1
  Rh  Rh6  1  0.167338  0.832662  0.374054  1
  Rh  Rh7  1  0.167338  0.334677  0.374054  1
  Rh  Rh8  1  0.665323  0.832662  0.374054  1
  Rh  Rh9  1  0.832641  0.167359  0.624256  1
  Rh  Rh10  1  0.832641  0.665281  0.624256  1
  Rh  Rh11  1  0.334719  0.167359  0.624256  1
  Rh  Rh12  1  0.832641  0.167359  0.875744  1
  Rh  Rh13  1  0.832641  0.665281  0.875744  1
  Rh  Rh14  1  0.334719  0.167359  0.875744  1
  Rh  Rh15  1  0.167338  0.832662  0.125946  1
  Rh  Rh16  1  0.167338  0.334677  0.125946  1
  Rh  Rh17  1  0.665323  0.832662  0.125946  1
  Rh  Rh18  1  0.333333  0.666667  0.250000  1
  Rh  Rh19  1  0.666667  0.333333  0.750000  1
  Rh  Rh20  1  0.000000  0.000000  0.250000  1
  Rh  Rh21  1  0.000000  0.000000  0.750000  1
  Rh  Rh22  1  0.000000  0.000000  0.499397  1
  Rh  Rh23  1  0.000000  0.000000  0.000603  1
