# generated using pymatgen
data_Zr2Ti3Pt
_symmetry_space_group_name_H-M   'P 1'
_cell_length_a   5.58172700
_cell_length_b   5.58172779
_cell_length_c   8.32244100
_cell_angle_alpha   90.00000000
_cell_angle_beta   90.00000000
_cell_angle_gamma   120.00000126
_symmetry_Int_Tables_number   1
_chemical_formula_structural   Zr2Ti3Pt
_chemical_formula_sum   'Zr4 Ti6 Pt2'
_cell_volume   224.55286244
_cell_formula_units_Z   2
loop_
 _symmetry_equiv_pos_site_id
 _symmetry_equiv_pos_as_xyz
  1  'x, y, z'
loop_
 _atom_site_type_symbol
 _atom_site_label
 _atom_site_symmetry_multiplicity
 _atom_site_fract_x
 _atom_site_fract_y
 _atom_site_fract_z
 _atom_site_occupancy
  Zr  Zr0  1  0.666667  0.333333  0.061973  1
  Zr  Zr1  1  0.666667  0.333333  0.438028  1
  Zr  Zr2  1  0.333334  0.666667  0.561973  1
  Zr  Zr3  1  0.333334  0.666667  0.938027  1
  Ti  Ti4  1  0.170646  0.341291  0.250000  1
  Ti  Ti5  1  0.170647  0.829355  0.250000  1
  Ti  Ti6  1  0.658709  0.829355  0.250000  1
  Ti  Ti7  1  0.341292  0.170645  0.750000  1
  Ti  Ti8  1  0.829354  0.170645  0.750000  1
  Ti  Ti9  1  0.829355  0.658708  0.750000  1
  Pt  Pt10  1  0.000000  0.000000  0.000000  1
  Pt  Pt11  1  0.000000  0.000000  0.500001  1
