# generated using pymatgen
data_Ba4SiAs3Pt4
_symmetry_space_group_name_H-M   'P 1'
_cell_length_a   6.79868686
_cell_length_b   6.79868686
_cell_length_c   6.79868686
_cell_angle_alpha   89.47721458
_cell_angle_beta   90.52278542
_cell_angle_gamma   90.52278542
_symmetry_Int_Tables_number   1
_chemical_formula_structural   Ba4SiAs3Pt4
_chemical_formula_sum   'Ba4 Si1 As3 Pt4'
_cell_volume   314.21087090
_cell_formula_units_Z   1
loop_
 _symmetry_equiv_pos_site_id
 _symmetry_equiv_pos_as_xyz
  1  'x, y, z'
loop_
 _atom_site_type_symbol
 _atom_site_label
 _atom_site_symmetry_multiplicity
 _atom_site_fract_x
 _atom_site_fract_y
 _atom_site_fract_z
 _atom_site_occupancy
  Ba  Ba0  1  0.863137  0.865596  0.867787  1
  Ba  Ba1  1  0.632213  0.136863  0.365596  1
  Ba  Ba2  1  0.134404  0.367787  0.636863  1
  Ba  Ba3  1  0.371734  0.628266  0.128266  1
  Si  Si4  1  0.091397  0.908603  0.408603  1
  As  As5  1  0.579226  0.586628  0.576413  1
  As  As6  1  0.923587  0.420774  0.086628  1
  As  As7  1  0.413372  0.076413  0.920774  1
  Pt  Pt8  1  0.154351  0.147252  0.168043  1
  Pt  Pt9  1  0.331957  0.845649  0.647252  1
  Pt  Pt10  1  0.852748  0.668043  0.345649  1
  Pt  Pt11  1  0.651874  0.348126  0.848126  1
