# generated using pymatgen
data_LuPa4Ga15
_symmetry_space_group_name_H-M   'P 1'
_cell_length_a   12.45844768
_cell_length_b   12.45844761
_cell_length_c   12.45844650
_cell_angle_alpha   28.49230515
_cell_angle_beta   28.49230654
_cell_angle_gamma   28.49230448
_symmetry_Int_Tables_number   1
_chemical_formula_structural   LuPa4Ga15
_chemical_formula_sum   'Lu1 Pa4 Ga15'
_cell_volume   388.93926288
_cell_formula_units_Z   1
loop_
 _symmetry_equiv_pos_site_id
 _symmetry_equiv_pos_as_xyz
  1  'x, y, z'
loop_
 _atom_site_type_symbol
 _atom_site_label
 _atom_site_symmetry_multiplicity
 _atom_site_fract_x
 _atom_site_fract_y
 _atom_site_fract_z
 _atom_site_occupancy
  Lu  Lu0  1  0.599601  0.599601  0.599601  1
  Pa  Pa1  1  0.130925  0.130925  0.130925  1
  Pa  Pa2  1  0.870073  0.870073  0.870073  1
  Pa  Pa3  1  0.400307  0.400307  0.400307  1
  Pa  Pa4  1  0.998851  0.998851  0.998851  1
  Ga  Ga5  1  0.431811  0.882749  0.882749  1
  Ga  Ga6  1  0.882749  0.882749  0.431811  1
  Ga  Ga7  1  0.882749  0.431811  0.882749  1
  Ga  Ga8  1  0.118391  0.564080  0.118391  1
  Ga  Ga9  1  0.118391  0.118391  0.564080  1
  Ga  Ga10  1  0.564080  0.118391  0.118391  1
  Ga  Ga11  1  0.129765  0.636350  0.636350  1
  Ga  Ga12  1  0.636350  0.636350  0.129765  1
  Ga  Ga13  1  0.636350  0.129765  0.636350  1
  Ga  Ga14  1  0.365000  0.871943  0.365000  1
  Ga  Ga15  1  0.365000  0.365000  0.871943  1
  Ga  Ga16  1  0.871943  0.365000  0.365000  1
  Ga  Ga17  1  0.499855  0.499855  0.997958  1
  Ga  Ga18  1  0.499855  0.997958  0.499855  1
  Ga  Ga19  1  0.997958  0.499855  0.499855  1
