# generated using pymatgen
data_Ta12Mn3Al9N4
_symmetry_space_group_name_H-M   'P 1'
_cell_length_a   8.22013845
_cell_length_b   8.22013910
_cell_length_c   8.18830954
_cell_angle_alpha   59.87132739
_cell_angle_beta   59.87132637
_cell_angle_gamma   59.99999966
_symmetry_Int_Tables_number   1
_chemical_formula_structural   Ta12Mn3Al9N4
_chemical_formula_sum   'Ta12 Mn3 Al9 N4'
_cell_volume   390.47222922
_cell_formula_units_Z   1
loop_
 _symmetry_equiv_pos_site_id
 _symmetry_equiv_pos_as_xyz
  1  'x, y, z'
loop_
 _atom_site_type_symbol
 _atom_site_label
 _atom_site_symmetry_multiplicity
 _atom_site_fract_x
 _atom_site_fract_y
 _atom_site_fract_z
 _atom_site_occupancy
  Ta  Ta0  1  0.806224  0.806224  0.193298  1
  Ta  Ta1  1  0.191873  0.191873  0.809041  1
  Ta  Ta2  1  0.807213  0.191873  0.809041  1
  Ta  Ta3  1  0.194253  0.806224  0.193298  1
  Ta  Ta4  1  0.191873  0.807213  0.809041  1
  Ta  Ta5  1  0.806224  0.194253  0.193298  1
  Ta  Ta6  1  0.443776  0.443776  0.056702  1
  Ta  Ta7  1  0.058127  0.058127  0.440959  1
  Ta  Ta8  1  0.442787  0.058127  0.440959  1
  Ta  Ta9  1  0.055747  0.443776  0.056702  1
  Ta  Ta10  1  0.058127  0.442787  0.440959  1
  Ta  Ta11  1  0.443776  0.055747  0.056702  1
  Mn  Mn12  1  0.125000  0.625000  0.625000  1
  Mn  Mn13  1  0.625000  0.125000  0.625000  1
  Mn  Mn14  1  0.625000  0.625000  0.625000  1
  Al  Al15  1  0.625000  0.625000  0.125000  1
  Al  Al16  1  0.750476  0.410890  0.427745  1
  Al  Al17  1  0.410890  0.750476  0.427745  1
  Al  Al18  1  0.416277  0.416277  0.751170  1
  Al  Al19  1  0.410890  0.410890  0.427745  1
  Al  Al20  1  0.499524  0.839110  0.822255  1
  Al  Al21  1  0.839110  0.499524  0.822255  1
  Al  Al22  1  0.833723  0.833723  0.498830  1
  Al  Al23  1  0.839110  0.839110  0.822255  1
  N  N24  1  0.625000  0.125000  0.125000  1
  N  N25  1  0.125000  0.625000  0.125000  1
  N  N26  1  0.125000  0.125000  0.625000  1
  N  N27  1  0.125000  0.125000  0.125000  1
