# generated using pymatgen
data_Ac4Os6O19
_symmetry_space_group_name_H-M   'P 1'
_cell_length_a   8.02562950
_cell_length_b   8.02562950
_cell_length_c   8.02563000
_cell_angle_alpha   109.47122189
_cell_angle_beta   109.47122189
_cell_angle_gamma   109.47121937
_symmetry_Int_Tables_number   1
_chemical_formula_structural   Ac4Os6O19
_chemical_formula_sum   'Ac4 Os6 O19'
_cell_volume   397.93803440
_cell_formula_units_Z   1
loop_
 _symmetry_equiv_pos_site_id
 _symmetry_equiv_pos_as_xyz
  1  'x, y, z'
loop_
 _atom_site_type_symbol
 _atom_site_label
 _atom_site_symmetry_multiplicity
 _atom_site_fract_x
 _atom_site_fract_y
 _atom_site_fract_z
 _atom_site_occupancy
  Ac  Ac0  1  0.000000  0.000000  0.322624  1
  Ac  Ac1  1  0.000000  0.322624  0.000000  1
  Ac  Ac2  1  0.677376  0.677376  0.677376  1
  Ac  Ac3  1  0.322624  0.000000  0.000000  1
  Os  Os4  1  0.363825  0.500000  0.863825  1
  Os  Os5  1  0.863825  0.363825  0.500000  1
  Os  Os6  1  0.500000  0.136175  0.636175  1
  Os  Os7  1  0.136175  0.636175  0.500000  1
  Os  Os8  1  0.500000  0.863825  0.363825  1
  Os  Os9  1  0.636175  0.500000  0.136175  1
  O  O10  1  0.327815  0.000000  0.327815  1
  O  O11  1  0.327815  0.327815  0.000000  1
  O  O12  1  0.000000  0.672185  0.672185  1
  O  O13  1  0.672185  0.672185  0.000000  1
  O  O14  1  0.000000  0.327815  0.327815  1
  O  O15  1  0.672185  0.000000  0.672185  1
  O  O16  1  0.000000  0.000000  0.000000  1
  O  O17  1  0.361481  0.298603  0.633010  1
  O  O18  1  0.062878  0.334406  0.701397  1
  O  O19  1  0.728471  0.366990  0.665594  1
  O  O20  1  0.366990  0.665594  0.728471  1
  O  O21  1  0.271529  0.937122  0.638519  1
  O  O22  1  0.633010  0.361481  0.298603  1
  O  O23  1  0.298603  0.633010  0.361481  1
  O  O24  1  0.701397  0.062878  0.334406  1
  O  O25  1  0.937122  0.638519  0.271529  1
  O  O26  1  0.665594  0.728471  0.366990  1
  O  O27  1  0.638519  0.271529  0.937122  1
  O  O28  1  0.334406  0.701397  0.062878  1
