# generated using pymatgen
data_Lu8GePd7Pt17
_symmetry_space_group_name_H-M   'P 1'
_cell_length_a   8.31731423
_cell_length_b   8.32215302
_cell_length_c   8.33677900
_cell_angle_alpha   90.00384168
_cell_angle_beta   89.98647052
_cell_angle_gamma   89.99929866
_symmetry_Int_Tables_number   1
_chemical_formula_structural   Lu8GePd7Pt17
_chemical_formula_sum   'Lu8 Ge1 Pd7 Pt17'
_cell_volume   577.05483249
_cell_formula_units_Z   1
loop_
 _symmetry_equiv_pos_site_id
 _symmetry_equiv_pos_as_xyz
  1  'x, y, z'
loop_
 _atom_site_type_symbol
 _atom_site_label
 _atom_site_symmetry_multiplicity
 _atom_site_fract_x
 _atom_site_fract_y
 _atom_site_fract_z
 _atom_site_occupancy
  Lu  Lu0  1  0.253416  0.253108  0.253476  1
  Lu  Lu1  1  0.746072  0.745690  0.746320  1
  Lu  Lu2  1  0.745920  0.746198  0.253742  1
  Lu  Lu3  1  0.746775  0.254211  0.746842  1
  Lu  Lu4  1  0.253226  0.253447  0.746560  1
  Lu  Lu5  1  0.254088  0.746751  0.253972  1
  Lu  Lu6  1  0.253935  0.746447  0.746055  1
  Lu  Lu7  1  0.746591  0.253683  0.253213  1
  Ge  Ge8  1  0.000271  0.001449  0.000287  1
  Pd  Pd9  1  0.500275  0.000034  0.739815  1
  Pd  Pd10  1  0.740743  0.999968  0.500158  1
  Pd  Pd11  1  0.999984  0.500259  0.259670  1
  Pd  Pd12  1  0.999989  0.500269  0.740501  1
  Pd  Pd13  1  0.000057  0.712146  0.999996  1
  Pd  Pd14  1  0.999452  0.999431  0.289382  1
  Pd  Pd15  1  0.999538  0.999483  0.710757  1
  Pt  Pt16  1  0.259096  0.499762  0.000020  1
  Pt  Pt17  1  0.741007  0.499773  0.000003  1
  Pt  Pt18  1  0.000255  0.259451  0.500021  1
  Pt  Pt19  1  0.499977  0.258980  0.000062  1
  Pt  Pt20  1  0.000274  0.740051  0.500011  1
  Pt  Pt21  1  0.499962  0.739958  0.000097  1
  Pt  Pt22  1  0.500142  0.000038  0.260260  1
  Pt  Pt23  1  0.259085  0.999984  0.499992  1
  Pt  Pt24  1  0.251913  0.499989  0.500096  1
  Pt  Pt25  1  0.748057  0.499956  0.500062  1
  Pt  Pt26  1  0.499815  0.252495  0.499762  1
  Pt  Pt27  1  0.499819  0.747634  0.499761  1
  Pt  Pt28  1  0.500064  0.499946  0.252654  1
  Pt  Pt29  1  0.500005  0.499916  0.747131  1
  Pt  Pt30  1  0.288543  0.999228  0.999619  1
  Pt  Pt31  1  0.711601  0.999283  0.999701  1
  Pt  Pt32  1  0.000053  0.290981  0.000002  1
