# generated using pymatgen
data_Lu5CdIn4Ir
_symmetry_space_group_name_H-M   'P 1'
_cell_length_a   3.58036100
_cell_length_b   8.16569790
_cell_length_c   18.22002359
_cell_angle_alpha   89.34237801
_cell_angle_beta   90.00000000
_cell_angle_gamma   90.00000000
_symmetry_Int_Tables_number   1
_chemical_formula_structural   Lu5CdIn4Ir
_chemical_formula_sum   'Lu10 Cd2 In8 Ir2'
_cell_volume   532.64818865
_cell_formula_units_Z   2
loop_
 _symmetry_equiv_pos_site_id
 _symmetry_equiv_pos_as_xyz
  1  'x, y, z'
loop_
 _atom_site_type_symbol
 _atom_site_label
 _atom_site_symmetry_multiplicity
 _atom_site_fract_x
 _atom_site_fract_y
 _atom_site_fract_z
 _atom_site_occupancy
  Lu  Lu0  1  0.000000  0.500000  0.500000  1
  Lu  Lu1  1  0.000000  0.000000  0.000000  1
  Lu  Lu2  1  0.000000  0.702397  0.275131  1
  Lu  Lu3  1  0.000000  0.297603  0.724869  1
  Lu  Lu4  1  0.000000  0.737307  0.787538  1
  Lu  Lu5  1  0.000000  0.262693  0.212462  1
  Lu  Lu6  1  0.000000  0.614203  0.083962  1
  Lu  Lu7  1  0.000000  0.385797  0.916038  1
  Lu  Lu8  1  0.000000  0.877700  0.575103  1
  Lu  Lu9  1  0.000000  0.122300  0.424897  1
  Cd  Cd10  1  0.500000  0.982894  0.699788  1
  Cd  Cd11  1  0.500000  0.017106  0.300212  1
  In  In12  1  0.500000  0.706368  0.936035  1
  In  In13  1  0.500000  0.293632  0.063965  1
  In  In14  1  0.500000  0.786272  0.430046  1
  In  In15  1  0.500000  0.213728  0.569954  1
  In  In16  1  0.500000  0.589428  0.648381  1
  In  In17  1  0.500000  0.410572  0.351619  1
  In  In18  1  0.500000  0.914741  0.146001  1
  In  In19  1  0.500000  0.085259  0.853999  1
  Ir  Ir20  1  0.500000  0.517960  0.193215  1
  Ir  Ir21  1  0.500000  0.482040  0.806785  1
