# generated using pymatgen
data_HoEr4In4PtRh
_symmetry_space_group_name_H-M   'P 1'
_cell_length_a   3.59409400
_cell_length_b   8.09251786
_cell_length_c   18.17296546
_cell_angle_alpha   90.12900916
_cell_angle_beta   90.00000000
_cell_angle_gamma   90.00000000
_symmetry_Int_Tables_number   1
_chemical_formula_structural   HoEr4In4PtRh
_chemical_formula_sum   'Ho2 Er8 In8 Pt2 Rh2'
_cell_volume   528.56426501
_cell_formula_units_Z   2
loop_
 _symmetry_equiv_pos_site_id
 _symmetry_equiv_pos_as_xyz
  1  'x, y, z'
loop_
 _atom_site_type_symbol
 _atom_site_label
 _atom_site_symmetry_multiplicity
 _atom_site_fract_x
 _atom_site_fract_y
 _atom_site_fract_z
 _atom_site_occupancy
  Ho  Ho0  1  0.000000  0.000000  0.000000  1
  Ho  Ho1  1  0.000000  0.500000  0.500000  1
  Er  Er2  1  0.000000  0.115139  0.412279  1
  Er  Er3  1  0.000000  0.884861  0.587721  1
  Er  Er4  1  0.000000  0.383071  0.913783  1
  Er  Er5  1  0.000000  0.616929  0.086217  1
  Er  Er6  1  0.000000  0.238771  0.221539  1
  Er  Er7  1  0.000000  0.761229  0.778461  1
  Er  Er8  1  0.000000  0.251206  0.720462  1
  Er  Er9  1  0.000000  0.748794  0.279538  1
  In  In10  1  0.500000  0.422740  0.351450  1
  In  In11  1  0.500000  0.577260  0.648550  1
  In  In12  1  0.500000  0.073243  0.850239  1
  In  In13  1  0.500000  0.926757  0.149761  1
  In  In14  1  0.500000  0.292321  0.066108  1
  In  In15  1  0.500000  0.707679  0.933892  1
  In  In16  1  0.500000  0.206273  0.567671  1
  In  In17  1  0.500000  0.793727  0.432329  1
  Pt  Pt18  1  0.500000  0.478068  0.803434  1
  Pt  Pt19  1  0.500000  0.521932  0.196566  1
  Rh  Rh20  1  0.500000  0.022132  0.304544  1
  Rh  Rh21  1  0.500000  0.977868  0.695456  1
