# generated using pymatgen
data_Tb2Yb6Si12Pd3Au
_symmetry_space_group_name_H-M   'P 1'
_cell_length_a   8.25268600
_cell_length_b   8.25268451
_cell_length_c   8.18608000
_cell_angle_alpha   90.00000000
_cell_angle_beta   90.00000000
_cell_angle_gamma   120.00000599
_symmetry_Int_Tables_number   1
_chemical_formula_structural   Tb2Yb6Si12Pd3Au
_chemical_formula_sum   'Tb2 Yb6 Si12 Pd3 Au1'
_cell_volume   482.83323235
_cell_formula_units_Z   1
loop_
 _symmetry_equiv_pos_site_id
 _symmetry_equiv_pos_as_xyz
  1  'x, y, z'
loop_
 _atom_site_type_symbol
 _atom_site_label
 _atom_site_symmetry_multiplicity
 _atom_site_fract_x
 _atom_site_fract_y
 _atom_site_fract_z
 _atom_site_occupancy
  Tb  Tb0  1  0.000000  0.000000  0.251560  1
  Tb  Tb1  1  0.000000  0.000000  0.747955  1
  Yb  Yb2  1  0.501541  0.003081  0.252746  1
  Yb  Yb3  1  0.500907  0.001816  0.747419  1
  Yb  Yb4  1  0.996919  0.498459  0.252746  1
  Yb  Yb5  1  0.998184  0.499093  0.747419  1
  Yb  Yb6  1  0.501541  0.498459  0.252746  1
  Yb  Yb7  1  0.500907  0.499093  0.747419  1
  Si  Si8  1  0.160343  0.320688  0.999533  1
  Si  Si9  1  0.834744  0.669488  0.999915  1
  Si  Si10  1  0.679312  0.839657  0.999533  1
  Si  Si11  1  0.836022  0.672044  0.501198  1
  Si  Si12  1  0.330512  0.165256  0.999915  1
  Si  Si13  1  0.164473  0.328946  0.498890  1
  Si  Si14  1  0.160343  0.839657  0.999533  1
  Si  Si15  1  0.327956  0.163978  0.501198  1
  Si  Si16  1  0.834744  0.165256  0.999915  1
  Si  Si17  1  0.671054  0.835527  0.498890  1
  Si  Si18  1  0.836022  0.163978  0.501198  1
  Si  Si19  1  0.164473  0.835527  0.498890  1
  Pd  Pd20  1  0.666667  0.333333  0.000295  1
  Pd  Pd21  1  0.666667  0.333333  0.500537  1
  Pd  Pd22  1  0.333333  0.666667  0.499350  1
  Au  Au23  1  0.333333  0.666667  0.001198  1
