# generated using pymatgen
data_Li4La2TmSn4
_symmetry_space_group_name_H-M   'P 1'
_cell_length_a   4.77873608
_cell_length_b   7.03773036
_cell_length_c   8.84919514
_cell_angle_alpha   113.43123150
_cell_angle_beta   105.66486755
_cell_angle_gamma   89.99998580
_symmetry_Int_Tables_number   1
_chemical_formula_structural   Li4La2TmSn4
_chemical_formula_sum   'Li4 La2 Tm1 Sn4'
_cell_volume   260.97824631
_cell_formula_units_Z   1
loop_
 _symmetry_equiv_pos_site_id
 _symmetry_equiv_pos_as_xyz
  1  'x, y, z'
loop_
 _atom_site_type_symbol
 _atom_site_label
 _atom_site_symmetry_multiplicity
 _atom_site_fract_x
 _atom_site_fract_y
 _atom_site_fract_z
 _atom_site_occupancy
  Li  Li0  1  0.671211  0.981268  0.342420  1
  Li  Li1  1  0.328789  0.018732  0.657580  1
  Li  Li2  1  0.328789  0.638849  0.657580  1
  Li  Li3  1  0.671211  0.361151  0.342420  1
  La  La4  1  0.131432  0.631432  0.262865  1
  La  La5  1  0.868568  0.368568  0.737135  1
  Tm  Tm6  1  0.000000  0.000000  0.000000  1
  Sn  Sn7  1  0.500000  0.707255  0.000000  1
  Sn  Sn8  1  0.500000  0.292745  0.000000  1
  Sn  Sn9  1  0.790968  0.790968  0.581935  1
  Sn  Sn10  1  0.209032  0.209032  0.418065  1
