# generated using pymatgen
data_Hf9ZrGa2Sn5Bi
_symmetry_space_group_name_H-M   'P 1'
_cell_length_a   8.68931420
_cell_length_b   8.68931427
_cell_length_c   5.82168700
_cell_angle_alpha   90.00000000
_cell_angle_beta   90.00000000
_cell_angle_gamma   119.84352948
_symmetry_Int_Tables_number   1
_chemical_formula_structural   Hf9ZrGa2Sn5Bi
_chemical_formula_sum   'Hf9 Zr1 Ga2 Sn5 Bi1'
_cell_volume   381.27039595
_cell_formula_units_Z   1
loop_
 _symmetry_equiv_pos_site_id
 _symmetry_equiv_pos_as_xyz
  1  'x, y, z'
loop_
 _atom_site_type_symbol
 _atom_site_label
 _atom_site_symmetry_multiplicity
 _atom_site_fract_x
 _atom_site_fract_y
 _atom_site_fract_z
 _atom_site_occupancy
  Hf  Hf0  1  0.735939  0.735939  0.750000  1
  Hf  Hf1  1  0.265167  0.993405  0.750000  1
  Hf  Hf2  1  0.993405  0.265167  0.750000  1
  Hf  Hf3  1  0.732214  0.000208  0.250000  1
  Hf  Hf4  1  0.000208  0.732214  0.250000  1
  Hf  Hf5  1  0.669990  0.332477  0.001399  1
  Hf  Hf6  1  0.332477  0.669990  0.001399  1
  Hf  Hf7  1  0.332477  0.669990  0.498601  1
  Hf  Hf8  1  0.669990  0.332477  0.498601  1
  Zr  Zr9  1  0.267027  0.267027  0.250000  1
  Ga  Ga10  1  0.000089  0.000089  0.000406  1
  Ga  Ga11  1  0.000089  0.000089  0.499594  1
  Sn  Sn12  1  0.610191  0.999001  0.750000  1
  Sn  Sn13  1  0.999001  0.610191  0.750000  1
  Sn  Sn14  1  0.612555  0.612555  0.250000  1
  Sn  Sn15  1  0.389262  0.000976  0.250000  1
  Sn  Sn16  1  0.000976  0.389262  0.250000  1
  Bi  Bi17  1  0.388945  0.388945  0.750000  1
