# generated using pymatgen
data_NaAc(BH4)4
_symmetry_space_group_name_H-M   'P 1'
_cell_length_a   6.99963500
_cell_length_b   6.99963500
_cell_length_c   6.72143400
_cell_angle_alpha   90.00000000
_cell_angle_beta   90.00000000
_cell_angle_gamma   90.00000000
_symmetry_Int_Tables_number   1
_chemical_formula_structural   NaAc(BH4)4
_chemical_formula_sum   'Na1 Ac1 B4 H16'
_cell_volume   329.31592037
_cell_formula_units_Z   1
loop_
 _symmetry_equiv_pos_site_id
 _symmetry_equiv_pos_as_xyz
  1  'x, y, z'
loop_
 _atom_site_type_symbol
 _atom_site_label
 _atom_site_symmetry_multiplicity
 _atom_site_fract_x
 _atom_site_fract_y
 _atom_site_fract_z
 _atom_site_occupancy
  Na  Na0  1  0.000000  0.000000  0.500000  1
  Ac  Ac1  1  0.500000  0.500000  0.500000  1
  B  B2  1  0.743733  0.743733  0.303626  1
  B  B3  1  0.256267  0.256267  0.303626  1
  B  B4  1  0.743733  0.256267  0.696374  1
  B  B5  1  0.256267  0.743733  0.696374  1
  H  H6  1  0.758931  0.758931  0.487396  1
  H  H7  1  0.241069  0.241069  0.487396  1
  H  H8  1  0.758931  0.241069  0.512604  1
  H  H9  1  0.241069  0.758931  0.512604  1
  H  H10  1  0.850173  0.850173  0.214922  1
  H  H11  1  0.149827  0.149827  0.214922  1
  H  H12  1  0.850173  0.149827  0.785078  1
  H  H13  1  0.149827  0.850173  0.785078  1
  H  H14  1  0.778404  0.574823  0.262322  1
  H  H15  1  0.221596  0.425177  0.262322  1
  H  H16  1  0.778404  0.425177  0.737678  1
  H  H17  1  0.221596  0.574823  0.737678  1
  H  H18  1  0.574823  0.221596  0.737678  1
  H  H19  1  0.425177  0.778404  0.737678  1
  H  H20  1  0.425177  0.221596  0.262322  1
  H  H21  1  0.574823  0.778404  0.262322  1
