# generated using pymatgen
data_LiLaHgPt3
_symmetry_space_group_name_H-M   'P 1'
_cell_length_a   5.32594803
_cell_length_b   5.32594908
_cell_length_c   5.32594868
_cell_angle_alpha   62.26067373
_cell_angle_beta   62.26066145
_cell_angle_gamma   62.26066743
_symmetry_Int_Tables_number   1
_chemical_formula_structural   LiLaHgPt3
_chemical_formula_sum   'Li1 La1 Hg1 Pt3'
_cell_volume   112.21716386
_cell_formula_units_Z   1
loop_
 _symmetry_equiv_pos_site_id
 _symmetry_equiv_pos_as_xyz
  1  'x, y, z'
loop_
 _atom_site_type_symbol
 _atom_site_label
 _atom_site_symmetry_multiplicity
 _atom_site_fract_x
 _atom_site_fract_y
 _atom_site_fract_z
 _atom_site_occupancy
  Li  Li0  1  0.376627  0.376627  0.376627  1
  La  La1  1  0.996669  0.996669  0.996669  1
  Hg  Hg2  1  0.749811  0.749811  0.749811  1
  Pt  Pt3  1  0.874368  0.376263  0.376263  1
  Pt  Pt4  1  0.376263  0.874368  0.376263  1
  Pt  Pt5  1  0.376263  0.376263  0.874368  1
