# generated using pymatgen
data_Pr4LuUS10
_symmetry_space_group_name_H-M   'P 1'
_cell_length_a   7.55633200
_cell_length_b   8.08894600
_cell_length_c   11.98494400
_cell_angle_alpha   90.00000000
_cell_angle_beta   90.00000000
_cell_angle_gamma   90.00000000
_symmetry_Int_Tables_number   1
_chemical_formula_structural   Pr4LuUS10
_chemical_formula_sum   'Pr8 Lu2 U2 S20'
_cell_volume   732.55287378
_cell_formula_units_Z   2
loop_
 _symmetry_equiv_pos_site_id
 _symmetry_equiv_pos_as_xyz
  1  'x, y, z'
loop_
 _atom_site_type_symbol
 _atom_site_label
 _atom_site_symmetry_multiplicity
 _atom_site_fract_x
 _atom_site_fract_y
 _atom_site_fract_z
 _atom_site_occupancy
  Pr  Pr0  1  0.527042  0.502633  0.323469  1
  Pr  Pr1  1  0.972958  0.997367  0.823469  1
  Pr  Pr2  1  0.477176  0.997347  0.676684  1
  Pr  Pr3  1  0.022824  0.502653  0.176684  1
  Pr  Pr4  1  0.477176  0.502653  0.676684  1
  Pr  Pr5  1  0.022824  0.997347  0.176684  1
  Pr  Pr6  1  0.527042  0.997367  0.323469  1
  Pr  Pr7  1  0.972958  0.502633  0.823469  1
  Lu  Lu8  1  0.070470  0.750000  0.494693  1
  Lu  Lu9  1  0.429530  0.750000  0.994693  1
  U  U10  1  0.942583  0.250000  0.506323  1
  U  U11  1  0.557417  0.250000  0.006323  1
  S  S12  1  0.838925  0.967438  0.594045  1
  S  S13  1  0.661075  0.532562  0.094045  1
  S  S14  1  0.159551  0.459100  0.406885  1
  S  S15  1  0.340449  0.040900  0.906885  1
  S  S16  1  0.159551  0.040900  0.406885  1
  S  S17  1  0.340449  0.459100  0.906885  1
  S  S18  1  0.838925  0.532562  0.594045  1
  S  S19  1  0.661075  0.967438  0.094045  1
  S  S20  1  0.832862  0.750000  0.314564  1
  S  S21  1  0.667138  0.750000  0.814564  1
  S  S22  1  0.166988  0.250000  0.683961  1
  S  S23  1  0.333012  0.250000  0.183961  1
  S  S24  1  0.449763  0.750000  0.496637  1
  S  S25  1  0.050237  0.750000  0.996637  1
  S  S26  1  0.552306  0.250000  0.500504  1
  S  S27  1  0.947694  0.250000  0.000504  1
  S  S28  1  0.190601  0.750000  0.709880  1
  S  S29  1  0.309399  0.750000  0.209880  1
  S  S30  1  0.809615  0.250000  0.291273  1
  S  S31  1  0.690385  0.250000  0.791273  1
