# generated using pymatgen
data_Ta4MnAl2Cr5
_symmetry_space_group_name_H-M   'P 1'
_cell_length_a   4.86242400
_cell_length_b   4.86284948
_cell_length_c   8.25994500
_cell_angle_alpha   90.00000000
_cell_angle_beta   90.00000000
_cell_angle_gamma   119.99710571
_symmetry_Int_Tables_number   1
_chemical_formula_structural   Ta4MnAl2Cr5
_chemical_formula_sum   'Ta4 Mn1 Al2 Cr5'
_cell_volume   169.14692452
_cell_formula_units_Z   1
loop_
 _symmetry_equiv_pos_site_id
 _symmetry_equiv_pos_as_xyz
  1  'x, y, z'
loop_
 _atom_site_type_symbol
 _atom_site_label
 _atom_site_symmetry_multiplicity
 _atom_site_fract_x
 _atom_site_fract_y
 _atom_site_fract_z
 _atom_site_occupancy
  Ta  Ta0  1  0.333542  0.667086  0.434675  1
  Ta  Ta1  1  0.666790  0.333580  0.932617  1
  Ta  Ta2  1  0.666790  0.333580  0.567383  1
  Ta  Ta3  1  0.333542  0.667086  0.065325  1
  Mn  Mn4  1  0.171731  0.343462  0.750000  1
  Al  Al5  1  0.000703  0.001406  0.998921  1
  Al  Al6  1  0.000703  0.001406  0.501079  1
  Cr  Cr7  1  0.173614  0.826433  0.750000  1
  Cr  Cr8  1  0.345672  0.172732  0.250000  1
  Cr  Cr9  1  0.827033  0.654066  0.250000  1
  Cr  Cr10  1  0.652818  0.826433  0.750000  1
  Cr  Cr11  1  0.827059  0.172732  0.250000  1
