# generated using pymatgen
data_PrSm5Cr2(Co4P3)4
_symmetry_space_group_name_H-M   'P 1'
_cell_length_a   3.73466000
_cell_length_b   10.62671800
_cell_length_c   12.33343500
_cell_angle_alpha   90.00000000
_cell_angle_beta   90.00000000
_cell_angle_gamma   90.00000000
_symmetry_Int_Tables_number   1
_chemical_formula_structural   PrSm5Cr2(Co4P3)4
_chemical_formula_sum   'Pr1 Sm5 Cr2 Co16 P12'
_cell_volume   489.47923816
_cell_formula_units_Z   1
loop_
 _symmetry_equiv_pos_site_id
 _symmetry_equiv_pos_as_xyz
  1  'x, y, z'
loop_
 _atom_site_type_symbol
 _atom_site_label
 _atom_site_symmetry_multiplicity
 _atom_site_fract_x
 _atom_site_fract_y
 _atom_site_fract_z
 _atom_site_occupancy
  Pr  Pr0  1  0.000000  0.500000  0.521965  1
  Sm  Sm1  1  0.500000  0.000000  0.478391  1
  Sm  Sm2  1  0.500000  0.817678  0.204664  1
  Sm  Sm3  1  0.500000  0.182322  0.204664  1
  Sm  Sm4  1  0.000000  0.682493  0.795693  1
  Sm  Sm5  1  0.000000  0.317507  0.795693  1
  Cr  Cr6  1  0.500000  0.500000  0.152569  1
  Cr  Cr7  1  0.000000  0.000000  0.846183  1
  Co  Co8  1  0.500000  0.500000  0.704535  1
  Co  Co9  1  0.000000  0.000000  0.296764  1
  Co  Co10  1  0.000000  0.500000  0.987336  1
  Co  Co11  1  0.500000  0.000000  0.012967  1
  Co  Co12  1  0.500000  0.332707  0.993441  1
  Co  Co13  1  0.500000  0.667293  0.993441  1
  Co  Co14  1  0.000000  0.167141  0.006640  1
  Co  Co15  1  0.000000  0.832859  0.006640  1
  Co  Co16  1  0.500000  0.293890  0.430098  1
  Co  Co17  1  0.500000  0.706110  0.430098  1
  Co  Co18  1  0.000000  0.202333  0.570247  1
  Co  Co19  1  0.000000  0.797667  0.570247  1
  Co  Co20  1  0.500000  0.881298  0.710864  1
  Co  Co21  1  0.500000  0.118702  0.710864  1
  Co  Co22  1  0.000000  0.619502  0.288719  1
  Co  Co23  1  0.000000  0.380498  0.288719  1
  P  P24  1  0.500000  0.500000  0.884838  1
  P  P25  1  0.000000  0.000000  0.115679  1
  P  P26  1  0.500000  0.500000  0.338349  1
  P  P27  1  0.000000  0.000000  0.658149  1
  P  P28  1  0.500000  0.306473  0.615818  1
  P  P29  1  0.500000  0.693527  0.615818  1
  P  P30  1  0.000000  0.190698  0.384863  1
  P  P31  1  0.000000  0.809302  0.384863  1
  P  P32  1  0.500000  0.848348  0.894546  1
  P  P33  1  0.500000  0.151652  0.894546  1
  P  P34  1  0.000000  0.651649  0.105544  1
  P  P35  1  0.000000  0.348351  0.105544  1
