# generated using pymatgen
data_YbYB8
_symmetry_space_group_name_H-M   'P 1'
_cell_length_a   7.11286000
_cell_length_b   7.11946800
_cell_length_c   4.03601300
_cell_angle_alpha   90.00000000
_cell_angle_beta   90.00000000
_cell_angle_gamma   90.00000000
_symmetry_Int_Tables_number   1
_chemical_formula_structural   YbYB8
_chemical_formula_sum   'Yb2 Y2 B16'
_cell_volume   204.38280700
_cell_formula_units_Z   2
loop_
 _symmetry_equiv_pos_site_id
 _symmetry_equiv_pos_as_xyz
  1  'x, y, z'
loop_
 _atom_site_type_symbol
 _atom_site_label
 _atom_site_symmetry_multiplicity
 _atom_site_fract_x
 _atom_site_fract_y
 _atom_site_fract_z
 _atom_site_occupancy
  Yb  Yb0  1  0.183058  0.683192  0.000000  1
  Yb  Yb1  1  0.683058  0.816808  0.000000  1
  Y  Y2  1  0.317613  0.182558  0.000000  1
  Y  Y3  1  0.817613  0.317442  0.000000  1
  B  B4  1  0.324652  0.461963  0.500000  1
  B  B5  1  0.675988  0.537732  0.500000  1
  B  B6  1  0.537862  0.324334  0.500000  1
  B  B7  1  0.461927  0.675356  0.500000  1
  B  B8  1  0.999486  0.998256  0.203095  1
  B  B9  1  0.499486  0.501744  0.796905  1
  B  B10  1  0.999486  0.998256  0.796905  1
  B  B11  1  0.499486  0.501744  0.203095  1
  B  B12  1  0.586547  0.086642  0.500000  1
  B  B13  1  0.086547  0.413358  0.500000  1
  B  B14  1  0.913381  0.586556  0.500000  1
  B  B15  1  0.413381  0.913444  0.500000  1
  B  B16  1  0.037862  0.175666  0.500000  1
  B  B17  1  0.175988  0.962268  0.500000  1
  B  B18  1  0.824652  0.038037  0.500000  1
  B  B19  1  0.961927  0.824644  0.500000  1
