# generated using pymatgen
data_Cs4BiOsCl12
_symmetry_space_group_name_H-M   'P 1'
_cell_length_a   13.22400992
_cell_length_b   13.22400944
_cell_length_c   13.22400812
_cell_angle_alpha   131.84035232
_cell_angle_beta   131.84035788
_cell_angle_gamma   70.48128538
_symmetry_Int_Tables_number   1
_chemical_formula_structural   Cs4BiOsCl12
_chemical_formula_sum   'Cs8 Bi2 Os2 Cl24'
_cell_volume   1257.68078137
_cell_formula_units_Z   2
loop_
 _symmetry_equiv_pos_site_id
 _symmetry_equiv_pos_as_xyz
  1  'x, y, z'
loop_
 _atom_site_type_symbol
 _atom_site_label
 _atom_site_symmetry_multiplicity
 _atom_site_fract_x
 _atom_site_fract_y
 _atom_site_fract_z
 _atom_site_occupancy
  Cs  Cs0  1  0.375000  0.848236  0.973236  1
  Cs  Cs1  1  0.598236  0.625000  0.473236  1
  Cs  Cs2  1  0.875000  0.848236  0.473236  1
  Cs  Cs3  1  0.598236  0.125000  0.973236  1
  Cs  Cs4  1  0.875000  0.401764  0.026764  1
  Cs  Cs5  1  0.151764  0.125000  0.526764  1
  Cs  Cs6  1  0.375000  0.401764  0.526764  1
  Cs  Cs7  1  0.151764  0.625000  0.026764  1
  Bi  Bi8  1  0.500000  0.500000  0.000000  1
  Bi  Bi9  1  0.250000  0.750000  0.500000  1
  Os  Os10  1  0.000001  0.000000  0.000000  1
  Os  Os11  1  0.749999  0.250000  0.500000  1
  Cl  Cl12  1  0.747278  0.495291  0.251987  1
  Cl  Cl13  1  0.504708  0.252722  0.748013  1
  Cl  Cl14  1  0.374265  0.374265  0.000000  1
  Cl  Cl15  1  0.124265  0.624265  0.500000  1
  Cl  Cl16  1  0.375735  0.875735  0.500000  1
  Cl  Cl17  1  0.625735  0.625735  0.000000  1
  Cl  Cl18  1  0.107829  0.107829  0.000000  1
  Cl  Cl19  1  0.857829  0.357829  0.500000  1
  Cl  Cl20  1  0.642171  0.142171  0.500000  1
  Cl  Cl21  1  0.892171  0.892171  0.000000  1
  Cl  Cl22  1  0.216867  0.000793  0.216074  1
  Cl  Cl23  1  0.750793  0.034719  0.283926  1
  Cl  Cl24  1  0.504708  0.756694  0.251987  1
  Cl  Cl25  1  0.533133  0.249207  0.283926  1
  Cl  Cl26  1  0.965281  0.249207  0.716074  1
  Cl  Cl27  1  0.999207  0.215281  0.216074  1
  Cl  Cl28  1  0.999207  0.783133  0.783926  1
  Cl  Cl29  1  0.784719  0.000793  0.783926  1
  Cl  Cl30  1  0.750793  0.466867  0.716074  1
  Cl  Cl31  1  0.245292  0.493306  0.248013  1
  Cl  Cl32  1  0.245292  0.997278  0.751987  1
  Cl  Cl33  1  0.002722  0.754709  0.248013  1
  Cl  Cl34  1  0.506694  0.754709  0.751987  1
  Cl  Cl35  1  0.243306  0.495291  0.748013  1
