# generated using pymatgen
data_SrPuUN4
_symmetry_space_group_name_H-M   'P 1'
_cell_length_a   10.09346308
_cell_length_b   3.53020800
_cell_length_c   11.87112448
_cell_angle_alpha   90.00000000
_cell_angle_beta   90.02363593
_cell_angle_gamma   90.00000000
_symmetry_Int_Tables_number   1
_chemical_formula_structural   SrPuUN4
_chemical_formula_sum   'Sr4 Pu4 U4 N16'
_cell_volume   422.99215780
_cell_formula_units_Z   4
loop_
 _symmetry_equiv_pos_site_id
 _symmetry_equiv_pos_as_xyz
  1  'x, y, z'
loop_
 _atom_site_type_symbol
 _atom_site_label
 _atom_site_symmetry_multiplicity
 _atom_site_fract_x
 _atom_site_fract_y
 _atom_site_fract_z
 _atom_site_occupancy
  Sr  Sr0  1  0.751668  0.500001  0.147967  1
  Sr  Sr1  1  0.251625  0.500001  0.351950  1
  Sr  Sr2  1  0.752834  0.000000  0.642621  1
  Sr  Sr3  1  0.252725  0.000000  0.857462  1
  Pu  Pu4  1  0.079762  0.500001  0.115000  1
  Pu  Pu5  1  0.423816  0.000000  0.115103  1
  Pu  Pu6  1  0.923985  0.000000  0.384871  1
  Pu  Pu7  1  0.579933  0.500001  0.384999  1
  U  U8  1  0.421666  0.000000  0.611069  1
  U  U9  1  0.074099  0.500001  0.611581  1
  U  U10  1  0.574108  0.500001  0.888423  1
  U  U11  1  0.921670  0.000000  0.888871  1
  N  N12  1  0.620991  0.000000  0.997022  1
  N  N13  1  0.936780  0.000000  0.066029  1
  N  N14  1  0.211250  0.000000  0.165587  1
  N  N15  1  0.484357  0.500001  0.216474  1
  N  N16  1  0.984358  0.500001  0.283499  1
  N  N17  1  0.711373  0.000000  0.334507  1
  N  N18  1  0.436900  0.000000  0.433932  1
  N  N19  1  0.121064  0.000000  0.503079  1
  N  N20  1  0.891709  0.500001  0.519162  1
  N  N21  1  0.552606  0.500001  0.583816  1
  N  N22  1  0.288765  0.500001  0.662994  1
  N  N23  1  0.009368  0.000000  0.713813  1
  N  N24  1  0.509608  0.000000  0.786037  1
  N  N25  1  0.788856  0.500001  0.837070  1
  N  N26  1  0.052620  0.500001  0.916092  1
  N  N27  1  0.391516  0.500001  0.980978  1
