# generated using pymatgen
data_Yb3TmSb3
_symmetry_space_group_name_H-M   'P 1'
_cell_length_a   8.14900562
_cell_length_b   8.12753510
_cell_length_c   8.07219098
_cell_angle_alpha   109.44118223
_cell_angle_beta   109.54932126
_cell_angle_gamma   109.75276967
_symmetry_Int_Tables_number   1
_chemical_formula_structural   Yb3TmSb3
_chemical_formula_sum   'Yb6 Tm2 Sb6'
_cell_volume   409.87480794
_cell_formula_units_Z   2
loop_
 _symmetry_equiv_pos_site_id
 _symmetry_equiv_pos_as_xyz
  1  'x, y, z'
loop_
 _atom_site_type_symbol
 _atom_site_label
 _atom_site_symmetry_multiplicity
 _atom_site_fract_x
 _atom_site_fract_y
 _atom_site_fract_z
 _atom_site_occupancy
  Yb  Yb0  1  0.004154  0.355220  0.499218  1
  Yb  Yb1  1  0.351112  0.494287  0.995777  1
  Yb  Yb2  1  0.004936  0.856002  0.500782  1
  Yb  Yb3  1  0.855335  0.498510  0.004223  1
  Yb  Yb4  1  0.499306  0.004388  0.858458  1
  Yb  Yb5  1  0.140847  0.145929  0.141542  1
  Tm  Tm6  1  0.499051  0.000229  0.353862  1
  Tm  Tm7  1  0.645190  0.646367  0.646138  1
  Sb  Sb8  1  0.863629  0.113364  0.737656  1
  Sb  Sb9  1  0.383534  0.253357  0.620194  1
  Sb  Sb10  1  0.121940  0.751881  0.880288  1
  Sb  Sb11  1  0.741652  0.871593  0.119712  1
  Sb  Sb12  1  0.263340  0.633163  0.379806  1
  Sb  Sb13  1  0.625973  0.375708  0.262344  1
