# generated using pymatgen
data_TmLuMgB2Rh5
_symmetry_space_group_name_H-M   'P 1'
_cell_length_a   9.59209260
_cell_length_b   9.59209260
_cell_length_c   3.15943300
_cell_angle_alpha   90.00000000
_cell_angle_beta   90.00000000
_cell_angle_gamma   90.09926316
_symmetry_Int_Tables_number   1
_chemical_formula_structural   TmLuMgB2Rh5
_chemical_formula_sum   'Tm2 Lu2 Mg2 B4 Rh10'
_cell_volume   290.69343481
_cell_formula_units_Z   2
loop_
 _symmetry_equiv_pos_site_id
 _symmetry_equiv_pos_as_xyz
  1  'x, y, z'
loop_
 _atom_site_type_symbol
 _atom_site_label
 _atom_site_symmetry_multiplicity
 _atom_site_fract_x
 _atom_site_fract_y
 _atom_site_fract_z
 _atom_site_occupancy
  Tm  Tm0  1  0.175599  0.324401  0.000000  1
  Tm  Tm1  1  0.824401  0.675599  0.000000  1
  Lu  Lu2  1  0.675742  0.175742  0.000000  1
  Lu  Lu3  1  0.324258  0.824258  0.000000  1
  Mg  Mg4  1  0.000000  0.000000  0.000000  1
  Mg  Mg5  1  0.500000  0.500000  0.000000  1
  B  B6  1  0.123057  0.623057  0.000000  1
  B  B7  1  0.876943  0.376943  0.000000  1
  B  B8  1  0.622895  0.877105  0.000000  1
  B  B9  1  0.377105  0.122895  0.000000  1
  Rh  Rh10  1  0.500000  0.000000  0.500000  1
  Rh  Rh11  1  0.000000  0.500000  0.500000  1
  Rh  Rh12  1  0.223633  0.069550  0.500000  1
  Rh  Rh13  1  0.776367  0.930450  0.500000  1
  Rh  Rh14  1  0.071786  0.777323  0.500000  1
  Rh  Rh15  1  0.722677  0.428214  0.500000  1
  Rh  Rh16  1  0.928214  0.222677  0.500000  1
  Rh  Rh17  1  0.277323  0.571786  0.500000  1
  Rh  Rh18  1  0.569550  0.723633  0.500000  1
  Rh  Rh19  1  0.430450  0.276367  0.500000  1
