# generated using pymatgen
data_Zr6SiAsN2
_symmetry_space_group_name_H-M   'P 1'
_cell_length_a   5.85713867
_cell_length_b   5.85713808
_cell_length_c   8.62738500
_cell_angle_alpha   90.00000000
_cell_angle_beta   90.00000000
_cell_angle_gamma   145.27492058
_symmetry_Int_Tables_number   1
_chemical_formula_structural   Zr6SiAsN2
_chemical_formula_sum   'Zr6 Si1 As1 N2'
_cell_volume   168.59710748
_cell_formula_units_Z   1
loop_
 _symmetry_equiv_pos_site_id
 _symmetry_equiv_pos_as_xyz
  1  'x, y, z'
loop_
 _atom_site_type_symbol
 _atom_site_label
 _atom_site_symmetry_multiplicity
 _atom_site_fract_x
 _atom_site_fract_y
 _atom_site_fract_z
 _atom_site_occupancy
  Zr  Zr0  1  0.631531  0.368469  0.948011  1
  Zr  Zr1  1  0.368677  0.631323  0.443985  1
  Zr  Zr2  1  0.368677  0.631323  0.056015  1
  Zr  Zr3  1  0.631531  0.368469  0.551989  1
  Zr  Zr4  1  0.941312  0.058688  0.750000  1
  Zr  Zr5  1  0.058843  0.941157  0.250000  1
  Si  Si6  1  0.744958  0.255042  0.250000  1
  As  As7  1  0.253340  0.746660  0.750000  1
  N  N8  1  0.000566  0.999434  0.999124  1
  N  N9  1  0.000566  0.999434  0.500876  1
