# generated using pymatgen
data_Np2GePtI2
_symmetry_space_group_name_H-M   'P 1'
_cell_length_a   4.36042100
_cell_length_b   4.36041957
_cell_length_c   11.56241600
_cell_angle_alpha   90.00000000
_cell_angle_beta   90.00000000
_cell_angle_gamma   120.00000323
_symmetry_Int_Tables_number   1
_chemical_formula_structural   Np2GePtI2
_chemical_formula_sum   'Np2 Ge1 Pt1 I2'
_cell_volume   190.38639538
_cell_formula_units_Z   1
loop_
 _symmetry_equiv_pos_site_id
 _symmetry_equiv_pos_as_xyz
  1  'x, y, z'
loop_
 _atom_site_type_symbol
 _atom_site_label
 _atom_site_symmetry_multiplicity
 _atom_site_fract_x
 _atom_site_fract_y
 _atom_site_fract_z
 _atom_site_occupancy
  Np  Np0  1  0.000000  0.000000  0.158570  1
  Np  Np1  1  0.000000  0.000000  0.846125  1
  Ge  Ge2  1  0.666667  0.333333  0.015796  1
  Pt  Pt3  1  0.333333  0.666667  0.984952  1
  I  I4  1  0.666667  0.333333  0.660760  1
  I  I5  1  0.333333  0.666667  0.333796  1
