# generated using pymatgen
data_YHoTi2Al2O10
_symmetry_space_group_name_H-M   'P 1'
_cell_length_a   5.70189000
_cell_length_b   7.42332219
_cell_length_c   8.45823167
_cell_angle_alpha   89.89350629
_cell_angle_beta   90.00000000
_cell_angle_gamma   90.00000000
_symmetry_Int_Tables_number   1
_chemical_formula_structural   YHoTi2Al2O10
_chemical_formula_sum   'Y2 Ho2 Ti4 Al4 O20'
_cell_volume   358.01067069
_cell_formula_units_Z   2
loop_
 _symmetry_equiv_pos_site_id
 _symmetry_equiv_pos_as_xyz
  1  'x, y, z'
loop_
 _atom_site_type_symbol
 _atom_site_label
 _atom_site_symmetry_multiplicity
 _atom_site_fract_x
 _atom_site_fract_y
 _atom_site_fract_z
 _atom_site_occupancy
  Y  Y0  1  0.000000  0.857875  0.170273  1
  Y  Y1  1  0.000000  0.142125  0.829727  1
  Ho  Ho2  1  0.000000  0.357986  0.330036  1
  Ho  Ho3  1  0.000000  0.642014  0.669964  1
  Ti  Ti4  1  0.500000  0.124372  0.146447  1
  Ti  Ti5  1  0.500000  0.875628  0.853553  1
  Ti  Ti6  1  0.500000  0.623637  0.353908  1
  Ti  Ti7  1  0.500000  0.376363  0.646092  1
  Al  Al8  1  0.242569  0.500000  0.000000  1
  Al  Al9  1  0.757083  0.000000  0.500000  1
  Al  Al10  1  0.757431  0.500000  0.000000  1
  Al  Al11  1  0.242917  0.000000  0.500000  1
  O  O12  1  0.000000  0.340167  0.059562  1
  O  O13  1  0.000000  0.659833  0.940438  1
  O  O14  1  0.000000  0.839874  0.441789  1
  O  O15  1  0.000000  0.160126  0.558211  1
  O  O16  1  0.500000  0.350195  0.071089  1
  O  O17  1  0.500000  0.649805  0.928911  1
  O  O18  1  0.500000  0.850790  0.427111  1
  O  O19  1  0.500000  0.149210  0.572889  1
  O  O20  1  0.250468  0.110560  0.294597  1
  O  O21  1  0.250468  0.889440  0.705403  1
  O  O22  1  0.749423  0.607301  0.206063  1
  O  O23  1  0.749423  0.392699  0.793937  1
  O  O24  1  0.749532  0.889440  0.705403  1
  O  O25  1  0.749532  0.110560  0.294597  1
  O  O26  1  0.250577  0.392699  0.793937  1
  O  O27  1  0.250577  0.607301  0.206063  1
  O  O28  1  0.277044  0.000000  0.000000  1
  O  O29  1  0.724041  0.500000  0.500000  1
  O  O30  1  0.722956  0.000000  0.000000  1
  O  O31  1  0.275959  0.500000  0.500000  1
