# generated using pymatgen
data_Yb3LuBi3
_symmetry_space_group_name_H-M   'P 1'
_cell_length_a   8.13139526
_cell_length_b   8.33702844
_cell_length_c   8.33702803
_cell_angle_alpha   109.96546522
_cell_angle_beta   108.97233592
_cell_angle_gamma   108.97234058
_symmetry_Int_Tables_number   1
_chemical_formula_structural   Yb3LuBi3
_chemical_formula_sum   'Yb6 Lu2 Bi6'
_cell_volume   437.72630242
_cell_formula_units_Z   2
loop_
 _symmetry_equiv_pos_site_id
 _symmetry_equiv_pos_as_xyz
  1  'x, y, z'
loop_
 _atom_site_type_symbol
 _atom_site_label
 _atom_site_symmetry_multiplicity
 _atom_site_fract_x
 _atom_site_fract_y
 _atom_site_fract_z
 _atom_site_occupancy
  Yb  Yb0  1  0.500996  0.999802  0.647598  1
  Yb  Yb1  1  0.353398  0.352204  0.352402  1
  Yb  Yb2  1  0.501194  0.000198  0.147796  1
  Yb  Yb3  1  0.001194  0.647796  0.500198  1
  Yb  Yb4  1  0.853398  0.852402  0.852204  1
  Yb  Yb5  1  0.000996  0.147598  0.499802  1
  Lu  Lu6  1  0.143315  0.500000  0.000000  1
  Lu  Lu7  1  0.643315  0.500000  0.000000  1
  Bi  Bi8  1  0.377292  0.621792  0.758986  1
  Bi  Bi9  1  0.877292  0.258986  0.121792  1
  Bi  Bi10  1  0.618305  0.741014  0.362806  1
  Bi  Bi11  1  0.118305  0.862806  0.241014  1
  Bi  Bi12  1  0.255500  0.137194  0.878208  1
  Bi  Bi13  1  0.755500  0.378208  0.637194  1
