# generated using pymatgen
data_Nb5(Re3Tc)6
_symmetry_space_group_name_H-M   'P 1'
_cell_length_a   8.41008017
_cell_length_b   8.41007966
_cell_length_c   8.40126510
_cell_angle_alpha   109.47299592
_cell_angle_beta   109.47299414
_cell_angle_gamma   109.51013768
_symmetry_Int_Tables_number   1
_chemical_formula_structural   Nb5(Re3Tc)6
_chemical_formula_sum   'Nb5 Re18 Tc6'
_cell_volume   457.18837787
_cell_formula_units_Z   1
loop_
 _symmetry_equiv_pos_site_id
 _symmetry_equiv_pos_as_xyz
  1  'x, y, z'
loop_
 _atom_site_type_symbol
 _atom_site_label
 _atom_site_symmetry_multiplicity
 _atom_site_fract_x
 _atom_site_fract_y
 _atom_site_fract_z
 _atom_site_occupancy
  Nb  Nb0  1  0.998688  0.998688  0.000000  1
  Nb  Nb1  1  0.632940  0.998908  0.000000  1
  Nb  Nb2  1  0.998908  0.632940  0.000000  1
  Nb  Nb3  1  0.998959  0.998959  0.635020  1
  Nb  Nb4  1  0.363940  0.363940  0.364980  1
  Re  Re5  1  0.318370  0.318370  0.719146  1
  Re  Re6  1  0.001960  0.682649  0.399848  1
  Re  Re7  1  0.682649  0.001960  0.399848  1
  Re  Re8  1  0.599223  0.599223  0.280854  1
  Re  Re9  1  0.282801  0.602112  0.600152  1
  Re  Re10  1  0.602112  0.282801  0.600152  1
  Re  Re11  1  0.377914  0.194976  0.000000  1
  Re  Re12  1  0.181091  0.806235  0.805129  1
  Re  Re13  1  0.375962  0.001106  0.194871  1
  Re  Re14  1  0.194976  0.377914  0.000000  1
  Re  Re15  1  0.001106  0.375962  0.194871  1
  Re  Re16  1  0.806235  0.181091  0.805129  1
  Re  Re17  1  0.806416  0.806416  0.183468  1
  Re  Re18  1  0.000936  0.194737  0.379791  1
  Re  Re19  1  0.194737  0.000936  0.379791  1
  Re  Re20  1  0.622947  0.622947  0.816532  1
  Re  Re21  1  0.814946  0.621145  0.620209  1
  Re  Re22  1  0.621145  0.814946  0.620209  1
  Tc  Tc23  1  0.399107  0.683902  0.000000  1
  Tc  Tc24  1  0.717187  0.317084  0.315256  1
  Tc  Tc25  1  0.401931  0.001828  0.684744  1
  Tc  Tc26  1  0.683902  0.399107  0.000000  1
  Tc  Tc27  1  0.001828  0.401931  0.684744  1
  Tc  Tc28  1  0.317084  0.717187  0.315256  1
