# generated using pymatgen
data_Mg2NbZnRh4
_symmetry_space_group_name_H-M   'P 1'
_cell_length_a   6.21580161
_cell_length_b   6.21680061
_cell_length_c   6.22635600
_cell_angle_alpha   89.99950280
_cell_angle_beta   90.00043277
_cell_angle_gamma   89.94926030
_symmetry_Int_Tables_number   1
_chemical_formula_structural   Mg2NbZnRh4
_chemical_formula_sum   'Mg4 Nb2 Zn2 Rh8'
_cell_volume   240.60123997
_cell_formula_units_Z   2
loop_
 _symmetry_equiv_pos_site_id
 _symmetry_equiv_pos_as_xyz
  1  'x, y, z'
loop_
 _atom_site_type_symbol
 _atom_site_label
 _atom_site_symmetry_multiplicity
 _atom_site_fract_x
 _atom_site_fract_y
 _atom_site_fract_z
 _atom_site_occupancy
  Mg  Mg0  1  0.749969  0.249973  0.999998  1
  Mg  Mg1  1  0.250031  0.750027  0.000002  1
  Mg  Mg2  1  0.749985  0.249991  0.499995  1
  Mg  Mg3  1  0.250015  0.750009  0.500005  1
  Nb  Nb4  1  0.750009  0.749983  0.499999  1
  Nb  Nb5  1  0.249991  0.250017  0.500002  1
  Zn  Zn6  1  0.250003  0.250008  0.000001  1
  Zn  Zn7  1  0.749997  0.749992  0.999999  1
  Rh  Rh8  1  0.500000  0.999999  0.249742  1
  Rh  Rh9  1  0.499997  0.500001  0.249816  1
  Rh  Rh10  1  0.000001  0.000000  0.249815  1
  Rh  Rh11  1  0.000000  0.500003  0.249700  1
  Rh  Rh12  1  0.999999  0.000000  0.750185  1
  Rh  Rh13  1  0.000000  0.499997  0.750300  1
  Rh  Rh14  1  0.500000  0.000001  0.750258  1
  Rh  Rh15  1  0.500003  0.499999  0.750184  1
