# generated using pymatgen
data_La2Tb5ThSb20
_symmetry_space_group_name_H-M   'P 1'
_cell_length_a   4.22346600
_cell_length_b   13.48156379
_cell_length_c   14.94018699
_cell_angle_alpha   78.70991555
_cell_angle_beta   90.00000000
_cell_angle_gamma   90.00000000
_symmetry_Int_Tables_number   1
_chemical_formula_structural   La2Tb5ThSb20
_chemical_formula_sum   'La2 Tb5 Th1 Sb20'
_cell_volume   834.21635239
_cell_formula_units_Z   1
loop_
 _symmetry_equiv_pos_site_id
 _symmetry_equiv_pos_as_xyz
  1  'x, y, z'
loop_
 _atom_site_type_symbol
 _atom_site_label
 _atom_site_symmetry_multiplicity
 _atom_site_fract_x
 _atom_site_fract_y
 _atom_site_fract_z
 _atom_site_occupancy
  La  La0  1  0.250000  0.951021  0.361266  1
  La  La1  1  0.750000  0.046540  0.641061  1
  Tb  Tb2  1  0.250000  0.662752  0.856721  1
  Tb  Tb3  1  0.250000  0.665285  0.575972  1
  Tb  Tb4  1  0.750000  0.336083  0.426372  1
  Tb  Tb5  1  0.250000  0.397150  0.770281  1
  Tb  Tb6  1  0.750000  0.606427  0.227709  1
  Th  Th7  1  0.750000  0.335360  0.141836  1
  Sb  Sb8  1  0.750000  0.846163  0.828238  1
  Sb  Sb9  1  0.250000  0.852670  0.679740  1
  Sb  Sb10  1  0.250000  0.153346  0.476226  1
  Sb  Sb11  1  0.750000  0.282762  0.934448  1
  Sb  Sb12  1  0.250000  0.147616  0.780676  1
  Sb  Sb13  1  0.750000  0.571778  0.445437  1
  Sb  Sb14  1  0.750000  0.145332  0.326004  1
  Sb  Sb15  1  0.250000  0.709180  0.348278  1
  Sb  Sb16  1  0.750000  0.290891  0.651702  1
  Sb  Sb17  1  0.750000  0.853448  0.218250  1
  Sb  Sb18  1  0.250000  0.422985  0.972820  1
  Sb  Sb19  1  0.250000  0.429112  0.554589  1
  Sb  Sb20  1  0.750000  0.576290  0.735286  1
  Sb  Sb21  1  0.250000  0.424478  0.266222  1
  Sb  Sb22  1  0.750000  0.848495  0.524423  1
  Sb  Sb23  1  0.750000  0.029787  0.897213  1
  Sb  Sb24  1  0.250000  0.718338  0.063900  1
  Sb  Sb25  1  0.250000  0.967847  0.098733  1
  Sb  Sb26  1  0.250000  0.148517  0.173073  1
  Sb  Sb27  1  0.750000  0.580349  0.023522  1
