# generated using pymatgen
data_Tb11Nd5MgAg3Rh4
_symmetry_space_group_name_H-M   'P 1'
_cell_length_a   9.68969590
_cell_length_b   9.70537297
_cell_length_c   9.70537238
_cell_angle_alpha   60.05810346
_cell_angle_beta   60.03750585
_cell_angle_gamma   60.03750083
_symmetry_Int_Tables_number   1
_chemical_formula_structural   Tb11Nd5MgAg3Rh4
_chemical_formula_sum   'Tb11 Nd5 Mg1 Ag3 Rh4'
_cell_volume   646.03507040
_cell_formula_units_Z   1
loop_
 _symmetry_equiv_pos_site_id
 _symmetry_equiv_pos_as_xyz
  1  'x, y, z'
loop_
 _atom_site_type_symbol
 _atom_site_label
 _atom_site_symmetry_multiplicity
 _atom_site_fract_x
 _atom_site_fract_y
 _atom_site_fract_z
 _atom_site_occupancy
  Tb  Tb0  1  0.599004  0.598937  0.598937  1
  Tb  Tb1  1  0.599174  0.598804  0.205327  1
  Tb  Tb2  1  0.599174  0.205327  0.598804  1
  Tb  Tb3  1  0.192352  0.603334  0.603334  1
  Tb  Tb4  1  0.061101  0.437286  0.437286  1
  Tb  Tb5  1  0.433577  0.065166  0.065166  1
  Tb  Tb6  1  0.433576  0.063604  0.436618  1
  Tb  Tb7  1  0.061457  0.438365  0.061907  1
  Tb  Tb8  1  0.433576  0.436618  0.063604  1
  Tb  Tb9  1  0.061457  0.061907  0.438365  1
  Tb  Tb10  1  0.185469  0.811252  0.811252  1
  Nd  Nd11  1  0.810575  0.188853  0.188853  1
  Nd  Nd12  1  0.812423  0.186723  0.812140  1
  Nd  Nd13  1  0.188351  0.810701  0.186337  1
  Nd  Nd14  1  0.812423  0.812140  0.186723  1
  Nd  Nd15  1  0.188351  0.186337  0.810701  1
  Mg  Mg16  1  0.539152  0.820038  0.820038  1
  Ag  Ag17  1  0.834233  0.831753  0.831753  1
  Ag  Ag18  1  0.830520  0.832547  0.505641  1
  Ag  Ag19  1  0.830520  0.505641  0.832547  1
  Rh  Rh20  1  0.390408  0.392807  0.392807  1
  Rh  Rh21  1  0.390345  0.396758  0.821844  1
  Rh  Rh22  1  0.390345  0.821844  0.396758  1
  Rh  Rh23  1  0.822433  0.393259  0.393259  1
