# generated using pymatgen
data_Ce2Dy14Cd3AgIr4
_symmetry_space_group_name_H-M   'P 1'
_cell_length_a   9.63121880
_cell_length_b   9.63121943
_cell_length_c   9.68560295
_cell_angle_alpha   59.88556125
_cell_angle_beta   59.88555981
_cell_angle_gamma   59.77016009
_symmetry_Int_Tables_number   1
_chemical_formula_structural   Ce2Dy14Cd3AgIr4
_chemical_formula_sum   'Ce2 Dy14 Cd3 Ag1 Ir4'
_cell_volume   633.08693463
_cell_formula_units_Z   1
loop_
 _symmetry_equiv_pos_site_id
 _symmetry_equiv_pos_as_xyz
  1  'x, y, z'
loop_
 _atom_site_type_symbol
 _atom_site_label
 _atom_site_symmetry_multiplicity
 _atom_site_fract_x
 _atom_site_fract_y
 _atom_site_fract_z
 _atom_site_occupancy
  Ce  Ce0  1  0.596312  0.596312  0.599069  1
  Ce  Ce1  1  0.597192  0.597192  0.207132  1
  Dy  Dy2  1  0.601822  0.197008  0.601022  1
  Dy  Dy3  1  0.197008  0.601822  0.601022  1
  Dy  Dy4  1  0.061242  0.439522  0.439821  1
  Dy  Dy5  1  0.438356  0.061426  0.059305  1
  Dy  Dy6  1  0.439522  0.061242  0.439821  1
  Dy  Dy7  1  0.061426  0.438356  0.059305  1
  Dy  Dy8  1  0.438330  0.438330  0.062082  1
  Dy  Dy9  1  0.060581  0.060581  0.437658  1
  Dy  Dy10  1  0.186838  0.812462  0.812430  1
  Dy  Dy11  1  0.812326  0.188161  0.185556  1
  Dy  Dy12  1  0.812462  0.186838  0.812430  1
  Dy  Dy13  1  0.188161  0.812326  0.185556  1
  Dy  Dy14  1  0.812566  0.812566  0.186589  1
  Dy  Dy15  1  0.188448  0.188448  0.810458  1
  Cd  Cd16  1  0.831181  0.831181  0.507334  1
  Cd  Cd17  1  0.830514  0.506279  0.831913  1
  Cd  Cd18  1  0.506279  0.830514  0.831913  1
  Ag  Ag19  1  0.832662  0.832662  0.831545  1
  Ir  Ir20  1  0.393372  0.393372  0.391426  1
  Ir  Ir21  1  0.394253  0.394253  0.822949  1
  Ir  Ir22  1  0.396570  0.822577  0.391832  1
  Ir  Ir23  1  0.822577  0.396570  0.391832  1
