# generated using pymatgen
data_Ti9Zn(Sn3Mo)3
_symmetry_space_group_name_H-M   'P 1'
_cell_length_a   9.25074200
_cell_length_b   9.25074200
_cell_length_c   5.56885400
_cell_angle_alpha   90.00000000
_cell_angle_beta   90.00000000
_cell_angle_gamma   120.00000715
_symmetry_Int_Tables_number   1
_chemical_formula_structural   Ti9Zn(Sn3Mo)3
_chemical_formula_sum   'Ti9 Zn1 Sn9 Mo3'
_cell_volume   412.71435061
_cell_formula_units_Z   1
loop_
 _symmetry_equiv_pos_site_id
 _symmetry_equiv_pos_as_xyz
  1  'x, y, z'
loop_
 _atom_site_type_symbol
 _atom_site_label
 _atom_site_symmetry_multiplicity
 _atom_site_fract_x
 _atom_site_fract_y
 _atom_site_fract_z
 _atom_site_occupancy
  Ti  Ti0  1  0.846308  0.692616  0.740283  1
  Ti  Ti1  1  0.153692  0.846308  0.259717  1
  Ti  Ti2  1  0.692616  0.846308  0.259717  1
  Ti  Ti3  1  0.307384  0.153692  0.740283  1
  Ti  Ti4  1  0.846308  0.153692  0.740283  1
  Ti  Ti5  1  0.153692  0.307384  0.259717  1
  Ti  Ti6  1  0.500000  0.500000  0.000000  1
  Ti  Ti7  1  0.000000  0.500000  0.000000  1
  Ti  Ti8  1  0.500000  0.000000  0.000000  1
  Zn  Zn9  1  0.000000  0.000000  0.500000  1
  Sn  Sn10  1  0.202208  0.404416  0.753877  1
  Sn  Sn11  1  0.797792  0.202208  0.246123  1
  Sn  Sn12  1  0.404416  0.202208  0.246123  1
  Sn  Sn13  1  0.595584  0.797792  0.753877  1
  Sn  Sn14  1  0.202208  0.797792  0.753877  1
  Sn  Sn15  1  0.797792  0.595584  0.246123  1
  Sn  Sn16  1  0.666667  0.333333  0.728270  1
  Sn  Sn17  1  0.333333  0.666667  0.271730  1
  Sn  Sn18  1  0.000000  0.000000  0.000000  1
  Mo  Mo19  1  0.500000  0.000000  0.500000  1
  Mo  Mo20  1  0.000000  0.500000  0.500000  1
  Mo  Mo21  1  0.500000  0.500000  0.500000  1
