# generated using pymatgen
data_Pr5Sn2BiBr
_symmetry_space_group_name_H-M   'P 1'
_cell_length_a   9.67813867
_cell_length_b   9.67813825
_cell_length_c   6.80662200
_cell_angle_alpha   90.00000000
_cell_angle_beta   90.00000000
_cell_angle_gamma   120.38517269
_symmetry_Int_Tables_number   1
_chemical_formula_structural   Pr5Sn2BiBr
_chemical_formula_sum   'Pr10 Sn4 Bi2 Br2'
_cell_volume   549.98038457
_cell_formula_units_Z   2
loop_
 _symmetry_equiv_pos_site_id
 _symmetry_equiv_pos_as_xyz
  1  'x, y, z'
loop_
 _atom_site_type_symbol
 _atom_site_label
 _atom_site_symmetry_multiplicity
 _atom_site_fract_x
 _atom_site_fract_y
 _atom_site_fract_z
 _atom_site_occupancy
  Pr  Pr0  1  0.269185  0.995640  0.750000  1
  Pr  Pr1  1  0.730815  0.004360  0.250000  1
  Pr  Pr2  1  0.995640  0.269185  0.750000  1
  Pr  Pr3  1  0.004360  0.730815  0.250000  1
  Pr  Pr4  1  0.734175  0.734175  0.750000  1
  Pr  Pr5  1  0.265825  0.265825  0.250000  1
  Pr  Pr6  1  0.330525  0.669475  0.500000  1
  Pr  Pr7  1  0.669475  0.330525  0.500000  1
  Pr  Pr8  1  0.669475  0.330525  0.000000  1
  Pr  Pr9  1  0.330525  0.669475  0.000000  1
  Sn  Sn10  1  0.614462  0.999475  0.750000  1
  Sn  Sn11  1  0.385538  0.000525  0.250000  1
  Sn  Sn12  1  0.999475  0.614462  0.750000  1
  Sn  Sn13  1  0.000525  0.385538  0.250000  1
  Bi  Bi14  1  0.384224  0.384224  0.750000  1
  Bi  Bi15  1  0.615776  0.615776  0.250000  1
  Br  Br16  1  0.000000  0.000000  0.500000  1
  Br  Br17  1  0.000000  0.000000  0.000000  1
