# generated using pymatgen
data_Y3ErIr3RhO14
_symmetry_space_group_name_H-M   'P 1'
_cell_length_a   7.24312753
_cell_length_b   7.24312816
_cell_length_c   7.24312689
_cell_angle_alpha   60.02104251
_cell_angle_beta   60.02104289
_cell_angle_gamma   60.02103904
_symmetry_Int_Tables_number   1
_chemical_formula_structural   Y3ErIr3RhO14
_chemical_formula_sum   'Y3 Er1 Ir3 Rh1 O14'
_cell_volume   268.82552741
_cell_formula_units_Z   1
loop_
 _symmetry_equiv_pos_site_id
 _symmetry_equiv_pos_as_xyz
  1  'x, y, z'
loop_
 _atom_site_type_symbol
 _atom_site_label
 _atom_site_symmetry_multiplicity
 _atom_site_fract_x
 _atom_site_fract_y
 _atom_site_fract_z
 _atom_site_occupancy
  Y  Y0  1  0.625000  0.125000  0.125000  1
  Y  Y1  1  0.125000  0.625000  0.125000  1
  Y  Y2  1  0.125000  0.125000  0.625000  1
  Er  Er3  1  0.125000  0.125000  0.125000  1
  Ir  Ir4  1  0.125000  0.625000  0.625000  1
  Ir  Ir5  1  0.625000  0.125000  0.625000  1
  Ir  Ir6  1  0.625000  0.625000  0.125000  1
  Rh  Rh7  1  0.625000  0.625000  0.625000  1
  O  O8  1  0.713750  0.713750  0.283664  1
  O  O9  1  0.289390  0.289390  0.715506  1
  O  O10  1  0.713750  0.283664  0.713750  1
  O  O11  1  0.289390  0.715506  0.289390  1
  O  O12  1  0.283664  0.713750  0.713750  1
  O  O13  1  0.715506  0.289390  0.289390  1
  O  O14  1  0.536250  0.536250  0.966336  1
  O  O15  1  0.960610  0.960610  0.534494  1
  O  O16  1  0.536250  0.966336  0.536250  1
  O  O17  1  0.960610  0.534494  0.960610  1
  O  O18  1  0.966336  0.536250  0.536250  1
  O  O19  1  0.534494  0.960610  0.960610  1
  O  O20  1  0.248361  0.248361  0.248361  1
  O  O21  1  0.001639  0.001639  0.001639  1
