# generated using pymatgen
data_TaTi5Al4(RhC)2
_symmetry_space_group_name_H-M   'P 1'
_cell_length_a   8.22203918
_cell_length_b   8.24346202
_cell_length_c   8.22203798
_cell_angle_alpha   59.91378203
_cell_angle_beta   60.17245314
_cell_angle_gamma   59.91377655
_symmetry_Int_Tables_number   1
_chemical_formula_structural   TaTi5Al4(RhC)2
_chemical_formula_sum   'Ta2 Ti10 Al8 Rh4 C4'
_cell_volume   394.04678735
_cell_formula_units_Z   2
loop_
 _symmetry_equiv_pos_site_id
 _symmetry_equiv_pos_as_xyz
  1  'x, y, z'
loop_
 _atom_site_type_symbol
 _atom_site_label
 _atom_site_symmetry_multiplicity
 _atom_site_fract_x
 _atom_site_fract_y
 _atom_site_fract_z
 _atom_site_occupancy
  Ta  Ta0  1  0.685031  0.314969  0.685031  1
  Ta  Ta1  1  0.935031  0.564969  0.935031  1
  Ti  Ti2  1  0.564495  0.935505  0.564495  1
  Ti  Ti3  1  0.315247  0.684286  0.685560  1
  Ti  Ti4  1  0.685560  0.314907  0.315247  1
  Ti  Ti5  1  0.314495  0.685505  0.314495  1
  Ti  Ti6  1  0.685560  0.684286  0.315247  1
  Ti  Ti7  1  0.315247  0.314907  0.685560  1
  Ti  Ti8  1  0.565714  0.564440  0.935093  1
  Ti  Ti9  1  0.935093  0.564440  0.565714  1
  Ti  Ti10  1  0.565714  0.934753  0.935093  1
  Ti  Ti11  1  0.935093  0.934753  0.565714  1
  Al  Al12  1  0.914473  0.917307  0.914473  1
  Al  Al13  1  0.996252  0.335527  0.332693  1
  Al  Al14  1  0.335426  0.994779  0.335426  1
  Al  Al15  1  0.332693  0.335527  0.996252  1
  Al  Al16  1  0.914473  0.253748  0.914473  1
  Al  Al17  1  0.915631  0.914574  0.255221  1
  Al  Al18  1  0.255221  0.914574  0.915631  1
  Al  Al19  1  0.335426  0.334369  0.335426  1
  Rh  Rh20  1  0.124544  0.125625  0.124544  1
  Rh  Rh21  1  0.624713  0.125456  0.124375  1
  Rh  Rh22  1  0.124544  0.625287  0.124544  1
  Rh  Rh23  1  0.124375  0.125456  0.624713  1
  C  C24  1  0.624988  0.627953  0.624988  1
  C  C25  1  0.127929  0.625012  0.622047  1
  C  C26  1  0.624988  0.122071  0.624988  1
  C  C27  1  0.622047  0.625012  0.127929  1
