# generated using pymatgen
data_Tb7(TmIn4)5
_symmetry_space_group_name_H-M   'P 1'
_cell_length_a   6.52866938
_cell_length_b   10.38930543
_cell_length_c   12.21991830
_cell_angle_alpha   90.08741974
_cell_angle_beta   89.96899218
_cell_angle_gamma   89.99518214
_symmetry_Int_Tables_number   1
_chemical_formula_structural   Tb7(TmIn4)5
_chemical_formula_sum   'Tb7 Tm5 In20'
_cell_volume   828.85568659
_cell_formula_units_Z   1
loop_
 _symmetry_equiv_pos_site_id
 _symmetry_equiv_pos_as_xyz
  1  'x, y, z'
loop_
 _atom_site_type_symbol
 _atom_site_label
 _atom_site_symmetry_multiplicity
 _atom_site_fract_x
 _atom_site_fract_y
 _atom_site_fract_z
 _atom_site_occupancy
  Tb  Tb0  1  0.889079  0.509528  0.359362  1
  Tb  Tb1  1  0.610841  0.990262  0.858725  1
  Tb  Tb2  1  0.110755  0.009742  0.641174  1
  Tb  Tb3  1  0.389487  0.490369  0.140231  1
  Tb  Tb4  1  0.110595  0.490438  0.640693  1
  Tb  Tb5  1  0.389426  0.009831  0.140980  1
  Tb  Tb6  1  0.889234  0.990463  0.358918  1
  Tm  Tm7  1  0.851523  0.749874  0.052725  1
  Tm  Tm8  1  0.648307  0.750446  0.552973  1
  Tm  Tm9  1  0.148904  0.249437  0.946976  1
  Tm  Tm10  1  0.351791  0.249863  0.447086  1
  Tm  Tm11  1  0.610218  0.509648  0.859825  1
  In  In12  1  0.873446  0.043191  0.099522  1
  In  In13  1  0.625464  0.457639  0.600896  1
  In  In14  1  0.127060  0.542491  0.899909  1
  In  In15  1  0.373748  0.956648  0.400410  1
  In  In16  1  0.126643  0.956384  0.900197  1
  In  In17  1  0.373930  0.542894  0.400209  1
  In  In18  1  0.873936  0.457205  0.099501  1
  In  In19  1  0.626422  0.043410  0.599649  1
  In  In20  1  0.151346  0.749656  0.242887  1
  In  In21  1  0.348757  0.749296  0.743007  1
  In  In22  1  0.847764  0.251057  0.757486  1
  In  In23  1  0.651571  0.250322  0.257064  1
  In  In24  1  0.386001  0.749690  0.006294  1
  In  In25  1  0.114261  0.750105  0.506170  1
  In  In26  1  0.614480  0.250986  0.992680  1
  In  In27  1  0.885715  0.250213  0.494165  1
  In  In28  1  0.623150  0.749781  0.280434  1
  In  In29  1  0.875995  0.748618  0.780649  1
  In  In30  1  0.377061  0.250217  0.719596  1
  In  In31  1  0.123088  0.250297  0.219607  1
