# generated using pymatgen
data_TbDy3(TiAl3)2
_symmetry_space_group_name_H-M   'P 1'
_cell_length_a   9.52612063
_cell_length_b   9.52612028
_cell_length_c   9.52612070
_cell_angle_alpha   34.86926230
_cell_angle_beta   34.86926384
_cell_angle_gamma   34.86926637
_symmetry_Int_Tables_number   1
_chemical_formula_structural   TbDy3(TiAl3)2
_chemical_formula_sum   'Tb1 Dy3 Ti2 Al6'
_cell_volume   252.22610624
_cell_formula_units_Z   1
loop_
 _symmetry_equiv_pos_site_id
 _symmetry_equiv_pos_as_xyz
  1  'x, y, z'
loop_
 _atom_site_type_symbol
 _atom_site_label
 _atom_site_symmetry_multiplicity
 _atom_site_fract_x
 _atom_site_fract_y
 _atom_site_fract_z
 _atom_site_occupancy
  Tb  Tb0  1  0.813176  0.813176  0.813176  1
  Dy  Dy1  1  0.313271  0.313271  0.313271  1
  Dy  Dy2  1  0.686699  0.686699  0.686699  1
  Dy  Dy3  1  0.186754  0.186754  0.186754  1
  Ti  Ti4  1  0.500026  0.500026  0.500026  1
  Ti  Ti5  1  0.000040  0.000040  0.000040  1
  Al  Al6  1  0.249965  0.249965  0.749834  1
  Al  Al7  1  0.750028  0.750028  0.250215  1
  Al  Al8  1  0.249965  0.749834  0.249965  1
  Al  Al9  1  0.750028  0.250215  0.750028  1
  Al  Al10  1  0.749834  0.249965  0.249965  1
  Al  Al11  1  0.250215  0.750028  0.750028  1
