# generated using pymatgen
data_YHo2AuO7
_symmetry_space_group_name_H-M   'P 1'
_cell_length_a   6.48055539
_cell_length_b   6.48055602
_cell_length_c   7.43196500
_cell_angle_alpha   90.00000000
_cell_angle_beta   90.00000000
_cell_angle_gamma   108.87484920
_symmetry_Int_Tables_number   1
_chemical_formula_structural   YHo2AuO7
_chemical_formula_sum   'Y2 Ho4 Au2 O14'
_cell_volume   295.34097025
_cell_formula_units_Z   2
loop_
 _symmetry_equiv_pos_site_id
 _symmetry_equiv_pos_as_xyz
  1  'x, y, z'
loop_
 _atom_site_type_symbol
 _atom_site_label
 _atom_site_symmetry_multiplicity
 _atom_site_fract_x
 _atom_site_fract_y
 _atom_site_fract_z
 _atom_site_occupancy
  Y  Y0  1  0.500000  0.500000  0.500000  1
  Y  Y1  1  0.500000  0.500000  0.000000  1
  Ho  Ho2  1  0.528766  0.998019  0.750000  1
  Ho  Ho3  1  0.998019  0.528766  0.250000  1
  Ho  Ho4  1  0.471234  0.001981  0.250000  1
  Ho  Ho5  1  0.001981  0.471234  0.750000  1
  Au  Au6  1  0.000000  0.000000  0.500000  1
  Au  Au7  1  0.000000  0.000000  0.000000  1
  O  O8  1  0.669343  0.918673  0.475281  1
  O  O9  1  0.918673  0.669343  0.524719  1
  O  O10  1  0.669343  0.918673  0.024719  1
  O  O11  1  0.918673  0.669343  0.975281  1
  O  O12  1  0.330657  0.081327  0.524719  1
  O  O13  1  0.081327  0.330657  0.475281  1
  O  O14  1  0.330657  0.081327  0.975281  1
  O  O15  1  0.081327  0.330657  0.024719  1
  O  O16  1  0.920131  0.079869  0.750000  1
  O  O17  1  0.079869  0.920131  0.250000  1
  O  O18  1  0.367010  0.632990  0.750000  1
  O  O19  1  0.632990  0.367010  0.250000  1
  O  O20  1  0.639690  0.360310  0.750000  1
  O  O21  1  0.360310  0.639690  0.250000  1
