# generated using pymatgen
data_Ca4La3Co2Ni2Sn13
_symmetry_space_group_name_H-M   'P 1'
_cell_length_a   11.30803554
_cell_length_b   11.31551654
_cell_length_c   4.64594400
_cell_angle_alpha   90.00000000
_cell_angle_beta   90.00000000
_cell_angle_gamma   89.94022623
_symmetry_Int_Tables_number   1
_chemical_formula_structural   Ca4La3Co2Ni2Sn13
_chemical_formula_sum   'Ca4 La3 Co2 Ni2 Sn13'
_cell_volume   594.47730960
_cell_formula_units_Z   1
loop_
 _symmetry_equiv_pos_site_id
 _symmetry_equiv_pos_as_xyz
  1  'x, y, z'
loop_
 _atom_site_type_symbol
 _atom_site_label
 _atom_site_symmetry_multiplicity
 _atom_site_fract_x
 _atom_site_fract_y
 _atom_site_fract_z
 _atom_site_occupancy
  Ca  Ca0  1  0.838011  0.170206  0.000000  1
  Ca  Ca1  1  0.830051  0.838315  0.000000  1
  Ca  Ca2  1  0.161550  0.829479  0.000000  1
  Ca  Ca3  1  0.170972  0.161842  0.000000  1
  La  La4  1  0.500448  0.502327  0.500000  1
  La  La5  1  0.998924  0.500080  0.000000  1
  La  La6  1  0.500415  0.998995  0.000000  1
  Co  Co7  1  0.776732  0.616129  0.500000  1
  Co  Co8  1  0.383429  0.776697  0.500000  1
  Ni  Ni9  1  0.618813  0.221944  0.500000  1
  Ni  Ni10  1  0.221672  0.381410  0.500000  1
  Sn  Sn11  1  0.017936  0.281481  0.500000  1
  Sn  Sn12  1  0.978122  0.714697  0.500000  1
  Sn  Sn13  1  0.216248  0.615944  0.500000  1
  Sn  Sn14  1  0.575426  0.304608  0.000000  1
  Sn  Sn15  1  0.697159  0.578480  0.000000  1
  Sn  Sn16  1  0.784383  0.388251  0.500000  1
  Sn  Sn17  1  0.717753  0.018084  0.500000  1
  Sn  Sn18  1  0.999719  0.000141  0.500000  1
  Sn  Sn19  1  0.284331  0.978345  0.500000  1
  Sn  Sn20  1  0.424040  0.698307  0.000000  1
  Sn  Sn21  1  0.614184  0.782835  0.500000  1
  Sn  Sn22  1  0.303050  0.426691  0.000000  1
  Sn  Sn23  1  0.386633  0.214714  0.500000  1
