# generated using pymatgen
data_Pm4Dy(MoO4)3
_symmetry_space_group_name_H-M   'P 1'
_cell_length_a   5.65095899
_cell_length_b   5.95703862
_cell_length_c   8.21144543
_cell_angle_alpha   90.62773569
_cell_angle_beta   89.70181114
_cell_angle_gamma   89.96870550
_symmetry_Int_Tables_number   1
_chemical_formula_structural   Pm4Dy(MoO4)3
_chemical_formula_sum   'Pm4 Dy1 Mo3 O12'
_cell_volume   276.40134762
_cell_formula_units_Z   1
loop_
 _symmetry_equiv_pos_site_id
 _symmetry_equiv_pos_as_xyz
  1  'x, y, z'
loop_
 _atom_site_type_symbol
 _atom_site_label
 _atom_site_symmetry_multiplicity
 _atom_site_fract_x
 _atom_site_fract_y
 _atom_site_fract_z
 _atom_site_occupancy
  Pm  Pm0  1  0.981492  0.062343  0.256831  1
  Pm  Pm1  1  0.522391  0.559219  0.257431  1
  Pm  Pm2  1  0.477609  0.440781  0.742569  1
  Pm  Pm3  1  0.018507  0.937657  0.743169  1
  Dy  Dy4  1  0.500000  0.000000  0.000000  1
  Mo  Mo5  1  0.000000  0.500001  0.000000  1
  Mo  Mo6  1  0.500000  0.000000  0.500000  1
  Mo  Mo7  1  0.000000  0.500001  0.500000  1
  O  O8  1  0.696104  0.309743  0.074259  1
  O  O9  1  0.816944  0.803292  0.072122  1
  O  O10  1  0.130773  0.440948  0.250526  1
  O  O11  1  0.369342  0.939708  0.256623  1
  O  O12  1  0.690991  0.304422  0.437122  1
  O  O13  1  0.810086  0.803618  0.437775  1
  O  O14  1  0.189915  0.196382  0.562226  1
  O  O15  1  0.309010  0.695578  0.562879  1
  O  O16  1  0.630658  0.060292  0.743377  1
  O  O17  1  0.869228  0.559052  0.749474  1
  O  O18  1  0.183057  0.196708  0.927877  1
  O  O19  1  0.303897  0.690257  0.925740  1
