# generated using pymatgen
data_DyY2Sc17Bi12
_symmetry_space_group_name_H-M   'P 1'
_cell_length_a   7.87324232
_cell_length_b   9.05273300
_cell_length_c   11.53189500
_cell_angle_alpha   90.00000000
_cell_angle_beta   90.01552483
_cell_angle_gamma   90.00000000
_symmetry_Int_Tables_number   1
_chemical_formula_structural   DyY2Sc17Bi12
_chemical_formula_sum   'Dy1 Y2 Sc17 Bi12'
_cell_volume   821.92841267
_cell_formula_units_Z   1
loop_
 _symmetry_equiv_pos_site_id
 _symmetry_equiv_pos_as_xyz
  1  'x, y, z'
loop_
 _atom_site_type_symbol
 _atom_site_label
 _atom_site_symmetry_multiplicity
 _atom_site_fract_x
 _atom_site_fract_y
 _atom_site_fract_z
 _atom_site_occupancy
  Dy  Dy0  1  0.815680  0.250000  0.281150  1
  Y  Y1  1  0.684605  0.750000  0.781172  1
  Y  Y2  1  0.183826  0.750000  0.718641  1
  Sc  Sc3  1  0.348809  0.750000  0.220312  1
  Sc  Sc4  1  0.850957  0.750000  0.278509  1
  Sc  Sc5  1  0.650237  0.250000  0.781724  1
  Sc  Sc6  1  0.151081  0.250000  0.719748  1
  Sc  Sc7  1  0.694894  0.566669  0.061748  1
  Sc  Sc8  1  0.192763  0.933044  0.437655  1
  Sc  Sc9  1  0.306127  0.067239  0.939508  1
  Sc  Sc10  1  0.807187  0.432102  0.561282  1
  Sc  Sc11  1  0.306127  0.432761  0.939508  1
  Sc  Sc12  1  0.807187  0.067898  0.561282  1
  Sc  Sc13  1  0.694894  0.933331  0.061748  1
  Sc  Sc14  1  0.192763  0.566956  0.437655  1
  Sc  Sc15  1  0.480372  0.250000  0.487355  1
  Sc  Sc16  1  0.980685  0.250000  0.012205  1
  Sc  Sc17  1  0.518000  0.750000  0.509682  1
  Sc  Sc18  1  0.019960  0.750000  0.990714  1
  Sc  Sc19  1  0.313824  0.250000  0.217551  1
  Bi  Bi20  1  0.403091  0.750000  0.967080  1
  Bi  Bi21  1  0.901225  0.750000  0.532400  1
  Bi  Bi22  1  0.592229  0.250000  0.037713  1
  Bi  Bi23  1  0.099566  0.250000  0.464814  1
  Bi  Bi24  1  0.560340  0.992442  0.325986  1
  Bi  Bi25  1  0.069443  0.506196  0.172774  1
  Bi  Bi26  1  0.436330  0.489715  0.671571  1
  Bi  Bi27  1  0.935842  0.010435  0.829093  1
  Bi  Bi28  1  0.436330  0.010285  0.671571  1
  Bi  Bi29  1  0.935842  0.489565  0.829093  1
  Bi  Bi30  1  0.560340  0.507558  0.325986  1
  Bi  Bi31  1  0.069443  0.993804  0.172774  1
