# generated using pymatgen
data_Y6Mn4Al3Pt16
_symmetry_space_group_name_H-M   'P 1'
_cell_length_a   8.97547156
_cell_length_b   9.00333086
_cell_length_c   8.97547100
_cell_angle_alpha   59.89727170
_cell_angle_beta   60.20547045
_cell_angle_gamma   59.89727047
_symmetry_Int_Tables_number   1
_chemical_formula_structural   Y6Mn4Al3Pt16
_chemical_formula_sum   'Y6 Mn4 Al3 Pt16'
_cell_volume   512.85475015
_cell_formula_units_Z   1
loop_
 _symmetry_equiv_pos_site_id
 _symmetry_equiv_pos_as_xyz
  1  'x, y, z'
loop_
 _atom_site_type_symbol
 _atom_site_label
 _atom_site_symmetry_multiplicity
 _atom_site_fract_x
 _atom_site_fract_y
 _atom_site_fract_z
 _atom_site_occupancy
  Y  Y0  1  0.710194  0.710194  0.289806  1
  Y  Y1  1  0.287764  0.712236  0.287764  1
  Y  Y2  1  0.710194  0.289806  0.289806  1
  Y  Y3  1  0.289806  0.289806  0.710194  1
  Y  Y4  1  0.712236  0.287764  0.712236  1
  Y  Y5  1  0.289806  0.710194  0.710194  1
  Mn  Mn6  1  0.000000  0.000000  0.500000  1
  Mn  Mn7  1  0.000000  0.500000  0.500000  1
  Mn  Mn8  1  0.500000  0.500000  0.000000  1
  Mn  Mn9  1  0.500000  0.000000  0.000000  1
  Al  Al10  1  0.000000  0.000000  0.000000  1
  Al  Al11  1  0.500000  0.000000  0.500000  1
  Al  Al12  1  0.000000  0.500000  0.000000  1
  Pt  Pt13  1  0.882344  0.881014  0.355630  1
  Pt  Pt14  1  0.881014  0.355630  0.881014  1
  Pt  Pt15  1  0.355630  0.881014  0.882344  1
  Pt  Pt16  1  0.881014  0.882344  0.881014  1
  Pt  Pt17  1  0.117656  0.118986  0.644370  1
  Pt  Pt18  1  0.118986  0.644370  0.118986  1
  Pt  Pt19  1  0.644370  0.118986  0.117656  1
  Pt  Pt20  1  0.118986  0.117656  0.118986  1
  Pt  Pt21  1  0.668577  0.662237  0.006948  1
  Pt  Pt22  1  0.662237  0.006948  0.662237  1
  Pt  Pt23  1  0.006948  0.662237  0.668577  1
  Pt  Pt24  1  0.662237  0.668577  0.662237  1
  Pt  Pt25  1  0.331423  0.337763  0.993052  1
  Pt  Pt26  1  0.337763  0.993052  0.337763  1
  Pt  Pt27  1  0.993052  0.337763  0.331423  1
  Pt  Pt28  1  0.337763  0.331423  0.337763  1
