# generated using pymatgen
data_Gd3Ho(Zn4Ru)2
_symmetry_space_group_name_H-M   'P 1'
_cell_length_a   6.98975200
_cell_length_b   6.98975200
_cell_length_c   5.31603900
_cell_angle_alpha   90.00000000
_cell_angle_beta   90.00000000
_cell_angle_gamma   90.00000000
_symmetry_Int_Tables_number   1
_chemical_formula_structural   Gd3Ho(Zn4Ru)2
_chemical_formula_sum   'Gd3 Ho1 Zn8 Ru2'
_cell_volume   259.72376655
_cell_formula_units_Z   1
loop_
 _symmetry_equiv_pos_site_id
 _symmetry_equiv_pos_as_xyz
  1  'x, y, z'
loop_
 _atom_site_type_symbol
 _atom_site_label
 _atom_site_symmetry_multiplicity
 _atom_site_fract_x
 _atom_site_fract_y
 _atom_site_fract_z
 _atom_site_occupancy
  Gd  Gd0  1  0.000000  0.500000  0.767188  1
  Gd  Gd1  1  0.000000  0.000000  0.000000  1
  Gd  Gd2  1  0.500000  0.000000  0.232812  1
  Ho  Ho3  1  0.500000  0.500000  0.000000  1
  Zn  Zn4  1  0.187887  0.686947  0.289763  1
  Zn  Zn5  1  0.812113  0.686947  0.289763  1
  Zn  Zn6  1  0.812113  0.313053  0.289763  1
  Zn  Zn7  1  0.313053  0.187887  0.710237  1
  Zn  Zn8  1  0.187887  0.313053  0.289763  1
  Zn  Zn9  1  0.686947  0.187887  0.710237  1
  Zn  Zn10  1  0.686947  0.812113  0.710237  1
  Zn  Zn11  1  0.313053  0.812113  0.710237  1
  Ru  Ru12  1  0.500000  0.500000  0.500000  1
  Ru  Ru13  1  0.000000  0.000000  0.500000  1
