# generated using pymatgen
data_CaSi(SnRh2)3
_symmetry_space_group_name_H-M   'P 1'
_cell_length_a   7.53788100
_cell_length_b   7.53788087
_cell_length_c   3.95636900
_cell_angle_alpha   90.00000000
_cell_angle_beta   90.00000000
_cell_angle_gamma   120.00000495
_symmetry_Int_Tables_number   1
_chemical_formula_structural   CaSi(SnRh2)3
_chemical_formula_sum   'Ca1 Si1 Sn3 Rh6'
_cell_volume   194.68206624
_cell_formula_units_Z   1
loop_
 _symmetry_equiv_pos_site_id
 _symmetry_equiv_pos_as_xyz
  1  'x, y, z'
loop_
 _atom_site_type_symbol
 _atom_site_label
 _atom_site_symmetry_multiplicity
 _atom_site_fract_x
 _atom_site_fract_y
 _atom_site_fract_z
 _atom_site_occupancy
  Ca  Ca0  1  0.000000  0.000000  0.000000  1
  Si  Si1  1  0.333333  0.666667  0.000000  1
  Sn  Sn2  1  0.805658  0.194342  0.500000  1
  Sn  Sn3  1  0.388682  0.194342  0.500000  1
  Sn  Sn4  1  0.805658  0.611318  0.500000  1
  Rh  Rh5  1  0.209990  0.790010  0.500000  1
  Rh  Rh6  1  0.209990  0.419981  0.500000  1
  Rh  Rh7  1  0.521828  0.043657  0.000000  1
  Rh  Rh8  1  0.956343  0.478172  0.000000  1
  Rh  Rh9  1  0.521828  0.478172  0.000000  1
  Rh  Rh10  1  0.580019  0.790010  0.500000  1
