# generated using pymatgen
data_Y10Ir3Ru2Au
_symmetry_space_group_name_H-M   'P 1'
_cell_length_a   11.00151199
_cell_length_b   10.93558000
_cell_length_c   6.47676020
_cell_angle_alpha   90.00000000
_cell_angle_beta   89.93071893
_cell_angle_gamma   90.00000000
_symmetry_Int_Tables_number   1
_chemical_formula_structural   Y10Ir3Ru2Au
_chemical_formula_sum   'Y20 Ir6 Ru4 Au2'
_cell_volume   779.20494217
_cell_formula_units_Z   2
loop_
 _symmetry_equiv_pos_site_id
 _symmetry_equiv_pos_as_xyz
  1  'x, y, z'
loop_
 _atom_site_type_symbol
 _atom_site_label
 _atom_site_symmetry_multiplicity
 _atom_site_fract_x
 _atom_site_fract_y
 _atom_site_fract_z
 _atom_site_occupancy
  Y  Y0  1  0.294134  0.087351  0.377183  1
  Y  Y1  1  0.294134  0.912649  0.877183  1
  Y  Y2  1  0.697702  0.091014  0.868765  1
  Y  Y3  1  0.697702  0.908986  0.368765  1
  Y  Y4  1  0.578103  0.792063  0.880298  1
  Y  Y5  1  0.578103  0.207937  0.380298  1
  Y  Y6  1  0.410384  0.792835  0.380204  1
  Y  Y7  1  0.410384  0.207165  0.880204  1
  Y  Y8  1  0.207525  0.412243  0.619361  1
  Y  Y9  1  0.207525  0.587757  0.119361  1
  Y  Y10  1  0.792205  0.420323  0.119855  1
  Y  Y11  1  0.792205  0.579677  0.619855  1
  Y  Y12  1  0.917666  0.702953  0.133990  1
  Y  Y13  1  0.917666  0.297047  0.633990  1
  Y  Y14  1  0.094388  0.702083  0.619654  1
  Y  Y15  1  0.094388  0.297917  0.119654  1
  Y  Y16  1  0.009219  0.999015  0.500413  1
  Y  Y17  1  0.009219  0.000985  0.000413  1
  Y  Y18  1  0.499360  0.499472  0.000566  1
  Y  Y19  1  0.499360  0.500528  0.500566  1
  Ir  Ir20  1  0.152429  0.152995  0.749439  1
  Ir  Ir21  1  0.152429  0.847005  0.249439  1
  Ir  Ir22  1  0.653587  0.346818  0.749047  1
  Ir  Ir23  1  0.653587  0.653182  0.249047  1
  Ir  Ir24  1  0.347760  0.347160  0.250668  1
  Ir  Ir25  1  0.347760  0.652840  0.750668  1
  Ru  Ru26  1  0.500988  0.999855  0.125587  1
  Ru  Ru27  1  0.500988  0.000145  0.625587  1
  Ru  Ru28  1  0.999533  0.500319  0.874332  1
  Ru  Ru29  1  0.999533  0.499681  0.374332  1
  Au  Au30  1  0.845017  0.154317  0.250638  1
  Au  Au31  1  0.845017  0.845683  0.750638  1
