# generated using pymatgen
data_EuZnHgPd3
_symmetry_space_group_name_H-M   'P 1'
_cell_length_a   5.55864579
_cell_length_b   5.55864575
_cell_length_c   5.23323100
_cell_angle_alpha   57.92078554
_cell_angle_beta   57.92078586
_cell_angle_gamma   59.99999534
_symmetry_Int_Tables_number   1
_chemical_formula_structural   EuZnHgPd3
_chemical_formula_sum   'Eu1 Zn1 Hg1 Pd3'
_cell_volume   110.61243510
_cell_formula_units_Z   1
loop_
 _symmetry_equiv_pos_site_id
 _symmetry_equiv_pos_as_xyz
  1  'x, y, z'
loop_
 _atom_site_type_symbol
 _atom_site_label
 _atom_site_symmetry_multiplicity
 _atom_site_fract_x
 _atom_site_fract_y
 _atom_site_fract_z
 _atom_site_occupancy
  Eu  Eu0  1  0.248058  0.248058  0.255825  1
  Zn  Zn1  1  0.626268  0.626268  0.121194  1
  Hg  Hg2  1  0.996469  0.996469  0.010594  1
  Pd  Pd3  1  0.627227  0.124751  0.620796  1
  Pd  Pd4  1  0.124751  0.627227  0.620796  1
  Pd  Pd5  1  0.627227  0.627227  0.620796  1
