# generated using pymatgen
data_Ta2NbMo(PO4)6
_symmetry_space_group_name_H-M   'P 1'
_cell_length_a   8.81299018
_cell_length_b   9.08413701
_cell_length_c   8.81292300
_cell_angle_alpha   89.99672876
_cell_angle_beta   59.99907194
_cell_angle_gamma   119.01470192
_symmetry_Int_Tables_number   1
_chemical_formula_structural   Ta2NbMo(PO4)6
_chemical_formula_sum   'Ta2 Nb1 Mo1 P6 O24'
_cell_volume   506.17901212
_cell_formula_units_Z   1
loop_
 _symmetry_equiv_pos_site_id
 _symmetry_equiv_pos_as_xyz
  1  'x, y, z'
loop_
 _atom_site_type_symbol
 _atom_site_label
 _atom_site_symmetry_multiplicity
 _atom_site_fract_x
 _atom_site_fract_y
 _atom_site_fract_z
 _atom_site_occupancy
  Ta  Ta0  1  0.284224  0.426213  0.857884  1
  Ta  Ta1  1  0.714118  0.571106  0.142888  1
  Nb  Nb2  1  0.283546  0.925190  0.358219  1
  Mo  Mo3  1  0.715611  0.073365  0.642126  1
  P  P4  1  0.783641  0.750701  0.750379  1
  P  P5  1  0.493846  0.249672  0.535712  1
  P  P6  1  0.501303  0.750778  0.465865  1
  P  P7  1  0.220225  0.249776  0.244071  1
  P  P8  1  0.785509  0.249723  0.970378  1
  P  P9  1  0.216782  0.750743  0.032758  1
  O  O10  1  0.657641  0.914280  0.476304  1
  O  O11  1  0.000272  0.711426  0.087237  1
  O  O12  1  0.221634  0.584302  0.001353  1
  O  O13  1  0.224701  0.777461  0.204493  1
  O  O14  1  0.987395  0.276955  0.943857  1
  O  O15  1  0.787907  0.415819  0.013009  1
  O  O16  1  0.788623  0.236685  0.799652  1
  O  O17  1  0.798946  0.711617  0.912387  1
  O  O18  1  0.982036  0.777327  0.570726  1
  O  O19  1  0.648611  0.236884  0.551774  1
  O  O20  1  0.780082  0.914069  0.743297  1
  O  O21  1  0.585741  0.584160  0.777121  1
  O  O22  1  0.590768  0.084138  0.144447  1
  O  O23  1  0.614683  0.415696  0.372016  1
  O  O24  1  0.220753  0.276783  0.068767  1
  O  O25  1  0.345648  0.276834  0.710399  1
  O  O26  1  0.624176  0.711568  0.288646  1
  O  O27  1  0.349022  0.083969  0.506632  1
  O  O28  1  0.390623  0.914138  0.865822  1
  O  O29  1  0.361587  0.584353  0.637141  1
  O  O30  1  0.228735  0.084228  0.264889  1
  O  O31  1  0.429010  0.415968  0.198817  1
  O  O32  1  0.348203  0.777258  0.447107  1
  O  O33  1  0.036528  0.236819  0.411697  1
