# generated using pymatgen
data_Tb9CeAl2(ZnRu3)2
_symmetry_space_group_name_H-M   'P 1'
_cell_length_a   8.45590930
_cell_length_b   8.31057319
_cell_length_c   8.25568621
_cell_angle_alpha   108.38512481
_cell_angle_beta   110.16069260
_cell_angle_gamma   109.53018918
_symmetry_Int_Tables_number   1
_chemical_formula_structural   Tb9CeAl2(ZnRu3)2
_chemical_formula_sum   'Tb9 Ce1 Al2 Zn2 Ru6'
_cell_volume   448.37241115
_cell_formula_units_Z   1
loop_
 _symmetry_equiv_pos_site_id
 _symmetry_equiv_pos_as_xyz
  1  'x, y, z'
loop_
 _atom_site_type_symbol
 _atom_site_label
 _atom_site_symmetry_multiplicity
 _atom_site_fract_x
 _atom_site_fract_y
 _atom_site_fract_z
 _atom_site_occupancy
  Tb  Tb0  1  0.747537  0.815596  0.063008  1
  Tb  Tb1  1  0.435369  0.254788  0.687162  1
  Tb  Tb2  1  0.680969  0.433034  0.249616  1
  Tb  Tb3  1  0.064845  0.750463  0.818593  1
  Tb  Tb4  1  0.819111  0.067252  0.751331  1
  Tb  Tb5  1  0.221698  0.220994  0.224148  1
  Tb  Tb6  1  0.506032  0.002072  0.281821  1
  Tb  Tb7  1  0.279025  0.501740  0.997996  1
  Tb  Tb8  1  0.993581  0.277032  0.496127  1
  Ce  Ce9  1  0.252321  0.691982  0.447851  1
  Al  Al10  1  0.907434  0.494728  0.001754  1
  Al  Al11  1  0.998873  0.909986  0.501539  1
  Zn  Zn12  1  0.594761  0.589999  0.585435  1
  Zn  Zn13  1  0.500073  0.008192  0.917841  1
  Ru  Ru14  1  0.242554  0.127439  0.873954  1
  Ru  Ru15  1  0.752618  0.370973  0.629111  1
  Ru  Ru16  1  0.876622  0.245462  0.125678  1
  Ru  Ru17  1  0.134638  0.856980  0.264446  1
  Ru  Ru18  1  0.633111  0.755938  0.364520  1
  Ru  Ru19  1  0.358827  0.625353  0.718069  1
