# generated using pymatgen
data_PrDy2Tm5(CdIr)2
_symmetry_space_group_name_H-M   'P 1'
_cell_length_a   9.60104982
_cell_length_b   9.62806309
_cell_length_c   9.62806279
_cell_angle_alpha   59.81446858
_cell_angle_beta   60.09276545
_cell_angle_gamma   60.09276928
_symmetry_Int_Tables_number   1
_chemical_formula_structural   PrDy2Tm5(CdIr)2
_chemical_formula_sum   'Pr2 Dy4 Tm10 Cd4 Ir4'
_cell_volume   629.32467438
_cell_formula_units_Z   2
loop_
 _symmetry_equiv_pos_site_id
 _symmetry_equiv_pos_as_xyz
  1  'x, y, z'
loop_
 _atom_site_type_symbol
 _atom_site_label
 _atom_site_symmetry_multiplicity
 _atom_site_fract_x
 _atom_site_fract_y
 _atom_site_fract_z
 _atom_site_occupancy
  Pr  Pr0  1  0.184202  0.815798  0.815798  1
  Pr  Pr1  1  0.815798  0.184202  0.184202  1
  Dy  Dy2  1  0.806083  0.193917  0.806083  1
  Dy  Dy3  1  0.193917  0.806083  0.193917  1
  Dy  Dy4  1  0.806083  0.806083  0.193917  1
  Dy  Dy5  1  0.193917  0.193917  0.806083  1
  Tm  Tm6  1  0.594521  0.599482  0.599482  1
  Tm  Tm7  1  0.599482  0.594521  0.206517  1
  Tm  Tm8  1  0.599482  0.206517  0.594521  1
  Tm  Tm9  1  0.206517  0.599482  0.599482  1
  Tm  Tm10  1  0.060286  0.439714  0.439714  1
  Tm  Tm11  1  0.439714  0.060286  0.060286  1
  Tm  Tm12  1  0.437582  0.062418  0.437582  1
  Tm  Tm13  1  0.062418  0.437582  0.062418  1
  Tm  Tm14  1  0.437582  0.437582  0.062418  1
  Tm  Tm15  1  0.062418  0.062418  0.437582  1
  Cd  Cd16  1  0.826819  0.831754  0.831754  1
  Cd  Cd17  1  0.831754  0.826819  0.509672  1
  Cd  Cd18  1  0.831754  0.509672  0.826819  1
  Cd  Cd19  1  0.509672  0.831754  0.831754  1
  Ir  Ir20  1  0.386732  0.393755  0.393755  1
  Ir  Ir21  1  0.393755  0.386732  0.825759  1
  Ir  Ir22  1  0.393755  0.825759  0.386732  1
  Ir  Ir23  1  0.825759  0.393755  0.393755  1
