# generated using pymatgen
data_Lu4Ga5SiIr7
_symmetry_space_group_name_H-M   'P 1'
_cell_length_a   7.20796890
_cell_length_b   7.20796868
_cell_length_c   7.20796843
_cell_angle_alpha   109.74136906
_cell_angle_beta   109.33631590
_cell_angle_gamma   109.33631873
_symmetry_Int_Tables_number   1
_chemical_formula_structural   Lu4Ga5SiIr7
_chemical_formula_sum   'Lu4 Ga5 Si1 Ir7'
_cell_volume   288.27668286
_cell_formula_units_Z   1
loop_
 _symmetry_equiv_pos_site_id
 _symmetry_equiv_pos_as_xyz
  1  'x, y, z'
loop_
 _atom_site_type_symbol
 _atom_site_label
 _atom_site_symmetry_multiplicity
 _atom_site_fract_x
 _atom_site_fract_y
 _atom_site_fract_z
 _atom_site_occupancy
  Lu  Lu0  1  0.000000  0.998900  0.518379  1
  Lu  Lu1  1  0.000000  0.518379  0.998900  1
  Lu  Lu2  1  0.480521  0.998900  0.998900  1
  Lu  Lu3  1  0.519479  0.518379  0.518379  1
  Ga  Ga4  1  0.688003  0.696929  0.008924  1
  Ga  Ga5  1  0.311997  0.008924  0.320921  1
  Ga  Ga6  1  0.000000  0.295748  0.295748  1
  Ga  Ga7  1  0.311997  0.320921  0.008924  1
  Ga  Ga8  1  0.688003  0.008924  0.696929  1
  Si  Si9  1  0.000000  0.663980  0.663980  1
  Ir  Ir10  1  0.752153  0.251194  0.499041  1
  Ir  Ir11  1  0.752153  0.499041  0.251194  1
  Ir  Ir12  1  0.500000  0.255472  0.755472  1
  Ir  Ir13  1  0.247847  0.499041  0.746889  1
  Ir  Ir14  1  0.247847  0.746889  0.499041  1
  Ir  Ir15  1  0.500000  0.755472  0.255472  1
  Ir  Ir16  1  0.000000  0.962907  0.962907  1
