# generated using pymatgen
data_Th3Fe2Co7P6
_symmetry_space_group_name_H-M   'P 1'
_cell_length_a   3.81898700
_cell_length_b   10.64164100
_cell_length_c   12.40819200
_cell_angle_alpha   90.00000000
_cell_angle_beta   90.00000000
_cell_angle_gamma   90.00000000
_symmetry_Int_Tables_number   1
_chemical_formula_structural   Th3Fe2Co7P6
_chemical_formula_sum   'Th6 Fe4 Co14 P12'
_cell_volume   504.27250435
_cell_formula_units_Z   2
loop_
 _symmetry_equiv_pos_site_id
 _symmetry_equiv_pos_as_xyz
  1  'x, y, z'
loop_
 _atom_site_type_symbol
 _atom_site_label
 _atom_site_symmetry_multiplicity
 _atom_site_fract_x
 _atom_site_fract_y
 _atom_site_fract_z
 _atom_site_occupancy
  Th  Th0  1  0.000000  0.500000  0.519887  1
  Th  Th1  1  0.500000  0.000000  0.480113  1
  Th  Th2  1  0.500000  0.816923  0.205917  1
  Th  Th3  1  0.500000  0.183077  0.205917  1
  Th  Th4  1  0.000000  0.683077  0.794083  1
  Th  Th5  1  0.000000  0.316923  0.794083  1
  Fe  Fe6  1  0.500000  0.500000  0.153212  1
  Fe  Fe7  1  0.000000  0.000000  0.846788  1
  Fe  Fe8  1  0.000000  0.500000  0.986271  1
  Fe  Fe9  1  0.500000  0.000000  0.013729  1
  Co  Co10  1  0.500000  0.500000  0.702978  1
  Co  Co11  1  0.000000  0.000000  0.297022  1
  Co  Co12  1  0.500000  0.332576  0.995740  1
  Co  Co13  1  0.500000  0.667424  0.995740  1
  Co  Co14  1  0.000000  0.167424  0.004260  1
  Co  Co15  1  0.000000  0.832576  0.004260  1
  Co  Co16  1  0.500000  0.300816  0.427829  1
  Co  Co17  1  0.500000  0.699184  0.427829  1
  Co  Co18  1  0.000000  0.199184  0.572171  1
  Co  Co19  1  0.000000  0.800816  0.572171  1
  Co  Co20  1  0.500000  0.880610  0.714266  1
  Co  Co21  1  0.500000  0.119390  0.714266  1
  Co  Co22  1  0.000000  0.619390  0.285734  1
  Co  Co23  1  0.000000  0.380610  0.285734  1
  P  P24  1  0.500000  0.500000  0.888181  1
  P  P25  1  0.000000  0.000000  0.111819  1
  P  P26  1  0.500000  0.500000  0.335424  1
  P  P27  1  0.000000  0.000000  0.664576  1
  P  P28  1  0.500000  0.304459  0.612134  1
  P  P29  1  0.500000  0.695541  0.612134  1
  P  P30  1  0.000000  0.195541  0.387866  1
  P  P31  1  0.000000  0.804459  0.387866  1
  P  P32  1  0.500000  0.849710  0.897655  1
  P  P33  1  0.500000  0.150290  0.897655  1
  P  P34  1  0.000000  0.650290  0.102345  1
  P  P35  1  0.000000  0.349710  0.102345  1
