# generated using pymatgen
data_TmSiPtRh
_symmetry_space_group_name_H-M   'P 1'
_cell_length_a   9.18995800
_cell_length_b   9.18995879
_cell_length_c   4.08715200
_cell_angle_alpha   90.00000000
_cell_angle_beta   90.00000000
_cell_angle_gamma   155.34532672
_symmetry_Int_Tables_number   1
_chemical_formula_structural   TmSiPtRh
_chemical_formula_sum   'Tm2 Si2 Pt2 Rh2'
_cell_volume   143.99197091
_cell_formula_units_Z   2
loop_
 _symmetry_equiv_pos_site_id
 _symmetry_equiv_pos_as_xyz
  1  'x, y, z'
loop_
 _atom_site_type_symbol
 _atom_site_label
 _atom_site_symmetry_multiplicity
 _atom_site_fract_x
 _atom_site_fract_y
 _atom_site_fract_z
 _atom_site_occupancy
  Tm  Tm0  1  0.103204  0.896796  0.750000  1
  Tm  Tm1  1  0.896796  0.103204  0.250000  1
  Si  Si2  1  0.321694  0.678306  0.750000  1
  Si  Si3  1  0.678306  0.321694  0.250000  1
  Pt  Pt4  1  0.548169  0.451831  0.250000  1
  Pt  Pt5  1  0.451831  0.548169  0.750000  1
  Rh  Rh6  1  0.250980  0.749020  0.250000  1
  Rh  Rh7  1  0.749020  0.250980  0.750000  1
