# generated using pymatgen
data_Ho16In4CoNi3
_symmetry_space_group_name_H-M   'P 1'
_cell_length_a   9.54791343
_cell_length_b   9.54791329
_cell_length_c   9.55718625
_cell_angle_alpha   60.03209573
_cell_angle_beta   60.03209305
_cell_angle_gamma   60.00000480
_symmetry_Int_Tables_number   1
_chemical_formula_structural   Ho16In4CoNi3
_chemical_formula_sum   'Ho16 In4 Co1 Ni3'
_cell_volume   616.37145131
_cell_formula_units_Z   1
loop_
 _symmetry_equiv_pos_site_id
 _symmetry_equiv_pos_as_xyz
  1  'x, y, z'
loop_
 _atom_site_type_symbol
 _atom_site_label
 _atom_site_symmetry_multiplicity
 _atom_site_fract_x
 _atom_site_fract_y
 _atom_site_fract_z
 _atom_site_occupancy
  Ho  Ho0  1  0.938492  0.938492  0.562913  1
  Ho  Ho1  1  0.811441  0.188624  0.188494  1
  Ho  Ho2  1  0.938492  0.560104  0.562913  1
  Ho  Ho3  1  0.937353  0.562337  0.937974  1
  Ho  Ho4  1  0.811441  0.811441  0.188494  1
  Ho  Ho5  1  0.345236  0.345236  0.349831  1
  Ho  Ho6  1  0.562337  0.937353  0.937974  1
  Ho  Ho7  1  0.560104  0.938492  0.562913  1
  Ho  Ho8  1  0.188032  0.815430  0.808506  1
  Ho  Ho9  1  0.188032  0.188032  0.808506  1
  Ho  Ho10  1  0.347188  0.347188  0.958438  1
  Ho  Ho11  1  0.345236  0.959698  0.349831  1
  Ho  Ho12  1  0.815430  0.188032  0.808506  1
  Ho  Ho13  1  0.562337  0.562337  0.937974  1
  Ho  Ho14  1  0.188624  0.811441  0.188494  1
  Ho  Ho15  1  0.959698  0.345236  0.349831  1
  In  In16  1  0.582605  0.582605  0.252186  1
  In  In17  1  0.253046  0.582187  0.582582  1
  In  In18  1  0.582187  0.582187  0.582582  1
  In  In19  1  0.582187  0.253046  0.582582  1
  Co  Co20  1  0.141651  0.141651  0.575049  1
  Ni  Ni21  1  0.575508  0.141674  0.141145  1
  Ni  Ni22  1  0.141674  0.141674  0.141145  1
  Ni  Ni23  1  0.141674  0.575508  0.141145  1
