# generated using pymatgen
data_Y2Al9Ir2Pt
_symmetry_space_group_name_H-M   'P 1'
_cell_length_a   7.57279980
_cell_length_b   7.57280008
_cell_length_c   9.46408836
_cell_angle_alpha   89.95157528
_cell_angle_beta   89.95157524
_cell_angle_gamma   119.64125283
_symmetry_Int_Tables_number   1
_chemical_formula_structural   Y2Al9Ir2Pt
_chemical_formula_sum   'Y4 Al18 Ir4 Pt2'
_cell_volume   471.71578740
_cell_formula_units_Z   2
loop_
 _symmetry_equiv_pos_site_id
 _symmetry_equiv_pos_as_xyz
  1  'x, y, z'
loop_
 _atom_site_type_symbol
 _atom_site_label
 _atom_site_symmetry_multiplicity
 _atom_site_fract_x
 _atom_site_fract_y
 _atom_site_fract_z
 _atom_site_occupancy
  Y  Y0  1  0.995029  0.670489  0.251020  1
  Y  Y1  1  0.004971  0.329511  0.748980  1
  Y  Y2  1  0.670489  0.995029  0.251020  1
  Y  Y3  1  0.329511  0.004971  0.748980  1
  Al  Al4  1  0.127720  0.127720  0.250670  1
  Al  Al5  1  0.872280  0.872280  0.749330  1
  Al  Al6  1  0.000556  0.331251  0.077162  1
  Al  Al7  1  0.999444  0.668749  0.922838  1
  Al  Al8  1  0.999884  0.665112  0.574036  1
  Al  Al9  1  0.334888  0.000116  0.425964  1
  Al  Al10  1  0.000116  0.334888  0.425964  1
  Al  Al11  1  0.665112  0.999884  0.574036  1
  Al  Al12  1  0.668749  0.999444  0.922838  1
  Al  Al13  1  0.331251  0.000556  0.077162  1
  Al  Al14  1  0.332681  0.332681  0.551649  1
  Al  Al15  1  0.667319  0.667319  0.448351  1
  Al  Al16  1  0.669217  0.669217  0.056692  1
  Al  Al17  1  0.330783  0.330783  0.943308  1
  Al  Al18  1  0.340251  0.546857  0.253112  1
  Al  Al19  1  0.659749  0.453143  0.746888  1
  Al  Al20  1  0.546857  0.340251  0.253112  1
  Al  Al21  1  0.453143  0.659749  0.746888  1
  Ir  Ir22  1  0.328166  0.671834  0.500000  1
  Ir  Ir23  1  0.671834  0.328166  0.500000  1
  Ir  Ir24  1  0.000000  0.000000  0.000000  1
  Ir  Ir25  1  0.000000  0.000000  0.500000  1
  Pt  Pt26  1  0.671908  0.328092  0.000000  1
  Pt  Pt27  1  0.328092  0.671908  0.000000  1
