# generated using pymatgen
data_Th2PdS4
_symmetry_space_group_name_H-M   'P 1'
_cell_length_a   8.71465539
_cell_length_b   8.02284551
_cell_length_c   7.01408168
_cell_angle_alpha   70.47319362
_cell_angle_beta   60.18858481
_cell_angle_gamma   49.33821486
_symmetry_Int_Tables_number   1
_chemical_formula_structural   Th2PdS4
_chemical_formula_sum   'Th4 Pd2 S8'
_cell_volume   322.73354767
_cell_formula_units_Z   2
loop_
 _symmetry_equiv_pos_site_id
 _symmetry_equiv_pos_as_xyz
  1  'x, y, z'
loop_
 _atom_site_type_symbol
 _atom_site_label
 _atom_site_symmetry_multiplicity
 _atom_site_fract_x
 _atom_site_fract_y
 _atom_site_fract_z
 _atom_site_occupancy
  Th  Th0  1  0.413836  0.530529  0.179840  1
  Th  Th1  1  0.875795  0.179840  0.530529  1
  Th  Th2  1  0.070160  0.374205  0.836164  1
  Th  Th3  1  0.719471  0.836164  0.374205  1
  Pd  Pd4  1  0.247403  0.252597  0.252597  1
  Pd  Pd5  1  0.997403  0.002597  0.002597  1
  S  S6  1  0.701565  0.550498  0.241816  1
  S  S7  1  0.506121  0.241816  0.550498  1
  S  S8  1  0.008184  0.743879  0.548435  1
  S  S9  1  0.699502  0.548435  0.743879  1
  S  S10  1  0.133966  0.582627  0.029691  1
  S  S11  1  0.253716  0.029691  0.582627  1
  S  S12  1  0.667373  0.116034  0.996284  1
  S  S13  1  0.220309  0.996284  0.116034  1
