# generated using pymatgen
data_La2Yb(DySi2)2
_symmetry_space_group_name_H-M   'P 1'
_cell_length_a   7.55470700
_cell_length_b   7.91801100
_cell_length_c   15.02131800
_cell_angle_alpha   90.00000000
_cell_angle_beta   90.00000000
_cell_angle_gamma   90.00000000
_symmetry_Int_Tables_number   1
_chemical_formula_structural   La2Yb(DySi2)2
_chemical_formula_sum   'La8 Yb4 Dy8 Si16'
_cell_volume   898.54900244
_cell_formula_units_Z   4
loop_
 _symmetry_equiv_pos_site_id
 _symmetry_equiv_pos_as_xyz
  1  'x, y, z'
loop_
 _atom_site_type_symbol
 _atom_site_label
 _atom_site_symmetry_multiplicity
 _atom_site_fract_x
 _atom_site_fract_y
 _atom_site_fract_z
 _atom_site_occupancy
  La  La0  1  0.969941  0.818677  0.400598  1
  La  La1  1  0.469941  0.681323  0.099402  1
  La  La2  1  0.530059  0.318677  0.599402  1
  La  La3  1  0.030059  0.181323  0.900598  1
  La  La4  1  0.030059  0.181323  0.599402  1
  La  La5  1  0.530059  0.318677  0.900598  1
  La  La6  1  0.469941  0.681323  0.400598  1
  La  La7  1  0.969941  0.818677  0.099402  1
  Yb  Yb8  1  0.354180  0.012840  0.750000  1
  Yb  Yb9  1  0.854180  0.487160  0.750000  1
  Yb  Yb10  1  0.145820  0.512840  0.250000  1
  Yb  Yb11  1  0.645820  0.987160  0.250000  1
  Dy  Dy12  1  0.316752  0.181458  0.123064  1
  Dy  Dy13  1  0.816752  0.318542  0.376936  1
  Dy  Dy14  1  0.183248  0.681458  0.876936  1
  Dy  Dy15  1  0.683248  0.818542  0.623064  1
  Dy  Dy16  1  0.316752  0.181458  0.376936  1
  Dy  Dy17  1  0.816752  0.318542  0.123064  1
  Dy  Dy18  1  0.183248  0.681458  0.623064  1
  Dy  Dy19  1  0.683248  0.818542  0.876936  1
  Si  Si20  1  0.856227  0.531500  0.536080  1
  Si  Si21  1  0.356227  0.968500  0.963920  1
  Si  Si22  1  0.643773  0.031500  0.463920  1
  Si  Si23  1  0.143773  0.468500  0.036080  1
  Si  Si24  1  0.143773  0.468500  0.463920  1
  Si  Si25  1  0.643773  0.031500  0.036080  1
  Si  Si26  1  0.356227  0.968500  0.536080  1
  Si  Si27  1  0.856227  0.531500  0.963920  1
  Si  Si28  1  0.975950  0.888149  0.750000  1
  Si  Si29  1  0.475950  0.611851  0.750000  1
  Si  Si30  1  0.524050  0.388149  0.250000  1
  Si  Si31  1  0.024050  0.111851  0.250000  1
  Si  Si32  1  0.242909  0.392784  0.750000  1
  Si  Si33  1  0.742909  0.107216  0.750000  1
  Si  Si34  1  0.257091  0.892784  0.250000  1
  Si  Si35  1  0.757091  0.607216  0.250000  1
