# generated using pymatgen
data_DyHoPa2(ZnRh)4
_symmetry_space_group_name_H-M   'P 1'
_cell_length_a   3.81707900
_cell_length_b   7.14395473
_cell_length_c   8.40065736
_cell_angle_alpha   91.82206075
_cell_angle_beta   90.00000000
_cell_angle_gamma   90.00000000
_symmetry_Int_Tables_number   1
_chemical_formula_structural   DyHoPa2(ZnRh)4
_chemical_formula_sum   'Dy1 Ho1 Pa2 Zn4 Rh4'
_cell_volume   228.96203428
_cell_formula_units_Z   1
loop_
 _symmetry_equiv_pos_site_id
 _symmetry_equiv_pos_as_xyz
  1  'x, y, z'
loop_
 _atom_site_type_symbol
 _atom_site_label
 _atom_site_symmetry_multiplicity
 _atom_site_fract_x
 _atom_site_fract_y
 _atom_site_fract_z
 _atom_site_occupancy
  Dy  Dy0  1  0.250000  0.058372  0.315206  1
  Ho  Ho1  1  0.750000  0.941476  0.685312  1
  Pa  Pa2  1  0.250000  0.553035  0.189739  1
  Pa  Pa3  1  0.750000  0.446997  0.810206  1
  Zn  Zn4  1  0.250000  0.114554  0.938551  1
  Zn  Zn5  1  0.750000  0.884946  0.061080  1
  Zn  Zn6  1  0.250000  0.629906  0.559006  1
  Zn  Zn7  1  0.750000  0.370724  0.441347  1
  Rh  Rh8  1  0.750000  0.747279  0.356009  1
  Rh  Rh9  1  0.250000  0.252370  0.644174  1
  Rh  Rh10  1  0.750000  0.284396  0.120262  1
  Rh  Rh11  1  0.250000  0.715944  0.879110  1
