# generated using pymatgen
data_Cs6DyLu3Br18
_symmetry_space_group_name_H-M   'P 1'
_cell_length_a   10.41580756
_cell_length_b   10.41580720
_cell_length_c   10.41580740
_cell_angle_alpha   83.14307544
_cell_angle_beta   83.14307580
_cell_angle_gamma   83.14308601
_symmetry_Int_Tables_number   1
_chemical_formula_structural   Cs6DyLu3Br18
_chemical_formula_sum   'Cs6 Dy1 Lu3 Br18'
_cell_volume   1107.54013181
_cell_formula_units_Z   1
loop_
 _symmetry_equiv_pos_site_id
 _symmetry_equiv_pos_as_xyz
  1  'x, y, z'
loop_
 _atom_site_type_symbol
 _atom_site_label
 _atom_site_symmetry_multiplicity
 _atom_site_fract_x
 _atom_site_fract_y
 _atom_site_fract_z
 _atom_site_occupancy
  Cs  Cs0  1  0.588259  0.911870  0.249677  1
  Cs  Cs1  1  0.249677  0.588259  0.911870  1
  Cs  Cs2  1  0.911870  0.249677  0.588259  1
  Cs  Cs3  1  0.750056  0.411627  0.088470  1
  Cs  Cs4  1  0.088470  0.750056  0.411627  1
  Cs  Cs5  1  0.411627  0.088470  0.750056  1
  Dy  Dy6  1  0.653044  0.653044  0.653044  1
  Lu  Lu7  1  0.846424  0.846424  0.846424  1
  Lu  Lu8  1  0.345871  0.345871  0.345871  1
  Lu  Lu9  1  0.154056  0.154056  0.154056  1
  Br  Br10  1  0.096350  0.403706  0.249947  1
  Br  Br11  1  0.249947  0.096350  0.403706  1
  Br  Br12  1  0.403706  0.249947  0.096350  1
  Br  Br13  1  0.751276  0.906639  0.596223  1
  Br  Br14  1  0.596223  0.751276  0.906639  1
  Br  Br15  1  0.906639  0.596223  0.751276  1
  Br  Br16  1  0.236573  0.414344  0.576971  1
  Br  Br17  1  0.576971  0.236573  0.414344  1
  Br  Br18  1  0.414344  0.576971  0.236573  1
  Br  Br19  1  0.077187  0.914611  0.736602  1
  Br  Br20  1  0.736602  0.077187  0.914611  1
  Br  Br21  1  0.914611  0.736602  0.077187  1
  Br  Br22  1  0.765804  0.584271  0.418008  1
  Br  Br23  1  0.418008  0.765804  0.584271  1
  Br  Br24  1  0.584271  0.418008  0.765804  1
  Br  Br25  1  0.923017  0.085674  0.263443  1
  Br  Br26  1  0.263443  0.923017  0.085674  1
  Br  Br27  1  0.085674  0.263443  0.923017  1
