# generated using pymatgen
data_Tb2PtRhF14
_symmetry_space_group_name_H-M   'P 1'
_cell_length_a   5.55034371
_cell_length_b   8.92544681
_cell_length_c   12.01685838
_cell_angle_alpha   62.56218706
_cell_angle_beta   90.11192437
_cell_angle_gamma   90.03511846
_symmetry_Int_Tables_number   1
_chemical_formula_structural   Tb2PtRhF14
_chemical_formula_sum   'Tb4 Pt2 Rh2 F28'
_cell_volume   528.34051447
_cell_formula_units_Z   2
loop_
 _symmetry_equiv_pos_site_id
 _symmetry_equiv_pos_as_xyz
  1  'x, y, z'
loop_
 _atom_site_type_symbol
 _atom_site_label
 _atom_site_symmetry_multiplicity
 _atom_site_fract_x
 _atom_site_fract_y
 _atom_site_fract_z
 _atom_site_occupancy
  Tb  Tb0  1  0.260224  0.812749  0.263286  1
  Tb  Tb1  1  0.739776  0.187251  0.736714  1
  Tb  Tb2  1  0.761446  0.185585  0.234747  1
  Tb  Tb3  1  0.238554  0.814415  0.765253  1
  Pt  Pt4  1  0.258853  0.272820  0.457408  1
  Pt  Pt5  1  0.741147  0.727180  0.542592  1
  Rh  Rh6  1  0.757441  0.726568  0.042240  1
  Rh  Rh7  1  0.242559  0.273432  0.957760  1
  F  F8  1  0.936045  0.705985  0.414146  1
  F  F9  1  0.063955  0.294015  0.585854  1
  F  F10  1  0.439128  0.291316  0.085938  1
  F  F11  1  0.560872  0.708684  0.914062  1
  F  F12  1  0.467732  0.731195  0.133180  1
  F  F13  1  0.532268  0.268805  0.866820  1
  F  F14  1  0.965576  0.273266  0.364960  1
  F  F15  1  0.034424  0.726734  0.635040  1
  F  F16  1  0.950939  0.744440  0.172239  1
  F  F17  1  0.049061  0.255560  0.827761  1
  F  F18  1  0.450637  0.258668  0.324777  1
  F  F19  1  0.549363  0.741332  0.675223  1
  F  F20  1  0.766704  0.483173  0.137888  1
  F  F21  1  0.233296  0.516827  0.862112  1
  F  F22  1  0.268516  0.520311  0.359200  1
  F  F23  1  0.731484  0.479689  0.640800  1
  F  F24  1  0.945983  0.281099  0.044255  1
  F  F25  1  0.054017  0.718901  0.955745  1
  F  F26  1  0.441755  0.719051  0.457082  1
  F  F27  1  0.558245  0.280949  0.542918  1
  F  F28  1  0.740199  0.974888  0.449340  1
  F  F29  1  0.259801  0.025112  0.550660  1
  F  F30  1  0.239443  0.030355  0.049671  1
  F  F31  1  0.760557  0.969645  0.950329  1
  F  F32  1  0.588894  0.967777  0.231030  1
  F  F33  1  0.411106  0.032223  0.768970  1
  F  F34  1  0.089877  0.030764  0.268760  1
  F  F35  1  0.910123  0.969236  0.731240  1
