# generated using pymatgen
data_YbPr7Pd24Pb
_symmetry_space_group_name_H-M   'P 1'
_cell_length_a   8.58425109
_cell_length_b   8.58425109
_cell_length_c   8.58425109
_cell_angle_alpha   89.94342614
_cell_angle_beta   90.05657386
_cell_angle_gamma   90.05657386
_symmetry_Int_Tables_number   1
_chemical_formula_structural   YbPr7Pd24Pb
_chemical_formula_sum   'Yb1 Pr7 Pd24 Pb1'
_cell_volume   632.56710287
_cell_formula_units_Z   1
loop_
 _symmetry_equiv_pos_site_id
 _symmetry_equiv_pos_as_xyz
  1  'x, y, z'
loop_
 _atom_site_type_symbol
 _atom_site_label
 _atom_site_symmetry_multiplicity
 _atom_site_fract_x
 _atom_site_fract_y
 _atom_site_fract_z
 _atom_site_occupancy
  Yb  Yb0  1  0.748401  0.251599  0.251599  1
  Pr  Pr1  1  0.251448  0.251738  0.251738  1
  Pr  Pr2  1  0.748407  0.748275  0.748275  1
  Pr  Pr3  1  0.748262  0.748552  0.251738  1
  Pr  Pr4  1  0.748262  0.251738  0.748552  1
  Pr  Pr5  1  0.251725  0.251593  0.748275  1
  Pr  Pr6  1  0.251725  0.748275  0.251593  1
  Pr  Pr7  1  0.251200  0.748800  0.748800  1
  Pd  Pd8  1  0.269685  0.499867  0.999498  1
  Pd  Pd9  1  0.730312  0.498186  0.002692  1
  Pd  Pd10  1  0.997308  0.269688  0.498186  1
  Pd  Pd11  1  0.501814  0.269688  0.002692  1
  Pd  Pd12  1  0.000502  0.730315  0.499867  1
  Pd  Pd13  1  0.500133  0.730315  0.999498  1
  Pd  Pd14  1  0.501814  0.002692  0.269688  1
  Pd  Pd15  1  0.269685  0.999498  0.499867  1
  Pd  Pd16  1  0.500133  0.999498  0.730315  1
  Pd  Pd17  1  0.730312  0.002692  0.498186  1
  Pd  Pd18  1  0.997308  0.498186  0.269688  1
  Pd  Pd19  1  0.000502  0.499867  0.730315  1
  Pd  Pd20  1  0.256488  0.500192  0.500192  1
  Pd  Pd21  1  0.743826  0.497804  0.497804  1
  Pd  Pd22  1  0.502196  0.256174  0.497804  1
  Pd  Pd23  1  0.499808  0.743512  0.500192  1
  Pd  Pd24  1  0.502196  0.497804  0.256174  1
  Pd  Pd25  1  0.499808  0.500192  0.743512  1
  Pd  Pd26  1  0.323395  0.999934  0.999934  1
  Pd  Pd27  1  0.677788  0.001993  0.001993  1
  Pd  Pd28  1  0.998007  0.322212  0.001993  1
  Pd  Pd29  1  0.000066  0.676605  0.999934  1
  Pd  Pd30  1  0.998007  0.001993  0.322212  1
  Pd  Pd31  1  0.000066  0.999934  0.676605  1
  Pb  Pb32  1  0.999410  0.000590  0.000590  1
