# generated using pymatgen
data_Dy5ErTm10(Ga3Co)2
_symmetry_space_group_name_H-M   'P 1'
_cell_length_a   9.88539800
_cell_length_b   9.89067647
_cell_length_c   6.94853100
_cell_angle_alpha   90.01104768
_cell_angle_beta   89.99998016
_cell_angle_gamma   119.98253389
_symmetry_Int_Tables_number   1
_chemical_formula_structural   Dy5ErTm10(Ga3Co)2
_chemical_formula_sum   'Dy5 Er1 Tm10 Ga6 Co2'
_cell_volume   588.46438665
_cell_formula_units_Z   1
loop_
 _symmetry_equiv_pos_site_id
 _symmetry_equiv_pos_as_xyz
  1  'x, y, z'
loop_
 _atom_site_type_symbol
 _atom_site_label
 _atom_site_symmetry_multiplicity
 _atom_site_fract_x
 _atom_site_fract_y
 _atom_site_fract_z
 _atom_site_occupancy
  Dy  Dy0  1  0.535976  0.464052  0.708477  1
  Dy  Dy1  1  0.928075  0.464050  0.708477  1
  Dy  Dy2  1  0.536160  0.072324  0.708833  1
  Dy  Dy3  1  0.000004  0.000006  0.231942  1
  Dy  Dy4  1  0.999965  0.999930  0.731978  1
  Er  Er5  1  0.463108  0.926211  0.208187  1
  Tm  Tm6  1  0.173727  0.825344  0.511581  1
  Tm  Tm7  1  0.651616  0.825344  0.511580  1
  Tm  Tm8  1  0.174129  0.348259  0.510691  1
  Tm  Tm9  1  0.826668  0.174642  0.014192  1
  Tm  Tm10  1  0.347976  0.174644  0.014192  1
  Tm  Tm11  1  0.825786  0.651576  0.014805  1
  Tm  Tm12  1  0.332983  0.665965  0.827095  1
  Tm  Tm13  1  0.667012  0.334024  0.325902  1
  Tm  Tm14  1  0.462544  0.537366  0.207560  1
  Tm  Tm15  1  0.074820  0.537367  0.207561  1
  Ga  Ga16  1  0.163630  0.836057  0.957061  1
  Ga  Ga17  1  0.672426  0.836055  0.957061  1
  Ga  Ga18  1  0.164216  0.328430  0.957654  1
  Ga  Ga19  1  0.836361  0.163179  0.456225  1
  Ga  Ga20  1  0.326821  0.163183  0.456226  1
  Ga  Ga21  1  0.836534  0.673069  0.455508  1
  Co  Co22  1  0.332782  0.665564  0.445166  1
  Co  Co23  1  0.666680  0.333358  0.946878  1
