# generated using pymatgen
data_Tb4Y3FeI12
_symmetry_space_group_name_H-M   'P 1'
_cell_length_a   9.74451421
_cell_length_b   9.79522660
_cell_length_c   9.80693540
_cell_angle_alpha   107.03194736
_cell_angle_beta   107.11969681
_cell_angle_gamma   106.87358568
_symmetry_Int_Tables_number   1
_chemical_formula_structural   Tb4Y3FeI12
_chemical_formula_sum   'Tb4 Y3 Fe1 I12'
_cell_volume   779.38569068
_cell_formula_units_Z   1
loop_
 _symmetry_equiv_pos_site_id
 _symmetry_equiv_pos_as_xyz
  1  'x, y, z'
loop_
 _atom_site_type_symbol
 _atom_site_label
 _atom_site_symmetry_multiplicity
 _atom_site_fract_x
 _atom_site_fract_y
 _atom_site_fract_z
 _atom_site_occupancy
  Tb  Tb0  1  0.280356  0.021142  0.089651  1
  Tb  Tb1  1  0.906513  0.706830  0.977198  1
  Tb  Tb2  1  0.978167  0.906157  0.706769  1
  Tb  Tb3  1  0.719633  0.978367  0.910419  1
  Y  Y4  1  0.499994  0.500307  0.500178  1
  Y  Y5  1  0.093261  0.292386  0.022595  1
  Y  Y6  1  0.022030  0.094013  0.292624  1
  Fe  Fe7  1  0.999988  0.999160  0.999417  1
  I  I8  1  0.462451  0.384948  0.161210  1
  I  I9  1  0.159634  0.463250  0.385589  1
  I  I10  1  0.385708  0.160946  0.462089  1
  I  I11  1  0.536303  0.614992  0.838461  1
  I  I12  1  0.839302  0.535719  0.613255  1
  I  I13  1  0.613200  0.839321  0.538048  1
  I  I14  1  0.774369  0.319138  0.927715  1
  I  I15  1  0.928387  0.775884  0.321233  1
  I  I16  1  0.320683  0.929305  0.777263  1
  I  I17  1  0.226768  0.680120  0.072665  1
  I  I18  1  0.072336  0.226486  0.679578  1
  I  I19  1  0.680917  0.071530  0.224044  1
