# generated using pymatgen
data_HoTm7Hg4
_symmetry_space_group_name_H-M   'P 1'
_cell_length_a   6.94414432
_cell_length_b   5.05864000
_cell_length_c   9.14112742
_cell_angle_alpha   90.00000000
_cell_angle_beta   90.03463436
_cell_angle_gamma   90.00000000
_symmetry_Int_Tables_number   1
_chemical_formula_structural   HoTm7Hg4
_chemical_formula_sum   'Ho1 Tm7 Hg4'
_cell_volume   321.10879072
_cell_formula_units_Z   1
loop_
 _symmetry_equiv_pos_site_id
 _symmetry_equiv_pos_as_xyz
  1  'x, y, z'
loop_
 _atom_site_type_symbol
 _atom_site_label
 _atom_site_symmetry_multiplicity
 _atom_site_fract_x
 _atom_site_fract_y
 _atom_site_fract_z
 _atom_site_occupancy
  Ho  Ho0  1  0.170166  0.250000  0.925499  1
  Tm  Tm1  1  0.829625  0.750000  0.074755  1
  Tm  Tm2  1  0.516884  0.250000  0.195158  1
  Tm  Tm3  1  0.016476  0.250000  0.305094  1
  Tm  Tm4  1  0.330458  0.750000  0.425546  1
  Tm  Tm5  1  0.669708  0.250000  0.574454  1
  Tm  Tm6  1  0.983178  0.750000  0.694868  1
  Tm  Tm7  1  0.483959  0.750000  0.804765  1
  Hg  Hg8  1  0.264101  0.750000  0.102130  1
  Hg  Hg9  1  0.763886  0.750000  0.398565  1
  Hg  Hg10  1  0.236374  0.250000  0.600705  1
  Hg  Hg11  1  0.735189  0.250000  0.898462  1
