# generated using pymatgen
data_K3Ho(SbAu)4
_symmetry_space_group_name_H-M   'P 1'
_cell_length_a   4.63902900
_cell_length_b   4.63902878
_cell_length_c   20.14256400
_cell_angle_alpha   90.00000000
_cell_angle_beta   90.00000000
_cell_angle_gamma   119.99999442
_symmetry_Int_Tables_number   1
_chemical_formula_structural   K3Ho(SbAu)4
_chemical_formula_sum   'K3 Ho1 Sb4 Au4'
_cell_volume   375.40457656
_cell_formula_units_Z   1
loop_
 _symmetry_equiv_pos_site_id
 _symmetry_equiv_pos_as_xyz
  1  'x, y, z'
loop_
 _atom_site_type_symbol
 _atom_site_label
 _atom_site_symmetry_multiplicity
 _atom_site_fract_x
 _atom_site_fract_y
 _atom_site_fract_z
 _atom_site_occupancy
  K  K0  1  0.000000  0.000000  0.500000  1
  K  K1  1  0.000000  0.000000  0.237369  1
  K  K2  1  0.000000  0.000000  0.762631  1
  Ho  Ho3  1  0.000000  0.000000  0.000000  1
  Sb  Sb4  1  0.333333  0.666667  0.366230  1
  Sb  Sb5  1  0.666667  0.333333  0.633770  1
  Sb  Sb6  1  0.666667  0.333333  0.894351  1
  Sb  Sb7  1  0.333333  0.666667  0.105649  1
  Au  Au8  1  0.666667  0.333333  0.365246  1
  Au  Au9  1  0.333333  0.666667  0.634754  1
  Au  Au10  1  0.333333  0.666667  0.921908  1
  Au  Au11  1  0.666667  0.333333  0.078092  1
