# generated using pymatgen
data_Y6Th2AlPd24
_symmetry_space_group_name_H-M   'P 1'
_cell_length_a   8.39843856
_cell_length_b   8.39843890
_cell_length_c   8.39843921
_cell_angle_alpha   89.94371352
_cell_angle_beta   90.05628454
_cell_angle_gamma   90.05627567
_symmetry_Int_Tables_number   1
_chemical_formula_structural   Y6Th2AlPd24
_chemical_formula_sum   'Y6 Th2 Al1 Pd24'
_cell_volume   592.37274864
_cell_formula_units_Z   1
loop_
 _symmetry_equiv_pos_site_id
 _symmetry_equiv_pos_as_xyz
  1  'x, y, z'
loop_
 _atom_site_type_symbol
 _atom_site_label
 _atom_site_symmetry_multiplicity
 _atom_site_fract_x
 _atom_site_fract_y
 _atom_site_fract_z
 _atom_site_occupancy
  Y  Y0  1  0.251714  0.252271  0.252271  1
  Y  Y1  1  0.748286  0.747729  0.747729  1
  Y  Y2  1  0.747729  0.748286  0.252271  1
  Y  Y3  1  0.747729  0.252271  0.748286  1
  Y  Y4  1  0.252271  0.251714  0.747729  1
  Y  Y5  1  0.252271  0.747729  0.251714  1
  Th  Th6  1  0.253617  0.746383  0.746383  1
  Th  Th7  1  0.746383  0.253617  0.253617  1
  Al  Al8  1  0.000000  0.000000  0.000000  1
  Pd  Pd9  1  0.259705  0.500029  0.999659  1
  Pd  Pd10  1  0.740295  0.499971  0.000341  1
  Pd  Pd11  1  0.999659  0.259705  0.499971  1
  Pd  Pd12  1  0.500029  0.259705  0.000341  1
  Pd  Pd13  1  0.000341  0.740295  0.500029  1
  Pd  Pd14  1  0.499971  0.740295  0.999659  1
  Pd  Pd15  1  0.500029  0.000341  0.259705  1
  Pd  Pd16  1  0.259705  0.999659  0.500029  1
  Pd  Pd17  1  0.499971  0.999659  0.740295  1
  Pd  Pd18  1  0.740295  0.000341  0.499971  1
  Pd  Pd19  1  0.999659  0.499971  0.259705  1
  Pd  Pd20  1  0.000341  0.500029  0.740295  1
  Pd  Pd21  1  0.253093  0.499887  0.499887  1
  Pd  Pd22  1  0.746907  0.500113  0.500113  1
  Pd  Pd23  1  0.499887  0.253093  0.500113  1
  Pd  Pd24  1  0.500113  0.746907  0.499887  1
  Pd  Pd25  1  0.499887  0.500113  0.253093  1
  Pd  Pd26  1  0.500113  0.499887  0.746907  1
  Pd  Pd27  1  0.288986  0.000440  0.000440  1
  Pd  Pd28  1  0.711014  0.999560  0.999560  1
  Pd  Pd29  1  0.000440  0.288986  0.999560  1
  Pd  Pd30  1  0.999560  0.711014  0.000440  1
  Pd  Pd31  1  0.000440  0.999560  0.288986  1
  Pd  Pd32  1  0.999560  0.000440  0.711014  1
