# generated using pymatgen
data_Pr4Sm(IrO6)2
_symmetry_space_group_name_H-M   'P 1'
_cell_length_a   7.10095784
_cell_length_b   7.10095822
_cell_length_c   7.52049700
_cell_angle_alpha   74.44861975
_cell_angle_beta   74.44862729
_cell_angle_gamma   51.66129463
_symmetry_Int_Tables_number   1
_chemical_formula_structural   Pr4Sm(IrO6)2
_chemical_formula_sum   'Pr4 Sm1 Ir2 O12'
_cell_volume   283.93559176
_cell_formula_units_Z   1
loop_
 _symmetry_equiv_pos_site_id
 _symmetry_equiv_pos_as_xyz
  1  'x, y, z'
loop_
 _atom_site_type_symbol
 _atom_site_label
 _atom_site_symmetry_multiplicity
 _atom_site_fract_x
 _atom_site_fract_y
 _atom_site_fract_z
 _atom_site_occupancy
  Pr  Pr0  1  0.697030  0.697030  0.639339  1
  Pr  Pr1  1  0.695380  0.695380  0.164421  1
  Pr  Pr2  1  0.305080  0.305080  0.834089  1
  Pr  Pr3  1  0.000790  0.000790  0.498805  1
  Sm  Sm4  1  0.303224  0.303224  0.357672  1
  Ir  Ir5  1  0.752429  0.246532  0.001892  1
  Ir  Ir6  1  0.246532  0.752429  0.001892  1
  O  O7  1  0.099243  0.596444  0.569595  1
  O  O8  1  0.000110  0.000110  0.167817  1
  O  O9  1  0.398809  0.909425  0.423695  1
  O  O10  1  0.499521  0.499521  0.176616  1
  O  O11  1  0.104564  0.569309  0.086334  1
  O  O12  1  0.909425  0.398809  0.423695  1
  O  O13  1  0.997903  0.997903  0.835109  1
  O  O14  1  0.596444  0.099242  0.569595  1
  O  O15  1  0.498935  0.498935  0.828231  1
  O  O16  1  0.569309  0.104564  0.086334  1
  O  O17  1  0.427387  0.897882  0.917433  1
  O  O18  1  0.897882  0.427387  0.917433  1
