# generated using pymatgen
data_Lu7ScNb11Si16W
_symmetry_space_group_name_H-M   'P 1'
_cell_length_a   6.77978812
_cell_length_b   6.98476105
_cell_length_c   13.27882225
_cell_angle_alpha   90.04472990
_cell_angle_beta   89.97861756
_cell_angle_gamma   90.03691634
_symmetry_Int_Tables_number   1
_chemical_formula_structural   Lu7ScNb11Si16W
_chemical_formula_sum   'Lu7 Sc1 Nb11 Si16 W1'
_cell_volume   628.82091709
_cell_formula_units_Z   1
loop_
 _symmetry_equiv_pos_site_id
 _symmetry_equiv_pos_as_xyz
  1  'x, y, z'
loop_
 _atom_site_type_symbol
 _atom_site_label
 _atom_site_symmetry_multiplicity
 _atom_site_fract_x
 _atom_site_fract_y
 _atom_site_fract_z
 _atom_site_occupancy
  Lu  Lu0  1  0.501722  0.673676  0.594873  1
  Lu  Lu1  1  0.001294  0.826692  0.905258  1
  Lu  Lu2  1  0.499382  0.326513  0.095136  1
  Lu  Lu3  1  0.999061  0.172514  0.405678  1
  Lu  Lu4  1  0.498952  0.326352  0.405352  1
  Lu  Lu5  1  0.999146  0.173000  0.095156  1
  Lu  Lu6  1  0.501895  0.673429  0.904411  1
  Sc  Sc7  1  0.001404  0.824912  0.596048  1
  Nb  Nb8  1  0.663245  0.173847  0.624399  1
  Nb  Nb9  1  0.163314  0.325223  0.874195  1
  Nb  Nb10  1  0.336117  0.827331  0.126189  1
  Nb  Nb11  1  0.836782  0.674695  0.374377  1
  Nb  Nb12  1  0.335810  0.827331  0.373844  1
  Nb  Nb13  1  0.836092  0.673993  0.126213  1
  Nb  Nb14  1  0.663427  0.173725  0.874736  1
  Nb  Nb15  1  0.163920  0.325388  0.625155  1
  Nb  Nb16  1  0.837939  0.493840  0.749535  1
  Nb  Nb17  1  0.337615  0.006494  0.749461  1
  Nb  Nb18  1  0.162658  0.507104  0.250142  1
  Si  Si19  1  0.665754  0.963394  0.458745  1
  Si  Si20  1  0.165717  0.535714  0.040295  1
  Si  Si21  1  0.334276  0.036077  0.959989  1
  Si  Si22  1  0.836404  0.467201  0.541054  1
  Si  Si23  1  0.329768  0.033424  0.540438  1
  Si  Si24  1  0.834443  0.463813  0.959656  1
  Si  Si25  1  0.665339  0.963577  0.041923  1
  Si  Si26  1  0.165127  0.538082  0.460753  1
  Si  Si27  1  0.460356  0.382142  0.749805  1
  Si  Si28  1  0.959539  0.117732  0.748757  1
  Si  Si29  1  0.540643  0.619710  0.250232  1
  Si  Si30  1  0.036365  0.883265  0.250022  1
  Si  Si31  1  0.706682  0.867029  0.748793  1
  Si  Si32  1  0.203111  0.634665  0.748599  1
  Si  Si33  1  0.299811  0.132810  0.250190  1
  Si  Si34  1  0.795444  0.362811  0.250322  1
  W  W35  1  0.661449  0.992495  0.250270  1
