# generated using pymatgen
data_Er3Lu4Co6Sn23
_symmetry_space_group_name_H-M   'P 1'
_cell_length_a   9.64832853
_cell_length_b   9.65348504
_cell_length_c   9.93907110
_cell_angle_alpha   90.00000105
_cell_angle_beta   90.01408076
_cell_angle_gamma   120.01768171
_symmetry_Int_Tables_number   1
_chemical_formula_structural   Er3Lu4Co6Sn23
_chemical_formula_sum   'Er3 Lu4 Co6 Sn23'
_cell_volume   801.55848449
_cell_formula_units_Z   1
loop_
 _symmetry_equiv_pos_site_id
 _symmetry_equiv_pos_as_xyz
  1  'x, y, z'
loop_
 _atom_site_type_symbol
 _atom_site_label
 _atom_site_symmetry_multiplicity
 _atom_site_fract_x
 _atom_site_fract_y
 _atom_site_fract_z
 _atom_site_occupancy
  Er  Er0  1  0.041818  0.520910  0.305913  1
  Er  Er1  1  0.958182  0.479090  0.694087  1
  Er  Er2  1  0.000000  0.000000  0.000000  1
  Lu  Lu3  1  0.479312  0.520621  0.305939  1
  Lu  Lu4  1  0.520688  0.479379  0.694061  1
  Lu  Lu5  1  0.479312  0.958692  0.305939  1
  Lu  Lu6  1  0.520688  0.041308  0.694061  1
  Co  Co7  1  0.831768  0.167477  0.197363  1
  Co  Co8  1  0.168232  0.832523  0.802637  1
  Co  Co9  1  0.831768  0.664292  0.197363  1
  Co  Co10  1  0.168232  0.335708  0.802637  1
  Co  Co11  1  0.335977  0.167989  0.197522  1
  Co  Co12  1  0.664023  0.832011  0.802478  1
  Sn  Sn13  1  0.119003  0.881738  0.274777  1
  Sn  Sn14  1  0.880997  0.118262  0.725223  1
  Sn  Sn15  1  0.119003  0.237264  0.274777  1
  Sn  Sn16  1  0.880997  0.762736  0.725223  1
  Sn  Sn17  1  0.762133  0.881067  0.274830  1
  Sn  Sn18  1  0.237867  0.118933  0.725170  1
  Sn  Sn19  1  0.779889  0.218354  0.452159  1
  Sn  Sn20  1  0.220111  0.781646  0.547841  1
  Sn  Sn21  1  0.779889  0.561534  0.452159  1
  Sn  Sn22  1  0.220111  0.438466  0.547841  1
  Sn  Sn23  1  0.438482  0.219241  0.452184  1
  Sn  Sn24  1  0.561518  0.780759  0.547816  1
  Sn  Sn25  1  0.346313  0.000126  0.000011  1
  Sn  Sn26  1  0.653687  0.999874  0.999989  1
  Sn  Sn27  1  0.000000  0.346111  0.000000  1
  Sn  Sn28  1  0.000000  0.653889  0.000000  1
  Sn  Sn29  1  0.653687  0.653812  0.999989  1
  Sn  Sn30  1  0.346313  0.346188  0.000011  1
  Sn  Sn31  1  0.334388  0.667195  0.120626  1
  Sn  Sn32  1  0.665612  0.332805  0.879374  1
  Sn  Sn33  1  0.333546  0.666773  0.817372  1
  Sn  Sn34  1  0.666454  0.333227  0.182628  1
  Sn  Sn35  1  0.000000  0.000000  0.500000  1
