# generated using pymatgen
data_NdAs2PdRh
_symmetry_space_group_name_H-M   'P 1'
_cell_length_a   4.36240500
_cell_length_b   4.36240500
_cell_length_c   10.05728400
_cell_angle_alpha   90.00000000
_cell_angle_beta   90.00000000
_cell_angle_gamma   90.00000000
_symmetry_Int_Tables_number   1
_chemical_formula_structural   NdAs2PdRh
_chemical_formula_sum   'Nd2 As4 Pd2 Rh2'
_cell_volume   191.39592144
_cell_formula_units_Z   2
loop_
 _symmetry_equiv_pos_site_id
 _symmetry_equiv_pos_as_xyz
  1  'x, y, z'
loop_
 _atom_site_type_symbol
 _atom_site_label
 _atom_site_symmetry_multiplicity
 _atom_site_fract_x
 _atom_site_fract_y
 _atom_site_fract_z
 _atom_site_occupancy
  Nd  Nd0  1  0.000000  0.500000  0.252290  1
  Nd  Nd1  1  0.500000  0.000000  0.747710  1
  As  As2  1  0.000000  0.000000  0.500000  1
  As  As3  1  0.500000  0.500000  0.500000  1
  As  As4  1  0.000000  0.500000  0.859344  1
  As  As5  1  0.500000  0.000000  0.140656  1
  Pd  Pd6  1  0.000000  0.000000  0.000000  1
  Pd  Pd7  1  0.500000  0.500000  0.000000  1
  Rh  Rh8  1  0.000000  0.500000  0.616784  1
  Rh  Rh9  1  0.500000  0.000000  0.383216  1
