# generated using pymatgen
data_YHo4P12Ru9Rh10
_symmetry_space_group_name_H-M   'P 1'
_cell_length_a   12.60457800
_cell_length_b   12.60457771
_cell_length_c   3.92849300
_cell_angle_alpha   90.00000000
_cell_angle_beta   90.00000000
_cell_angle_gamma   119.99999550
_symmetry_Int_Tables_number   1
_chemical_formula_structural   YHo4P12Ru9Rh10
_chemical_formula_sum   'Y1 Ho4 P12 Ru9 Rh10'
_cell_volume   540.52183869
_cell_formula_units_Z   1
loop_
 _symmetry_equiv_pos_site_id
 _symmetry_equiv_pos_as_xyz
  1  'x, y, z'
loop_
 _atom_site_type_symbol
 _atom_site_label
 _atom_site_symmetry_multiplicity
 _atom_site_fract_x
 _atom_site_fract_y
 _atom_site_fract_z
 _atom_site_occupancy
  Y  Y0  1  0.666667  0.333333  0.000000  1
  Ho  Ho1  1  0.999995  0.185991  0.500000  1
  Ho  Ho2  1  0.814009  0.814004  0.500000  1
  Ho  Ho3  1  0.185996  0.000005  0.500000  1
  Ho  Ho4  1  0.333333  0.666667  0.000000  1
  P  P5  1  0.000019  0.818442  0.000000  1
  P  P6  1  0.181558  0.181577  0.000000  1
  P  P7  1  0.818423  0.999981  0.000000  1
  P  P8  1  0.689514  0.171794  0.500000  1
  P  P9  1  0.828206  0.517720  0.500000  1
  P  P10  1  0.482280  0.310486  0.500000  1
  P  P11  1  0.172162  0.689485  0.500000  1
  P  P12  1  0.517323  0.827838  0.500000  1
  P  P13  1  0.310515  0.482677  0.500000  1
  P  P14  1  0.000000  0.370333  0.000000  1
  P  P15  1  0.629667  0.629667  0.000000  1
  P  P16  1  0.370333  0.000000  0.000000  1
  Ru  Ru17  1  0.000047  0.716413  0.500000  1
  Ru  Ru18  1  0.283587  0.283634  0.500000  1
  Ru  Ru19  1  0.716366  0.999953  0.500000  1
  Ru  Ru20  1  0.873421  0.362174  0.500000  1
  Ru  Ru21  1  0.637826  0.511246  0.500000  1
  Ru  Ru22  1  0.488754  0.126579  0.500000  1
  Ru  Ru23  1  0.362099  0.872937  0.500000  1
  Ru  Ru24  1  0.510837  0.637901  0.500000  1
  Ru  Ru25  1  0.127063  0.489163  0.500000  1
  Rh  Rh26  1  0.000084  0.551670  0.000000  1
  Rh  Rh27  1  0.448330  0.448414  0.000000  1
  Rh  Rh28  1  0.551586  0.999916  0.000000  1
  Rh  Rh29  1  0.808275  0.182865  0.000000  1
  Rh  Rh30  1  0.817135  0.625410  0.000000  1
  Rh  Rh31  1  0.374590  0.191725  0.000000  1
  Rh  Rh32  1  0.183063  0.808213  0.000000  1
  Rh  Rh33  1  0.625149  0.816937  0.000000  1
  Rh  Rh34  1  0.191787  0.374851  0.000000  1
  Rh  Rh35  1  0.000000  0.000000  0.000000  1
