# generated using pymatgen
data_Ba4Na2Sr2(BiSb3)3
_symmetry_space_group_name_H-M   'P 1'
_cell_length_a   6.87165101
_cell_length_b   6.87200451
_cell_length_c   14.66560900
_cell_angle_alpha   90.00000000
_cell_angle_beta   90.00000000
_cell_angle_gamma   87.43573251
_symmetry_Int_Tables_number   1
_chemical_formula_structural   Ba4Na2Sr2(BiSb3)3
_chemical_formula_sum   'Ba4 Na2 Sr2 Bi3 Sb9'
_cell_volume   691.84617042
_cell_formula_units_Z   1
loop_
 _symmetry_equiv_pos_site_id
 _symmetry_equiv_pos_as_xyz
  1  'x, y, z'
loop_
 _atom_site_type_symbol
 _atom_site_label
 _atom_site_symmetry_multiplicity
 _atom_site_fract_x
 _atom_site_fract_y
 _atom_site_fract_z
 _atom_site_occupancy
  Ba  Ba0  1  0.514451  0.516438  0.230823  1
  Ba  Ba1  1  0.485293  0.484521  0.771698  1
  Ba  Ba2  1  0.985549  0.983562  0.230823  1
  Ba  Ba3  1  0.014707  0.015479  0.771698  1
  Na  Na4  1  0.750000  0.750000  0.999134  1
  Na  Na5  1  0.250000  0.250000  0.001044  1
  Sr  Sr6  1  0.750000  0.250000  0.503176  1
  Sr  Sr7  1  0.250000  0.750000  0.500088  1
  Bi  Bi8  1  0.250000  0.250000  0.560382  1
  Bi  Bi9  1  0.750000  0.250000  0.008410  1
  Bi  Bi10  1  0.250000  0.750000  0.987064  1
  Sb  Sb11  1  0.750000  0.750000  0.434103  1
  Sb  Sb12  1  0.006925  0.494154  0.147155  1
  Sb  Sb13  1  0.991615  0.503190  0.851484  1
  Sb  Sb14  1  0.056102  0.438808  0.348207  1
  Sb  Sb15  1  0.443898  0.061192  0.348207  1
  Sb  Sb16  1  0.931642  0.572619  0.653933  1
  Sb  Sb17  1  0.568358  0.927381  0.653933  1
  Sb  Sb18  1  0.493075  0.005846  0.147155  1
  Sb  Sb19  1  0.508385  0.996810  0.851484  1
