# generated using pymatgen
data_TbHo3NiAg
_symmetry_space_group_name_H-M   'P 1'
_cell_length_a   9.40827238
_cell_length_b   9.40827201
_cell_length_c   9.40827200
_cell_angle_alpha   60.00000004
_cell_angle_beta   60.00000135
_cell_angle_gamma   60.00000162
_symmetry_Int_Tables_number   1
_chemical_formula_structural   TbHo3NiAg
_chemical_formula_sum   'Tb4 Ho12 Ni4 Ag4'
_cell_volume   588.86348422
_cell_formula_units_Z   4
loop_
 _symmetry_equiv_pos_site_id
 _symmetry_equiv_pos_as_xyz
  1  'x, y, z'
loop_
 _atom_site_type_symbol
 _atom_site_label
 _atom_site_symmetry_multiplicity
 _atom_site_fract_x
 _atom_site_fract_y
 _atom_site_fract_z
 _atom_site_occupancy
  Tb  Tb0  1  0.350717  0.350717  0.350717  1
  Tb  Tb1  1  0.350717  0.350717  0.947848  1
  Tb  Tb2  1  0.350717  0.947848  0.350717  1
  Tb  Tb3  1  0.947848  0.350717  0.350717  1
  Ho  Ho4  1  0.811393  0.188607  0.188607  1
  Ho  Ho5  1  0.188607  0.811393  0.811393  1
  Ho  Ho6  1  0.188607  0.811393  0.188607  1
  Ho  Ho7  1  0.811393  0.188607  0.811393  1
  Ho  Ho8  1  0.188607  0.188607  0.811393  1
  Ho  Ho9  1  0.811393  0.811393  0.188607  1
  Ho  Ho10  1  0.935456  0.564544  0.564544  1
  Ho  Ho11  1  0.564544  0.935456  0.935456  1
  Ho  Ho12  1  0.564544  0.935456  0.564544  1
  Ho  Ho13  1  0.935456  0.564544  0.935456  1
  Ho  Ho14  1  0.564544  0.564544  0.935456  1
  Ho  Ho15  1  0.935456  0.935456  0.564544  1
  Ni  Ni16  1  0.142727  0.142727  0.142727  1
  Ni  Ni17  1  0.142727  0.142727  0.571818  1
  Ni  Ni18  1  0.142727  0.571818  0.142727  1
  Ni  Ni19  1  0.571818  0.142727  0.142727  1
  Ag  Ag20  1  0.581940  0.581940  0.581940  1
  Ag  Ag21  1  0.581940  0.581940  0.254181  1
  Ag  Ag22  1  0.581940  0.254181  0.581940  1
  Ag  Ag23  1  0.254181  0.581940  0.581940  1
