# generated using pymatgen
data_Hf4BiRh10Pb
_symmetry_space_group_name_H-M   'P 1'
_cell_length_a   4.14752000
_cell_length_b   5.72407045
_cell_length_c   11.25773348
_cell_angle_alpha   90.26642658
_cell_angle_beta   90.00000000
_cell_angle_gamma   90.00000000
_symmetry_Int_Tables_number   1
_chemical_formula_structural   Hf4BiRh10Pb
_chemical_formula_sum   'Hf4 Bi1 Rh10 Pb1'
_cell_volume   267.26354602
_cell_formula_units_Z   1
loop_
 _symmetry_equiv_pos_site_id
 _symmetry_equiv_pos_as_xyz
  1  'x, y, z'
loop_
 _atom_site_type_symbol
 _atom_site_label
 _atom_site_symmetry_multiplicity
 _atom_site_fract_x
 _atom_site_fract_y
 _atom_site_fract_z
 _atom_site_occupancy
  Hf  Hf0  1  0.500000  0.178910  0.645256  1
  Hf  Hf1  1  0.500000  0.821090  0.354744  1
  Hf  Hf2  1  0.500000  0.682207  0.857826  1
  Hf  Hf3  1  0.500000  0.317793  0.142174  1
  Bi  Bi4  1  0.000000  0.500000  0.500000  1
  Rh  Rh5  1  0.500000  0.214784  0.881528  1
  Rh  Rh6  1  0.500000  0.785216  0.118472  1
  Rh  Rh7  1  0.500000  0.712121  0.617700  1
  Rh  Rh8  1  0.500000  0.287879  0.382300  1
  Rh  Rh9  1  0.000000  0.445109  0.749596  1
  Rh  Rh10  1  0.000000  0.554891  0.250404  1
  Rh  Rh11  1  0.000000  0.000000  0.500000  1
  Rh  Rh12  1  0.000000  0.500000  0.000000  1
  Rh  Rh13  1  0.000000  0.054562  0.250000  1
  Rh  Rh14  1  0.000000  0.945438  0.750000  1
  Pb  Pb15  1  0.000000  0.000000  0.000000  1
