# generated using pymatgen
data_Tm3ThInCo
_symmetry_space_group_name_H-M   'P 1'
_cell_length_a   9.55603093
_cell_length_b   9.55751767
_cell_length_c   9.55879202
_cell_angle_alpha   59.98782406
_cell_angle_beta   59.98539737
_cell_angle_gamma   59.98308150
_symmetry_Int_Tables_number   1
_chemical_formula_structural   Tm3ThInCo
_chemical_formula_sum   'Tm12 Th4 In4 Co4'
_cell_volume   617.11657510
_cell_formula_units_Z   4
loop_
 _symmetry_equiv_pos_site_id
 _symmetry_equiv_pos_as_xyz
  1  'x, y, z'
loop_
 _atom_site_type_symbol
 _atom_site_label
 _atom_site_symmetry_multiplicity
 _atom_site_fract_x
 _atom_site_fract_y
 _atom_site_fract_z
 _atom_site_occupancy
  Tm  Tm0  1  0.813569  0.187627  0.187607  1
  Tm  Tm1  1  0.187183  0.812848  0.812827  1
  Tm  Tm2  1  0.187639  0.813551  0.187604  1
  Tm  Tm3  1  0.812856  0.187176  0.812818  1
  Tm  Tm4  1  0.187628  0.187614  0.813543  1
  Tm  Tm5  1  0.812846  0.812823  0.187171  1
  Tm  Tm6  1  0.935699  0.563776  0.563763  1
  Tm  Tm7  1  0.563114  0.937193  0.937192  1
  Tm  Tm8  1  0.563783  0.935697  0.563758  1
  Tm  Tm9  1  0.937192  0.563111  0.937193  1
  Tm  Tm10  1  0.563769  0.563756  0.935706  1
  Tm  Tm11  1  0.937180  0.937181  0.563117  1
  Th  Th12  1  0.344763  0.344762  0.344757  1
  Th  Th13  1  0.345476  0.345462  0.962048  1
  Th  Th14  1  0.345483  0.962041  0.345465  1
  Th  Th15  1  0.962017  0.345489  0.345488  1
  In  In16  1  0.584995  0.584983  0.584966  1
  In  In17  1  0.584045  0.584044  0.247878  1
  In  In18  1  0.584048  0.247876  0.584044  1
  In  In19  1  0.247873  0.584053  0.584047  1
  Co  Co20  1  0.143665  0.143690  0.143698  1
  Co  Co21  1  0.142824  0.142841  0.569585  1
  Co  Co22  1  0.142837  0.569546  0.142862  1
  Co  Co23  1  0.569518  0.142860  0.142865  1
