# generated using pymatgen
data_Zr3ReMo2P3
_symmetry_space_group_name_H-M   'P 1'
_cell_length_a   6.94619031
_cell_length_b   6.92175467
_cell_length_c   3.45386200
_cell_angle_alpha   90.00000000
_cell_angle_beta   90.00000000
_cell_angle_gamma   119.88371041
_symmetry_Int_Tables_number   1
_chemical_formula_structural   Zr3ReMo2P3
_chemical_formula_sum   'Zr3 Re1 Mo2 P3'
_cell_volume   143.98134043
_cell_formula_units_Z   1
loop_
 _symmetry_equiv_pos_site_id
 _symmetry_equiv_pos_as_xyz
  1  'x, y, z'
loop_
 _atom_site_type_symbol
 _atom_site_label
 _atom_site_symmetry_multiplicity
 _atom_site_fract_x
 _atom_site_fract_y
 _atom_site_fract_z
 _atom_site_occupancy
  Zr  Zr0  1  0.405376  0.404386  0.500000  1
  Zr  Zr1  1  0.594624  0.999009  0.500000  1
  Zr  Zr2  1  0.000000  0.595965  0.500000  1
  Re  Re3  1  0.000000  0.251622  0.000000  1
  Mo  Mo4  1  0.250967  0.000914  0.000000  1
  Mo  Mo5  1  0.749033  0.749947  0.000000  1
  P  P6  1  0.667222  0.333189  0.000000  1
  P  P7  1  0.332778  0.665968  0.000000  1
  P  P8  1  0.000000  0.998999  0.500000  1
