# generated using pymatgen
data_Ho3Tm(Si5Os3)2
_symmetry_space_group_name_H-M   'P 1'
_cell_length_a   8.12279144
_cell_length_b   8.12086610
_cell_length_c   5.77583820
_cell_angle_alpha   70.57513884
_cell_angle_beta   70.57436813
_cell_angle_gamma   94.09747239
_symmetry_Int_Tables_number   1
_chemical_formula_structural   Ho3Tm(Si5Os3)2
_chemical_formula_sum   'Ho3 Tm1 Si10 Os6'
_cell_volume   331.68129488
_cell_formula_units_Z   1
loop_
 _symmetry_equiv_pos_site_id
 _symmetry_equiv_pos_as_xyz
  1  'x, y, z'
loop_
 _atom_site_type_symbol
 _atom_site_label
 _atom_site_symmetry_multiplicity
 _atom_site_fract_x
 _atom_site_fract_y
 _atom_site_fract_z
 _atom_site_occupancy
  Ho  Ho0  1  0.869007  0.600999  0.753234  1
  Ho  Ho1  1  0.399007  0.130911  0.746857  1
  Ho  Ho2  1  0.131000  0.399019  0.246743  1
  Tm  Tm3  1  0.601021  0.869113  0.253153  1
  Si  Si4  1  0.068598  0.261786  0.833268  1
  Si  Si5  1  0.738138  0.931334  0.666898  1
  Si  Si6  1  0.931090  0.738347  0.166781  1
  Si  Si7  1  0.261782  0.068510  0.333275  1
  Si  Si8  1  0.206060  0.793945  0.750064  1
  Si  Si9  1  0.793810  0.205823  0.249981  1
  Si  Si10  1  0.512562  0.487575  0.749921  1
  Si  Si11  1  0.487630  0.512830  0.249902  1
  Si  Si12  1  0.775202  0.224577  0.750263  1
  Si  Si13  1  0.224900  0.775285  0.249940  1
  Os  Os14  1  0.255917  0.544591  0.630589  1
  Os  Os15  1  0.455975  0.744559  0.868794  1
  Os  Os16  1  0.744274  0.455660  0.369238  1
  Os  Os17  1  0.544383  0.255174  0.130956  1
  Os  Os18  1  0.002221  0.997606  0.750056  1
  Os  Os19  1  0.997423  0.002357  0.250087  1
