# generated using pymatgen
data_Li12Sm12Te7SeO48
_symmetry_space_group_name_H-M   'P 1'
_cell_length_a   10.84320000
_cell_length_b   10.89029946
_cell_length_c   10.89030072
_cell_angle_alpha   109.55866361
_cell_angle_beta   109.38363256
_cell_angle_gamma   109.38363317
_symmetry_Int_Tables_number   1
_chemical_formula_structural   Li12Sm12Te7SeO48
_chemical_formula_sum   'Li12 Sm12 Te7 Se1 O48'
_cell_volume   991.02268465
_cell_formula_units_Z   1
loop_
 _symmetry_equiv_pos_site_id
 _symmetry_equiv_pos_as_xyz
  1  'x, y, z'
loop_
 _atom_site_type_symbol
 _atom_site_label
 _atom_site_symmetry_multiplicity
 _atom_site_fract_x
 _atom_site_fract_y
 _atom_site_fract_z
 _atom_site_occupancy
  Li  Li0  1  0.746532  0.371685  0.124293  1
  Li  Li1  1  0.875091  0.750405  0.124673  1
  Li  Li2  1  0.124686  0.374268  0.249595  1
  Li  Li3  1  0.622239  0.875706  0.247391  1
  Li  Li4  1  0.625152  0.247391  0.371685  1
  Li  Li5  1  0.249582  0.124673  0.374268  1
  Li  Li6  1  0.750418  0.875327  0.625732  1
  Li  Li7  1  0.374848  0.752609  0.628316  1
  Li  Li8  1  0.377761  0.124293  0.752609  1
  Li  Li9  1  0.875314  0.625732  0.750405  1
  Li  Li10  1  0.253468  0.628315  0.875706  1
  Li  Li11  1  0.124909  0.249596  0.875327  1
  Sm  Sm12  1  0.255341  0.876847  0.125135  1
  Sm  Sm13  1  0.378492  0.248287  0.123153  1
  Sm  Sm14  1  0.375379  0.624472  0.250335  1
  Sm  Sm15  1  0.869795  0.125135  0.248288  1
  Sm  Sm16  1  0.750907  0.625864  0.375528  1
  Sm  Sm17  1  0.125043  0.749665  0.374137  1
  Sm  Sm18  1  0.874956  0.250335  0.625863  1
  Sm  Sm19  1  0.249093  0.374137  0.624472  1
  Sm  Sm20  1  0.130205  0.874865  0.751713  1
  Sm  Sm21  1  0.624622  0.375528  0.749665  1
  Sm  Sm22  1  0.744660  0.123153  0.874865  1
  Sm  Sm23  1  0.621508  0.751713  0.876847  1
  Te  Te24  1  0.000000  0.000000  0.000000  1
  Te  Te25  1  0.000000  0.500000  0.000000  1
  Te  Te26  1  0.500000  0.500000  0.000000  1
  Te  Te27  1  0.000000  0.000000  0.500000  1
  Te  Te28  1  0.500000  0.500000  0.500000  1
  Te  Te29  1  0.500000  0.000000  0.500000  1
  Te  Te30  1  0.000000  0.500000  0.500000  1
  Se  Se31  1  0.500000  0.000000  0.000000  1
  O  O32  1  0.196479  0.619174  0.023886  1
  O  O33  1  0.328770  0.405880  0.024922  1
  O  O34  1  0.683762  0.163834  0.073791  1
  O  O35  1  0.880084  0.906404  0.077317  1
  O  O36  1  0.609971  0.926209  0.090045  1
  O  O37  1  0.973680  0.170914  0.093597  1
  O  O38  1  0.024310  0.695499  0.117922  1
  O  O39  1  0.594177  0.423137  0.118577  1
  O  O40  1  0.197233  0.077317  0.170914  1
  O  O41  1  0.480073  0.090045  0.163835  1
  O  O42  1  0.118816  0.524669  0.195784  1
  O  O43  1  0.577687  0.672206  0.194934  1
  O  O44  1  0.475600  0.881424  0.304560  1
  O  O45  1  0.328810  0.422424  0.304501  1
  O  O46  1  0.905480  0.522728  0.327794  1
  O  O47  1  0.923032  0.804215  0.328884  1
  O  O48  1  0.303849  0.975078  0.380957  1
  O  O49  1  0.577305  0.404711  0.380826  1
  O  O50  1  0.827406  0.023886  0.404710  1
  O  O51  1  0.077108  0.380957  0.405880  1
  O  O52  1  0.828958  0.304560  0.423135  1
  O  O53  1  0.093614  0.117923  0.422424  1
  O  O54  1  0.382752  0.805066  0.477272  1
  O  O55  1  0.594146  0.671115  0.475332  1
  O  O56  1  0.617247  0.194934  0.522727  1
  O  O57  1  0.405854  0.328884  0.524669  1
  O  O58  1  0.171041  0.695440  0.576863  1
  O  O59  1  0.906386  0.882077  0.577577  1
  O  O60  1  0.172594  0.976114  0.595289  1
  O  O61  1  0.922891  0.619042  0.594121  1
  O  O62  1  0.422696  0.595289  0.619174  1
  O  O63  1  0.696151  0.024922  0.619042  1
  O  O64  1  0.076968  0.195784  0.671115  1
  O  O65  1  0.094520  0.477272  0.672206  1
  O  O66  1  0.671189  0.577577  0.695499  1
  O  O67  1  0.524400  0.118577  0.695440  1
  O  O68  1  0.881184  0.475332  0.804215  1
  O  O69  1  0.422314  0.327794  0.805066  1
  O  O70  1  0.802767  0.922682  0.829085  1
  O  O71  1  0.519928  0.909955  0.836165  1
  O  O72  1  0.975690  0.304501  0.882077  1
  O  O73  1  0.405824  0.576864  0.881424  1
  O  O74  1  0.390028  0.073791  0.909955  1
  O  O75  1  0.026320  0.829087  0.906404  1
  O  O76  1  0.119915  0.093597  0.922682  1
  O  O77  1  0.316238  0.836165  0.926209  1
  O  O78  1  0.803520  0.380826  0.976114  1
  O  O79  1  0.671230  0.594121  0.975078  1
