# generated using pymatgen
data_Tb4DyIr2Ru
_symmetry_space_group_name_H-M   'P 1'
_cell_length_a   10.87515100
_cell_length_b   10.87515100
_cell_length_c   6.43167600
_cell_angle_alpha   90.00000000
_cell_angle_beta   90.00000000
_cell_angle_gamma   90.00000000
_symmetry_Int_Tables_number   1
_chemical_formula_structural   Tb4DyIr2Ru
_chemical_formula_sum   'Tb16 Dy4 Ir8 Ru4'
_cell_volume   760.66730532
_cell_formula_units_Z   4
loop_
 _symmetry_equiv_pos_site_id
 _symmetry_equiv_pos_as_xyz
  1  'x, y, z'
loop_
 _atom_site_type_symbol
 _atom_site_label
 _atom_site_symmetry_multiplicity
 _atom_site_fract_x
 _atom_site_fract_y
 _atom_site_fract_z
 _atom_site_occupancy
  Tb  Tb0  1  0.293340  0.086871  0.378894  1
  Tb  Tb1  1  0.293340  0.913129  0.878894  1
  Tb  Tb2  1  0.706660  0.086871  0.878894  1
  Tb  Tb3  1  0.706660  0.913129  0.378894  1
  Tb  Tb4  1  0.586871  0.793340  0.878894  1
  Tb  Tb5  1  0.586871  0.206660  0.378894  1
  Tb  Tb6  1  0.413129  0.793340  0.378894  1
  Tb  Tb7  1  0.413129  0.206660  0.878894  1
  Tb  Tb8  1  0.206660  0.413129  0.621106  1
  Tb  Tb9  1  0.206660  0.586871  0.121106  1
  Tb  Tb10  1  0.793340  0.413129  0.121106  1
  Tb  Tb11  1  0.793340  0.586871  0.621106  1
  Tb  Tb12  1  0.913129  0.706660  0.121106  1
  Tb  Tb13  1  0.913129  0.293340  0.621106  1
  Tb  Tb14  1  0.086871  0.706660  0.621106  1
  Tb  Tb15  1  0.086871  0.293340  0.121106  1
  Dy  Dy16  1  0.000000  0.000000  0.500000  1
  Dy  Dy17  1  0.000000  0.000000  0.000000  1
  Dy  Dy18  1  0.500000  0.500000  0.000000  1
  Dy  Dy19  1  0.500000  0.500000  0.500000  1
  Ir  Ir20  1  0.847724  0.152276  0.250000  1
  Ir  Ir21  1  0.847724  0.847724  0.750000  1
  Ir  Ir22  1  0.152276  0.152276  0.750000  1
  Ir  Ir23  1  0.152276  0.847724  0.250000  1
  Ir  Ir24  1  0.652276  0.347724  0.750000  1
  Ir  Ir25  1  0.652276  0.652276  0.250000  1
  Ir  Ir26  1  0.347724  0.347724  0.250000  1
  Ir  Ir27  1  0.347724  0.652276  0.750000  1
  Ru  Ru28  1  0.500000  0.000000  0.123248  1
  Ru  Ru29  1  0.500000  0.000000  0.623248  1
  Ru  Ru30  1  0.000000  0.500000  0.876752  1
  Ru  Ru31  1  0.000000  0.500000  0.376752  1
