# generated using pymatgen
data_Li4Eu4SnBi2Pb
_symmetry_space_group_name_H-M   'P 1'
_cell_length_a   4.87381900
_cell_length_b   8.02238486
_cell_length_c   8.55381017
_cell_angle_alpha   89.91377920
_cell_angle_beta   90.00000000
_cell_angle_gamma   90.00000000
_symmetry_Int_Tables_number   1
_chemical_formula_structural   Li4Eu4SnBi2Pb
_chemical_formula_sum   'Li4 Eu4 Sn1 Bi2 Pb1'
_cell_volume   334.45062007
_cell_formula_units_Z   1
loop_
 _symmetry_equiv_pos_site_id
 _symmetry_equiv_pos_as_xyz
  1  'x, y, z'
loop_
 _atom_site_type_symbol
 _atom_site_label
 _atom_site_symmetry_multiplicity
 _atom_site_fract_x
 _atom_site_fract_y
 _atom_site_fract_z
 _atom_site_occupancy
  Li  Li0  1  0.250000  0.167871  0.921269  1
  Li  Li1  1  0.250000  0.662237  0.576781  1
  Li  Li2  1  0.750000  0.834668  0.077162  1
  Li  Li3  1  0.750000  0.332277  0.425014  1
  Eu  Eu4  1  0.250000  0.006602  0.292852  1
  Eu  Eu5  1  0.250000  0.502094  0.212503  1
  Eu  Eu6  1  0.750000  0.000410  0.707912  1
  Eu  Eu7  1  0.750000  0.493711  0.787497  1
  Sn  Sn8  1  0.750000  0.723576  0.406346  1
  Bi  Bi9  1  0.250000  0.774730  0.906569  1
  Bi  Bi10  1  0.750000  0.224870  0.093909  1
  Pb  Pb11  1  0.250000  0.276953  0.592186  1
