# generated using pymatgen
data_Tb2Al9IrPt2
_symmetry_space_group_name_H-M   'P 1'
_cell_length_a   7.59878240
_cell_length_b   7.59878198
_cell_length_c   9.44299800
_cell_angle_alpha   90.00000000
_cell_angle_beta   90.00000000
_cell_angle_gamma   119.64214502
_symmetry_Int_Tables_number   1
_chemical_formula_structural   Tb2Al9IrPt2
_chemical_formula_sum   'Tb4 Al18 Ir2 Pt4'
_cell_volume   473.89629488
_cell_formula_units_Z   2
loop_
 _symmetry_equiv_pos_site_id
 _symmetry_equiv_pos_as_xyz
  1  'x, y, z'
loop_
 _atom_site_type_symbol
 _atom_site_label
 _atom_site_symmetry_multiplicity
 _atom_site_fract_x
 _atom_site_fract_y
 _atom_site_fract_z
 _atom_site_occupancy
  Tb  Tb0  1  0.994033  0.668956  0.250000  1
  Tb  Tb1  1  0.005967  0.331044  0.750000  1
  Tb  Tb2  1  0.668956  0.994033  0.250000  1
  Tb  Tb3  1  0.331044  0.005967  0.750000  1
  Al  Al4  1  0.127354  0.127354  0.250000  1
  Al  Al5  1  0.872646  0.872646  0.750000  1
  Al  Al6  1  0.999935  0.331188  0.075958  1
  Al  Al7  1  0.000065  0.668812  0.924042  1
  Al  Al8  1  0.000065  0.668812  0.575958  1
  Al  Al9  1  0.331188  0.999935  0.424042  1
  Al  Al10  1  0.999935  0.331188  0.424042  1
  Al  Al11  1  0.668812  0.000065  0.575958  1
  Al  Al12  1  0.668812  0.000065  0.924042  1
  Al  Al13  1  0.331188  0.999935  0.075958  1
  Al  Al14  1  0.330264  0.330264  0.555794  1
  Al  Al15  1  0.669736  0.669736  0.444206  1
  Al  Al16  1  0.669736  0.669736  0.055794  1
  Al  Al17  1  0.330264  0.330264  0.944206  1
  Al  Al18  1  0.340306  0.546511  0.250000  1
  Al  Al19  1  0.659694  0.453489  0.750000  1
  Al  Al20  1  0.546511  0.340306  0.250000  1
  Al  Al21  1  0.453489  0.659694  0.750000  1
  Ir  Ir22  1  0.000000  0.000000  0.000000  1
  Ir  Ir23  1  0.000000  0.000000  0.500000  1
  Pt  Pt24  1  0.672169  0.327831  0.000000  1
  Pt  Pt25  1  0.327831  0.672169  0.000000  1
  Pt  Pt26  1  0.327831  0.672169  0.500000  1
  Pt  Pt27  1  0.672169  0.327831  0.500000  1
