# generated using pymatgen
data_Nd2Sb(AsRh2)6
_symmetry_space_group_name_H-M   'P 1'
_cell_length_a   10.09591700
_cell_length_b   10.09591760
_cell_length_c   3.98421900
_cell_angle_alpha   90.00000000
_cell_angle_beta   90.00000000
_cell_angle_gamma   120.00000131
_symmetry_Int_Tables_number   1
_chemical_formula_structural   Nd2Sb(AsRh2)6
_chemical_formula_sum   'Nd2 Sb1 As6 Rh12'
_cell_volume   351.69435453
_cell_formula_units_Z   1
loop_
 _symmetry_equiv_pos_site_id
 _symmetry_equiv_pos_as_xyz
  1  'x, y, z'
loop_
 _atom_site_type_symbol
 _atom_site_label
 _atom_site_symmetry_multiplicity
 _atom_site_fract_x
 _atom_site_fract_y
 _atom_site_fract_z
 _atom_site_occupancy
  Nd  Nd0  1  0.333333  0.666667  0.249611  1
  Nd  Nd1  1  0.666667  0.333333  0.750389  1
  Sb  Sb2  1  0.000000  0.000000  0.500000  1
  As  As3  1  0.405230  0.115878  0.252354  1
  As  As4  1  0.710648  0.594770  0.252354  1
  As  As5  1  0.884122  0.289352  0.252354  1
  As  As6  1  0.594770  0.884122  0.747646  1
  As  As7  1  0.289352  0.405230  0.747646  1
  As  As8  1  0.115878  0.710648  0.747646  1
  Rh  Rh9  1  0.446404  0.383113  0.251456  1
  Rh  Rh10  1  0.936708  0.553596  0.251456  1
  Rh  Rh11  1  0.616887  0.063292  0.251456  1
  Rh  Rh12  1  0.553596  0.616887  0.748544  1
  Rh  Rh13  1  0.063292  0.446404  0.748544  1
  Rh  Rh14  1  0.383113  0.936708  0.748544  1
  Rh  Rh15  1  0.155322  0.879494  0.241374  1
  Rh  Rh16  1  0.724172  0.844678  0.241374  1
  Rh  Rh17  1  0.120506  0.275828  0.241374  1
  Rh  Rh18  1  0.844678  0.120506  0.758626  1
  Rh  Rh19  1  0.275828  0.155322  0.758626  1
  Rh  Rh20  1  0.879494  0.724172  0.758626  1
