# generated using pymatgen
data_Rh6PbO12
_symmetry_space_group_name_H-M   'P 1'
_cell_length_a   8.33050587
_cell_length_b   8.33050582
_cell_length_c   9.60657671
_cell_angle_alpha   57.42891654
_cell_angle_beta   57.42891994
_cell_angle_gamma   68.45521307
_symmetry_Int_Tables_number   1
_chemical_formula_structural   Rh6PbO12
_chemical_formula_sum   'Rh12 Pb2 O24'
_cell_volume   470.63780566
_cell_formula_units_Z   2
loop_
 _symmetry_equiv_pos_site_id
 _symmetry_equiv_pos_as_xyz
  1  'x, y, z'
loop_
 _atom_site_type_symbol
 _atom_site_label
 _atom_site_symmetry_multiplicity
 _atom_site_fract_x
 _atom_site_fract_y
 _atom_site_fract_z
 _atom_site_occupancy
  Rh  Rh0  1  0.672203  0.003994  0.816793  1
  Rh  Rh1  1  0.191419  0.524368  0.472001  1
  Rh  Rh2  1  0.860211  0.860211  0.467318  1
  Rh  Rh3  1  0.808581  0.475632  0.527999  1
  Rh  Rh4  1  0.327797  0.996006  0.183207  1
  Rh  Rh5  1  0.996006  0.327797  0.183207  1
  Rh  Rh6  1  0.337101  0.337101  0.819731  1
  Rh  Rh7  1  0.003994  0.672203  0.816793  1
  Rh  Rh8  1  0.524368  0.191419  0.472001  1
  Rh  Rh9  1  0.475632  0.808581  0.527999  1
  Rh  Rh10  1  0.139789  0.139789  0.532682  1
  Rh  Rh11  1  0.662899  0.662899  0.180269  1
  Pb  Pb12  1  0.255281  0.744719  0.000000  1
  Pb  Pb13  1  0.744719  0.255281  0.000000  1
  O  O14  1  0.710426  0.710426  0.931404  1
  O  O15  1  0.010851  0.673174  0.344022  1
  O  O16  1  0.673174  0.010851  0.344022  1
  O  O17  1  0.699865  0.030751  0.591120  1
  O  O18  1  0.030751  0.699865  0.591120  1
  O  O19  1  0.044620  0.044620  0.258856  1
  O  O20  1  0.709666  0.378099  0.254494  1
  O  O21  1  0.378099  0.709666  0.254494  1
  O  O22  1  0.969249  0.300135  0.408880  1
  O  O23  1  0.989149  0.326826  0.655978  1
  O  O24  1  0.037656  0.374698  0.933951  1
  O  O25  1  0.374698  0.037656  0.933951  1
  O  O26  1  0.289574  0.289574  0.068596  1
  O  O27  1  0.962344  0.625302  0.066049  1
  O  O28  1  0.335660  0.335660  0.357558  1
  O  O29  1  0.364276  0.364276  0.594485  1
  O  O30  1  0.290334  0.621901  0.745506  1
  O  O31  1  0.621901  0.290334  0.745506  1
  O  O32  1  0.955380  0.955380  0.741144  1
  O  O33  1  0.635724  0.635724  0.405515  1
  O  O34  1  0.300135  0.969249  0.408880  1
  O  O35  1  0.664340  0.664340  0.642442  1
  O  O36  1  0.326826  0.989149  0.655978  1
  O  O37  1  0.625302  0.962344  0.066049  1
