# generated using pymatgen
data_Tb3Y5Lu2(SiB4)4
_symmetry_space_group_name_H-M   'P 1'
_cell_length_a   7.22511007
_cell_length_b   7.22511007
_cell_length_c   8.06276901
_cell_angle_alpha   89.99658977
_cell_angle_beta   89.99658977
_cell_angle_gamma   90.01559051
_symmetry_Int_Tables_number   1
_chemical_formula_structural   Tb3Y5Lu2(SiB4)4
_chemical_formula_sum   'Tb3 Y5 Lu2 Si4 B16'
_cell_volume   420.89438836
_cell_formula_units_Z   1
loop_
 _symmetry_equiv_pos_site_id
 _symmetry_equiv_pos_as_xyz
  1  'x, y, z'
loop_
 _atom_site_type_symbol
 _atom_site_label
 _atom_site_symmetry_multiplicity
 _atom_site_fract_x
 _atom_site_fract_y
 _atom_site_fract_z
 _atom_site_occupancy
  Tb  Tb0  1  0.680274  0.180274  0.225918  1
  Tb  Tb1  1  0.319684  0.819684  0.773928  1
  Tb  Tb2  1  0.319735  0.819735  0.226024  1
  Y  Y3  1  0.819651  0.680333  0.225211  1
  Y  Y4  1  0.819618  0.680389  0.774798  1
  Y  Y5  1  0.680219  0.180219  0.774537  1
  Y  Y6  1  0.180389  0.319618  0.774798  1
  Y  Y7  1  0.180333  0.319651  0.225211  1
  Lu  Lu8  1  0.999945  0.000030  0.499985  1
  Lu  Lu9  1  0.500030  0.499945  0.499985  1
  Si  Si10  1  0.115720  0.615720  0.500075  1
  Si  Si11  1  0.884139  0.384139  0.500068  1
  Si  Si12  1  0.384142  0.116027  0.500059  1
  Si  Si13  1  0.616027  0.884142  0.500059  1
  B  B14  1  0.172407  0.039044  0.999928  1
  B  B15  1  0.827571  0.960945  0.999972  1
  B  B16  1  0.960816  0.172389  0.999985  1
  B  B17  1  0.327685  0.539120  0.999914  1
  B  B18  1  0.039120  0.827685  0.999914  1
  B  B19  1  0.672389  0.460816  0.999985  1
  B  B20  1  0.539044  0.672407  0.999928  1
  B  B21  1  0.460945  0.327571  0.999972  1
  B  B22  1  0.089804  0.589804  0.999963  1
  B  B23  1  0.910254  0.410254  0.000095  1
  B  B24  1  0.410212  0.089844  0.999976  1
  B  B25  1  0.589844  0.910212  0.999976  1
  B  B26  1  0.999970  0.000053  0.163012  1
  B  B27  1  0.999934  0.000049  0.836855  1
  B  B28  1  0.500049  0.499934  0.836855  1
  B  B29  1  0.500053  0.499970  0.163012  1
