# generated using pymatgen
data_Cs3Ag2F7
_symmetry_space_group_name_H-M   'P 1'
_cell_length_a   11.93030200
_cell_length_b   11.93030225
_cell_length_c   6.68083300
_cell_angle_alpha   90.00000000
_cell_angle_beta   90.00000000
_cell_angle_gamma   147.44007466
_symmetry_Int_Tables_number   1
_chemical_formula_structural   Cs3Ag2F7
_chemical_formula_sum   'Cs6 Ag4 F14'
_cell_volume   511.75511754
_cell_formula_units_Z   2
loop_
 _symmetry_equiv_pos_site_id
 _symmetry_equiv_pos_as_xyz
  1  'x, y, z'
loop_
 _atom_site_type_symbol
 _atom_site_label
 _atom_site_symmetry_multiplicity
 _atom_site_fract_x
 _atom_site_fract_y
 _atom_site_fract_z
 _atom_site_occupancy
  Cs  Cs0  1  0.819468  0.180532  0.500000  1
  Cs  Cs1  1  0.180532  0.819468  0.500000  1
  Cs  Cs2  1  0.680532  0.319468  0.000000  1
  Cs  Cs3  1  0.319468  0.680532  0.000000  1
  Cs  Cs4  1  0.000000  0.000000  0.500000  1
  Cs  Cs5  1  0.500000  0.500000  0.000000  1
  Ag  Ag6  1  0.594222  0.405778  0.500000  1
  Ag  Ag7  1  0.405778  0.594222  0.500000  1
  Ag  Ag8  1  0.905778  0.094222  0.000000  1
  Ag  Ag9  1  0.094222  0.905778  0.000000  1
  F  F10  1  0.316182  0.131100  0.776332  1
  F  F11  1  0.131100  0.316182  0.223668  1
  F  F12  1  0.683818  0.868900  0.776332  1
  F  F13  1  0.868900  0.683818  0.223668  1
  F  F14  1  0.183818  0.368900  0.723668  1
  F  F15  1  0.368900  0.183818  0.276332  1
  F  F16  1  0.816182  0.631100  0.723668  1
  F  F17  1  0.631100  0.816182  0.276332  1
  F  F18  1  0.689031  0.310969  0.500000  1
  F  F19  1  0.310969  0.689031  0.500000  1
  F  F20  1  0.500000  0.500000  0.500000  1
  F  F21  1  0.000000  0.000000  0.000000  1
  F  F22  1  0.189031  0.810969  0.000000  1
  F  F23  1  0.810969  0.189031  0.000000  1
