# generated using pymatgen
data_Ho2Er2TmPt4
_symmetry_space_group_name_H-M   'P 1'
_cell_length_a   7.43099800
_cell_length_b   7.52632100
_cell_length_c   14.64167400
_cell_angle_alpha   90.00000000
_cell_angle_beta   90.00000000
_cell_angle_gamma   90.00000000
_symmetry_Int_Tables_number   1
_chemical_formula_structural   Ho2Er2TmPt4
_chemical_formula_sum   'Ho8 Er8 Tm4 Pt16'
_cell_volume   818.88066061
_cell_formula_units_Z   4
loop_
 _symmetry_equiv_pos_site_id
 _symmetry_equiv_pos_as_xyz
  1  'x, y, z'
loop_
 _atom_site_type_symbol
 _atom_site_label
 _atom_site_symmetry_multiplicity
 _atom_site_fract_x
 _atom_site_fract_y
 _atom_site_fract_z
 _atom_site_occupancy
  Ho  Ho0  1  0.501008  0.679782  0.592581  1
  Ho  Ho1  1  0.001008  0.820218  0.907419  1
  Ho  Ho2  1  0.498992  0.320218  0.092581  1
  Ho  Ho3  1  0.998992  0.179782  0.407419  1
  Ho  Ho4  1  0.498992  0.320218  0.407419  1
  Ho  Ho5  1  0.998992  0.179782  0.092581  1
  Ho  Ho6  1  0.501008  0.679782  0.907419  1
  Ho  Ho7  1  0.001008  0.820218  0.592581  1
  Er  Er8  1  0.656987  0.167731  0.622604  1
  Er  Er9  1  0.156987  0.332269  0.877396  1
  Er  Er10  1  0.343013  0.832269  0.122604  1
  Er  Er11  1  0.843013  0.667731  0.377396  1
  Er  Er12  1  0.343013  0.832269  0.377396  1
  Er  Er13  1  0.843013  0.667731  0.122604  1
  Er  Er14  1  0.656987  0.167731  0.877396  1
  Er  Er15  1  0.156987  0.332269  0.622604  1
  Tm  Tm16  1  0.819208  0.511354  0.750000  1
  Tm  Tm17  1  0.319208  0.988646  0.750000  1
  Tm  Tm18  1  0.180792  0.488646  0.250000  1
  Tm  Tm19  1  0.680792  0.011354  0.250000  1
  Pt  Pt20  1  0.683333  0.966815  0.458322  1
  Pt  Pt21  1  0.183333  0.533185  0.041678  1
  Pt  Pt22  1  0.316667  0.033185  0.958322  1
  Pt  Pt23  1  0.816667  0.466815  0.541678  1
  Pt  Pt24  1  0.316667  0.033185  0.541678  1
  Pt  Pt25  1  0.816667  0.466815  0.958322  1
  Pt  Pt26  1  0.683333  0.966815  0.041678  1
  Pt  Pt27  1  0.183333  0.533185  0.458322  1
  Pt  Pt28  1  0.454440  0.386594  0.750000  1
  Pt  Pt29  1  0.954440  0.113406  0.750000  1
  Pt  Pt30  1  0.545560  0.613406  0.250000  1
  Pt  Pt31  1  0.045560  0.886594  0.250000  1
  Pt  Pt32  1  0.682747  0.856557  0.750000  1
  Pt  Pt33  1  0.182747  0.643443  0.750000  1
  Pt  Pt34  1  0.317253  0.143443  0.250000  1
  Pt  Pt35  1  0.817253  0.356557  0.250000  1
