# generated using pymatgen
data_Sm7YSc12Si15Se
_symmetry_space_group_name_H-M   'P 1'
_cell_length_a   7.23538595
_cell_length_b   7.43692771
_cell_length_c   14.09930786
_cell_angle_alpha   89.96167102
_cell_angle_beta   88.53729832
_cell_angle_gamma   90.15464079
_symmetry_Int_Tables_number   1
_chemical_formula_structural   Sm7YSc12Si15Se
_chemical_formula_sum   'Sm7 Y1 Sc12 Si15 Se1'
_cell_volume   758.42007425
_cell_formula_units_Z   1
loop_
 _symmetry_equiv_pos_site_id
 _symmetry_equiv_pos_as_xyz
  1  'x, y, z'
loop_
 _atom_site_type_symbol
 _atom_site_label
 _atom_site_symmetry_multiplicity
 _atom_site_fract_x
 _atom_site_fract_y
 _atom_site_fract_z
 _atom_site_occupancy
  Sm  Sm0  1  0.988890  0.826931  0.902286  1
  Sm  Sm1  1  0.488662  0.673778  0.902917  1
  Sm  Sm2  1  0.996484  0.823801  0.596327  1
  Sm  Sm3  1  0.511488  0.326635  0.097957  1
  Sm  Sm4  1  0.001696  0.175969  0.402445  1
  Sm  Sm5  1  0.502204  0.320113  0.400174  1
  Sm  Sm6  1  0.504960  0.678741  0.598948  1
  Y  Y7  1  0.011870  0.176190  0.098807  1
  Sc  Sc8  1  0.166019  0.499403  0.752345  1
  Sc  Sc9  1  0.833935  0.500888  0.253466  1
  Sc  Sc10  1  0.332955  0.999000  0.251124  1
  Sc  Sc11  1  0.667454  0.000718  0.749150  1
  Sc  Sc12  1  0.346748  0.166329  0.627530  1
  Sc  Sc13  1  0.655891  0.829677  0.373102  1
  Sc  Sc14  1  0.154488  0.671151  0.376983  1
  Sc  Sc15  1  0.667768  0.825135  0.125580  1
  Sc  Sc16  1  0.839251  0.330839  0.620968  1
  Sc  Sc17  1  0.331377  0.175121  0.873757  1
  Sc  Sc18  1  0.833625  0.322920  0.874356  1
  Sc  Sc19  1  0.166334  0.677159  0.125322  1
  Si  Si20  1  0.039301  0.123363  0.748044  1
  Si  Si21  1  0.960228  0.879842  0.249607  1
  Si  Si22  1  0.456414  0.621454  0.248819  1
  Si  Si23  1  0.542158  0.379070  0.750389  1
  Si  Si24  1  0.291880  0.874216  0.750343  1
  Si  Si25  1  0.710454  0.123623  0.247912  1
  Si  Si26  1  0.206654  0.378012  0.249108  1
  Si  Si27  1  0.795258  0.621923  0.750233  1
  Si  Si28  1  0.806299  0.542906  0.455110  1
  Si  Si29  1  0.328660  0.959316  0.460308  1
  Si  Si30  1  0.846251  0.534920  0.039808  1
  Si  Si31  1  0.670782  0.039498  0.540818  1
  Si  Si32  1  0.152987  0.463406  0.960870  1
  Si  Si33  1  0.653014  0.035906  0.959500  1
  Si  Si34  1  0.344444  0.966346  0.040659  1
  Se  Se35  1  0.193121  0.455702  0.544928  1
