# generated using pymatgen
data_Rb16HfSnSb8
_symmetry_space_group_name_H-M   'P 1'
_cell_length_a   12.09847861
_cell_length_b   12.09847895
_cell_length_c   12.09847900
_cell_angle_alpha   60.00000259
_cell_angle_beta   60.00000167
_cell_angle_gamma   60.00000204
_symmetry_Int_Tables_number   1
_chemical_formula_structural   Rb16HfSnSb8
_chemical_formula_sum   'Rb16 Hf1 Sn1 Sb8'
_cell_volume   1252.21047373
_cell_formula_units_Z   1
loop_
 _symmetry_equiv_pos_site_id
 _symmetry_equiv_pos_as_xyz
  1  'x, y, z'
loop_
 _atom_site_type_symbol
 _atom_site_label
 _atom_site_symmetry_multiplicity
 _atom_site_fract_x
 _atom_site_fract_y
 _atom_site_fract_z
 _atom_site_occupancy
  Rb  Rb0  1  0.622402  0.132794  0.622402  1
  Rb  Rb1  1  0.622402  0.622402  0.132794  1
  Rb  Rb2  1  0.132794  0.622402  0.622402  1
  Rb  Rb3  1  0.622402  0.622402  0.622402  1
  Rb  Rb4  1  0.021694  0.021694  0.478306  1
  Rb  Rb5  1  0.779581  0.220419  0.220419  1
  Rb  Rb6  1  0.220419  0.779581  0.779581  1
  Rb  Rb7  1  0.779581  0.779581  0.220419  1
  Rb  Rb8  1  0.779581  0.220419  0.779581  1
  Rb  Rb9  1  0.220419  0.779581  0.220419  1
  Rb  Rb10  1  0.478306  0.021694  0.478306  1
  Rb  Rb11  1  0.478306  0.021694  0.021694  1
  Rb  Rb12  1  0.021694  0.478306  0.478306  1
  Rb  Rb13  1  0.021694  0.478306  0.021694  1
  Rb  Rb14  1  0.220419  0.220419  0.779581  1
  Rb  Rb15  1  0.478306  0.478306  0.021694  1
  Hf  Hf16  1  0.750000  0.750000  0.750000  1
  Sn  Sn17  1  0.500000  0.500000  0.500000  1
  Sb  Sb18  1  0.398938  0.803186  0.398938  1
  Sb  Sb19  1  0.847239  0.847239  0.458282  1
  Sb  Sb20  1  0.458282  0.847239  0.847239  1
  Sb  Sb21  1  0.847239  0.847239  0.847239  1
  Sb  Sb22  1  0.803186  0.398938  0.398938  1
  Sb  Sb23  1  0.398938  0.398938  0.398938  1
  Sb  Sb24  1  0.398938  0.398938  0.803186  1
  Sb  Sb25  1  0.847239  0.458282  0.847239  1
