# generated using pymatgen
data_TbSm4Nb3(Co4P3)4
_symmetry_space_group_name_H-M   'P 1'
_cell_length_a   12.26008000
_cell_length_b   12.25720860
_cell_length_c   3.73024600
_cell_angle_alpha   90.00000000
_cell_angle_beta   90.00000000
_cell_angle_gamma   120.00774962
_symmetry_Int_Tables_number   1
_chemical_formula_structural   TbSm4Nb3(Co4P3)4
_chemical_formula_sum   'Tb1 Sm4 Nb3 Co16 P12'
_cell_volume   485.42156598
_cell_formula_units_Z   1
loop_
 _symmetry_equiv_pos_site_id
 _symmetry_equiv_pos_as_xyz
  1  'x, y, z'
loop_
 _atom_site_type_symbol
 _atom_site_label
 _atom_site_symmetry_multiplicity
 _atom_site_fract_x
 _atom_site_fract_y
 _atom_site_fract_z
 _atom_site_occupancy
  Tb  Tb0  1  0.815578  0.000000  0.500000  1
  Sm  Sm1  1  0.999770  0.815998  0.500000  1
  Sm  Sm2  1  0.183772  0.184002  0.500000  1
  Sm  Sm3  1  0.333215  0.666373  0.000000  1
  Sm  Sm4  1  0.666843  0.333627  0.000000  1
  Nb  Nb5  1  0.443821  0.000000  0.000000  1
  Nb  Nb6  1  0.999605  0.442582  0.000000  1
  Nb  Nb7  1  0.557023  0.557418  0.000000  1
  Co  Co8  1  0.280318  0.000000  0.500000  1
  Co  Co9  1  0.998827  0.278726  0.500000  1
  Co  Co10  1  0.720100  0.721274  0.500000  1
  Co  Co11  1  0.626455  0.803843  0.000000  1
  Co  Co12  1  0.197705  0.823022  0.000000  1
  Co  Co13  1  0.176449  0.373942  0.000000  1
  Co  Co14  1  0.374683  0.176978  0.000000  1
  Co  Co15  1  0.802508  0.626058  0.000000  1
  Co  Co16  1  0.822612  0.196157  0.000000  1
  Co  Co17  1  0.520673  0.874545  0.500000  1
  Co  Co18  1  0.125767  0.645464  0.500000  1
  Co  Co19  1  0.354244  0.479868  0.500000  1
  Co  Co20  1  0.480304  0.354536  0.500000  1
  Co  Co21  1  0.874377  0.520132  0.500000  1
  Co  Co22  1  0.646129  0.125455  0.500000  1
  Co  Co23  1  0.999224  0.000000  0.000000  1
  P  P24  1  0.179874  0.000000  0.000000  1
  P  P25  1  0.998330  0.178329  0.000000  1
  P  P26  1  0.820001  0.821671  0.000000  1
  P  P27  1  0.522569  0.689704  0.500000  1
  P  P28  1  0.310681  0.833036  0.500000  1
  P  P29  1  0.166481  0.476594  0.500000  1
  P  P30  1  0.477646  0.166964  0.500000  1
  P  P31  1  0.689888  0.523406  0.500000  1
  P  P32  1  0.832865  0.310296  0.500000  1
  P  P33  1  0.642864  0.000000  0.000000  1
  P  P34  1  0.000048  0.641295  0.000000  1
  P  P35  1  0.358752  0.358705  0.000000  1
