# generated using pymatgen
data_Cs4GeSe4
_symmetry_space_group_name_H-M   'P 1'
_cell_length_a   14.79613200
_cell_length_b   14.79613200
_cell_length_c   14.79613200
_cell_angle_alpha   90.00000000
_cell_angle_beta   90.00000000
_cell_angle_gamma   90.00000000
_symmetry_Int_Tables_number   1
_chemical_formula_structural   Cs4GeSe4
_chemical_formula_sum   'Cs32 Ge8 Se32'
_cell_volume   3239.25092407
_cell_formula_units_Z   8
loop_
 _symmetry_equiv_pos_site_id
 _symmetry_equiv_pos_as_xyz
  1  'x, y, z'
loop_
 _atom_site_type_symbol
 _atom_site_label
 _atom_site_symmetry_multiplicity
 _atom_site_fract_x
 _atom_site_fract_y
 _atom_site_fract_z
 _atom_site_occupancy
  Cs  Cs0  1  0.348322  0.348322  0.348322  1
  Cs  Cs1  1  0.151678  0.848322  0.151678  1
  Cs  Cs2  1  0.848322  0.151678  0.151678  1
  Cs  Cs3  1  0.151678  0.151678  0.848322  1
  Cs  Cs4  1  0.348322  0.651678  0.651678  1
  Cs  Cs5  1  0.651678  0.651678  0.348322  1
  Cs  Cs6  1  0.651678  0.348322  0.651678  1
  Cs  Cs7  1  0.848322  0.848322  0.848322  1
  Cs  Cs8  1  0.349188  0.134237  0.084888  1
  Cs  Cs9  1  0.349188  0.865763  0.915112  1
  Cs  Cs10  1  0.134237  0.084888  0.349188  1
  Cs  Cs11  1  0.865763  0.084888  0.650812  1
  Cs  Cs12  1  0.084888  0.349188  0.134237  1
  Cs  Cs13  1  0.915112  0.650812  0.134237  1
  Cs  Cs14  1  0.150812  0.415112  0.634237  1
  Cs  Cs15  1  0.150812  0.584888  0.365763  1
  Cs  Cs16  1  0.849188  0.415112  0.365763  1
  Cs  Cs17  1  0.584888  0.365763  0.150812  1
  Cs  Cs18  1  0.365763  0.849188  0.415112  1
  Cs  Cs19  1  0.365763  0.150812  0.584888  1
  Cs  Cs20  1  0.415112  0.634237  0.150812  1
  Cs  Cs21  1  0.634237  0.150812  0.415112  1
  Cs  Cs22  1  0.415112  0.365763  0.849188  1
  Cs  Cs23  1  0.584888  0.634237  0.849188  1
  Cs  Cs24  1  0.634237  0.849188  0.584888  1
  Cs  Cs25  1  0.915112  0.349188  0.865763  1
  Cs  Cs26  1  0.084888  0.650812  0.865763  1
  Cs  Cs27  1  0.134237  0.915112  0.650812  1
  Cs  Cs28  1  0.865763  0.915112  0.349188  1
  Cs  Cs29  1  0.650812  0.865763  0.084888  1
  Cs  Cs30  1  0.650812  0.134237  0.915112  1
  Cs  Cs31  1  0.849188  0.584888  0.634237  1
  Ge  Ge32  1  0.000000  0.250000  0.500000  1
  Ge  Ge33  1  0.000000  0.750000  0.500000  1
  Ge  Ge34  1  0.500000  0.000000  0.750000  1
  Ge  Ge35  1  0.500000  0.000000  0.250000  1
  Ge  Ge36  1  0.750000  0.500000  0.000000  1
  Ge  Ge37  1  0.000000  0.000000  0.000000  1
  Ge  Ge38  1  0.500000  0.500000  0.500000  1
  Ge  Ge39  1  0.250000  0.500000  0.000000  1
  Se  Se40  1  0.101925  0.160212  0.590763  1
  Se  Se41  1  0.339788  0.601925  0.909237  1
  Se  Se42  1  0.398075  0.090763  0.339788  1
  Se  Se43  1  0.601925  0.090763  0.660212  1
  Se  Se44  1  0.090763  0.339788  0.398075  1
  Se  Se45  1  0.909237  0.660212  0.398075  1
  Se  Se46  1  0.160212  0.409237  0.898075  1
  Se  Se47  1  0.160212  0.590763  0.101925  1
  Se  Se48  1  0.839788  0.409237  0.101925  1
  Se  Se49  1  0.594042  0.594042  0.594042  1
  Se  Se50  1  0.101925  0.839788  0.409237  1
  Se  Se51  1  0.339788  0.398075  0.090763  1
  Se  Se52  1  0.409237  0.898075  0.160212  1
  Se  Se53  1  0.898075  0.160212  0.409237  1
  Se  Se54  1  0.409237  0.101925  0.839788  1
  Se  Se55  1  0.590763  0.898075  0.839788  1
  Se  Se56  1  0.898075  0.839788  0.590763  1
  Se  Se57  1  0.909237  0.339788  0.601925  1
  Se  Se58  1  0.090763  0.660212  0.601925  1
  Se  Se59  1  0.398075  0.909237  0.660212  1
  Se  Se60  1  0.601925  0.909237  0.339788  1
  Se  Se61  1  0.660212  0.601925  0.090763  1
  Se  Se62  1  0.660212  0.398075  0.909237  1
  Se  Se63  1  0.839788  0.590763  0.898075  1
  Se  Se64  1  0.905958  0.094042  0.905958  1
  Se  Se65  1  0.905958  0.905958  0.094042  1
  Se  Se66  1  0.094042  0.905958  0.905958  1
  Se  Se67  1  0.405958  0.405958  0.594042  1
  Se  Se68  1  0.594042  0.405958  0.405958  1
  Se  Se69  1  0.405958  0.594042  0.405958  1
  Se  Se70  1  0.094042  0.094042  0.094042  1
  Se  Se71  1  0.590763  0.101925  0.160212  1
