# generated using pymatgen
data_Yb4Pr3Y(Cu2Sn5)2
_symmetry_space_group_name_H-M   'P 1'
_cell_length_a   4.49015900
_cell_length_b   8.71200600
_cell_length_c   14.41608600
_cell_angle_alpha   90.00000000
_cell_angle_beta   90.00000000
_cell_angle_gamma   90.00000000
_symmetry_Int_Tables_number   1
_chemical_formula_structural   Yb4Pr3Y(Cu2Sn5)2
_chemical_formula_sum   'Yb4 Pr3 Y1 Cu4 Sn10'
_cell_volume   563.93266379
_cell_formula_units_Z   1
loop_
 _symmetry_equiv_pos_site_id
 _symmetry_equiv_pos_as_xyz
  1  'x, y, z'
loop_
 _atom_site_type_symbol
 _atom_site_label
 _atom_site_symmetry_multiplicity
 _atom_site_fract_x
 _atom_site_fract_y
 _atom_site_fract_z
 _atom_site_occupancy
  Yb  Yb0  1  0.500000  0.792457  0.745624  1
  Yb  Yb1  1  0.000000  0.207267  0.755145  1
  Yb  Yb2  1  0.000000  0.207267  0.244855  1
  Yb  Yb3  1  0.500000  0.792457  0.254376  1
  Pr  Pr4  1  0.000000  0.306660  0.500000  1
  Pr  Pr5  1  0.500000  0.144988  0.000000  1
  Pr  Pr6  1  0.000000  0.853127  0.500000  1
  Y  Y7  1  0.500000  0.693166  0.000000  1
  Cu  Cu8  1  0.500000  0.380130  0.648873  1
  Cu  Cu9  1  0.000000  0.620719  0.853108  1
  Cu  Cu10  1  0.000000  0.620719  0.146892  1
  Cu  Cu11  1  0.500000  0.380130  0.351127  1
  Sn  Sn12  1  0.500000  0.081005  0.396313  1
  Sn  Sn13  1  0.000000  0.559768  0.666944  1
  Sn  Sn14  1  0.000000  0.418632  0.000000  1
  Sn  Sn15  1  0.500000  0.442629  0.164687  1
  Sn  Sn16  1  0.500000  0.583922  0.500000  1
  Sn  Sn17  1  0.500000  0.442629  0.835313  1
  Sn  Sn18  1  0.000000  0.915776  0.897700  1
  Sn  Sn19  1  0.000000  0.559768  0.333056  1
  Sn  Sn20  1  0.500000  0.081005  0.603687  1
  Sn  Sn21  1  0.000000  0.915776  0.102300  1
