# generated using pymatgen
data_Dy3Tm2GaSb2
_symmetry_space_group_name_H-M   'P 1'
_cell_length_a   8.76938200
_cell_length_b   8.81452603
_cell_length_c   6.34897100
_cell_angle_alpha   90.00000000
_cell_angle_beta   90.00000000
_cell_angle_gamma   119.83072464
_symmetry_Int_Tables_number   1
_chemical_formula_structural   Dy3Tm2GaSb2
_chemical_formula_sum   'Dy6 Tm4 Ga2 Sb4'
_cell_volume   425.73582148
_cell_formula_units_Z   2
loop_
 _symmetry_equiv_pos_site_id
 _symmetry_equiv_pos_as_xyz
  1  'x, y, z'
loop_
 _atom_site_type_symbol
 _atom_site_label
 _atom_site_symmetry_multiplicity
 _atom_site_fract_x
 _atom_site_fract_y
 _atom_site_fract_z
 _atom_site_occupancy
  Dy  Dy0  1  0.244507  0.000000  0.250000  1
  Dy  Dy1  1  0.755493  0.000000  0.750000  1
  Dy  Dy2  1  0.987412  0.233369  0.250000  1
  Dy  Dy3  1  0.754044  0.766631  0.250000  1
  Dy  Dy4  1  0.245956  0.233369  0.750000  1
  Dy  Dy5  1  0.012588  0.766631  0.750000  1
  Tm  Tm6  1  0.342411  0.684824  0.000000  1
  Tm  Tm7  1  0.657589  0.315176  0.500000  1
  Tm  Tm8  1  0.657589  0.315176  0.000000  1
  Tm  Tm9  1  0.342411  0.684824  0.500000  1
  Ga  Ga10  1  0.601381  0.000000  0.250000  1
  Ga  Ga11  1  0.398619  0.000000  0.750000  1
  Sb  Sb12  1  0.993556  0.603259  0.250000  1
  Sb  Sb13  1  0.390297  0.396741  0.250000  1
  Sb  Sb14  1  0.609703  0.603259  0.750000  1
  Sb  Sb15  1  0.006444  0.396741  0.750000  1
