# generated using pymatgen
data_Rb8Dy6BeBr20
_symmetry_space_group_name_H-M   'P 1'
_cell_length_a   12.36294934
_cell_length_b   12.36294878
_cell_length_c   12.36294800
_cell_angle_alpha   59.99999673
_cell_angle_beta   59.99999823
_cell_angle_gamma   59.99999732
_symmetry_Int_Tables_number   1
_chemical_formula_structural   Rb8Dy6BeBr20
_chemical_formula_sum   'Rb8 Dy6 Be1 Br20'
_cell_volume   1336.13757928
_cell_formula_units_Z   1
loop_
 _symmetry_equiv_pos_site_id
 _symmetry_equiv_pos_as_xyz
  1  'x, y, z'
loop_
 _atom_site_type_symbol
 _atom_site_label
 _atom_site_symmetry_multiplicity
 _atom_site_fract_x
 _atom_site_fract_y
 _atom_site_fract_z
 _atom_site_occupancy
  Rb  Rb0  1  0.358827  0.358827  0.358827  1
  Rb  Rb1  1  0.641173  0.641173  0.641173  1
  Rb  Rb2  1  0.358827  0.358827  0.923518  1
  Rb  Rb3  1  0.358827  0.923518  0.358827  1
  Rb  Rb4  1  0.641173  0.641173  0.076482  1
  Rb  Rb5  1  0.641173  0.076482  0.641173  1
  Rb  Rb6  1  0.923518  0.358827  0.358827  1
  Rb  Rb7  1  0.076482  0.641173  0.641173  1
  Dy  Dy8  1  0.844660  0.155340  0.155340  1
  Dy  Dy9  1  0.155340  0.844660  0.844660  1
  Dy  Dy10  1  0.155340  0.844660  0.155340  1
  Dy  Dy11  1  0.844660  0.155340  0.844660  1
  Dy  Dy12  1  0.155340  0.155340  0.844660  1
  Dy  Dy13  1  0.844660  0.844660  0.155340  1
  Be  Be14  1  0.000000  0.000000  0.000000  1
  Br  Br15  1  0.329852  0.000000  0.000000  1
  Br  Br16  1  0.670148  0.000000  0.000000  1
  Br  Br17  1  0.000000  0.329852  0.670148  1
  Br  Br18  1  0.000000  0.670148  0.329852  1
  Br  Br19  1  0.000000  0.329852  0.000000  1
  Br  Br20  1  0.670148  0.000000  0.329852  1
  Br  Br21  1  0.000000  0.670148  0.000000  1
  Br  Br22  1  0.329852  0.000000  0.670148  1
  Br  Br23  1  0.000000  0.000000  0.329852  1
  Br  Br24  1  0.000000  0.000000  0.670148  1
  Br  Br25  1  0.670148  0.329852  0.000000  1
  Br  Br26  1  0.329852  0.670148  0.000000  1
  Br  Br27  1  0.679350  0.320650  0.320650  1
  Br  Br28  1  0.320650  0.679350  0.679350  1
  Br  Br29  1  0.320650  0.679350  0.320650  1
  Br  Br30  1  0.679350  0.320650  0.679350  1
  Br  Br31  1  0.320650  0.320650  0.679350  1
  Br  Br32  1  0.679350  0.679350  0.320650  1
  Br  Br33  1  0.250000  0.250000  0.250000  1
  Br  Br34  1  0.750000  0.750000  0.750000  1
