# generated using pymatgen
data_Tm5Si2SnO
_symmetry_space_group_name_H-M   'P 1'
_cell_length_a   8.59857820
_cell_length_b   8.59857816
_cell_length_c   8.59857800
_cell_angle_alpha   126.52475391
_cell_angle_beta   126.52476201
_cell_angle_gamma   79.02736783
_symmetry_Int_Tables_number   1
_chemical_formula_structural   Tm5Si2SnO
_chemical_formula_sum   'Tm10 Si4 Sn2 O2'
_cell_volume   397.10289266
_cell_formula_units_Z   2
loop_
 _symmetry_equiv_pos_site_id
 _symmetry_equiv_pos_as_xyz
  1  'x, y, z'
loop_
 _atom_site_type_symbol
 _atom_site_label
 _atom_site_symmetry_multiplicity
 _atom_site_fract_x
 _atom_site_fract_y
 _atom_site_fract_z
 _atom_site_occupancy
  Tm  Tm0  1  0.491952  0.294000  0.500000  1
  Tm  Tm1  1  0.794000  0.991952  0.500000  1
  Tm  Tm2  1  0.991952  0.491952  0.197952  1
  Tm  Tm3  1  0.294000  0.794000  0.802048  1
  Tm  Tm4  1  0.510461  0.708385  0.500000  1
  Tm  Tm5  1  0.208385  0.010461  0.500000  1
  Tm  Tm6  1  0.010461  0.510461  0.802075  1
  Tm  Tm7  1  0.708385  0.208385  0.197925  1
  Tm  Tm8  1  0.501310  0.501310  0.000000  1
  Tm  Tm9  1  0.001310  0.001310  0.000000  1
  Si  Si10  1  0.144911  0.357503  0.500000  1
  Si  Si11  1  0.857503  0.644911  0.500000  1
  Si  Si12  1  0.644911  0.144911  0.787407  1
  Si  Si13  1  0.357503  0.857503  0.212593  1
  Sn  Sn14  1  0.751707  0.751707  0.000000  1
  Sn  Sn15  1  0.251707  0.251707  0.000000  1
  O  O16  1  0.751190  0.251190  0.500000  1
  O  O17  1  0.251190  0.751190  0.500000  1
