# generated using pymatgen
data_Dy9Er(IrPt2)2
_symmetry_space_group_name_H-M   'P 1'
_cell_length_a   11.04699500
_cell_length_b   11.04699500
_cell_length_c   6.32943000
_cell_angle_alpha   90.00000000
_cell_angle_beta   90.00000000
_cell_angle_gamma   90.00000000
_symmetry_Int_Tables_number   1
_chemical_formula_structural   Dy9Er(IrPt2)2
_chemical_formula_sum   'Dy18 Er2 Ir4 Pt8'
_cell_volume   772.41894312
_cell_formula_units_Z   2
loop_
 _symmetry_equiv_pos_site_id
 _symmetry_equiv_pos_as_xyz
  1  'x, y, z'
loop_
 _atom_site_type_symbol
 _atom_site_label
 _atom_site_symmetry_multiplicity
 _atom_site_fract_x
 _atom_site_fract_y
 _atom_site_fract_z
 _atom_site_occupancy
  Dy  Dy0  1  0.294219  0.087676  0.375178  1
  Dy  Dy1  1  0.294219  0.912324  0.875178  1
  Dy  Dy2  1  0.705781  0.087676  0.875178  1
  Dy  Dy3  1  0.705781  0.912324  0.375178  1
  Dy  Dy4  1  0.587808  0.794713  0.874957  1
  Dy  Dy5  1  0.587808  0.205287  0.374957  1
  Dy  Dy6  1  0.412192  0.794713  0.374957  1
  Dy  Dy7  1  0.412192  0.205287  0.874957  1
  Dy  Dy8  1  0.205287  0.412192  0.625043  1
  Dy  Dy9  1  0.205287  0.587808  0.125043  1
  Dy  Dy10  1  0.794713  0.412192  0.125043  1
  Dy  Dy11  1  0.794713  0.587808  0.625043  1
  Dy  Dy12  1  0.912324  0.705781  0.124822  1
  Dy  Dy13  1  0.912324  0.294219  0.624822  1
  Dy  Dy14  1  0.087676  0.705781  0.624822  1
  Dy  Dy15  1  0.087676  0.294219  0.124822  1
  Dy  Dy16  1  0.500000  0.500000  0.000000  1
  Dy  Dy17  1  0.500000  0.500000  0.500000  1
  Er  Er18  1  0.000000  0.000000  0.500000  1
  Er  Er19  1  0.000000  0.000000  0.000000  1
  Ir  Ir20  1  0.500000  0.000000  0.121135  1
  Ir  Ir21  1  0.500000  0.000000  0.621135  1
  Ir  Ir22  1  0.000000  0.500000  0.878865  1
  Ir  Ir23  1  0.000000  0.500000  0.378865  1
  Pt  Pt24  1  0.847367  0.152633  0.250000  1
  Pt  Pt25  1  0.847367  0.847367  0.750000  1
  Pt  Pt26  1  0.152633  0.152633  0.750000  1
  Pt  Pt27  1  0.152633  0.847367  0.250000  1
  Pt  Pt28  1  0.653712  0.346288  0.750000  1
  Pt  Pt29  1  0.653712  0.653712  0.250000  1
  Pt  Pt30  1  0.346288  0.346288  0.250000  1
  Pt  Pt31  1  0.346288  0.653712  0.750000  1
