# generated using pymatgen
data_TbDy3NiHg
_symmetry_space_group_name_H-M   'P 1'
_cell_length_a   9.52337999
_cell_length_b   9.52337983
_cell_length_c   9.52337900
_cell_angle_alpha   59.99999940
_cell_angle_beta   59.99999997
_cell_angle_gamma   59.99999941
_symmetry_Int_Tables_number   1
_chemical_formula_structural   TbDy3NiHg
_chemical_formula_sum   'Tb4 Dy12 Ni4 Hg4'
_cell_volume   610.74270154
_cell_formula_units_Z   4
loop_
 _symmetry_equiv_pos_site_id
 _symmetry_equiv_pos_as_xyz
  1  'x, y, z'
loop_
 _atom_site_type_symbol
 _atom_site_label
 _atom_site_symmetry_multiplicity
 _atom_site_fract_x
 _atom_site_fract_y
 _atom_site_fract_z
 _atom_site_occupancy
  Tb  Tb0  1  0.600446  0.600446  0.600446  1
  Tb  Tb1  1  0.600446  0.600446  0.198665  1
  Tb  Tb2  1  0.600446  0.198665  0.600446  1
  Tb  Tb3  1  0.198665  0.600446  0.600446  1
  Dy  Dy4  1  0.061198  0.438802  0.438802  1
  Dy  Dy5  1  0.438802  0.061198  0.061198  1
  Dy  Dy6  1  0.438802  0.061198  0.438802  1
  Dy  Dy7  1  0.061198  0.438802  0.061198  1
  Dy  Dy8  1  0.438802  0.438802  0.061198  1
  Dy  Dy9  1  0.061198  0.061198  0.438802  1
  Dy  Dy10  1  0.186753  0.813247  0.813247  1
  Dy  Dy11  1  0.813247  0.186753  0.186753  1
  Dy  Dy12  1  0.813247  0.186753  0.813247  1
  Dy  Dy13  1  0.186753  0.813247  0.186753  1
  Dy  Dy14  1  0.813247  0.813247  0.186753  1
  Dy  Dy15  1  0.186753  0.186753  0.813247  1
  Ni  Ni16  1  0.393001  0.393001  0.393001  1
  Ni  Ni17  1  0.393001  0.393001  0.820995  1
  Ni  Ni18  1  0.393001  0.820995  0.393001  1
  Ni  Ni19  1  0.820995  0.393001  0.393001  1
  Hg  Hg20  1  0.835043  0.835043  0.835043  1
  Hg  Hg21  1  0.835043  0.835043  0.494872  1
  Hg  Hg22  1  0.835043  0.494872  0.835043  1
  Hg  Hg23  1  0.494872  0.835043  0.835043  1
