# generated using pymatgen
data_TbY2Fe2Co7P6
_symmetry_space_group_name_H-M   'P 1'
_cell_length_a   3.70730900
_cell_length_b   10.56176000
_cell_length_c   12.11212400
_cell_angle_alpha   90.00000000
_cell_angle_beta   90.00000000
_cell_angle_gamma   90.00000000
_symmetry_Int_Tables_number   1
_chemical_formula_structural   TbY2Fe2Co7P6
_chemical_formula_sum   'Tb2 Y4 Fe4 Co14 P12'
_cell_volume   474.25878944
_cell_formula_units_Z   2
loop_
 _symmetry_equiv_pos_site_id
 _symmetry_equiv_pos_as_xyz
  1  'x, y, z'
loop_
 _atom_site_type_symbol
 _atom_site_label
 _atom_site_symmetry_multiplicity
 _atom_site_fract_x
 _atom_site_fract_y
 _atom_site_fract_z
 _atom_site_occupancy
  Tb  Tb0  1  0.000000  0.500000  0.522448  1
  Tb  Tb1  1  0.500000  0.000000  0.477552  1
  Y  Y2  1  0.500000  0.819215  0.204468  1
  Y  Y3  1  0.500000  0.180785  0.204468  1
  Y  Y4  1  0.000000  0.680785  0.795532  1
  Y  Y5  1  0.000000  0.319215  0.795532  1
  Fe  Fe6  1  0.500000  0.500000  0.155352  1
  Fe  Fe7  1  0.000000  0.000000  0.844648  1
  Fe  Fe8  1  0.000000  0.500000  0.988749  1
  Fe  Fe9  1  0.500000  0.000000  0.011251  1
  Co  Co10  1  0.500000  0.500000  0.701463  1
  Co  Co11  1  0.000000  0.000000  0.298537  1
  Co  Co12  1  0.500000  0.331815  0.994691  1
  Co  Co13  1  0.500000  0.668185  0.994691  1
  Co  Co14  1  0.000000  0.168185  0.005309  1
  Co  Co15  1  0.000000  0.831815  0.005309  1
  Co  Co16  1  0.500000  0.296671  0.430273  1
  Co  Co17  1  0.500000  0.703329  0.430273  1
  Co  Co18  1  0.000000  0.203329  0.569727  1
  Co  Co19  1  0.000000  0.796671  0.569727  1
  Co  Co20  1  0.500000  0.879250  0.709443  1
  Co  Co21  1  0.500000  0.120750  0.709443  1
  Co  Co22  1  0.000000  0.620750  0.290557  1
  Co  Co23  1  0.000000  0.379250  0.290557  1
  P  P24  1  0.500000  0.500000  0.884919  1
  P  P25  1  0.000000  0.000000  0.115081  1
  P  P26  1  0.500000  0.500000  0.341128  1
  P  P27  1  0.000000  0.000000  0.658872  1
  P  P28  1  0.500000  0.309616  0.616421  1
  P  P29  1  0.500000  0.690384  0.616421  1
  P  P30  1  0.000000  0.190384  0.383579  1
  P  P31  1  0.000000  0.809616  0.383579  1
  P  P32  1  0.500000  0.847596  0.893651  1
  P  P33  1  0.500000  0.152404  0.893651  1
  P  P34  1  0.000000  0.652404  0.106349  1
  P  P35  1  0.000000  0.347596  0.106349  1
