# generated using pymatgen
data_NdTa3Nb2(B2Ru5)2
_symmetry_space_group_name_H-M   'P 1'
_cell_length_a   9.57777935
_cell_length_b   9.58049280
_cell_length_c   3.05548800
_cell_angle_alpha   90.00000000
_cell_angle_beta   90.00000000
_cell_angle_gamma   90.71890323
_symmetry_Int_Tables_number   1
_chemical_formula_structural   NdTa3Nb2(B2Ru5)2
_chemical_formula_sum   'Nd1 Ta3 Nb2 B4 Ru10'
_cell_volume   280.34903889
_cell_formula_units_Z   1
loop_
 _symmetry_equiv_pos_site_id
 _symmetry_equiv_pos_as_xyz
  1  'x, y, z'
loop_
 _atom_site_type_symbol
 _atom_site_label
 _atom_site_symmetry_multiplicity
 _atom_site_fract_x
 _atom_site_fract_y
 _atom_site_fract_z
 _atom_site_occupancy
  Nd  Nd0  1  0.824483  0.675577  0.000000  1
  Ta  Ta1  1  0.675906  0.175067  0.000000  1
  Ta  Ta2  1  0.500078  0.499918  0.000000  1
  Ta  Ta3  1  0.000227  0.999631  0.000000  1
  Nb  Nb4  1  0.179296  0.320959  0.000000  1
  Nb  Nb5  1  0.324954  0.824596  0.000000  1
  B  B6  1  0.615621  0.884202  0.000000  1
  B  B7  1  0.376146  0.123675  0.000000  1
  B  B8  1  0.125818  0.618900  0.000000  1
  B  B9  1  0.881427  0.374192  0.000000  1
  Ru  Ru10  1  0.554771  0.727263  0.500000  1
  Ru  Ru11  1  0.427835  0.283391  0.500000  1
  Ru  Ru12  1  0.085658  0.782780  0.500000  1
  Ru  Ru13  1  0.930034  0.214462  0.500000  1
  Ru  Ru14  1  0.284924  0.569028  0.500000  1
  Ru  Ru15  1  0.716563  0.412202  0.500000  1
  Ru  Ru16  1  0.216747  0.073095  0.500000  1
  Ru  Ru17  1  0.772932  0.946562  0.500000  1
  Ru  Ru18  1  0.495477  0.006332  0.500000  1
  Ru  Ru19  1  0.011104  0.488166  0.500000  1
