# generated using pymatgen
data_Y4Ge3Bi3Rh7
_symmetry_space_group_name_H-M   'P 1'
_cell_length_a   7.53139787
_cell_length_b   7.53139888
_cell_length_c   7.63458000
_cell_angle_alpha   109.74898483
_cell_angle_beta   109.74898761
_cell_angle_gamma   109.19203597
_symmetry_Int_Tables_number   1
_chemical_formula_structural   Y4Ge3Bi3Rh7
_chemical_formula_sum   'Y4 Ge3 Bi3 Rh7'
_cell_volume   332.21116475
_cell_formula_units_Z   1
loop_
 _symmetry_equiv_pos_site_id
 _symmetry_equiv_pos_as_xyz
  1  'x, y, z'
loop_
 _atom_site_type_symbol
 _atom_site_label
 _atom_site_symmetry_multiplicity
 _atom_site_fract_x
 _atom_site_fract_y
 _atom_site_fract_z
 _atom_site_occupancy
  Y  Y0  1  0.000000  0.000000  0.554871  1
  Y  Y1  1  0.000000  0.471952  0.983662  1
  Y  Y2  1  0.471952  0.000000  0.983662  1
  Y  Y3  1  0.528048  0.528048  0.511711  1
  Ge  Ge4  1  0.339347  0.339347  0.007797  1
  Ge  Ge5  1  0.660653  0.000000  0.668450  1
  Ge  Ge6  1  0.000000  0.660653  0.668450  1
  Bi  Bi7  1  0.705312  0.705312  0.013775  1
  Bi  Bi8  1  0.294688  0.000000  0.308464  1
  Bi  Bi9  1  0.000000  0.294688  0.308464  1
  Rh  Rh10  1  0.749980  0.251148  0.509387  1
  Rh  Rh11  1  0.748852  0.498832  0.258240  1
  Rh  Rh12  1  0.501168  0.250020  0.759407  1
  Rh  Rh13  1  0.250020  0.501168  0.759407  1
  Rh  Rh14  1  0.251148  0.749980  0.509387  1
  Rh  Rh15  1  0.498832  0.748852  0.258240  1
  Rh  Rh16  1  0.000000  0.000000  0.936630  1
