# generated using pymatgen
data_Nd13Dy3In3AgRh4
_symmetry_space_group_name_H-M   'P 1'
_cell_length_a   9.91469647
_cell_length_b   9.89448043
_cell_length_c   9.86788089
_cell_angle_alpha   59.81410257
_cell_angle_beta   59.83464769
_cell_angle_gamma   60.08004304
_symmetry_Int_Tables_number   1
_chemical_formula_structural   Nd13Dy3In3AgRh4
_chemical_formula_sum   'Nd13 Dy3 In3 Ag1 Rh4'
_cell_volume   683.09944189
_cell_formula_units_Z   1
loop_
 _symmetry_equiv_pos_site_id
 _symmetry_equiv_pos_as_xyz
  1  'x, y, z'
loop_
 _atom_site_type_symbol
 _atom_site_label
 _atom_site_symmetry_multiplicity
 _atom_site_fract_x
 _atom_site_fract_y
 _atom_site_fract_z
 _atom_site_occupancy
  Nd  Nd0  1  0.690130  0.307835  0.311613  1
  Nd  Nd1  1  0.687165  0.687935  0.316512  1
  Nd  Nd2  1  0.309014  0.689943  0.312210  1
  Nd  Nd3  1  0.936755  0.939739  0.558718  1
  Nd  Nd4  1  0.148112  0.147094  0.552445  1
  Nd  Nd5  1  0.562413  0.939448  0.555915  1
  Nd  Nd6  1  0.154989  0.153126  0.149204  1
  Nd  Nd7  1  0.311379  0.310826  0.690613  1
  Nd  Nd8  1  0.937678  0.562614  0.557333  1
  Nd  Nd9  1  0.560827  0.560298  0.934787  1
  Nd  Nd10  1  0.560613  0.939814  0.935939  1
  Nd  Nd11  1  0.937642  0.562346  0.935106  1
  Nd  Nd12  1  0.150959  0.551368  0.146067  1
  Dy  Dy13  1  0.312212  0.689680  0.690433  1
  Dy  Dy14  1  0.690677  0.310883  0.691897  1
  Dy  Dy15  1  0.549142  0.151750  0.145755  1
  In  In16  1  0.241195  0.918003  0.923759  1
  In  In17  1  0.914635  0.241213  0.925324  1
  In  In18  1  0.916337  0.919659  0.923939  1
  Ag  Ag19  1  0.916735  0.919812  0.243891  1
  Rh  Rh20  1  0.361805  0.354094  0.354759  1
  Rh  Rh21  1  0.924656  0.356454  0.361768  1
  Rh  Rh22  1  0.364156  0.359344  0.923107  1
  Rh  Rh23  1  0.360772  0.926722  0.358905  1
