# generated using pymatgen
data_CaYIr2O7
_symmetry_space_group_name_H-M   'P 1'
_cell_length_a   7.26243473
_cell_length_b   7.26243325
_cell_length_c   7.26243478
_cell_angle_alpha   120.29229375
_cell_angle_beta   119.81004107
_cell_angle_gamma   89.91190523
_symmetry_Int_Tables_number   1
_chemical_formula_structural   CaYIr2O7
_chemical_formula_sum   'Ca2 Y2 Ir4 O14'
_cell_volume   270.63592625
_cell_formula_units_Z   2
loop_
 _symmetry_equiv_pos_site_id
 _symmetry_equiv_pos_as_xyz
  1  'x, y, z'
loop_
 _atom_site_type_symbol
 _atom_site_label
 _atom_site_symmetry_multiplicity
 _atom_site_fract_x
 _atom_site_fract_y
 _atom_site_fract_z
 _atom_site_occupancy
  Ca  Ca0  1  0.500000  0.500000  0.500000  1
  Ca  Ca1  1  0.500000  0.000000  0.000000  1
  Y  Y2  1  0.500000  0.500000  0.000000  1
  Y  Y3  1  0.000000  0.500000  0.500000  1
  Ir  Ir4  1  0.000000  0.000000  0.500000  1
  Ir  Ir5  1  0.000000  0.500000  0.000000  1
  Ir  Ir6  1  0.000000  0.000000  0.000000  1
  Ir  Ir7  1  0.500000  0.000000  0.500000  1
  O  O8  1  0.369151  0.619151  0.750000  1
  O  O9  1  0.630849  0.380849  0.250000  1
  O  O10  1  0.326564  0.076564  0.250000  1
  O  O11  1  0.917822  0.667822  0.250000  1
  O  O12  1  0.328874  0.669223  0.242144  1
  O  O13  1  0.927079  0.086731  0.257856  1
  O  O14  1  0.328874  0.086731  0.659652  1
  O  O15  1  0.927079  0.669223  0.840348  1
  O  O16  1  0.673436  0.923436  0.750000  1
  O  O17  1  0.082178  0.332178  0.750000  1
  O  O18  1  0.671126  0.330777  0.757856  1
  O  O19  1  0.072921  0.913269  0.742144  1
  O  O20  1  0.671126  0.913269  0.340348  1
  O  O21  1  0.072921  0.330777  0.159652  1
