# generated using pymatgen
data_Ac3Ag5Ir
_symmetry_space_group_name_H-M   'P 1'
_cell_length_a   8.10694500
_cell_length_b   8.10694584
_cell_length_c   4.12269600
_cell_angle_alpha   90.00000000
_cell_angle_beta   90.00000000
_cell_angle_gamma   120.00000771
_symmetry_Int_Tables_number   1
_chemical_formula_structural   Ac3Ag5Ir
_chemical_formula_sum   'Ac3 Ag5 Ir1'
_cell_volume   234.65316060
_cell_formula_units_Z   1
loop_
 _symmetry_equiv_pos_site_id
 _symmetry_equiv_pos_as_xyz
  1  'x, y, z'
loop_
 _atom_site_type_symbol
 _atom_site_label
 _atom_site_symmetry_multiplicity
 _atom_site_fract_x
 _atom_site_fract_y
 _atom_site_fract_z
 _atom_site_occupancy
  Ac  Ac0  1  0.584328  0.972797  0.000000  1
  Ac  Ac1  1  0.027203  0.611530  0.000000  1
  Ac  Ac2  1  0.388470  0.415672  0.000000  1
  Ag  Ag3  1  0.261511  0.009452  0.500000  1
  Ag  Ag4  1  0.990548  0.252059  0.500000  1
  Ag  Ag5  1  0.747941  0.738489  0.500000  1
  Ag  Ag6  1  0.666667  0.333333  0.500000  1
  Ag  Ag7  1  0.000000  0.000000  0.000000  1
  Ir  Ir8  1  0.333333  0.666667  0.500000  1
