# generated using pymatgen
data_Rb2Y3Tm3Se10
_symmetry_space_group_name_H-M   'P 1'
_cell_length_a   4.10967100
_cell_length_b   12.24280636
_cell_length_c   21.99850800
_cell_angle_alpha   90.16916189
_cell_angle_beta   90.00000000
_cell_angle_gamma   90.00000000
_symmetry_Int_Tables_number   1
_chemical_formula_structural   Rb2Y3Tm3Se10
_chemical_formula_sum   'Rb4 Y6 Tm6 Se20'
_cell_volume   1106.82604519
_cell_formula_units_Z   2
loop_
 _symmetry_equiv_pos_site_id
 _symmetry_equiv_pos_as_xyz
  1  'x, y, z'
loop_
 _atom_site_type_symbol
 _atom_site_label
 _atom_site_symmetry_multiplicity
 _atom_site_fract_x
 _atom_site_fract_y
 _atom_site_fract_z
 _atom_site_occupancy
  Rb  Rb0  1  0.250000  0.847349  0.094943  1
  Rb  Rb1  1  0.750000  0.152651  0.905057  1
  Rb  Rb2  1  0.750000  0.348041  0.405182  1
  Rb  Rb3  1  0.250000  0.651959  0.594818  1
  Y  Y4  1  0.750000  0.800386  0.828204  1
  Y  Y5  1  0.250000  0.199614  0.171796  1
  Y  Y6  1  0.250000  0.302559  0.672249  1
  Y  Y7  1  0.750000  0.697441  0.327751  1
  Y  Y8  1  0.250000  0.958452  0.698654  1
  Y  Y9  1  0.750000  0.041548  0.301346  1
  Tm  Tm10  1  0.750000  0.457389  0.802230  1
  Tm  Tm11  1  0.250000  0.542611  0.197770  1
  Tm  Tm12  1  0.750000  0.390907  0.052888  1
  Tm  Tm13  1  0.250000  0.609093  0.947112  1
  Tm  Tm14  1  0.250000  0.890265  0.446902  1
  Tm  Tm15  1  0.750000  0.109735  0.553098  1
  Se  Se16  1  0.250000  0.948396  0.568812  1
  Se  Se17  1  0.750000  0.051604  0.431188  1
  Se  Se18  1  0.750000  0.447950  0.930648  1
  Se  Se19  1  0.250000  0.552050  0.069352  1
  Se  Se20  1  0.750000  0.766252  0.956375  1
  Se  Se21  1  0.250000  0.233748  0.043625  1
  Se  Se22  1  0.250000  0.267121  0.543994  1
  Se  Se23  1  0.750000  0.732879  0.456006  1
  Se  Se24  1  0.250000  0.957758  0.828129  1
  Se  Se25  1  0.750000  0.042242  0.171871  1
  Se  Se26  1  0.750000  0.459631  0.674147  1
  Se  Se27  1  0.250000  0.540369  0.325853  1
  Se  Se28  1  0.750000  0.129376  0.683295  1
  Se  Se29  1  0.250000  0.870624  0.316705  1
  Se  Se30  1  0.250000  0.626344  0.816875  1
  Se  Se31  1  0.750000  0.373656  0.183125  1
  Se  Se32  1  0.750000  0.694593  0.198208  1
  Se  Se33  1  0.250000  0.305407  0.801792  1
  Se  Se34  1  0.250000  0.197031  0.301377  1
  Se  Se35  1  0.750000  0.802969  0.698623  1
