# generated using pymatgen
data_YbLu(SnPt)2
_symmetry_space_group_name_H-M   'P 1'
_cell_length_a   7.58234493
_cell_length_b   7.61641809
_cell_length_c   7.71860700
_cell_angle_alpha   90.00000000
_cell_angle_beta   90.00000000
_cell_angle_gamma   120.01275775
_symmetry_Int_Tables_number   1
_chemical_formula_structural   YbLu(SnPt)2
_chemical_formula_sum   'Yb3 Lu3 Sn6 Pt6'
_cell_volume   385.98286770
_cell_formula_units_Z   3
loop_
 _symmetry_equiv_pos_site_id
 _symmetry_equiv_pos_as_xyz
  1  'x, y, z'
loop_
 _atom_site_type_symbol
 _atom_site_label
 _atom_site_symmetry_multiplicity
 _atom_site_fract_x
 _atom_site_fract_y
 _atom_site_fract_z
 _atom_site_occupancy
  Yb  Yb0  1  0.403366  0.001679  0.250000  1
  Yb  Yb1  1  0.594558  0.593735  0.250000  1
  Yb  Yb2  1  0.401225  0.996655  0.750000  1
  Lu  Lu3  1  0.001706  0.404050  0.250000  1
  Lu  Lu4  1  0.600599  0.599312  0.750000  1
  Lu  Lu5  1  0.999016  0.401720  0.750000  1
  Sn  Sn6  1  0.268579  0.262788  0.994324  1
  Sn  Sn7  1  0.002910  0.740009  0.002660  1
  Sn  Sn8  1  0.002910  0.740009  0.497340  1
  Sn  Sn9  1  0.728747  0.997139  0.498541  1
  Sn  Sn10  1  0.268579  0.262788  0.505676  1
  Sn  Sn11  1  0.728747  0.997139  0.001459  1
  Pt  Pt12  1  0.989960  0.998964  0.750000  1
  Pt  Pt13  1  0.000908  0.012451  0.250000  1
  Pt  Pt14  1  0.678049  0.340051  0.992791  1
  Pt  Pt15  1  0.326046  0.655731  0.506357  1
  Pt  Pt16  1  0.326046  0.655731  0.993643  1
  Pt  Pt17  1  0.678049  0.340051  0.507209  1
