# generated using pymatgen
data_Th8Ir5Au3
_symmetry_space_group_name_H-M   'P 1'
_cell_length_a   4.40936400
_cell_length_b   6.02599955
_cell_length_c   15.13783177
_cell_angle_alpha   90.21587245
_cell_angle_beta   90.00000000
_cell_angle_gamma   90.00000000
_symmetry_Int_Tables_number   1
_chemical_formula_structural   Th8Ir5Au3
_chemical_formula_sum   'Th8 Ir5 Au3'
_cell_volume   402.22183140
_cell_formula_units_Z   1
loop_
 _symmetry_equiv_pos_site_id
 _symmetry_equiv_pos_as_xyz
  1  'x, y, z'
loop_
 _atom_site_type_symbol
 _atom_site_label
 _atom_site_symmetry_multiplicity
 _atom_site_fract_x
 _atom_site_fract_y
 _atom_site_fract_z
 _atom_site_occupancy
  Th  Th0  1  0.250000  0.550193  0.288107  1
  Th  Th1  1  0.750000  0.466176  0.719673  1
  Th  Th2  1  0.250000  0.962912  0.776297  1
  Th  Th3  1  0.250000  0.763984  0.530565  1
  Th  Th4  1  0.250000  0.734473  0.044795  1
  Th  Th5  1  0.750000  0.267602  0.958955  1
  Th  Th6  1  0.750000  0.029006  0.223377  1
  Th  Th7  1  0.750000  0.243798  0.454493  1
  Ir  Ir8  1  0.250000  0.071038  0.348523  1
  Ir  Ir9  1  0.750000  0.567525  0.149308  1
  Ir  Ir10  1  0.750000  0.720327  0.402893  1
  Ir  Ir11  1  0.250000  0.426558  0.849042  1
  Ir  Ir12  1  0.750000  0.928666  0.650845  1
  Au  Au13  1  0.750000  0.771056  0.899653  1
  Au  Au14  1  0.250000  0.229972  0.104166  1
  Au  Au15  1  0.250000  0.266716  0.599305  1
