# generated using pymatgen
data_Yb2YEr(Ir2O7)2
_symmetry_space_group_name_H-M   'P 1'
_cell_length_a   7.21172972
_cell_length_b   7.22337964
_cell_length_c   7.22338107
_cell_angle_alpha   60.08946507
_cell_angle_beta   60.08276806
_cell_angle_gamma   60.08277275
_symmetry_Int_Tables_number   1
_chemical_formula_structural   Yb2YEr(Ir2O7)2
_chemical_formula_sum   'Yb2 Y1 Er1 Ir4 O14'
_cell_volume   266.58832659
_cell_formula_units_Z   1
loop_
 _symmetry_equiv_pos_site_id
 _symmetry_equiv_pos_as_xyz
  1  'x, y, z'
loop_
 _atom_site_type_symbol
 _atom_site_label
 _atom_site_symmetry_multiplicity
 _atom_site_fract_x
 _atom_site_fract_y
 _atom_site_fract_z
 _atom_site_occupancy
  Yb  Yb0  1  0.125000  0.625000  0.125000  1
  Yb  Yb1  1  0.125000  0.125000  0.625000  1
  Y  Y2  1  0.125000  0.125000  0.125000  1
  Er  Er3  1  0.625000  0.125000  0.125000  1
  Ir  Ir4  1  0.125000  0.625000  0.625000  1
  Ir  Ir5  1  0.625000  0.125000  0.625000  1
  Ir  Ir6  1  0.625000  0.625000  0.125000  1
  Ir  Ir7  1  0.625000  0.625000  0.625000  1
  O  O8  1  0.700322  0.713102  0.292956  1
  O  O9  1  0.294046  0.292974  0.710534  1
  O  O10  1  0.700322  0.292956  0.713102  1
  O  O11  1  0.294046  0.710534  0.292974  1
  O  O12  1  0.295678  0.704571  0.704571  1
  O  O13  1  0.705678  0.292150  0.292150  1
  O  O14  1  0.549678  0.536898  0.957044  1
  O  O15  1  0.955954  0.957026  0.539466  1
  O  O16  1  0.549678  0.957044  0.536898  1
  O  O17  1  0.955954  0.539466  0.957026  1
  O  O18  1  0.954322  0.545429  0.545429  1
  O  O19  1  0.544322  0.957850  0.957850  1
  O  O20  1  0.257546  0.244494  0.244494  1
  O  O21  1  0.992454  0.005506  0.005506  1
