# generated using pymatgen
data_Dy5V(P2Rh3)6
_symmetry_space_group_name_H-M   'P 1'
_cell_length_a   12.65490393
_cell_length_b   12.75754774
_cell_length_c   3.91307200
_cell_angle_alpha   90.00000000
_cell_angle_beta   90.00000000
_cell_angle_gamma   120.26867077
_symmetry_Int_Tables_number   1
_chemical_formula_structural   Dy5V(P2Rh3)6
_chemical_formula_sum   'Dy5 V1 P12 Rh18'
_cell_volume   545.62263664
_cell_formula_units_Z   1
loop_
 _symmetry_equiv_pos_site_id
 _symmetry_equiv_pos_as_xyz
  1  'x, y, z'
loop_
 _atom_site_type_symbol
 _atom_site_label
 _atom_site_symmetry_multiplicity
 _atom_site_fract_x
 _atom_site_fract_y
 _atom_site_fract_z
 _atom_site_occupancy
  Dy  Dy0  1  0.329881  0.664973  0.500000  1
  Dy  Dy1  1  0.670119  0.335091  0.500000  1
  Dy  Dy2  1  0.000000  0.810325  0.000000  1
  Dy  Dy3  1  0.186252  0.188877  0.000000  1
  Dy  Dy4  1  0.813748  0.002624  0.000000  1
  V  V5  1  0.000000  0.447947  0.500000  1
  P  P6  1  0.000000  0.631527  0.500000  1
  P  P7  1  0.362228  0.361460  0.500000  1
  P  P8  1  0.637772  0.999231  0.500000  1
  P  P9  1  0.515704  0.685341  0.000000  1
  P  P10  1  0.314634  0.832636  0.000000  1
  P  P11  1  0.162019  0.482715  0.000000  1
  P  P12  1  0.484296  0.169637  0.000000  1
  P  P13  1  0.685366  0.518001  0.000000  1
  P  P14  1  0.837981  0.320696  0.000000  1
  P  P15  1  0.000000  0.175270  0.500000  1
  P  P16  1  0.819611  0.819745  0.500000  1
  P  P17  1  0.180389  0.000134  0.500000  1
  Rh  Rh18  1  0.511021  0.869693  0.000000  1
  Rh  Rh19  1  0.127718  0.642433  0.000000  1
  Rh  Rh20  1  0.353891  0.491432  0.000000  1
  Rh  Rh21  1  0.488979  0.358669  0.000000  1
  Rh  Rh22  1  0.872282  0.514714  0.000000  1
  Rh  Rh23  1  0.646109  0.137541  0.000000  1
  Rh  Rh24  1  0.542284  0.543849  0.500000  1
  Rh  Rh25  1  0.457716  0.001566  0.500000  1
  Rh  Rh26  1  0.000000  0.282414  0.000000  1
  Rh  Rh27  1  0.716277  0.716618  0.000000  1
  Rh  Rh28  1  0.283723  0.000340  0.000000  1
  Rh  Rh29  1  0.622128  0.802869  0.500000  1
  Rh  Rh30  1  0.198343  0.821901  0.500000  1
  Rh  Rh31  1  0.177967  0.373094  0.500000  1
  Rh  Rh32  1  0.377872  0.180740  0.500000  1
  Rh  Rh33  1  0.801657  0.623557  0.500000  1
  Rh  Rh34  1  0.822033  0.195128  0.500000  1
  Rh  Rh35  1  0.000000  0.997214  0.500000  1
