# generated using pymatgen
data_V12Ga7FeN4
_symmetry_space_group_name_H-M   'P 1'
_cell_length_a   6.57355327
_cell_length_b   6.57355327
_cell_length_c   6.57355327
_cell_angle_alpha   89.90762440
_cell_angle_beta   90.09237560
_cell_angle_gamma   90.09237560
_symmetry_Int_Tables_number   1
_chemical_formula_structural   V12Ga7FeN4
_chemical_formula_sum   'V12 Ga7 Fe1 N4'
_cell_volume   284.05266496
_cell_formula_units_Z   1
loop_
 _symmetry_equiv_pos_site_id
 _symmetry_equiv_pos_as_xyz
  1  'x, y, z'
loop_
 _atom_site_type_symbol
 _atom_site_label
 _atom_site_symmetry_multiplicity
 _atom_site_fract_x
 _atom_site_fract_y
 _atom_site_fract_z
 _atom_site_occupancy
  V  V0  1  0.796204  0.958300  0.373565  1
  V  V1  1  0.707881  0.041004  0.875500  1
  V  V2  1  0.209296  0.463191  0.126787  1
  V  V3  1  0.289988  0.545110  0.622509  1
  V  V4  1  0.958996  0.375500  0.792119  1
  V  V5  1  0.041700  0.873565  0.703796  1
  V  V6  1  0.454890  0.122509  0.210012  1
  V  V7  1  0.536809  0.626787  0.290704  1
  V  V8  1  0.373213  0.790704  0.963191  1
  V  V9  1  0.877491  0.710012  0.045110  1
  V  V10  1  0.126435  0.203796  0.458300  1
  V  V11  1  0.624500  0.292119  0.541004  1
  Ga  Ga12  1  0.318562  0.178924  0.818689  1
  Ga  Ga13  1  0.821076  0.318689  0.181438  1
  Ga  Ga14  1  0.681311  0.681438  0.678924  1
  Ga  Ga15  1  0.568533  0.431467  0.931467  1
  Ga  Ga16  1  0.423985  0.927809  0.560461  1
  Ga  Ga17  1  0.939539  0.576015  0.427809  1
  Ga  Ga18  1  0.072191  0.060461  0.076015  1
  Fe  Fe19  1  0.179191  0.820809  0.320809  1
  N  N20  1  0.876080  0.123920  0.623920  1
  N  N21  1  0.624809  0.875943  0.126737  1
  N  N22  1  0.124057  0.626737  0.875191  1
  N  N23  1  0.373263  0.375191  0.375943  1
