# generated using pymatgen
data_Ti12Tc6Ru5Au
_symmetry_space_group_name_H-M   'P 1'
_cell_length_a   4.39381700
_cell_length_b   6.22852500
_cell_length_c   13.17358500
_cell_angle_alpha   90.00000000
_cell_angle_beta   89.99971737
_cell_angle_gamma   90.00000000
_symmetry_Int_Tables_number   1
_chemical_formula_structural   Ti12Tc6Ru5Au
_chemical_formula_sum   'Ti12 Tc6 Ru5 Au1'
_cell_volume   360.52148791
_cell_formula_units_Z   1
loop_
 _symmetry_equiv_pos_site_id
 _symmetry_equiv_pos_as_xyz
  1  'x, y, z'
loop_
 _atom_site_type_symbol
 _atom_site_label
 _atom_site_symmetry_multiplicity
 _atom_site_fract_x
 _atom_site_fract_y
 _atom_site_fract_z
 _atom_site_occupancy
  Ti  Ti0  1  0.499990  0.236338  0.999998  1
  Ti  Ti1  1  0.499990  0.763661  0.999998  1
  Ti  Ti2  1  0.000026  0.244401  0.173246  1
  Ti  Ti3  1  0.000026  0.755598  0.173246  1
  Ti  Ti4  1  0.500024  0.250936  0.334618  1
  Ti  Ti5  1  0.500024  0.749064  0.334618  1
  Ti  Ti6  1  0.999996  0.250224  0.500002  1
  Ti  Ti7  1  0.999996  0.749777  0.500002  1
  Ti  Ti8  1  0.499961  0.250937  0.665383  1
  Ti  Ti9  1  0.499961  0.749063  0.665383  1
  Ti  Ti10  1  0.999955  0.244403  0.826755  1
  Ti  Ti11  1  0.999955  0.755596  0.826755  1
  Tc  Tc12  1  0.999989  0.000000  0.999997  1
  Tc  Tc13  1  0.500022  0.500000  0.165020  1
  Tc  Tc14  1  0.000022  0.000000  0.334175  1
  Tc  Tc15  1  0.499994  0.500000  0.500003  1
  Tc  Tc16  1  0.999963  0.000000  0.665828  1
  Tc  Tc17  1  0.499957  0.500000  0.834979  1
  Ru  Ru18  1  0.500021  0.000000  0.167333  1
  Ru  Ru19  1  0.000022  0.500000  0.332965  1
  Ru  Ru20  1  0.499994  0.000000  0.500002  1
  Ru  Ru21  1  0.999965  0.500000  0.667037  1
  Ru  Ru22  1  0.499955  0.000000  0.832663  1
  Au  Au23  1  0.999989  0.500000  0.000000  1
