# generated using pymatgen
data_YbErMnIr3
_symmetry_space_group_name_H-M   'P 1'
_cell_length_a   5.15809542
_cell_length_b   5.15809525
_cell_length_c   5.15809510
_cell_angle_alpha   63.80761036
_cell_angle_beta   63.80761099
_cell_angle_gamma   63.80761707
_symmetry_Int_Tables_number   1
_chemical_formula_structural   YbErMnIr3
_chemical_formula_sum   'Yb1 Er1 Mn1 Ir3'
_cell_volume   105.19095819
_cell_formula_units_Z   1
loop_
 _symmetry_equiv_pos_site_id
 _symmetry_equiv_pos_as_xyz
  1  'x, y, z'
loop_
 _atom_site_type_symbol
 _atom_site_label
 _atom_site_symmetry_multiplicity
 _atom_site_fract_x
 _atom_site_fract_y
 _atom_site_fract_z
 _atom_site_occupancy
  Yb  Yb0  1  0.999952  0.999952  0.999952  1
  Er  Er1  1  0.249750  0.249750  0.249750  1
  Mn  Mn2  1  0.624453  0.624453  0.624453  1
  Ir  Ir3  1  0.625906  0.625906  0.124034  1
  Ir  Ir4  1  0.625906  0.124034  0.625906  1
  Ir  Ir5  1  0.124034  0.625906  0.625906  1
