# generated using pymatgen
data_Nd2V2Fe3(PIr)7
_symmetry_space_group_name_H-M   'P 1'
_cell_length_a   9.42356423
_cell_length_b   9.39392571
_cell_length_c   3.87118500
_cell_angle_alpha   90.00000000
_cell_angle_beta   90.00000000
_cell_angle_gamma   120.09787836
_symmetry_Int_Tables_number   1
_chemical_formula_structural   Nd2V2Fe3(PIr)7
_chemical_formula_sum   'Nd2 V2 Fe3 P7 Ir7'
_cell_volume   296.48838845
_cell_formula_units_Z   1
loop_
 _symmetry_equiv_pos_site_id
 _symmetry_equiv_pos_as_xyz
  1  'x, y, z'
loop_
 _atom_site_type_symbol
 _atom_site_label
 _atom_site_symmetry_multiplicity
 _atom_site_fract_x
 _atom_site_fract_y
 _atom_site_fract_z
 _atom_site_occupancy
  Nd  Nd0  1  0.665103  0.331133  0.000000  1
  Nd  Nd1  1  0.334504  0.665020  0.500000  1
  V  V2  1  0.792448  0.906230  0.500000  1
  V  V3  1  0.116470  0.210581  0.500000  1
  Fe  Fe4  1  0.259944  0.102528  0.000000  1
  Fe  Fe5  1  0.845664  0.735744  0.000000  1
  Fe  Fe6  1  0.892282  0.162397  0.000000  1
  P  P7  1  0.304223  0.894012  0.000000  1
  P  P8  1  0.599203  0.706460  0.000000  1
  P  P9  1  0.110423  0.403165  0.000000  1
  P  P10  1  0.392112  0.278897  0.500000  1
  P  P11  1  0.878453  0.599721  0.500000  1
  P  P12  1  0.724565  0.113981  0.500000  1
  P  P13  1  0.995720  0.004467  0.000000  1
  Ir  Ir14  1  0.064711  0.640372  0.000000  1
  Ir  Ir15  1  0.575626  0.938366  0.000000  1
  Ir  Ir16  1  0.366417  0.426271  0.000000  1
  Ir  Ir17  1  0.434043  0.051497  0.500000  1
  Ir  Ir18  1  0.617575  0.565389  0.500000  1
  Ir  Ir19  1  0.949249  0.389103  0.500000  1
  Ir  Ir20  1  0.081266  0.874666  0.500000  1
