# generated using pymatgen
data_CeDy6Lu13Sn16
_symmetry_space_group_name_H-M   'P 1'
_cell_length_a   7.94487989
_cell_length_b   8.07439976
_cell_length_c   15.24656500
_cell_angle_alpha   90.00396665
_cell_angle_beta   90.30812691
_cell_angle_gamma   89.84446523
_symmetry_Int_Tables_number   1
_chemical_formula_structural   CeDy6Lu13Sn16
_chemical_formula_sum   'Ce1 Dy6 Lu13 Sn16'
_cell_volume   978.05147392
_cell_formula_units_Z   1
loop_
 _symmetry_equiv_pos_site_id
 _symmetry_equiv_pos_as_xyz
  1  'x, y, z'
loop_
 _atom_site_type_symbol
 _atom_site_label
 _atom_site_symmetry_multiplicity
 _atom_site_fract_x
 _atom_site_fract_y
 _atom_site_fract_z
 _atom_site_occupancy
  Ce  Ce0  1  0.016403  0.179538  0.594154  1
  Dy  Dy1  1  0.481770  0.678617  0.404372  1
  Dy  Dy2  1  0.980275  0.820468  0.096224  1
  Dy  Dy3  1  0.479990  0.678425  0.096123  1
  Dy  Dy4  1  0.982592  0.820713  0.404109  1
  Dy  Dy5  1  0.519424  0.322367  0.595562  1
  Dy  Dy6  1  0.019724  0.180317  0.903307  1
  Lu  Lu7  1  0.363133  0.838277  0.876492  1
  Lu  Lu8  1  0.860853  0.661908  0.623868  1
  Lu  Lu9  1  0.637671  0.162709  0.375287  1
  Lu  Lu10  1  0.135100  0.338304  0.123404  1
  Lu  Lu11  1  0.634774  0.162421  0.123674  1
  Lu  Lu12  1  0.137786  0.337340  0.376063  1
  Lu  Lu13  1  0.362397  0.836379  0.624652  1
  Lu  Lu14  1  0.865080  0.662129  0.877044  1
  Lu  Lu15  1  0.522351  0.321961  0.903883  1
  Lu  Lu16  1  0.194271  0.504107  0.751030  1
  Lu  Lu17  1  0.693459  0.994898  0.751537  1
  Lu  Lu18  1  0.805749  0.495630  0.249534  1
  Lu  Lu19  1  0.306512  0.004833  0.249584  1
  Sn  Sn20  1  0.296806  0.039341  0.041555  1
  Sn  Sn21  1  0.798498  0.460165  0.458496  1
  Sn  Sn22  1  0.698174  0.958794  0.541066  1
  Sn  Sn23  1  0.206305  0.537115  0.957979  1
  Sn  Sn24  1  0.702535  0.962236  0.958411  1
  Sn  Sn25  1  0.201146  0.539740  0.541804  1
  Sn  Sn26  1  0.302678  0.039182  0.458362  1
  Sn  Sn27  1  0.794981  0.459566  0.040767  1
  Sn  Sn28  1  0.559435  0.619245  0.750773  1
  Sn  Sn29  1  0.058843  0.880538  0.749202  1
  Sn  Sn30  1  0.439723  0.380864  0.249801  1
  Sn  Sn31  1  0.940395  0.119602  0.249613  1
  Sn  Sn32  1  0.331212  0.151115  0.750898  1
  Sn  Sn33  1  0.826652  0.351336  0.750471  1
  Sn  Sn34  1  0.671898  0.850223  0.250342  1
  Sn  Sn35  1  0.171403  0.649595  0.250556  1
