# generated using pymatgen
data_CeHo3(CrB4)4
_symmetry_space_group_name_H-M   'P 1'
_cell_length_a   3.45323600
_cell_length_b   5.93641510
_cell_length_c   11.47734444
_cell_angle_alpha   89.90404954
_cell_angle_beta   90.00000000
_cell_angle_gamma   90.00000000
_symmetry_Int_Tables_number   1
_chemical_formula_structural   CeHo3(CrB4)4
_chemical_formula_sum   'Ce1 Ho3 Cr4 B16'
_cell_volume   235.28342167
_cell_formula_units_Z   1
loop_
 _symmetry_equiv_pos_site_id
 _symmetry_equiv_pos_as_xyz
  1  'x, y, z'
loop_
 _atom_site_type_symbol
 _atom_site_label
 _atom_site_symmetry_multiplicity
 _atom_site_fract_x
 _atom_site_fract_y
 _atom_site_fract_z
 _atom_site_occupancy
  Ce  Ce0  1  0.000000  0.624861  0.349054  1
  Ho  Ho1  1  0.000000  0.375324  0.652163  1
  Ho  Ho2  1  0.000000  0.123715  0.149489  1
  Ho  Ho3  1  0.000000  0.875648  0.849114  1
  Cr  Cr4  1  0.000000  0.622348  0.080899  1
  Cr  Cr5  1  0.000000  0.374736  0.918178  1
  Cr  Cr6  1  0.000000  0.124473  0.418497  1
  Cr  Cr7  1  0.000000  0.876696  0.582282  1
  B  B8  1  0.500000  0.782022  0.182602  1
  B  B9  1  0.500000  0.218047  0.815453  1
  B  B10  1  0.500000  0.280048  0.315749  1
  B  B11  1  0.500000  0.719025  0.685542  1
  B  B12  1  0.500000  0.862874  0.031576  1
  B  B13  1  0.500000  0.136567  0.966609  1
  B  B14  1  0.500000  0.361826  0.468143  1
  B  B15  1  0.500000  0.638994  0.534510  1
  B  B16  1  0.500000  0.889032  0.454722  1
  B  B17  1  0.500000  0.114697  0.548021  1
  B  B18  1  0.500000  0.385151  0.045583  1
  B  B19  1  0.500000  0.613389  0.952727  1
  B  B20  1  0.500000  0.976033  0.308719  1
  B  B21  1  0.500000  0.025334  0.692410  1
  B  B22  1  0.500000  0.474093  0.189566  1
  B  B23  1  0.500000  0.525070  0.808390  1
