# generated using pymatgen
data_Dy17Ho3(IrRh3)3
_symmetry_space_group_name_H-M   'P 1'
_cell_length_a   10.88038402
_cell_length_b   10.88027463
_cell_length_c   6.35635401
_cell_angle_alpha   89.99839622
_cell_angle_beta   89.99850450
_cell_angle_gamma   89.93855080
_symmetry_Int_Tables_number   1
_chemical_formula_structural   Dy17Ho3(IrRh3)3
_chemical_formula_sum   'Dy17 Ho3 Ir3 Rh9'
_cell_volume   752.47470911
_cell_formula_units_Z   1
loop_
 _symmetry_equiv_pos_site_id
 _symmetry_equiv_pos_as_xyz
  1  'x, y, z'
loop_
 _atom_site_type_symbol
 _atom_site_label
 _atom_site_symmetry_multiplicity
 _atom_site_fract_x
 _atom_site_fract_y
 _atom_site_fract_z
 _atom_site_occupancy
  Dy  Dy0  1  0.290999  0.089702  0.378437  1
  Dy  Dy1  1  0.291086  0.910001  0.878329  1
  Dy  Dy2  1  0.709137  0.088288  0.878281  1
  Dy  Dy3  1  0.708758  0.910124  0.378149  1
  Dy  Dy4  1  0.587534  0.789567  0.879393  1
  Dy  Dy5  1  0.587154  0.209608  0.378122  1
  Dy  Dy6  1  0.412436  0.789859  0.378816  1
  Dy  Dy7  1  0.410818  0.209607  0.879453  1
  Dy  Dy8  1  0.210437  0.412486  0.620601  1
  Dy  Dy9  1  0.210134  0.587580  0.121196  1
  Dy  Dy10  1  0.790399  0.412826  0.121895  1
  Dy  Dy11  1  0.790391  0.589162  0.620538  1
  Dy  Dy12  1  0.910310  0.709060  0.121505  1
  Dy  Dy13  1  0.911705  0.290927  0.621768  1
  Dy  Dy14  1  0.090009  0.708849  0.621729  1
  Dy  Dy15  1  0.089864  0.291182  0.121796  1
  Dy  Dy16  1  0.999812  0.999910  0.499845  1
  Ho  Ho17  1  0.000094  0.000181  0.000141  1
  Ho  Ho18  1  0.499717  0.499942  0.999889  1
  Ho  Ho19  1  0.500059  0.500280  0.500115  1
  Ir  Ir20  1  0.654382  0.653709  0.250024  1
  Ir  Ir21  1  0.346289  0.345616  0.249990  1
  Ir  Ir22  1  0.345601  0.654394  0.749994  1
  Rh  Rh23  1  0.846023  0.153976  0.249814  1
  Rh  Rh24  1  0.846479  0.847000  0.750454  1
  Rh  Rh25  1  0.152985  0.153530  0.749915  1
  Rh  Rh26  1  0.153255  0.846752  0.249811  1
  Rh  Rh27  1  0.654754  0.345249  0.749995  1
  Rh  Rh28  1  0.500280  0.000500  0.122545  1
  Rh  Rh29  1  0.500379  0.000784  0.623168  1
  Rh  Rh30  1  0.999219  0.499624  0.876830  1
  Rh  Rh31  1  0.999503  0.499721  0.377463  1
