# generated using pymatgen
data_Ho8Ti8Nb3Si16Rh
_symmetry_space_group_name_H-M   'P 1'
_cell_length_a   7.03719211
_cell_length_b   7.03719295
_cell_length_c   12.86668377
_cell_angle_alpha   90.16978231
_cell_angle_beta   89.83021850
_cell_angle_gamma   89.76724142
_symmetry_Int_Tables_number   1
_chemical_formula_structural   Ho8Ti8Nb3Si16Rh
_chemical_formula_sum   'Ho8 Ti8 Nb3 Si16 Rh1'
_cell_volume   637.17405056
_cell_formula_units_Z   1
loop_
 _symmetry_equiv_pos_site_id
 _symmetry_equiv_pos_as_xyz
  1  'x, y, z'
loop_
 _atom_site_type_symbol
 _atom_site_label
 _atom_site_symmetry_multiplicity
 _atom_site_fract_x
 _atom_site_fract_y
 _atom_site_fract_z
 _atom_site_occupancy
  Ho  Ho0  1  0.340625  0.002733  0.467428  1
  Ho  Ho1  1  0.497664  0.842085  0.718049  1
  Ho  Ho2  1  0.501208  0.158414  0.215181  1
  Ho  Ho3  1  0.842085  0.497664  0.281951  1
  Ho  Ho4  1  0.158414  0.501208  0.784819  1
  Ho  Ho5  1  0.657994  0.998965  0.968136  1
  Ho  Ho6  1  0.002733  0.340625  0.532572  1
  Ho  Ho7  1  0.998965  0.657994  0.031864  1
  Ti  Ti8  1  0.148480  0.003294  0.875435  1
  Ti  Ti9  1  0.492394  0.656636  0.125200  1
  Ti  Ti10  1  0.508039  0.349182  0.627482  1
  Ti  Ti11  1  0.656636  0.492394  0.874800  1
  Ti  Ti12  1  0.349182  0.508039  0.372518  1
  Ti  Ti13  1  0.849086  0.992437  0.374458  1
  Ti  Ti14  1  0.003294  0.148480  0.124565  1
  Ti  Ti15  1  0.992437  0.849086  0.625542  1
  Nb  Nb16  1  0.175106  0.826330  0.248031  1
  Nb  Nb17  1  0.826330  0.175106  0.751969  1
  Nb  Nb18  1  0.673559  0.673559  0.500000  1
  Si  Si19  1  0.203225  0.132511  0.684841  1
  Si  Si20  1  0.371952  0.702669  0.934004  1
  Si  Si21  1  0.630624  0.295305  0.433972  1
  Si  Si22  1  0.702669  0.371952  0.065996  1
  Si  Si23  1  0.295305  0.630624  0.566028  1
  Si  Si24  1  0.796074  0.868279  0.183650  1
  Si  Si25  1  0.132511  0.203225  0.315159  1
  Si  Si26  1  0.868279  0.796074  0.816350  1
  Si  Si27  1  0.288032  0.951753  0.061638  1
  Si  Si28  1  0.547659  0.792864  0.314449  1
  Si  Si29  1  0.447925  0.210017  0.817604  1
  Si  Si30  1  0.792864  0.547659  0.685551  1
  Si  Si31  1  0.210017  0.447925  0.182396  1
  Si  Si32  1  0.707728  0.048180  0.564418  1
  Si  Si33  1  0.951753  0.288032  0.938362  1
  Si  Si34  1  0.048180  0.707728  0.435582  1
  Rh  Rh35  1  0.330974  0.330974  0.000000  1
