# generated using pymatgen
data_Sr2CuPtI
_symmetry_space_group_name_H-M   'P 1'
_cell_length_a   4.34137800
_cell_length_b   4.34137795
_cell_length_c   18.08916700
_cell_angle_alpha   90.00000000
_cell_angle_beta   90.00000000
_cell_angle_gamma   120.00001562
_symmetry_Int_Tables_number   1
_chemical_formula_structural   Sr2CuPtI
_chemical_formula_sum   'Sr4 Cu2 Pt2 I2'
_cell_volume   295.25980511
_cell_formula_units_Z   2
loop_
 _symmetry_equiv_pos_site_id
 _symmetry_equiv_pos_as_xyz
  1  'x, y, z'
loop_
 _atom_site_type_symbol
 _atom_site_label
 _atom_site_symmetry_multiplicity
 _atom_site_fract_x
 _atom_site_fract_y
 _atom_site_fract_z
 _atom_site_occupancy
  Sr  Sr0  1  0.000000  0.000000  0.391439  1
  Sr  Sr1  1  0.000000  0.000000  0.891439  1
  Sr  Sr2  1  0.000000  0.000000  0.607828  1
  Sr  Sr3  1  0.000000  0.000000  0.107828  1
  Cu  Cu4  1  0.333333  0.666667  0.502747  1
  Cu  Cu5  1  0.666667  0.333333  0.002747  1
  Pt  Pt6  1  0.666667  0.333333  0.497123  1
  Pt  Pt7  1  0.333333  0.666667  0.997123  1
  I  I8  1  0.333333  0.666667  0.250864  1
  I  I9  1  0.666667  0.333333  0.750864  1
