# generated using pymatgen
data_Hf6Al4CoCuC2
_symmetry_space_group_name_H-M   'P 1'
_cell_length_a   8.53748879
_cell_length_b   8.54166440
_cell_length_c   8.53754739
_cell_angle_alpha   59.98263784
_cell_angle_beta   60.00499209
_cell_angle_gamma   59.98240671
_symmetry_Int_Tables_number   1
_chemical_formula_structural   Hf6Al4CoCuC2
_chemical_formula_sum   'Hf12 Al8 Co2 Cu2 C4'
_cell_volume   440.14155482
_cell_formula_units_Z   2
loop_
 _symmetry_equiv_pos_site_id
 _symmetry_equiv_pos_as_xyz
  1  'x, y, z'
loop_
 _atom_site_type_symbol
 _atom_site_label
 _atom_site_symmetry_multiplicity
 _atom_site_fract_x
 _atom_site_fract_y
 _atom_site_fract_z
 _atom_site_occupancy
  Hf  Hf0  1  0.556200  0.943804  0.556200  1
  Hf  Hf1  1  0.306566  0.694821  0.690886  1
  Hf  Hf2  1  0.690884  0.307736  0.306544  1
  Hf  Hf3  1  0.308194  0.691816  0.308164  1
  Hf  Hf4  1  0.690891  0.694826  0.306545  1
  Hf  Hf5  1  0.306566  0.307725  0.690880  1
  Hf  Hf6  1  0.559110  0.555174  0.943455  1
  Hf  Hf7  1  0.943434  0.555179  0.559114  1
  Hf  Hf8  1  0.559116  0.942264  0.943456  1
  Hf  Hf9  1  0.943434  0.942275  0.559120  1
  Hf  Hf10  1  0.693800  0.306196  0.693800  1
  Hf  Hf11  1  0.941806  0.558184  0.941836  1
  Al  Al12  1  0.916835  0.927219  0.916945  1
  Al  Al13  1  0.010411  0.326143  0.337299  1
  Al  Al14  1  0.333166  0.010995  0.333055  1
  Al  Al15  1  0.337372  0.326093  0.010439  1
  Al  Al16  1  0.916835  0.239005  0.916944  1
  Al  Al17  1  0.912628  0.923907  0.239561  1
  Al  Al18  1  0.239589  0.923858  0.912701  1
  Al  Al19  1  0.333165  0.322781  0.333055  1
  Co  Co20  1  0.625000  0.125000  0.125000  1
  Co  Co21  1  0.125000  0.124999  0.625000  1
  Cu  Cu22  1  0.124999  0.125002  0.125002  1
  Cu  Cu23  1  0.124998  0.625000  0.125001  1
  C  C24  1  0.625000  0.625000  0.624999  1
  C  C25  1  0.125000  0.625000  0.625000  1
  C  C26  1  0.625000  0.125000  0.625000  1
  C  C27  1  0.625000  0.625000  0.125000  1
