# generated using pymatgen
data_Ho4Tc3B16Ir
_symmetry_space_group_name_H-M   'P 1'
_cell_length_a   3.57949100
_cell_length_b   5.96175635
_cell_length_c   11.53818158
_cell_angle_alpha   90.17384568
_cell_angle_beta   90.00000000
_cell_angle_gamma   90.00000000
_symmetry_Int_Tables_number   1
_chemical_formula_structural   Ho4Tc3B16Ir
_chemical_formula_sum   'Ho4 Tc3 B16 Ir1'
_cell_volume   246.22427526
_cell_formula_units_Z   1
loop_
 _symmetry_equiv_pos_site_id
 _symmetry_equiv_pos_as_xyz
  1  'x, y, z'
loop_
 _atom_site_type_symbol
 _atom_site_label
 _atom_site_symmetry_multiplicity
 _atom_site_fract_x
 _atom_site_fract_y
 _atom_site_fract_z
 _atom_site_occupancy
  Ho  Ho0  1  0.500000  0.371673  0.147856  1
  Ho  Ho1  1  0.500000  0.628122  0.848862  1
  Ho  Ho2  1  0.500000  0.127962  0.651345  1
  Ho  Ho3  1  0.500000  0.873206  0.351571  1
  Tc  Tc4  1  0.500000  0.366748  0.410689  1
  Tc  Tc5  1  0.500000  0.632245  0.586946  1
  Tc  Tc6  1  0.500000  0.140507  0.909483  1
  B  B7  1  0.000000  0.114686  0.046872  1
  B  B8  1  0.000000  0.887264  0.952136  1
  B  B9  1  0.000000  0.386520  0.546802  1
  B  B10  1  0.000000  0.612828  0.452693  1
  B  B11  1  0.000000  0.135282  0.468548  1
  B  B12  1  0.000000  0.864597  0.531083  1
  B  B13  1  0.000000  0.365676  0.969655  1
  B  B14  1  0.000000  0.635959  0.030569  1
  B  B15  1  0.000000  0.027560  0.192230  1
  B  B16  1  0.000000  0.974145  0.808053  1
  B  B17  1  0.000000  0.477338  0.692108  1
  B  B18  1  0.000000  0.523672  0.307348  1
  B  B19  1  0.000000  0.211601  0.314442  1
  B  B20  1  0.000000  0.786865  0.685214  1
  B  B21  1  0.000000  0.288119  0.814411  1
  B  B22  1  0.000000  0.709228  0.186063  1
  Ir  Ir23  1  0.500000  0.858197  0.095019  1
