# generated using pymatgen
data_Ca4LaU5O18
_symmetry_space_group_name_H-M   'P 1'
_cell_length_a   6.90950829
_cell_length_b   7.59425351
_cell_length_c   8.56283945
_cell_angle_alpha   100.29056538
_cell_angle_beta   98.89193057
_cell_angle_gamma   107.10586093
_symmetry_Int_Tables_number   1
_chemical_formula_structural   Ca4LaU5O18
_chemical_formula_sum   'Ca4 La1 U5 O18'
_cell_volume   412.15459765
_cell_formula_units_Z   1
loop_
 _symmetry_equiv_pos_site_id
 _symmetry_equiv_pos_as_xyz
  1  'x, y, z'
loop_
 _atom_site_type_symbol
 _atom_site_label
 _atom_site_symmetry_multiplicity
 _atom_site_fract_x
 _atom_site_fract_y
 _atom_site_fract_z
 _atom_site_occupancy
  Ca  Ca0  1  0.798237  0.104703  0.580357  1
  Ca  Ca1  1  0.597045  0.700942  0.197910  1
  Ca  Ca2  1  0.402955  0.299058  0.802090  1
  Ca  Ca3  1  0.201763  0.895297  0.419643  1
  La  La4  1  0.000000  0.500000  0.000000  1
  U  U5  1  0.000000  0.000000  0.000000  1
  U  U6  1  0.788783  0.578682  0.585602  1
  U  U7  1  0.622112  0.197976  0.196047  1
  U  U8  1  0.377888  0.802024  0.803953  1
  U  U9  1  0.211217  0.421318  0.414398  1
  O  O10  1  0.820031  0.792463  0.469011  1
  O  O11  1  0.004393  0.250577  0.168795  1
  O  O12  1  0.666323  0.410175  0.066896  1
  O  O13  1  0.457580  0.004346  0.679404  1
  O  O14  1  0.860937  0.340593  0.423246  1
  O  O15  1  0.501012  0.395311  0.348255  1
  O  O16  1  0.252116  0.617429  0.277728  1
  O  O17  1  0.984617  0.824224  0.158147  1
  O  O18  1  0.662922  0.936332  0.999160  1
  O  O19  1  0.337078  0.063668  0.000840  1
  O  O20  1  0.015383  0.175776  0.841853  1
  O  O21  1  0.747884  0.382571  0.722272  1
  O  O22  1  0.498988  0.604689  0.651745  1
  O  O23  1  0.139063  0.659407  0.576754  1
  O  O24  1  0.542420  0.995654  0.320596  1
  O  O25  1  0.333677  0.589825  0.933104  1
  O  O26  1  0.995607  0.749423  0.831205  1
  O  O27  1  0.179969  0.207537  0.530989  1
