# generated using pymatgen
data_Sc2Co4As3
_symmetry_space_group_name_H-M   'P 1'
_cell_length_a   12.54763500
_cell_length_b   12.54763467
_cell_length_c   3.75500200
_cell_angle_alpha   90.00000000
_cell_angle_beta   90.00000000
_cell_angle_gamma   120.00000350
_symmetry_Int_Tables_number   1
_chemical_formula_structural   Sc2Co4As3
_chemical_formula_sum   'Sc8 Co16 As12'
_cell_volume   511.99359920
_cell_formula_units_Z   4
loop_
 _symmetry_equiv_pos_site_id
 _symmetry_equiv_pos_as_xyz
  1  'x, y, z'
loop_
 _atom_site_type_symbol
 _atom_site_label
 _atom_site_symmetry_multiplicity
 _atom_site_fract_x
 _atom_site_fract_y
 _atom_site_fract_z
 _atom_site_occupancy
  Sc  Sc0  1  0.817087  0.817087  0.500000  1
  Sc  Sc1  1  0.442839  0.442839  0.000000  1
  Sc  Sc2  1  0.000000  0.182913  0.500000  1
  Sc  Sc3  1  0.557161  0.000000  0.000000  1
  Sc  Sc4  1  0.333333  0.666667  0.000000  1
  Sc  Sc5  1  0.666667  0.333333  0.000000  1
  Sc  Sc6  1  0.000000  0.557161  0.000000  1
  Sc  Sc7  1  0.182913  0.000000  0.500000  1
  Co  Co8  1  0.626887  0.823280  0.000000  1
  Co  Co9  1  0.373113  0.196393  0.000000  1
  Co  Co10  1  0.000000  0.719136  0.500000  1
  Co  Co11  1  0.280864  0.280864  0.500000  1
  Co  Co12  1  0.875990  0.353828  0.500000  1
  Co  Co13  1  0.719136  0.000000  0.500000  1
  Co  Co14  1  0.823280  0.626887  0.000000  1
  Co  Co15  1  0.176720  0.803607  0.000000  1
  Co  Co16  1  0.353828  0.875990  0.500000  1
  Co  Co17  1  0.124010  0.477838  0.500000  1
  Co  Co18  1  0.646172  0.522162  0.500000  1
  Co  Co19  1  0.000000  0.000000  0.000000  1
  Co  Co20  1  0.522162  0.646172  0.500000  1
  Co  Co21  1  0.477838  0.124010  0.500000  1
  Co  Co22  1  0.196393  0.373113  0.000000  1
  Co  Co23  1  0.803607  0.176720  0.000000  1
  As  As24  1  0.000000  0.348426  0.000000  1
  As  As25  1  0.826143  0.513576  0.500000  1
  As  As26  1  0.687432  0.173857  0.500000  1
  As  As27  1  0.176172  0.176172  0.000000  1
  As  As28  1  0.651574  0.651574  0.000000  1
  As  As29  1  0.823828  0.000000  0.000000  1
  As  As30  1  0.513576  0.826143  0.500000  1
  As  As31  1  0.173857  0.687432  0.500000  1
  As  As32  1  0.348426  0.000000  0.000000  1
  As  As33  1  0.486424  0.312568  0.500000  1
  As  As34  1  0.000000  0.823828  0.000000  1
  As  As35  1  0.312568  0.486424  0.500000  1
