# generated using pymatgen
data_La5Pr3(Y3Si4)4
_symmetry_space_group_name_H-M   'P 1'
_cell_length_a   7.57520128
_cell_length_b   7.86324750
_cell_length_c   14.96777993
_cell_angle_alpha   89.96522120
_cell_angle_beta   89.91372830
_cell_angle_gamma   89.97844739
_symmetry_Int_Tables_number   1
_chemical_formula_structural   La5Pr3(Y3Si4)4
_chemical_formula_sum   'La5 Pr3 Y12 Si16'
_cell_volume   891.56478993
_cell_formula_units_Z   1
loop_
 _symmetry_equiv_pos_site_id
 _symmetry_equiv_pos_as_xyz
  1  'x, y, z'
loop_
 _atom_site_type_symbol
 _atom_site_label
 _atom_site_symmetry_multiplicity
 _atom_site_fract_x
 _atom_site_fract_y
 _atom_site_fract_z
 _atom_site_occupancy
  La  La0  1  0.022534  0.178394  0.401785  1
  La  La1  1  0.522579  0.321622  0.401722  1
  La  La2  1  0.476962  0.678317  0.902528  1
  La  La3  1  0.477643  0.678581  0.598288  1
  La  La4  1  0.977461  0.821651  0.597968  1
  Pr  Pr5  1  0.976894  0.820817  0.902153  1
  Pr  Pr6  1  0.524001  0.320052  0.098684  1
  Pr  Pr7  1  0.023351  0.179540  0.098111  1
  Y  Y8  1  0.320520  0.178250  0.623451  1
  Y  Y9  1  0.679328  0.821714  0.376222  1
  Y  Y10  1  0.652226  0.989205  0.750447  1
  Y  Y11  1  0.179447  0.678252  0.376202  1
  Y  Y12  1  0.820754  0.320734  0.877571  1
  Y  Y13  1  0.820547  0.321574  0.623378  1
  Y  Y14  1  0.848026  0.488957  0.249214  1
  Y  Y15  1  0.348047  0.011152  0.249375  1
  Y  Y16  1  0.320194  0.178558  0.877674  1
  Y  Y17  1  0.178922  0.678966  0.122577  1
  Y  Y18  1  0.679872  0.821475  0.122525  1
  Y  Y19  1  0.151791  0.510851  0.750396  1
  Si  Si20  1  0.269403  0.881293  0.750702  1
  Si  Si21  1  0.473147  0.612674  0.249281  1
  Si  Si22  1  0.026657  0.112662  0.750544  1
  Si  Si23  1  0.526972  0.386572  0.750333  1
  Si  Si24  1  0.143397  0.469774  0.539392  1
  Si  Si25  1  0.973268  0.887567  0.249201  1
  Si  Si26  1  0.730017  0.119264  0.248970  1
  Si  Si27  1  0.856178  0.529839  0.039866  1
  Si  Si28  1  0.356048  0.970973  0.040026  1
  Si  Si29  1  0.142509  0.469492  0.960822  1
  Si  Si30  1  0.643292  0.030194  0.539390  1
  Si  Si31  1  0.356638  0.969751  0.460484  1
  Si  Si32  1  0.856704  0.530165  0.460465  1
  Si  Si33  1  0.770911  0.618923  0.750448  1
  Si  Si34  1  0.229893  0.380902  0.249021  1
  Si  Si35  1  0.643865  0.031293  0.960787  1
