# generated using pymatgen
data_Pr2GdTaO7
_symmetry_space_group_name_H-M   'P 1'
_cell_length_a   6.67270354
_cell_length_b   6.67270393
_cell_length_c   7.73464331
_cell_angle_alpha   90.09677352
_cell_angle_beta   90.09677277
_cell_angle_gamma   109.27739422
_symmetry_Int_Tables_number   1
_chemical_formula_structural   Pr2GdTaO7
_chemical_formula_sum   'Pr4 Gd2 Ta2 O14'
_cell_volume   325.07420206
_cell_formula_units_Z   2
loop_
 _symmetry_equiv_pos_site_id
 _symmetry_equiv_pos_as_xyz
  1  'x, y, z'
loop_
 _atom_site_type_symbol
 _atom_site_label
 _atom_site_symmetry_multiplicity
 _atom_site_fract_x
 _atom_site_fract_y
 _atom_site_fract_z
 _atom_site_occupancy
  Pr  Pr0  1  0.465192  0.001134  0.254395  1
  Pr  Pr1  1  0.998866  0.534808  0.245605  1
  Pr  Pr2  1  0.476486  0.478642  0.997792  1
  Pr  Pr3  1  0.521358  0.523514  0.502208  1
  Gd  Gd4  1  0.533319  0.999932  0.754674  1
  Gd  Gd5  1  0.000068  0.466681  0.745326  1
  Ta  Ta6  1  0.002313  0.002383  0.503275  1
  Ta  Ta7  1  0.997617  0.997687  0.996725  1
  O  O8  1  0.940665  0.059335  0.750000  1
  O  O9  1  0.643621  0.356379  0.750000  1
  O  O10  1  0.306491  0.054689  0.540259  1
  O  O11  1  0.945311  0.693509  0.959741  1
  O  O12  1  0.629447  0.370553  0.250000  1
  O  O13  1  0.926904  0.682178  0.531040  1
  O  O14  1  0.317822  0.073096  0.968960  1
  O  O15  1  0.076843  0.319742  0.020598  1
  O  O16  1  0.680258  0.923157  0.479402  1
  O  O17  1  0.365249  0.634751  0.750000  1
  O  O18  1  0.690846  0.940117  0.029227  1
  O  O19  1  0.059883  0.309154  0.470773  1
  O  O20  1  0.366017  0.633983  0.250000  1
  O  O21  1  0.055425  0.944575  0.250000  1
