# generated using pymatgen
data_TbNd2Dy(ReB6)2
_symmetry_space_group_name_H-M   'P 1'
_cell_length_a   3.74048000
_cell_length_b   9.26877902
_cell_length_c   11.72414703
_cell_angle_alpha   90.00754841
_cell_angle_beta   90.00000000
_cell_angle_gamma   90.00000000
_symmetry_Int_Tables_number   1
_chemical_formula_structural   TbNd2Dy(ReB6)2
_chemical_formula_sum   'Tb2 Nd4 Dy2 Re4 B24'
_cell_volume   406.47245200
_cell_formula_units_Z   2
loop_
 _symmetry_equiv_pos_site_id
 _symmetry_equiv_pos_as_xyz
  1  'x, y, z'
loop_
 _atom_site_type_symbol
 _atom_site_label
 _atom_site_symmetry_multiplicity
 _atom_site_fract_x
 _atom_site_fract_y
 _atom_site_fract_z
 _atom_site_occupancy
  Tb  Tb0  1  0.000000  0.942245  0.369101  1
  Tb  Tb1  1  0.000000  0.057755  0.630899  1
  Nd  Nd2  1  0.000000  0.322696  0.414323  1
  Nd  Nd3  1  0.000000  0.677304  0.585677  1
  Nd  Nd4  1  0.000000  0.822512  0.085629  1
  Nd  Nd5  1  0.000000  0.177488  0.914371  1
  Dy  Dy6  1  0.000000  0.442312  0.130617  1
  Dy  Dy7  1  0.000000  0.557688  0.869383  1
  Re  Re8  1  0.000000  0.638389  0.319303  1
  Re  Re9  1  0.000000  0.361611  0.680697  1
  Re  Re10  1  0.000000  0.139432  0.180457  1
  Re  Re11  1  0.000000  0.860568  0.819543  1
  B  B12  1  0.500000  0.554506  0.430488  1
  B  B13  1  0.500000  0.445494  0.569512  1
  B  B14  1  0.500000  0.054804  0.069295  1
  B  B15  1  0.500000  0.945196  0.930705  1
  B  B16  1  0.500000  0.748375  0.415385  1
  B  B17  1  0.500000  0.251625  0.584615  1
  B  B18  1  0.500000  0.249093  0.084291  1
  B  B19  1  0.500000  0.750907  0.915709  1
  B  B20  1  0.500000  0.790169  0.265654  1
  B  B21  1  0.500000  0.209831  0.734346  1
  B  B22  1  0.500000  0.290914  0.234015  1
  B  B23  1  0.500000  0.709086  0.765985  1
  B  B24  1  0.500000  0.629130  0.186287  1
  B  B25  1  0.500000  0.370870  0.813713  1
  B  B26  1  0.500000  0.129715  0.313189  1
  B  B27  1  0.500000  0.870285  0.686811  1
  B  B28  1  0.500000  0.984199  0.212507  1
  B  B29  1  0.500000  0.015801  0.787493  1
  B  B30  1  0.500000  0.483636  0.287002  1
  B  B31  1  0.500000  0.516364  0.712998  1
  B  B32  1  0.500000  0.596095  0.026775  1
  B  B33  1  0.500000  0.403905  0.973225  1
  B  B34  1  0.500000  0.096646  0.473151  1
  B  B35  1  0.500000  0.903354  0.526849  1
