# generated using pymatgen
data_Dy4Ga10NiIr5
_symmetry_space_group_name_H-M   'P 1'
_cell_length_a   8.59333795
_cell_length_b   8.59333637
_cell_length_c   8.59333612
_cell_angle_alpha   141.95060847
_cell_angle_beta   109.00619697
_cell_angle_gamma   83.50305905
_symmetry_Int_Tables_number   1
_chemical_formula_structural   Dy4Ga10NiIr5
_chemical_formula_sum   'Dy4 Ga10 Ni1 Ir5'
_cell_volume   358.43768260
_cell_formula_units_Z   1
loop_
 _symmetry_equiv_pos_site_id
 _symmetry_equiv_pos_as_xyz
  1  'x, y, z'
loop_
 _atom_site_type_symbol
 _atom_site_label
 _atom_site_symmetry_multiplicity
 _atom_site_fract_x
 _atom_site_fract_y
 _atom_site_fract_z
 _atom_site_occupancy
  Dy  Dy0  1  0.870846  0.641356  0.221304  1
  Dy  Dy1  1  0.129154  0.350457  0.770510  1
  Dy  Dy2  1  0.420053  0.149543  0.278696  1
  Dy  Dy3  1  0.579947  0.858644  0.729490  1
  Ga  Ga4  1  0.500000  0.750000  0.250000  1
  Ga  Ga5  1  0.500000  0.250000  0.750000  1
  Ga  Ga6  1  0.198732  0.948732  0.750000  1
  Ga  Ga7  1  0.801268  0.551268  0.750000  1
  Ga  Ga8  1  0.799492  0.049492  0.250000  1
  Ga  Ga9  1  0.200508  0.450508  0.250000  1
  Ga  Ga10  1  0.097094  0.911579  0.171957  1
  Ga  Ga11  1  0.902906  0.074864  0.814487  1
  Ga  Ga12  1  0.739622  0.425136  0.328043  1
  Ga  Ga13  1  0.260378  0.588421  0.685513  1
  Ni  Ni14  1  0.000000  0.750000  0.750000  1
  Ir  Ir15  1  0.000000  0.250000  0.250000  1
  Ir  Ir16  1  0.255279  0.846738  0.407690  1
  Ir  Ir17  1  0.744721  0.152410  0.591459  1
  Ir  Ir18  1  0.439048  0.347590  0.092310  1
  Ir  Ir19  1  0.560952  0.653262  0.908541  1
