# generated using pymatgen
data_Tb2YbHo5(B6Os)4
_symmetry_space_group_name_H-M   'P 1'
_cell_length_a   3.65007000
_cell_length_b   9.14641976
_cell_length_c   11.53313604
_cell_angle_alpha   90.09487076
_cell_angle_beta   90.00000000
_cell_angle_gamma   90.00000000
_symmetry_Int_Tables_number   1
_chemical_formula_structural   Tb2YbHo5(B6Os)4
_chemical_formula_sum   'Tb2 Yb1 Ho5 B24 Os4'
_cell_volume   385.03405332
_cell_formula_units_Z   1
loop_
 _symmetry_equiv_pos_site_id
 _symmetry_equiv_pos_as_xyz
  1  'x, y, z'
loop_
 _atom_site_type_symbol
 _atom_site_label
 _atom_site_symmetry_multiplicity
 _atom_site_fract_x
 _atom_site_fract_y
 _atom_site_fract_z
 _atom_site_occupancy
  Tb  Tb0  1  0.000000  0.322110  0.413409  1
  Tb  Tb1  1  0.000000  0.678378  0.585722  1
  Yb  Yb2  1  0.000000  0.822946  0.086374  1
  Ho  Ho3  1  0.000000  0.176408  0.914920  1
  Ho  Ho4  1  0.000000  0.942944  0.370892  1
  Ho  Ho5  1  0.000000  0.056207  0.627438  1
  Ho  Ho6  1  0.000000  0.443844  0.127991  1
  Ho  Ho7  1  0.000000  0.558057  0.872834  1
  B  B8  1  0.500000  0.553315  0.432954  1
  B  B9  1  0.500000  0.445925  0.567901  1
  B  B10  1  0.500000  0.053472  0.067175  1
  B  B11  1  0.500000  0.946346  0.932925  1
  B  B12  1  0.500000  0.747565  0.418887  1
  B  B13  1  0.500000  0.251740  0.580924  1
  B  B14  1  0.500000  0.248002  0.080588  1
  B  B15  1  0.500000  0.752610  0.919295  1
  B  B16  1  0.500000  0.789878  0.266118  1
  B  B17  1  0.500000  0.209353  0.733902  1
  B  B18  1  0.500000  0.290724  0.233311  1
  B  B19  1  0.500000  0.710338  0.766448  1
  B  B20  1  0.500000  0.631038  0.185849  1
  B  B21  1  0.500000  0.368762  0.814994  1
  B  B22  1  0.500000  0.131316  0.313572  1
  B  B23  1  0.500000  0.869067  0.685373  1
  B  B24  1  0.500000  0.983067  0.212102  1
  B  B25  1  0.500000  0.017095  0.787362  1
  B  B26  1  0.500000  0.483145  0.287653  1
  B  B27  1  0.500000  0.516782  0.713296  1
  B  B28  1  0.500000  0.604231  0.029056  1
  B  B29  1  0.500000  0.394658  0.970856  1
  B  B30  1  0.500000  0.106967  0.470076  1
  B  B31  1  0.500000  0.893159  0.529179  1
  Os  Os32  1  0.000000  0.636589  0.322110  1
  Os  Os33  1  0.000000  0.362360  0.679247  1
  Os  Os34  1  0.000000  0.138696  0.178859  1
  Os  Os35  1  0.000000  0.862902  0.820410  1
