# generated using pymatgen
data_Tb3Zn3Hg2Ru
_symmetry_space_group_name_H-M   'P 1'
_cell_length_a   7.74013800
_cell_length_b   7.74013911
_cell_length_c   3.79331900
_cell_angle_alpha   90.00000000
_cell_angle_beta   90.00000000
_cell_angle_gamma   119.99998669
_symmetry_Int_Tables_number   1
_chemical_formula_structural   Tb3Zn3Hg2Ru
_chemical_formula_sum   'Tb3 Zn3 Hg2 Ru1'
_cell_volume   196.81016545
_cell_formula_units_Z   1
loop_
 _symmetry_equiv_pos_site_id
 _symmetry_equiv_pos_as_xyz
  1  'x, y, z'
loop_
 _atom_site_type_symbol
 _atom_site_label
 _atom_site_symmetry_multiplicity
 _atom_site_fract_x
 _atom_site_fract_y
 _atom_site_fract_z
 _atom_site_occupancy
  Tb  Tb0  1  0.030722  0.420381  0.000000  1
  Tb  Tb1  1  0.579619  0.610341  0.000000  1
  Tb  Tb2  1  0.389659  0.969278  0.000000  1
  Zn  Zn3  1  0.015344  0.730390  0.500000  1
  Zn  Zn4  1  0.269610  0.284953  0.500000  1
  Zn  Zn5  1  0.715047  0.984656  0.500000  1
  Hg  Hg6  1  0.000000  0.000000  0.000000  1
  Hg  Hg7  1  0.666667  0.333333  0.500000  1
  Ru  Ru8  1  0.333333  0.666667  0.500000  1
