# generated using pymatgen
data_Y3AgSn3RuRh
_symmetry_space_group_name_H-M   'P 1'
_cell_length_a   7.79963200
_cell_length_b   7.79963161
_cell_length_c   3.77630600
_cell_angle_alpha   90.00000000
_cell_angle_beta   90.00000000
_cell_angle_gamma   120.00000166
_symmetry_Int_Tables_number   1
_chemical_formula_structural   Y3AgSn3RuRh
_chemical_formula_sum   'Y3 Ag1 Sn3 Ru1 Rh1'
_cell_volume   198.95094487
_cell_formula_units_Z   1
loop_
 _symmetry_equiv_pos_site_id
 _symmetry_equiv_pos_as_xyz
  1  'x, y, z'
loop_
 _atom_site_type_symbol
 _atom_site_label
 _atom_site_symmetry_multiplicity
 _atom_site_fract_x
 _atom_site_fract_y
 _atom_site_fract_z
 _atom_site_occupancy
  Y  Y0  1  0.408143  0.022021  0.500000  1
  Y  Y1  1  0.977979  0.386122  0.500000  1
  Y  Y2  1  0.613878  0.591857  0.500000  1
  Ag  Ag3  1  0.333333  0.666667  0.000000  1
  Sn  Sn4  1  0.737320  0.997588  0.000000  1
  Sn  Sn5  1  0.002412  0.739733  0.000000  1
  Sn  Sn6  1  0.260267  0.262680  0.000000  1
  Ru  Ru7  1  0.000000  0.000000  0.500000  1
  Rh  Rh8  1  0.666667  0.333333  0.000000  1
