# generated using pymatgen
data_Yb8HoLu(AlSb3)4
_symmetry_space_group_name_H-M   'P 1'
_cell_length_a   4.42021100
_cell_length_b   7.44761200
_cell_length_c   22.77200701
_cell_angle_alpha   89.99764542
_cell_angle_beta   90.00000000
_cell_angle_gamma   90.00000000
_symmetry_Int_Tables_number   1
_chemical_formula_structural   Yb8HoLu(AlSb3)4
_chemical_formula_sum   'Yb8 Ho1 Lu1 Al4 Sb12'
_cell_volume   749.65484558
_cell_formula_units_Z   1
loop_
 _symmetry_equiv_pos_site_id
 _symmetry_equiv_pos_as_xyz
  1  'x, y, z'
loop_
 _atom_site_type_symbol
 _atom_site_label
 _atom_site_symmetry_multiplicity
 _atom_site_fract_x
 _atom_site_fract_y
 _atom_site_fract_z
 _atom_site_occupancy
  Yb  Yb0  1  0.000000  0.460372  0.913083  1
  Yb  Yb1  1  0.000000  0.276701  0.746613  1
  Yb  Yb2  1  0.000000  0.776076  0.752730  1
  Yb  Yb3  1  0.000000  0.539628  0.086917  1
  Yb  Yb4  1  0.000000  0.959644  0.586512  1
  Yb  Yb5  1  0.000000  0.723299  0.253387  1
  Yb  Yb6  1  0.000000  0.040356  0.413488  1
  Yb  Yb7  1  0.000000  0.223924  0.247270  1
  Ho  Ho8  1  0.000000  0.000000  0.000000  1
  Lu  Lu9  1  0.000000  0.500000  0.500000  1
  Al  Al10  1  0.500000  0.826219  0.880686  1
  Al  Al11  1  0.500000  0.173781  0.119314  1
  Al  Al12  1  0.500000  0.674684  0.380658  1
  Al  Al13  1  0.500000  0.325316  0.619342  1
  Sb  Sb14  1  0.500000  0.780648  0.496993  1
  Sb  Sb15  1  0.000000  0.463392  0.365645  1
  Sb  Sb16  1  0.000000  0.962928  0.135321  1
  Sb  Sb17  1  0.500000  0.523451  0.813235  1
  Sb  Sb18  1  0.500000  0.476549  0.186765  1
  Sb  Sb19  1  0.000000  0.037072  0.864679  1
  Sb  Sb20  1  0.000000  0.536608  0.634355  1
  Sb  Sb21  1  0.500000  0.976761  0.313319  1
  Sb  Sb22  1  0.500000  0.219352  0.503007  1
  Sb  Sb23  1  0.500000  0.023239  0.686681  1
  Sb  Sb24  1  0.500000  0.284639  0.003377  1
  Sb  Sb25  1  0.500000  0.715361  0.996623  1
