# generated using pymatgen
data_KBa4Fe9CoP10
_symmetry_space_group_name_H-M   'P 1'
_cell_length_a   8.66568361
_cell_length_b   8.66619900
_cell_length_c   8.66596122
_cell_angle_alpha   121.12176986
_cell_angle_beta   121.12649775
_cell_angle_gamma   88.06104538
_symmetry_Int_Tables_number   1
_chemical_formula_structural   KBa4Fe9CoP10
_chemical_formula_sum   'K1 Ba4 Fe9 Co1 P10'
_cell_volume   452.09660293
_cell_formula_units_Z   1
loop_
 _symmetry_equiv_pos_site_id
 _symmetry_equiv_pos_as_xyz
  1  'x, y, z'
loop_
 _atom_site_type_symbol
 _atom_site_label
 _atom_site_symmetry_multiplicity
 _atom_site_fract_x
 _atom_site_fract_y
 _atom_site_fract_z
 _atom_site_occupancy
  K  K0  1  0.999972  0.999923  0.000012  1
  Ba  Ba1  1  0.392678  0.802379  0.195285  1
  Ba  Ba2  1  0.802609  0.607210  0.409639  1
  Ba  Ba3  1  0.197489  0.392843  0.590373  1
  Ba  Ba4  1  0.607294  0.197659  0.804688  1
  Fe  Fe5  1  0.350078  0.450183  0.300117  1
  Fe  Fe6  1  0.750375  0.250025  0.500067  1
  Fe  Fe7  1  0.150304  0.050664  0.700217  1
  Fe  Fe8  1  0.549582  0.849316  0.899618  1
  Fe  Fe9  1  0.651164  0.550184  0.701674  1
  Fe  Fe10  1  0.049947  0.351195  0.900826  1
  Fe  Fe11  1  0.450090  0.150377  0.100067  1
  Fe  Fe12  1  0.849946  0.948467  0.298883  1
  Fe  Fe13  1  0.248844  0.749746  0.498526  1
  Co  Co14  1  0.949734  0.649934  0.100037  1
  P  P15  1  0.938291  0.536914  0.797472  1
  P  P16  1  0.338938  0.338976  0.000167  1
  P  P17  1  0.738267  0.138704  0.199903  1
  P  P18  1  0.139949  0.940817  0.403004  1
  P  P19  1  0.538331  0.738366  0.599551  1
  P  P20  1  0.659061  0.661568  0.999100  1
  P  P21  1  0.062627  0.460538  0.200868  1
  P  P22  1  0.461793  0.261580  0.400489  1
  P  P23  1  0.861104  0.061184  0.599484  1
  P  P24  1  0.261534  0.861246  0.799933  1
