# generated using pymatgen
data_LaNd2Tm(MoN3)4
_symmetry_space_group_name_H-M   'P 1'
_cell_length_a   7.28010369
_cell_length_b   7.28010383
_cell_length_c   6.23865100
_cell_angle_alpha   74.94138895
_cell_angle_beta   74.94138866
_cell_angle_gamma   82.43626524
_symmetry_Int_Tables_number   1
_chemical_formula_structural   LaNd2Tm(MoN3)4
_chemical_formula_sum   'La1 Nd2 Tm1 Mo4 N12'
_cell_volume   307.59932911
_cell_formula_units_Z   1
loop_
 _symmetry_equiv_pos_site_id
 _symmetry_equiv_pos_as_xyz
  1  'x, y, z'
loop_
 _atom_site_type_symbol
 _atom_site_label
 _atom_site_symmetry_multiplicity
 _atom_site_fract_x
 _atom_site_fract_y
 _atom_site_fract_z
 _atom_site_occupancy
  La  La0  1  0.690008  0.309992  0.250000  1
  Nd  Nd1  1  0.090363  0.909637  0.250000  1
  Nd  Nd2  1  0.313488  0.686512  0.750000  1
  Tm  Tm3  1  0.913649  0.086351  0.750000  1
  Mo  Mo4  1  0.801804  0.620349  0.746706  1
  Mo  Mo5  1  0.195853  0.378272  0.258749  1
  Mo  Mo6  1  0.621728  0.804147  0.241251  1
  Mo  Mo7  1  0.379651  0.198196  0.753294  1
  N  N8  1  0.217521  0.002662  0.840918  1
  N  N9  1  0.341079  0.379387  0.483693  1
  N  N10  1  0.664289  0.630972  0.512823  1
  N  N11  1  0.620120  0.109097  0.663730  1
  N  N12  1  0.997338  0.782479  0.659082  1
  N  N13  1  0.784078  0.999984  0.134985  1
  N  N14  1  0.100638  0.612170  0.152226  1
  N  N15  1  0.890903  0.379880  0.836270  1
  N  N16  1  0.000016  0.215922  0.365015  1
  N  N17  1  0.369028  0.335711  0.987177  1
  N  N18  1  0.620613  0.658921  0.016307  1
  N  N19  1  0.387830  0.899362  0.347774  1
