# generated using pymatgen
data_YEr(Al3Pt)6
_symmetry_space_group_name_H-M   'P 1'
_cell_length_a   10.41890717
_cell_length_b   10.41890701
_cell_length_c   10.41890902
_cell_angle_alpha   42.21628563
_cell_angle_beta   42.21628825
_cell_angle_gamma   42.21628049
_symmetry_Int_Tables_number   1
_chemical_formula_structural   YEr(Al3Pt)6
_chemical_formula_sum   'Y1 Er1 Al18 Pt6'
_cell_volume   462.11170921
_cell_formula_units_Z   1
loop_
 _symmetry_equiv_pos_site_id
 _symmetry_equiv_pos_as_xyz
  1  'x, y, z'
loop_
 _atom_site_type_symbol
 _atom_site_label
 _atom_site_symmetry_multiplicity
 _atom_site_fract_x
 _atom_site_fract_y
 _atom_site_fract_z
 _atom_site_occupancy
  Y  Y0  1  0.166858  0.166858  0.166858  1
  Er  Er1  1  0.833133  0.833133  0.833133  1
  Al  Al2  1  0.107695  0.436454  0.764712  1
  Al  Al3  1  0.436454  0.764712  0.107695  1
  Al  Al4  1  0.564286  0.891940  0.234929  1
  Al  Al5  1  0.949619  0.949619  0.949619  1
  Al  Al6  1  0.050309  0.050309  0.050309  1
  Al  Al7  1  0.295713  0.703901  0.500382  1
  Al  Al8  1  0.891940  0.234929  0.564286  1
  Al  Al9  1  0.385113  0.385113  0.385113  1
  Al  Al10  1  0.500382  0.295713  0.703901  1
  Al  Al11  1  0.234929  0.564286  0.891940  1
  Al  Al12  1  0.716577  0.716577  0.716577  1
  Al  Al13  1  0.614899  0.614899  0.614899  1
  Al  Al14  1  0.334049  0.999999  0.665948  1
  Al  Al15  1  0.703901  0.500382  0.295713  1
  Al  Al16  1  0.665948  0.334049  0.999999  1
  Al  Al17  1  0.283478  0.283478  0.283478  1
  Al  Al18  1  0.999999  0.665948  0.334049  1
  Al  Al19  1  0.764712  0.107695  0.436454  1
  Pt  Pt20  1  0.419350  0.077017  0.760128  1
  Pt  Pt21  1  0.581454  0.239480  0.922578  1
  Pt  Pt22  1  0.077017  0.760128  0.419350  1
  Pt  Pt23  1  0.760128  0.419350  0.077017  1
  Pt  Pt24  1  0.922578  0.581454  0.239480  1
  Pt  Pt25  1  0.239480  0.922578  0.581454  1
