# generated using pymatgen
data_Zr5In3P
_symmetry_space_group_name_H-M   'P 1'
_cell_length_a   8.67398200
_cell_length_b   8.67393966
_cell_length_c   6.00803000
_cell_angle_alpha   90.00000000
_cell_angle_beta   90.00000000
_cell_angle_gamma   119.99983615
_symmetry_Int_Tables_number   1
_chemical_formula_structural   Zr5In3P
_chemical_formula_sum   'Zr10 In6 P2'
_cell_volume   391.46988171
_cell_formula_units_Z   2
loop_
 _symmetry_equiv_pos_site_id
 _symmetry_equiv_pos_as_xyz
  1  'x, y, z'
loop_
 _atom_site_type_symbol
 _atom_site_label
 _atom_site_symmetry_multiplicity
 _atom_site_fract_x
 _atom_site_fract_y
 _atom_site_fract_z
 _atom_site_occupancy
  Zr  Zr0  1  0.666664  0.333331  0.000000  1
  Zr  Zr1  1  0.333334  0.666667  0.000000  1
  Zr  Zr2  1  0.245593  0.000000  0.249998  1
  Zr  Zr3  1  0.000000  0.245592  0.249998  1
  Zr  Zr4  1  0.754406  0.754407  0.250002  1
  Zr  Zr5  1  0.666663  0.333332  0.500000  1
  Zr  Zr6  1  0.333335  0.666666  0.500000  1
  Zr  Zr7  1  0.754408  0.000000  0.750000  1
  Zr  Zr8  1  0.000000  0.754409  0.750000  1
  Zr  Zr9  1  0.245593  0.245592  0.750001  1
  In  In10  1  0.603460  0.000000  0.249998  1
  In  In11  1  0.000000  0.603457  0.249998  1
  In  In12  1  0.396538  0.396538  0.250002  1
  In  In13  1  0.396540  0.000000  0.750000  1
  In  In14  1  0.000000  0.396543  0.750000  1
  In  In15  1  0.603459  0.603459  0.750001  1
  P  P16  1  0.000000  0.000000  0.000000  1
  P  P17  1  0.000000  0.000000  0.500000  1
