# generated using pymatgen
data_Sm3Cu6Ni7B2
_symmetry_space_group_name_H-M   'P 1'
_cell_length_a   5.06489009
_cell_length_b   5.06489068
_cell_length_c   10.92610000
_cell_angle_alpha   90.00000000
_cell_angle_beta   90.00000000
_cell_angle_gamma   120.02180833
_symmetry_Int_Tables_number   1
_chemical_formula_structural   Sm3Cu6Ni7B2
_chemical_formula_sum   'Sm3 Cu6 Ni7 B2'
_cell_volume   242.68359737
_cell_formula_units_Z   1
loop_
 _symmetry_equiv_pos_site_id
 _symmetry_equiv_pos_as_xyz
  1  'x, y, z'
loop_
 _atom_site_type_symbol
 _atom_site_label
 _atom_site_symmetry_multiplicity
 _atom_site_fract_x
 _atom_site_fract_y
 _atom_site_fract_z
 _atom_site_occupancy
  Sm  Sm0  1  0.000000  0.000000  0.000000  1
  Sm  Sm1  1  0.000000  0.000000  0.676955  1
  Sm  Sm2  1  0.000000  0.000000  0.323045  1
  Cu  Cu3  1  0.500000  0.000000  0.500000  1
  Cu  Cu4  1  0.000000  0.500000  0.500000  1
  Cu  Cu5  1  0.665311  0.334689  0.685025  1
  Cu  Cu6  1  0.334689  0.665311  0.685025  1
  Cu  Cu7  1  0.334689  0.665311  0.314975  1
  Cu  Cu8  1  0.665311  0.334689  0.314975  1
  Ni  Ni9  1  0.500000  0.500000  0.500000  1
  Ni  Ni10  1  0.500000  0.500000  0.871018  1
  Ni  Ni11  1  0.500000  0.000000  0.871070  1
  Ni  Ni12  1  0.000000  0.500000  0.871070  1
  Ni  Ni13  1  0.500000  0.500000  0.128982  1
  Ni  Ni14  1  0.500000  0.000000  0.128930  1
  Ni  Ni15  1  0.000000  0.500000  0.128930  1
  B  B16  1  0.666767  0.333233  0.000000  1
  B  B17  1  0.333233  0.666767  0.000000  1
