# generated using pymatgen
data_Er6ScVO12
_symmetry_space_group_name_H-M   'P 1'
_cell_length_a   6.51995760
_cell_length_b   6.51995726
_cell_length_c   6.51995715
_cell_angle_alpha   92.52581480
_cell_angle_beta   92.52581555
_cell_angle_gamma   92.52581924
_symmetry_Int_Tables_number   1
_chemical_formula_structural   Er6ScVO12
_chemical_formula_sum   'Er6 Sc1 V1 O12'
_cell_volume   276.32996935
_cell_formula_units_Z   1
loop_
 _symmetry_equiv_pos_site_id
 _symmetry_equiv_pos_as_xyz
  1  'x, y, z'
loop_
 _atom_site_type_symbol
 _atom_site_label
 _atom_site_symmetry_multiplicity
 _atom_site_fract_x
 _atom_site_fract_y
 _atom_site_fract_z
 _atom_site_occupancy
  Er  Er0  1  0.743953  0.927963  0.436677  1
  Er  Er1  1  0.927963  0.436677  0.743953  1
  Er  Er2  1  0.436677  0.743953  0.927963  1
  Er  Er3  1  0.256047  0.072037  0.563323  1
  Er  Er4  1  0.072037  0.563323  0.256047  1
  Er  Er5  1  0.563323  0.256047  0.072037  1
  Sc  Sc6  1  0.000000  0.000000  0.000000  1
  V  V7  1  0.500000  0.500000  0.500000  1
  O  O8  1  0.590616  0.461768  0.803065  1
  O  O9  1  0.461768  0.803065  0.590616  1
  O  O10  1  0.803065  0.590616  0.461768  1
  O  O11  1  0.409384  0.538232  0.196935  1
  O  O12  1  0.538232  0.196935  0.409384  1
  O  O13  1  0.196935  0.409384  0.538232  1
  O  O14  1  0.069357  0.913920  0.309000  1
  O  O15  1  0.913920  0.309000  0.069357  1
  O  O16  1  0.691000  0.930643  0.086080  1
  O  O17  1  0.086080  0.691000  0.930643  1
  O  O18  1  0.930643  0.086080  0.691000  1
  O  O19  1  0.309000  0.069357  0.913920  1
