# generated using pymatgen
data_Ho10TcNiSb4
_symmetry_space_group_name_H-M   'P 1'
_cell_length_a   7.88936200
_cell_length_b   8.83084100
_cell_length_c   12.09734500
_cell_angle_alpha   90.00000000
_cell_angle_beta   90.00000000
_cell_angle_gamma   90.00000000
_symmetry_Int_Tables_number   1
_chemical_formula_structural   Ho10TcNiSb4
_chemical_formula_sum   'Ho20 Tc2 Ni2 Sb8'
_cell_volume   842.81841405
_cell_formula_units_Z   2
loop_
 _symmetry_equiv_pos_site_id
 _symmetry_equiv_pos_as_xyz
  1  'x, y, z'
loop_
 _atom_site_type_symbol
 _atom_site_label
 _atom_site_symmetry_multiplicity
 _atom_site_fract_x
 _atom_site_fract_y
 _atom_site_fract_z
 _atom_site_occupancy
  Ho  Ho0  1  0.322696  0.539445  0.435717  1
  Ho  Ho1  1  0.874111  0.250000  0.803472  1
  Ho  Ho2  1  0.177304  0.539445  0.935717  1
  Ho  Ho3  1  0.322696  0.960555  0.435717  1
  Ho  Ho4  1  0.125224  0.750000  0.199049  1
  Ho  Ho5  1  0.838932  0.750000  0.787333  1
  Ho  Ho6  1  0.374776  0.750000  0.699049  1
  Ho  Ho7  1  0.950685  0.750000  0.502152  1
  Ho  Ho8  1  0.453228  0.250000  0.997078  1
  Ho  Ho9  1  0.680652  0.456969  0.566048  1
  Ho  Ho10  1  0.819348  0.043031  0.066048  1
  Ho  Ho11  1  0.661068  0.750000  0.287333  1
  Ho  Ho12  1  0.549315  0.750000  0.002152  1
  Ho  Ho13  1  0.046772  0.250000  0.497078  1
  Ho  Ho14  1  0.680652  0.043031  0.566048  1
  Ho  Ho15  1  0.177304  0.960555  0.935717  1
  Ho  Ho16  1  0.625889  0.250000  0.303472  1
  Ho  Ho17  1  0.341101  0.250000  0.707099  1
  Ho  Ho18  1  0.819348  0.456969  0.066048  1
  Ho  Ho19  1  0.158899  0.250000  0.207099  1
  Tc  Tc20  1  0.921124  0.750000  0.013521  1
  Tc  Tc21  1  0.578876  0.750000  0.513521  1
  Ni  Ni22  1  0.079585  0.250000  0.985315  1
  Ni  Ni23  1  0.420415  0.250000  0.485315  1
  Sb  Sb24  1  0.929569  0.490717  0.328466  1
  Sb  Sb25  1  0.428552  0.506787  0.172260  1
  Sb  Sb26  1  0.428552  0.993213  0.172260  1
  Sb  Sb27  1  0.570431  0.490717  0.828466  1
  Sb  Sb28  1  0.071448  0.506787  0.672260  1
  Sb  Sb29  1  0.570431  0.009283  0.828466  1
  Sb  Sb30  1  0.929569  0.009283  0.328466  1
  Sb  Sb31  1  0.071448  0.993213  0.672260  1
