# generated using pymatgen
data_Gd3Rh2
_symmetry_space_group_name_H-M   'P 1'
_cell_length_a   7.45623648
_cell_length_b   7.45623601
_cell_length_c   7.45623600
_cell_angle_alpha   71.58221294
_cell_angle_beta   71.58221414
_cell_angle_gamma   71.58221077
_symmetry_Int_Tables_number   1
_chemical_formula_structural   Gd3Rh2
_chemical_formula_sum   'Gd9 Rh6'
_cell_volume   362.23961583
_cell_formula_units_Z   3
loop_
 _symmetry_equiv_pos_site_id
 _symmetry_equiv_pos_as_xyz
  1  'x, y, z'
loop_
 _atom_site_type_symbol
 _atom_site_label
 _atom_site_symmetry_multiplicity
 _atom_site_fract_x
 _atom_site_fract_y
 _atom_site_fract_z
 _atom_site_occupancy
  Gd  Gd0  1  0.337609  0.834823  0.106404  1
  Gd  Gd1  1  0.106405  0.337610  0.834821  1
  Gd  Gd2  1  0.834823  0.106405  0.337608  1
  Gd  Gd3  1  0.662392  0.165177  0.893594  1
  Gd  Gd4  1  0.893595  0.662390  0.165178  1
  Gd  Gd5  1  0.165177  0.893596  0.662391  1
  Gd  Gd6  1  0.296934  0.296934  0.296934  1
  Gd  Gd7  1  0.703067  0.703067  0.703067  1
  Gd  Gd8  1  0.500000  0.500000  0.500000  1
  Rh  Rh9  1  0.664839  0.455681  0.090900  1
  Rh  Rh10  1  0.090901  0.664838  0.455681  1
  Rh  Rh11  1  0.455680  0.090901  0.664839  1
  Rh  Rh12  1  0.335161  0.544319  0.909100  1
  Rh  Rh13  1  0.909099  0.335161  0.544319  1
  Rh  Rh14  1  0.544320  0.909099  0.335160  1
