# generated using pymatgen
data_Ho3Mg(Ni4P3)2
_symmetry_space_group_name_H-M   'P 1'
_cell_length_a   3.78835500
_cell_length_b   10.65673200
_cell_length_c   12.35227400
_cell_angle_alpha   90.00000000
_cell_angle_beta   90.00000000
_cell_angle_gamma   90.00000000
_symmetry_Int_Tables_number   1
_chemical_formula_structural   Ho3Mg(Ni4P3)2
_chemical_formula_sum   'Ho6 Mg2 Ni16 P12'
_cell_volume   498.67963161
_cell_formula_units_Z   2
loop_
 _symmetry_equiv_pos_site_id
 _symmetry_equiv_pos_as_xyz
  1  'x, y, z'
loop_
 _atom_site_type_symbol
 _atom_site_label
 _atom_site_symmetry_multiplicity
 _atom_site_fract_x
 _atom_site_fract_y
 _atom_site_fract_z
 _atom_site_occupancy
  Ho  Ho0  1  0.000000  0.500000  0.525787  1
  Ho  Ho1  1  0.500000  0.000000  0.474213  1
  Ho  Ho2  1  0.500000  0.820472  0.204732  1
  Ho  Ho3  1  0.500000  0.179528  0.204732  1
  Ho  Ho4  1  0.000000  0.679528  0.795268  1
  Ho  Ho5  1  0.000000  0.320472  0.795268  1
  Mg  Mg6  1  0.500000  0.500000  0.155960  1
  Mg  Mg7  1  0.000000  0.000000  0.844040  1
  Ni  Ni8  1  0.500000  0.500000  0.702900  1
  Ni  Ni9  1  0.000000  0.000000  0.297100  1
  Ni  Ni10  1  0.000000  0.500000  0.988482  1
  Ni  Ni11  1  0.500000  0.000000  0.011518  1
  Ni  Ni12  1  0.500000  0.333015  0.995741  1
  Ni  Ni13  1  0.500000  0.666985  0.995741  1
  Ni  Ni14  1  0.000000  0.166985  0.004259  1
  Ni  Ni15  1  0.000000  0.833015  0.004259  1
  Ni  Ni16  1  0.500000  0.298667  0.431753  1
  Ni  Ni17  1  0.500000  0.701333  0.431753  1
  Ni  Ni18  1  0.000000  0.201333  0.568247  1
  Ni  Ni19  1  0.000000  0.798667  0.568247  1
  Ni  Ni20  1  0.500000  0.878760  0.707554  1
  Ni  Ni21  1  0.500000  0.121240  0.707554  1
  Ni  Ni22  1  0.000000  0.621240  0.292446  1
  Ni  Ni23  1  0.000000  0.378760  0.292446  1
  P  P24  1  0.500000  0.500000  0.881029  1
  P  P25  1  0.000000  0.000000  0.118971  1
  P  P26  1  0.500000  0.500000  0.359084  1
  P  P27  1  0.000000  0.000000  0.640916  1
  P  P28  1  0.500000  0.313825  0.615960  1
  P  P29  1  0.500000  0.686175  0.615960  1
  P  P30  1  0.000000  0.186175  0.384040  1
  P  P31  1  0.000000  0.813825  0.384040  1
  P  P32  1  0.500000  0.838466  0.892899  1
  P  P33  1  0.500000  0.161534  0.892899  1
  P  P34  1  0.000000  0.661534  0.107101  1
  P  P35  1  0.000000  0.338466  0.107101  1
