# generated using pymatgen
data_Mg4Tc24Sn
_symmetry_space_group_name_H-M   'P 1'
_cell_length_a   8.34122268
_cell_length_b   8.34122342
_cell_length_c   8.34122300
_cell_angle_alpha   109.47122203
_cell_angle_beta   109.47122385
_cell_angle_gamma   109.47122247
_symmetry_Int_Tables_number   1
_chemical_formula_structural   Mg4Tc24Sn
_chemical_formula_sum   'Mg4 Tc24 Sn1'
_cell_volume   446.75279281
_cell_formula_units_Z   1
loop_
 _symmetry_equiv_pos_site_id
 _symmetry_equiv_pos_as_xyz
  1  'x, y, z'
loop_
 _atom_site_type_symbol
 _atom_site_label
 _atom_site_symmetry_multiplicity
 _atom_site_fract_x
 _atom_site_fract_y
 _atom_site_fract_z
 _atom_site_occupancy
  Mg  Mg0  1  0.630082  0.000000  0.000000  1
  Mg  Mg1  1  0.000000  0.630082  0.000000  1
  Mg  Mg2  1  0.000000  0.000000  0.630082  1
  Mg  Mg3  1  0.369918  0.369918  0.369918  1
  Tc  Tc4  1  0.392008  0.674907  0.000000  1
  Tc  Tc5  1  0.717101  0.325093  0.325093  1
  Tc  Tc6  1  0.392008  0.000000  0.674907  1
  Tc  Tc7  1  0.674907  0.392008  0.000000  1
  Tc  Tc8  1  0.000000  0.392008  0.674907  1
  Tc  Tc9  1  0.325093  0.717101  0.325093  1
  Tc  Tc10  1  0.325093  0.325093  0.717101  1
  Tc  Tc11  1  0.000000  0.674907  0.392008  1
  Tc  Tc12  1  0.674907  0.000000  0.392008  1
  Tc  Tc13  1  0.607992  0.607992  0.282899  1
  Tc  Tc14  1  0.282899  0.607992  0.607992  1
  Tc  Tc15  1  0.607992  0.282899  0.607992  1
  Tc  Tc16  1  0.375488  0.192947  0.000000  1
  Tc  Tc17  1  0.182539  0.807053  0.807053  1
  Tc  Tc18  1  0.375488  0.000000  0.192947  1
  Tc  Tc19  1  0.192947  0.375488  0.000000  1
  Tc  Tc20  1  0.000000  0.375488  0.192947  1
  Tc  Tc21  1  0.807053  0.182539  0.807053  1
  Tc  Tc22  1  0.807053  0.807053  0.182539  1
  Tc  Tc23  1  0.000000  0.192947  0.375488  1
  Tc  Tc24  1  0.192947  0.000000  0.375488  1
  Tc  Tc25  1  0.624512  0.624512  0.817461  1
  Tc  Tc26  1  0.817461  0.624512  0.624512  1
  Tc  Tc27  1  0.624512  0.817461  0.624512  1
  Sn  Sn28  1  0.000000  0.000000  0.000000  1
