# generated using pymatgen
data_Sr10Yb3Si14O
_symmetry_space_group_name_H-M   'P 1'
_cell_length_a   11.20333720
_cell_length_b   11.20333704
_cell_length_c   16.67970111
_cell_angle_alpha   55.92467451
_cell_angle_beta   55.92467584
_cell_angle_gamma   24.36259906
_symmetry_Int_Tables_number   1
_chemical_formula_structural   Sr10Yb3Si14O
_chemical_formula_sum   'Sr10 Yb3 Si14 O1'
_cell_volume   707.66242538
_cell_formula_units_Z   1
loop_
 _symmetry_equiv_pos_site_id
 _symmetry_equiv_pos_as_xyz
  1  'x, y, z'
loop_
 _atom_site_type_symbol
 _atom_site_label
 _atom_site_symmetry_multiplicity
 _atom_site_fract_x
 _atom_site_fract_y
 _atom_site_fract_z
 _atom_site_occupancy
  Sr  Sr0  1  0.999091  0.999091  0.120927  1
  Sr  Sr1  1  0.190817  0.190817  0.612656  1
  Sr  Sr2  1  0.181574  0.181574  0.110065  1
  Sr  Sr3  1  0.151250  0.151250  0.383729  1
  Sr  Sr4  1  0.846309  0.846309  0.616948  1
  Sr  Sr5  1  0.811110  0.811110  0.388478  1
  Sr  Sr6  1  0.816303  0.816303  0.889550  1
  Sr  Sr7  1  0.808425  0.808425  0.144219  1
  Sr  Sr8  1  0.002471  0.002471  0.878650  1
  Sr  Sr9  1  0.002109  0.002109  0.646961  1
  Yb  Yb10  1  0.187689  0.187689  0.859873  1
  Yb  Yb11  1  0.997640  0.997640  0.356573  1
  Yb  Yb12  1  0.499506  0.499506  0.497336  1
  Si  Si13  1  0.435579  0.435579  0.809604  1
  Si  Si14  1  0.567993  0.567993  0.948701  1
  Si  Si15  1  0.431491  0.431491  0.291174  1
  Si  Si16  1  0.563626  0.563626  0.191026  1
  Si  Si17  1  0.570537  0.570537  0.709534  1
  Si  Si18  1  0.434088  0.434088  0.050099  1
  Si  Si19  1  0.638380  0.638380  0.014790  1
  Si  Si20  1  0.646595  0.646595  0.774035  1
  Si  Si21  1  0.358011  0.358011  0.225837  1
  Si  Si22  1  0.368882  0.368882  0.734316  1
  Si  Si23  1  0.372185  0.372185  0.461634  1
  Si  Si24  1  0.630294  0.630294  0.536987  1
  Si  Si25  1  0.625674  0.625674  0.269435  1
  Si  Si26  1  0.362196  0.362196  0.984567  1
  O  O27  1  0.000173  0.000173  0.492297  1
