# generated using pymatgen
data_Al2Cu2PdPt3
_symmetry_space_group_name_H-M   'P 1'
_cell_length_a   4.03893900
_cell_length_b   6.91770014
_cell_length_c   12.12094525
_cell_angle_alpha   89.97682230
_cell_angle_beta   90.00016548
_cell_angle_gamma   90.00013720
_symmetry_Int_Tables_number   1
_chemical_formula_structural   Al2Cu2PdPt3
_chemical_formula_sum   'Al6 Cu6 Pd3 Pt9'
_cell_volume   338.66122965
_cell_formula_units_Z   3
loop_
 _symmetry_equiv_pos_site_id
 _symmetry_equiv_pos_as_xyz
  1  'x, y, z'
loop_
 _atom_site_type_symbol
 _atom_site_label
 _atom_site_symmetry_multiplicity
 _atom_site_fract_x
 _atom_site_fract_y
 _atom_site_fract_z
 _atom_site_occupancy
  Al  Al0  1  0.999998  0.500151  0.001186  1
  Al  Al1  1  0.499987  0.999990  0.166460  1
  Al  Al2  1  0.999986  0.500055  0.333488  1
  Al  Al3  1  0.499998  0.000129  0.499561  1
  Al  Al4  1  0.000012  0.499045  0.665126  1
  Al  Al5  1  0.500007  0.000701  0.834172  1
  Cu  Cu6  1  0.999999  0.999895  0.999466  1
  Cu  Cu7  1  0.499963  0.500002  0.166559  1
  Cu  Cu8  1  0.000003  0.999921  0.333386  1
  Cu  Cu9  1  0.499997  0.500372  0.500396  1
  Cu  Cu10  1  0.000009  0.999639  0.666901  1
  Cu  Cu11  1  0.500042  0.500112  0.833291  1
  Pd  Pd12  1  0.500005  0.750385  0.667455  1
  Pd  Pd13  1  0.000014  0.250224  0.833239  1
  Pd  Pd14  1  0.000013  0.749836  0.832701  1
  Pt  Pt15  1  0.499999  0.249841  0.999262  1
  Pt  Pt16  1  0.499998  0.749699  0.999016  1
  Pt  Pt17  1  0.999984  0.249827  0.166721  1
  Pt  Pt18  1  0.999983  0.750224  0.166741  1
  Pt  Pt19  1  0.499999  0.250075  0.333276  1
  Pt  Pt20  1  0.500001  0.749564  0.333239  1
  Pt  Pt21  1  0.000000  0.249827  0.499874  1
  Pt  Pt22  1  0.000000  0.750163  0.500848  1
  Pt  Pt23  1  0.500003  0.250325  0.667636  1
