# generated using pymatgen
data_Nd9Ho11Bi5Pb11
_symmetry_space_group_name_H-M   'P 1'
_cell_length_a   8.37482796
_cell_length_b   8.39055128
_cell_length_c   15.77685239
_cell_angle_alpha   90.06857070
_cell_angle_beta   90.15424813
_cell_angle_gamma   90.05824145
_symmetry_Int_Tables_number   1
_chemical_formula_structural   Nd9Ho11Bi5Pb11
_chemical_formula_sum   'Nd9 Ho11 Bi5 Pb11'
_cell_volume   1108.62493263
_cell_formula_units_Z   1
loop_
 _symmetry_equiv_pos_site_id
 _symmetry_equiv_pos_as_xyz
  1  'x, y, z'
loop_
 _atom_site_type_symbol
 _atom_site_label
 _atom_site_symmetry_multiplicity
 _atom_site_fract_x
 _atom_site_fract_y
 _atom_site_fract_z
 _atom_site_occupancy
  Nd  Nd0  1  0.130755  0.341327  0.621248  1
  Nd  Nd1  1  0.464543  0.674267  0.600867  1
  Nd  Nd2  1  0.965949  0.824162  0.901088  1
  Nd  Nd3  1  0.534534  0.324865  0.100405  1
  Nd  Nd4  1  0.033619  0.174652  0.396794  1
  Nd  Nd5  1  0.526919  0.326376  0.399107  1
  Nd  Nd6  1  0.025157  0.176014  0.099470  1
  Nd  Nd7  1  0.475253  0.676399  0.901317  1
  Nd  Nd8  1  0.969768  0.823605  0.601005  1
  Ho  Ho9  1  0.633668  0.158237  0.625018  1
  Ho  Ho10  1  0.131094  0.343508  0.876226  1
  Ho  Ho11  1  0.369621  0.843444  0.124356  1
  Ho  Ho12  1  0.870796  0.656427  0.375917  1
  Ho  Ho13  1  0.367110  0.840014  0.373739  1
  Ho  Ho14  1  0.864144  0.658710  0.123292  1
  Ho  Ho15  1  0.635899  0.158120  0.877874  1
  Ho  Ho16  1  0.799148  0.498430  0.753891  1
  Ho  Ho17  1  0.300804  0.001250  0.751060  1
  Ho  Ho18  1  0.200060  0.502371  0.250149  1
  Ho  Ho19  1  0.700363  0.998216  0.248018  1
  Bi  Bi20  1  0.712245  0.963388  0.455261  1
  Bi  Bi21  1  0.210369  0.538413  0.043922  1
  Bi  Bi22  1  0.290082  0.038467  0.956661  1
  Bi  Bi23  1  0.782430  0.465723  0.543951  1
  Bi  Bi24  1  0.292819  0.030576  0.543284  1
  Pb  Pb25  1  0.790823  0.461820  0.956585  1
  Pb  Pb26  1  0.709536  0.961513  0.044178  1
  Pb  Pb27  1  0.211591  0.540353  0.453258  1
  Pb  Pb28  1  0.439085  0.369700  0.751719  1
  Pb  Pb29  1  0.936767  0.126665  0.751357  1
  Pb  Pb30  1  0.563179  0.629166  0.249609  1
  Pb  Pb31  1  0.062306  0.870247  0.249065  1
  Pb  Pb32  1  0.658544  0.850105  0.749482  1
  Pb  Pb33  1  0.159639  0.651978  0.751832  1
  Pb  Pb34  1  0.340767  0.150616  0.248840  1
  Pb  Pb35  1  0.840610  0.350880  0.250155  1
