# generated using pymatgen
data_Rb2Al(TeO4)3
_symmetry_space_group_name_H-M   'P 1'
_cell_length_a   7.08034366
_cell_length_b   7.26477736
_cell_length_c   7.08052921
_cell_angle_alpha   90.00000161
_cell_angle_beta   61.73335828
_cell_angle_gamma   120.86548475
_symmetry_Int_Tables_number   1
_chemical_formula_structural   Rb2Al(TeO4)3
_chemical_formula_sum   'Rb2 Al1 Te3 O12'
_cell_volume   260.73720988
_cell_formula_units_Z   1
loop_
 _symmetry_equiv_pos_site_id
 _symmetry_equiv_pos_as_xyz
  1  'x, y, z'
loop_
 _atom_site_type_symbol
 _atom_site_label
 _atom_site_symmetry_multiplicity
 _atom_site_fract_x
 _atom_site_fract_y
 _atom_site_fract_z
 _atom_site_occupancy
  Rb  Rb0  1  0.262234  0.128448  0.631110  1
  Rb  Rb1  1  0.737766  0.866214  0.368890  1
  Al  Al2  1  0.000000  0.497379  0.000000  1
  Te  Te3  1  0.500011  0.497298  0.000006  1
  Te  Te4  1  0.499989  0.997287  0.999994  1
  Te  Te5  1  0.000000  0.497310  0.500000  1
  O  O6  1  0.655801  0.825219  0.929327  1
  O  O7  1  0.863884  0.429281  0.314848  1
  O  O8  1  0.246769  0.429268  0.931920  1
  O  O9  1  0.257207  0.825229  0.327918  1
  O  O10  1  0.246823  0.812223  0.931930  1
  O  O11  1  0.257246  0.426679  0.327893  1
  O  O12  1  0.344199  0.169417  0.070673  1
  O  O13  1  0.136116  0.565398  0.685152  1
  O  O14  1  0.753177  0.565399  0.068070  1
  O  O15  1  0.742754  0.169433  0.672107  1
  O  O16  1  0.753231  0.182499  0.068080  1
  O  O17  1  0.742793  0.568022  0.672082  1
