# generated using pymatgen
data_Ce3Co(CuSb2)2
_symmetry_space_group_name_H-M   'P 1'
_cell_length_a   8.35427845
_cell_length_b   8.35427941
_cell_length_c   8.35427919
_cell_angle_alpha   109.66414603
_cell_angle_beta   109.08604852
_cell_angle_gamma   109.66414726
_symmetry_Int_Tables_number   1
_chemical_formula_structural   Ce3Co(CuSb2)2
_chemical_formula_sum   'Ce6 Co2 Cu4 Sb8'
_cell_volume   448.83876304
_cell_formula_units_Z   2
loop_
 _symmetry_equiv_pos_site_id
 _symmetry_equiv_pos_as_xyz
  1  'x, y, z'
loop_
 _atom_site_type_symbol
 _atom_site_label
 _atom_site_symmetry_multiplicity
 _atom_site_fract_x
 _atom_site_fract_y
 _atom_site_fract_z
 _atom_site_occupancy
  Ce  Ce0  1  0.875000  0.250000  0.125000  1
  Ce  Ce1  1  0.625000  0.750000  0.375000  1
  Ce  Ce2  1  0.250000  0.117883  0.867883  1
  Ce  Ce3  1  0.750000  0.382117  0.632117  1
  Ce  Ce4  1  0.132117  0.882117  0.250000  1
  Ce  Ce5  1  0.367883  0.617883  0.750000  1
  Co  Co6  1  0.375000  0.250000  0.625000  1
  Co  Co7  1  0.125000  0.750000  0.875000  1
  Cu  Cu8  1  0.250000  0.625240  0.375240  1
  Cu  Cu9  1  0.750000  0.874760  0.124760  1
  Cu  Cu10  1  0.624760  0.374760  0.250000  1
  Cu  Cu11  1  0.875240  0.125240  0.750000  1
  Sb  Sb12  1  0.656315  0.495572  0.993747  1
  Sb  Sb13  1  0.498176  0.004428  0.660743  1
  Sb  Sb14  1  0.001824  0.662567  0.506253  1
  Sb  Sb15  1  0.843685  0.837433  0.839257  1
  Sb  Sb16  1  0.493747  0.995572  0.156315  1
  Sb  Sb17  1  0.160743  0.504428  0.998176  1
  Sb  Sb18  1  0.006253  0.162567  0.501824  1
  Sb  Sb19  1  0.339257  0.337433  0.343685  1
