# generated using pymatgen
data_Li3Nd2ThPt3
_symmetry_space_group_name_H-M   'P 1'
_cell_length_a   7.33997012
_cell_length_b   7.40491709
_cell_length_c   4.11428400
_cell_angle_alpha   90.00000000
_cell_angle_beta   90.00000000
_cell_angle_gamma   120.29314200
_symmetry_Int_Tables_number   1
_chemical_formula_structural   Li3Nd2ThPt3
_chemical_formula_sum   'Li3 Nd2 Th1 Pt3'
_cell_volume   193.08517831
_cell_formula_units_Z   1
loop_
 _symmetry_equiv_pos_site_id
 _symmetry_equiv_pos_as_xyz
  1  'x, y, z'
loop_
 _atom_site_type_symbol
 _atom_site_label
 _atom_site_symmetry_multiplicity
 _atom_site_fract_x
 _atom_site_fract_y
 _atom_site_fract_z
 _atom_site_occupancy
  Li  Li0  1  0.759529  0.763523  0.000000  1
  Li  Li1  1  0.240471  0.003994  0.000000  1
  Li  Li2  1  0.000000  0.229348  0.000000  1
  Nd  Nd3  1  0.401404  0.403374  0.500000  1
  Nd  Nd4  1  0.598596  0.001971  0.500000  1
  Th  Th5  1  0.000000  0.596991  0.500000  1
  Pt  Pt6  1  0.680360  0.346239  0.000000  1
  Pt  Pt7  1  0.319640  0.665881  0.000000  1
  Pt  Pt8  1  0.000000  0.988677  0.500000  1
