# generated using pymatgen
data_Eu2C2I
_symmetry_space_group_name_H-M   'P 1'
_cell_length_a   8.02873270
_cell_length_b   8.02873285
_cell_length_c   7.34686200
_cell_angle_alpha   101.09927686
_cell_angle_beta   101.09927707
_cell_angle_gamma   31.65225309
_symmetry_Int_Tables_number   1
_chemical_formula_structural   Eu2C2I
_chemical_formula_sum   'Eu4 C4 I2'
_cell_volume   243.49257028
_cell_formula_units_Z   2
loop_
 _symmetry_equiv_pos_site_id
 _symmetry_equiv_pos_as_xyz
  1  'x, y, z'
loop_
 _atom_site_type_symbol
 _atom_site_label
 _atom_site_symmetry_multiplicity
 _atom_site_fract_x
 _atom_site_fract_y
 _atom_site_fract_z
 _atom_site_occupancy
  Eu  Eu0  1  0.843676  0.467783  0.144113  1
  Eu  Eu1  1  0.532217  0.156324  0.355887  1
  Eu  Eu2  1  0.467783  0.843676  0.644113  1
  Eu  Eu3  1  0.156324  0.532217  0.855888  1
  C  C4  1  0.366413  0.092435  0.030497  1
  C  C5  1  0.907565  0.633588  0.469504  1
  C  C6  1  0.092435  0.366413  0.530497  1
  C  C7  1  0.633587  0.907565  0.969503  1
  I  I8  1  0.215574  0.784425  0.250000  1
  I  I9  1  0.784425  0.215574  0.750000  1
