# generated using pymatgen
data_AcGaSnO
_symmetry_space_group_name_H-M   'P 1'
_cell_length_a   4.38324500
_cell_length_b   4.38324500
_cell_length_c   10.11035400
_cell_angle_alpha   90.00000000
_cell_angle_beta   90.00000000
_cell_angle_gamma   90.00000000
_symmetry_Int_Tables_number   1
_chemical_formula_structural   AcGaSnO
_chemical_formula_sum   'Ac2 Ga2 Sn2 O2'
_cell_volume   194.24858068
_cell_formula_units_Z   2
loop_
 _symmetry_equiv_pos_site_id
 _symmetry_equiv_pos_as_xyz
  1  'x, y, z'
loop_
 _atom_site_type_symbol
 _atom_site_label
 _atom_site_symmetry_multiplicity
 _atom_site_fract_x
 _atom_site_fract_y
 _atom_site_fract_z
 _atom_site_occupancy
  Ac  Ac0  1  0.250001  0.250001  0.119401  1
  Ac  Ac1  1  0.750000  0.750000  0.880602  1
  Ga  Ga2  1  0.750000  0.250001  0.499999  1
  Ga  Ga3  1  0.250001  0.750000  0.499999  1
  Sn  Sn4  1  0.750000  0.750000  0.324896  1
  Sn  Sn5  1  0.250001  0.250001  0.675104  1
  O  O6  1  0.750000  0.250001  0.000000  1
  O  O7  1  0.250001  0.750000  0.000000  1
