# generated using pymatgen
data_SrSmY5FeI12
_symmetry_space_group_name_H-M   'P 1'
_cell_length_a   9.81048243
_cell_length_b   9.79877352
_cell_length_c   9.87092382
_cell_angle_alpha   106.13780807
_cell_angle_beta   106.52001192
_cell_angle_gamma   106.06930371
_symmetry_Int_Tables_number   1
_chemical_formula_structural   SrSmY5FeI12
_chemical_formula_sum   'Sr1 Sm1 Y5 Fe1 I12'
_cell_volume   806.01550187
_cell_formula_units_Z   1
loop_
 _symmetry_equiv_pos_site_id
 _symmetry_equiv_pos_as_xyz
  1  'x, y, z'
loop_
 _atom_site_type_symbol
 _atom_site_label
 _atom_site_symmetry_multiplicity
 _atom_site_fract_x
 _atom_site_fract_y
 _atom_site_fract_z
 _atom_site_occupancy
  Sr  Sr0  1  0.500327  0.499508  0.500006  1
  Sm  Sm1  1  0.713610  0.980938  0.909751  1
  Y  Y2  1  0.979409  0.906704  0.702375  1
  Y  Y3  1  0.090267  0.283075  0.019334  1
  Y  Y4  1  0.281452  0.019319  0.089054  1
  Y  Y5  1  0.910957  0.716985  0.980977  1
  Y  Y6  1  0.020014  0.093260  0.297705  1
  Fe  Fe7  1  0.997850  0.000122  0.999444  1
  I  I8  1  0.075427  0.225303  0.680066  1
  I  I9  1  0.366739  0.133522  0.444523  1
  I  I10  1  0.632823  0.863343  0.549564  1
  I  I11  1  0.224192  0.682725  0.074954  1
  I  I12  1  0.780755  0.324583  0.926805  1
  I  I13  1  0.681707  0.075941  0.227953  1
  I  I14  1  0.554411  0.629160  0.864304  1
  I  I15  1  0.867129  0.555017  0.636023  1
  I  I16  1  0.925788  0.774806  0.320178  1
  I  I17  1  0.317931  0.925205  0.777843  1
  I  I18  1  0.445286  0.365219  0.135152  1
  I  I19  1  0.133925  0.445265  0.363988  1
