# generated using pymatgen
data_Tm16In3HgPt4
_symmetry_space_group_name_H-M   'P 1'
_cell_length_a   9.55762742
_cell_length_b   9.55761687
_cell_length_c   9.55761801
_cell_angle_alpha   60.15787112
_cell_angle_beta   60.15797618
_cell_angle_gamma   60.15793021
_symmetry_Int_Tables_number   1
_chemical_formula_structural   Tm16In3HgPt4
_chemical_formula_sum   'Tm16 In3 Hg1 Pt4'
_cell_volume   619.56243962
_cell_formula_units_Z   1
loop_
 _symmetry_equiv_pos_site_id
 _symmetry_equiv_pos_as_xyz
  1  'x, y, z'
loop_
 _atom_site_type_symbol
 _atom_site_label
 _atom_site_symmetry_multiplicity
 _atom_site_fract_x
 _atom_site_fract_y
 _atom_site_fract_z
 _atom_site_occupancy
  Tm  Tm0  1  0.062274  0.062273  0.438574  1
  Tm  Tm1  1  0.435571  0.067209  0.435570  1
  Tm  Tm2  1  0.062274  0.438574  0.062275  1
  Tm  Tm3  1  0.058109  0.647044  0.647043  1
  Tm  Tm4  1  0.435571  0.435571  0.067208  1
  Tm  Tm5  1  0.647044  0.058109  0.647043  1
  Tm  Tm6  1  0.190680  0.808691  0.190681  1
  Tm  Tm7  1  0.190681  0.190681  0.808691  1
  Tm  Tm8  1  0.809555  0.809556  0.189803  1
  Tm  Tm9  1  0.438574  0.062274  0.062274  1
  Tm  Tm10  1  0.808690  0.190681  0.190681  1
  Tm  Tm11  1  0.067208  0.435570  0.435571  1
  Tm  Tm12  1  0.809555  0.189803  0.809556  1
  Tm  Tm13  1  0.189802  0.809555  0.809556  1
  Tm  Tm14  1  0.647044  0.647043  0.058110  1
  Tm  Tm15  1  0.650306  0.650308  0.650306  1
  In  In16  1  0.748609  0.417168  0.417168  1
  In  In17  1  0.417168  0.748608  0.417169  1
  In  In18  1  0.417167  0.417167  0.748610  1
  Hg  Hg19  1  0.412346  0.412346  0.412346  1
  Pt  Pt20  1  0.858652  0.858651  0.428002  1
  Pt  Pt21  1  0.856460  0.856458  0.856458  1
  Pt  Pt22  1  0.428003  0.858652  0.858653  1
  Pt  Pt23  1  0.858655  0.428005  0.858652  1
