# generated using pymatgen
data_TcAsPCl13
_symmetry_space_group_name_H-M   'P 1'
_cell_length_a   9.72585403
_cell_length_b   9.72585436
_cell_length_c   12.13028900
_cell_angle_alpha   90.00000000
_cell_angle_beta   90.00000000
_cell_angle_gamma   111.96093288
_symmetry_Int_Tables_number   1
_chemical_formula_structural   TcAsPCl13
_chemical_formula_sum   'Tc2 As2 P2 Cl26'
_cell_volume   1064.17252394
_cell_formula_units_Z   2
loop_
 _symmetry_equiv_pos_site_id
 _symmetry_equiv_pos_as_xyz
  1  'x, y, z'
loop_
 _atom_site_type_symbol
 _atom_site_label
 _atom_site_symmetry_multiplicity
 _atom_site_fract_x
 _atom_site_fract_y
 _atom_site_fract_z
 _atom_site_occupancy
  Tc  Tc0  1  0.215520  0.784480  0.504074  1
  Tc  Tc1  1  0.784480  0.215520  0.004074  1
  As  As2  1  0.567405  0.432595  0.138525  1
  As  As3  1  0.432595  0.567405  0.638525  1
  P  P4  1  0.139621  0.860379  0.967110  1
  P  P5  1  0.860379  0.139621  0.467110  1
  Cl  Cl6  1  0.366584  0.324118  0.613457  1
  Cl  Cl7  1  0.746034  0.253966  0.413513  1
  Cl  Cl8  1  0.435340  0.564660  0.822841  1
  Cl  Cl9  1  0.313507  0.988789  0.389840  1
  Cl  Cl10  1  0.064349  0.228946  0.412947  1
  Cl  Cl11  1  0.253966  0.746034  0.913513  1
  Cl  Cl12  1  0.324118  0.366584  0.113457  1
  Cl  Cl13  1  0.988789  0.313507  0.889840  1
  Cl  Cl14  1  0.011211  0.686493  0.389840  1
  Cl  Cl15  1  0.935651  0.771054  0.912947  1
  Cl  Cl16  1  0.564660  0.435340  0.322841  1
  Cl  Cl17  1  0.140330  0.859670  0.128775  1
  Cl  Cl18  1  0.875066  0.424733  0.121452  1
  Cl  Cl19  1  0.342724  0.657276  0.410188  1
  Cl  Cl20  1  0.904167  0.095833  0.111582  1
  Cl  Cl21  1  0.686493  0.011211  0.889840  1
  Cl  Cl22  1  0.771054  0.935651  0.412947  1
  Cl  Cl23  1  0.228946  0.064349  0.912947  1
  Cl  Cl24  1  0.657276  0.342724  0.910188  1
  Cl  Cl25  1  0.633416  0.675882  0.113457  1
  Cl  Cl26  1  0.575267  0.124934  0.121452  1
  Cl  Cl27  1  0.859670  0.140330  0.628775  1
  Cl  Cl28  1  0.424733  0.875066  0.621452  1
  Cl  Cl29  1  0.675882  0.633416  0.613457  1
  Cl  Cl30  1  0.095833  0.904167  0.611582  1
  Cl  Cl31  1  0.124934  0.575267  0.621452  1
