# generated using pymatgen
data_Er16In3HgRh4
_symmetry_space_group_name_H-M   'P 1'
_cell_length_a   9.55296579
_cell_length_b   9.53519643
_cell_length_c   9.55296600
_cell_angle_alpha   59.93833420
_cell_angle_beta   59.99999929
_cell_angle_gamma   59.93833845
_symmetry_Int_Tables_number   1
_chemical_formula_structural   Er16In3HgRh4
_chemical_formula_sum   'Er16 In3 Hg1 Rh4'
_cell_volume   614.73180996
_cell_formula_units_Z   1
loop_
 _symmetry_equiv_pos_site_id
 _symmetry_equiv_pos_as_xyz
  1  'x, y, z'
loop_
 _atom_site_type_symbol
 _atom_site_label
 _atom_site_symmetry_multiplicity
 _atom_site_fract_x
 _atom_site_fract_y
 _atom_site_fract_z
 _atom_site_occupancy
  Er  Er0  1  0.187724  0.187693  0.812292  1
  Er  Er1  1  0.437400  0.059803  0.065397  1
  Er  Er2  1  0.437400  0.059803  0.437400  1
  Er  Er3  1  0.063498  0.435097  0.063498  1
  Er  Er4  1  0.648797  0.053610  0.648797  1
  Er  Er5  1  0.187272  0.811837  0.813618  1
  Er  Er6  1  0.065397  0.059803  0.437400  1
  Er  Er7  1  0.812292  0.187693  0.187724  1
  Er  Er8  1  0.813618  0.811837  0.187272  1
  Er  Er9  1  0.648613  0.648519  0.054256  1
  Er  Er10  1  0.648613  0.648519  0.648613  1
  Er  Er11  1  0.063498  0.435097  0.437907  1
  Er  Er12  1  0.054256  0.648519  0.648613  1
  Er  Er13  1  0.812292  0.187693  0.812292  1
  Er  Er14  1  0.437907  0.435097  0.063498  1
  Er  Er15  1  0.187272  0.811837  0.187272  1
  In  In16  1  0.416009  0.418911  0.749072  1
  In  In17  1  0.749072  0.418911  0.416009  1
  In  In18  1  0.416009  0.418911  0.416009  1
  Hg  Hg19  1  0.413690  0.758930  0.413690  1
  Rh  Rh20  1  0.855793  0.432621  0.855793  1
  Rh  Rh21  1  0.856743  0.856420  0.430093  1
  Rh  Rh22  1  0.430093  0.856420  0.856743  1
  Rh  Rh23  1  0.856743  0.856420  0.856743  1
