# generated using pymatgen
data_Na4CaPtO6
_symmetry_space_group_name_H-M   'P 1'
_cell_length_a   5.63474460
_cell_length_b   5.63474479
_cell_length_c   5.67849200
_cell_angle_alpha   100.04004176
_cell_angle_beta   100.04004209
_cell_angle_gamma   119.70800968
_symmetry_Int_Tables_number   1
_chemical_formula_structural   Na4CaPtO6
_chemical_formula_sum   'Na4 Ca1 Pt1 O6'
_cell_volume   146.85831407
_cell_formula_units_Z   1
loop_
 _symmetry_equiv_pos_site_id
 _symmetry_equiv_pos_as_xyz
  1  'x, y, z'
loop_
 _atom_site_type_symbol
 _atom_site_label
 _atom_site_symmetry_multiplicity
 _atom_site_fract_x
 _atom_site_fract_y
 _atom_site_fract_z
 _atom_site_occupancy
  Na  Na0  1  0.498867  0.501133  0.000000  1
  Na  Na1  1  0.003819  0.996181  0.500000  1
  Na  Na2  1  0.660823  0.339178  0.500000  1
  Na  Na3  1  0.337880  0.662120  0.500000  1
  Ca  Ca4  1  0.833878  0.166123  0.000000  1
  Pt  Pt5  1  0.166783  0.833217  0.000000  1
  O  O6  1  0.952554  0.614729  0.211853  1
  O  O7  1  0.235210  0.197180  0.221508  1
  O  O8  1  0.535224  0.913159  0.222502  1
  O  O9  1  0.086841  0.464776  0.777498  1
  O  O10  1  0.802820  0.764790  0.778492  1
  O  O11  1  0.385272  0.047446  0.788147  1
