# generated using pymatgen
data_TbThCdPb5
_symmetry_space_group_name_H-M   'P 1'
_cell_length_a   4.93765800
_cell_length_b   4.93765800
_cell_length_c   9.39830100
_cell_angle_alpha   90.00000000
_cell_angle_beta   90.00000000
_cell_angle_gamma   90.00000000
_symmetry_Int_Tables_number   1
_chemical_formula_structural   TbThCdPb5
_chemical_formula_sum   'Tb1 Th1 Cd1 Pb5'
_cell_volume   229.13496292
_cell_formula_units_Z   1
loop_
 _symmetry_equiv_pos_site_id
 _symmetry_equiv_pos_as_xyz
  1  'x, y, z'
loop_
 _atom_site_type_symbol
 _atom_site_label
 _atom_site_symmetry_multiplicity
 _atom_site_fract_x
 _atom_site_fract_y
 _atom_site_fract_z
 _atom_site_occupancy
  Tb  Tb0  1  0.000000  0.000000  0.000000  1
  Th  Th1  1  0.000000  0.000000  0.500000  1
  Cd  Cd2  1  0.500000  0.500000  0.000000  1
  Pb  Pb3  1  0.500000  0.500000  0.500000  1
  Pb  Pb4  1  0.500000  0.000000  0.236500  1
  Pb  Pb5  1  0.500000  0.000000  0.763500  1
  Pb  Pb6  1  0.000000  0.500000  0.236500  1
  Pb  Pb7  1  0.000000  0.500000  0.763500  1
