# generated using pymatgen
data_Dy4Ho3ErC10
_symmetry_space_group_name_H-M   'P 1'
_cell_length_a   3.65377200
_cell_length_b   6.55999212
_cell_length_c   11.92545005
_cell_angle_alpha   90.07965158
_cell_angle_beta   90.00000000
_cell_angle_gamma   90.00000000
_symmetry_Int_Tables_number   1
_chemical_formula_structural   Dy4Ho3ErC10
_chemical_formula_sum   'Dy4 Ho3 Er1 C10'
_cell_volume   285.83744352
_cell_formula_units_Z   1
loop_
 _symmetry_equiv_pos_site_id
 _symmetry_equiv_pos_as_xyz
  1  'x, y, z'
loop_
 _atom_site_type_symbol
 _atom_site_label
 _atom_site_symmetry_multiplicity
 _atom_site_fract_x
 _atom_site_fract_y
 _atom_site_fract_z
 _atom_site_occupancy
  Dy  Dy0  1  0.500000  0.895179  0.197024  1
  Dy  Dy1  1  0.000000  0.750261  0.956847  1
  Dy  Dy2  1  0.000000  0.261069  0.541907  1
  Dy  Dy3  1  0.000000  0.750176  0.456195  1
  Ho  Ho4  1  0.500000  0.392313  0.303723  1
  Ho  Ho5  1  0.500000  0.605449  0.696418  1
  Ho  Ho6  1  0.500000  0.107732  0.804233  1
  Er  Er7  1  0.000000  0.237754  0.041703  1
  C  C8  1  0.500000  0.992120  0.000629  1
  C  C9  1  0.500000  0.510428  0.500653  1
  C  C10  1  0.000000  0.138546  0.233664  1
  C  C11  1  0.000000  0.855700  0.762899  1
  C  C12  1  0.000000  0.364014  0.736106  1
  C  C13  1  0.000000  0.642507  0.261721  1
  C  C14  1  0.000000  0.114436  0.345027  1
  C  C15  1  0.000000  0.921249  0.657360  1
  C  C16  1  0.000000  0.386139  0.847485  1
  C  C17  1  0.000000  0.574928  0.156406  1
