# generated using pymatgen
data_Tc2I2F11
_symmetry_space_group_name_H-M   'P 1'
_cell_length_a   7.98530637
_cell_length_b   7.98530661
_cell_length_c   5.45634109
_cell_angle_alpha   78.63502453
_cell_angle_beta   78.63502325
_cell_angle_gamma   65.92562874
_symmetry_Int_Tables_number   1
_chemical_formula_structural   Tc2I2F11
_chemical_formula_sum   'Tc2 I2 F11'
_cell_volume   308.77498451
_cell_formula_units_Z   1
loop_
 _symmetry_equiv_pos_site_id
 _symmetry_equiv_pos_as_xyz
  1  'x, y, z'
loop_
 _atom_site_type_symbol
 _atom_site_label
 _atom_site_symmetry_multiplicity
 _atom_site_fract_x
 _atom_site_fract_y
 _atom_site_fract_z
 _atom_site_occupancy
  Tc  Tc0  1  0.347792  0.357949  0.455474  1
  Tc  Tc1  1  0.642051  0.652208  0.544526  1
  I  I2  1  0.062320  0.068532  0.146967  1
  I  I3  1  0.931468  0.937680  0.853033  1
  F  F4  1  0.201324  0.560961  0.250588  1
  F  F5  1  0.439039  0.798676  0.749412  1
  F  F6  1  0.523413  0.276179  0.177988  1
  F  F7  1  0.723821  0.476587  0.822012  1
  F  F8  1  0.479121  0.520879  0.500000  1
  F  F9  1  0.791327  0.778036  0.582186  1
  F  F10  1  0.221964  0.208673  0.417814  1
  F  F11  1  0.557139  0.820416  0.260847  1
  F  F12  1  0.179584  0.442861  0.739153  1
  F  F13  1  0.835035  0.499397  0.334220  1
  F  F14  1  0.500603  0.164965  0.665780  1
