# generated using pymatgen
data_Sr20Si3GeBi8
_symmetry_space_group_name_H-M   'P 1'
_cell_length_a   8.67091203
_cell_length_b   10.08937800
_cell_length_c   13.76936105
_cell_angle_alpha   90.00000000
_cell_angle_beta   89.99016536
_cell_angle_gamma   90.00000000
_symmetry_Int_Tables_number   1
_chemical_formula_structural   Sr20Si3GeBi8
_chemical_formula_sum   'Sr20 Si3 Ge1 Bi8'
_cell_volume   1204.60026658
_cell_formula_units_Z   1
loop_
 _symmetry_equiv_pos_site_id
 _symmetry_equiv_pos_as_xyz
  1  'x, y, z'
loop_
 _atom_site_type_symbol
 _atom_site_label
 _atom_site_symmetry_multiplicity
 _atom_site_fract_x
 _atom_site_fract_y
 _atom_site_fract_z
 _atom_site_occupancy
  Sr  Sr0  1  0.826663  0.528335  0.076998  1
  Sr  Sr1  1  0.673103  0.972260  0.576842  1
  Sr  Sr2  1  0.173551  0.027324  0.922996  1
  Sr  Sr3  1  0.326900  0.472265  0.423153  1
  Sr  Sr4  1  0.173551  0.472676  0.922996  1
  Sr  Sr5  1  0.326900  0.027735  0.423153  1
  Sr  Sr6  1  0.826663  0.971665  0.076998  1
  Sr  Sr7  1  0.673103  0.527740  0.576842  1
  Sr  Sr8  1  0.170174  0.750000  0.214518  1
  Sr  Sr9  1  0.329833  0.750000  0.714490  1
  Sr  Sr10  1  0.829652  0.250000  0.785063  1
  Sr  Sr11  1  0.670141  0.250000  0.285521  1
  Sr  Sr12  1  0.442591  0.750000  0.000330  1
  Sr  Sr13  1  0.057447  0.750000  0.500325  1
  Sr  Sr14  1  0.556765  0.250000  0.999667  1
  Sr  Sr15  1  0.942539  0.250000  0.499671  1
  Sr  Sr16  1  0.643984  0.750000  0.305581  1
  Sr  Sr17  1  0.856022  0.750000  0.805574  1
  Sr  Sr18  1  0.356000  0.250000  0.694458  1
  Sr  Sr19  1  0.144437  0.250000  0.194844  1
  Si  Si20  1  0.441106  0.750000  0.492486  1
  Si  Si21  1  0.058903  0.750000  0.992492  1
  Si  Si22  1  0.558883  0.250000  0.507533  1
  Ge  Ge23  1  0.941135  0.250000  0.007466  1
  Bi  Bi24  1  0.943676  0.506487  0.330876  1
  Bi  Bi25  1  0.556313  0.993506  0.830855  1
  Bi  Bi26  1  0.056321  0.006456  0.669129  1
  Bi  Bi27  1  0.443668  0.493561  0.169141  1
  Bi  Bi28  1  0.056321  0.493544  0.669129  1
  Bi  Bi29  1  0.443668  0.006439  0.169141  1
  Bi  Bi30  1  0.943676  0.993513  0.330876  1
  Bi  Bi31  1  0.556313  0.506494  0.830855  1
