# generated using pymatgen
data_La4Yb5DySn8
_symmetry_space_group_name_H-M   'P 1'
_cell_length_a   7.97147700
_cell_length_b   8.49805842
_cell_length_c   16.05382200
_cell_angle_alpha   90.10183454
_cell_angle_beta   90.00000000
_cell_angle_gamma   90.00000000
_symmetry_Int_Tables_number   1
_chemical_formula_structural   La4Yb5DySn8
_chemical_formula_sum   'La8 Yb10 Dy2 Sn16'
_cell_volume   1087.51753252
_cell_formula_units_Z   2
loop_
 _symmetry_equiv_pos_site_id
 _symmetry_equiv_pos_as_xyz
  1  'x, y, z'
loop_
 _atom_site_type_symbol
 _atom_site_label
 _atom_site_symmetry_multiplicity
 _atom_site_fract_x
 _atom_site_fract_y
 _atom_site_fract_z
 _atom_site_occupancy
  La  La0  1  0.494061  0.317636  0.904048  1
  La  La1  1  0.994061  0.182364  0.595952  1
  La  La2  1  0.505148  0.685342  0.403440  1
  La  La3  1  0.005148  0.814658  0.096560  1
  La  La4  1  0.507128  0.683987  0.096528  1
  La  La5  1  0.007128  0.816013  0.403472  1
  La  La6  1  0.493566  0.316037  0.595189  1
  La  La7  1  0.993566  0.183963  0.904811  1
  Yb  Yb8  1  0.667960  0.170863  0.376622  1
  Yb  Yb9  1  0.167960  0.329137  0.123378  1
  Yb  Yb10  1  0.669063  0.170835  0.123295  1
  Yb  Yb11  1  0.169063  0.329165  0.376705  1
  Yb  Yb12  1  0.330722  0.829332  0.622952  1
  Yb  Yb13  1  0.830722  0.670668  0.877048  1
  Yb  Yb14  1  0.162810  0.501927  0.750118  1
  Yb  Yb15  1  0.662810  0.998073  0.749882  1
  Yb  Yb16  1  0.839794  0.493861  0.250555  1
  Yb  Yb17  1  0.339794  0.006139  0.249445  1
  Dy  Dy18  1  0.331569  0.827740  0.875390  1
  Dy  Dy19  1  0.831569  0.672260  0.624610  1
  Sn  Sn20  1  0.328141  0.034598  0.036917  1
  Sn  Sn21  1  0.828141  0.465402  0.463083  1
  Sn  Sn22  1  0.672279  0.961261  0.539706  1
  Sn  Sn23  1  0.172279  0.538739  0.960294  1
  Sn  Sn24  1  0.665045  0.962631  0.959409  1
  Sn  Sn25  1  0.165045  0.537369  0.540591  1
  Sn  Sn26  1  0.330662  0.036617  0.461458  1
  Sn  Sn27  1  0.830662  0.463383  0.038542  1
  Sn  Sn28  1  0.533960  0.613225  0.748164  1
  Sn  Sn29  1  0.033960  0.886775  0.751836  1
  Sn  Sn30  1  0.467160  0.393491  0.249653  1
  Sn  Sn31  1  0.967160  0.106509  0.250347  1
  Sn  Sn32  1  0.287885  0.136441  0.751152  1
  Sn  Sn33  1  0.787885  0.363559  0.748848  1
  Sn  Sn34  1  0.713050  0.860439  0.250111  1
  Sn  Sn35  1  0.213050  0.639561  0.249889  1
