# generated using pymatgen
data_Lu4Hf3ScPt4
_symmetry_space_group_name_H-M   'P 1'
_cell_length_a   4.64246000
_cell_length_b   6.89763055
_cell_length_c   8.21240821
_cell_angle_alpha   90.53930179
_cell_angle_beta   90.00000000
_cell_angle_gamma   90.00000000
_symmetry_Int_Tables_number   1
_chemical_formula_structural   Lu4Hf3ScPt4
_chemical_formula_sum   'Lu4 Hf3 Sc1 Pt4'
_cell_volume   262.96587215
_cell_formula_units_Z   1
loop_
 _symmetry_equiv_pos_site_id
 _symmetry_equiv_pos_as_xyz
  1  'x, y, z'
loop_
 _atom_site_type_symbol
 _atom_site_label
 _atom_site_symmetry_multiplicity
 _atom_site_fract_x
 _atom_site_fract_y
 _atom_site_fract_z
 _atom_site_occupancy
  Lu  Lu0  1  0.250000  0.983447  0.319259  1
  Lu  Lu1  1  0.750000  0.016088  0.678186  1
  Lu  Lu2  1  0.250000  0.484019  0.177197  1
  Lu  Lu3  1  0.750000  0.517713  0.824291  1
  Hf  Hf4  1  0.750000  0.644745  0.423186  1
  Hf  Hf5  1  0.250000  0.353382  0.578518  1
  Hf  Hf6  1  0.750000  0.145137  0.075202  1
  Sc  Sc7  1  0.250000  0.852952  0.922229  1
  Pt  Pt8  1  0.250000  0.241790  0.904342  1
  Pt  Pt9  1  0.750000  0.760899  0.102374  1
  Pt  Pt10  1  0.250000  0.736537  0.590303  1
  Pt  Pt11  1  0.750000  0.263290  0.404912  1
