# generated using pymatgen
data_LuThIr6
_symmetry_space_group_name_H-M   'P 1'
_cell_length_a   5.33280407
_cell_length_b   5.33280390
_cell_length_c   17.84548189
_cell_angle_alpha   98.59309158
_cell_angle_beta   98.59309110
_cell_angle_gamma   60.00000563
_symmetry_Int_Tables_number   1
_chemical_formula_structural   LuThIr6
_chemical_formula_sum   'Lu3 Th3 Ir18'
_cell_volume   432.92056873
_cell_formula_units_Z   3
loop_
 _symmetry_equiv_pos_site_id
 _symmetry_equiv_pos_as_xyz
  1  'x, y, z'
loop_
 _atom_site_type_symbol
 _atom_site_label
 _atom_site_symmetry_multiplicity
 _atom_site_fract_x
 _atom_site_fract_y
 _atom_site_fract_z
 _atom_site_occupancy
  Lu  Lu0  1  0.429075  0.429075  0.287226  1
  Lu  Lu1  1  0.931365  0.931365  0.794095  1
  Lu  Lu2  1  0.070475  0.070475  0.211425  1
  Th  Th3  1  0.570189  0.570189  0.710566  1
  Th  Th4  1  0.000738  0.000738  0.002214  1
  Th  Th5  1  0.498263  0.498263  0.494787  1
  Ir  Ir6  1  0.456880  0.958465  0.373809  1
  Ir  Ir7  1  0.959090  0.458894  0.876878  1
  Ir  Ir8  1  0.958465  0.958465  0.373809  1
  Ir  Ir9  1  0.458894  0.458894  0.876878  1
  Ir  Ir10  1  0.958465  0.456880  0.373809  1
  Ir  Ir11  1  0.458894  0.959090  0.876878  1
  Ir  Ir12  1  0.042802  0.541559  0.125919  1
  Ir  Ir13  1  0.541109  0.040847  0.622804  1
  Ir  Ir14  1  0.541559  0.541559  0.125919  1
  Ir  Ir15  1  0.040847  0.040847  0.622804  1
  Ir  Ir16  1  0.541559  0.042802  0.125919  1
  Ir  Ir17  1  0.040847  0.541109  0.622804  1
  Ir  Ir18  1  0.333946  0.333946  0.001839  1
  Ir  Ir19  1  0.833047  0.833047  0.499141  1
  Ir  Ir20  1  0.166234  0.166234  0.498703  1
  Ir  Ir21  1  0.666899  0.666899  0.000695  1
  Ir  Ir22  1  0.750018  0.750018  0.250055  1
  Ir  Ir23  1  0.250343  0.250343  0.751030  1
