# generated using pymatgen
data_Nd4TcRuC4
_symmetry_space_group_name_H-M   'P 1'
_cell_length_a   5.34519300
_cell_length_b   6.64530000
_cell_length_c   10.18246300
_cell_angle_alpha   90.00000000
_cell_angle_beta   90.00000000
_cell_angle_gamma   90.00000000
_symmetry_Int_Tables_number   1
_chemical_formula_structural   Nd4TcRuC4
_chemical_formula_sum   'Nd8 Tc2 Ru2 C8'
_cell_volume   361.68527119
_cell_formula_units_Z   2
loop_
 _symmetry_equiv_pos_site_id
 _symmetry_equiv_pos_as_xyz
  1  'x, y, z'
loop_
 _atom_site_type_symbol
 _atom_site_label
 _atom_site_symmetry_multiplicity
 _atom_site_fract_x
 _atom_site_fract_y
 _atom_site_fract_z
 _atom_site_occupancy
  Nd  Nd0  1  0.250000  0.475258  0.785940  1
  Nd  Nd1  1  0.750000  0.024742  0.285940  1
  Nd  Nd2  1  0.250000  0.973395  0.713572  1
  Nd  Nd3  1  0.750000  0.526605  0.213572  1
  Nd  Nd4  1  0.250000  0.811692  0.052089  1
  Nd  Nd5  1  0.750000  0.688308  0.552089  1
  Nd  Nd6  1  0.250000  0.313994  0.448755  1
  Nd  Nd7  1  0.750000  0.186006  0.948755  1
  Tc  Tc8  1  0.250000  0.271572  0.142165  1
  Tc  Tc9  1  0.750000  0.228428  0.642165  1
  Ru  Ru10  1  0.250000  0.771426  0.358656  1
  Ru  Ru11  1  0.750000  0.728574  0.858656  1
  C  C12  1  0.250000  0.685382  0.538248  1
  C  C13  1  0.750000  0.814618  0.038248  1
  C  C14  1  0.250000  0.186646  0.961668  1
  C  C15  1  0.750000  0.313354  0.461668  1
  C  C16  1  0.250000  0.035040  0.256315  1
  C  C17  1  0.750000  0.464960  0.756315  1
  C  C18  1  0.250000  0.535346  0.242592  1
  C  C19  1  0.750000  0.964654  0.742592  1
