# generated using pymatgen
data_Yb3Sm4Y(B6Ru)4
_symmetry_space_group_name_H-M   'P 1'
_cell_length_a   3.70643800
_cell_length_b   9.14130373
_cell_length_c   11.55270093
_cell_angle_alpha   90.04593635
_cell_angle_beta   90.00000000
_cell_angle_gamma   90.00000000
_symmetry_Int_Tables_number   1
_chemical_formula_structural   Yb3Sm4Y(B6Ru)4
_chemical_formula_sum   'Yb3 Sm4 Y1 B24 Ru4'
_cell_volume   391.42473856
_cell_formula_units_Z   1
loop_
 _symmetry_equiv_pos_site_id
 _symmetry_equiv_pos_as_xyz
  1  'x, y, z'
loop_
 _atom_site_type_symbol
 _atom_site_label
 _atom_site_symmetry_multiplicity
 _atom_site_fract_x
 _atom_site_fract_y
 _atom_site_fract_z
 _atom_site_occupancy
  Yb  Yb0  1  0.000000  0.058675  0.632436  1
  Yb  Yb1  1  0.000000  0.441009  0.131766  1
  Yb  Yb2  1  0.000000  0.558829  0.867493  1
  Sm  Sm3  1  0.000000  0.322799  0.415697  1
  Sm  Sm4  1  0.000000  0.677180  0.587825  1
  Sm  Sm5  1  0.000000  0.820727  0.083735  1
  Sm  Sm6  1  0.000000  0.178277  0.912516  1
  Y  Y7  1  0.000000  0.942194  0.369852  1
  B  B8  1  0.500000  0.554665  0.431456  1
  B  B9  1  0.500000  0.444914  0.569197  1
  B  B10  1  0.500000  0.055027  0.068237  1
  B  B11  1  0.500000  0.944862  0.930900  1
  B  B12  1  0.500000  0.748670  0.417508  1
  B  B13  1  0.500000  0.250296  0.583607  1
  B  B14  1  0.500000  0.250239  0.083293  1
  B  B15  1  0.500000  0.749779  0.916351  1
  B  B16  1  0.500000  0.788547  0.265087  1
  B  B17  1  0.500000  0.210850  0.734225  1
  B  B18  1  0.500000  0.290320  0.234379  1
  B  B19  1  0.500000  0.710587  0.765813  1
  B  B20  1  0.500000  0.627643  0.185221  1
  B  B21  1  0.500000  0.372066  0.814084  1
  B  B22  1  0.500000  0.129907  0.314175  1
  B  B23  1  0.500000  0.871691  0.686185  1
  B  B24  1  0.500000  0.983527  0.211829  1
  B  B25  1  0.500000  0.016642  0.787344  1
  B  B26  1  0.500000  0.483261  0.287208  1
  B  B27  1  0.500000  0.516721  0.712733  1
  B  B28  1  0.500000  0.594766  0.026183  1
  B  B29  1  0.500000  0.404931  0.973285  1
  B  B30  1  0.500000  0.098586  0.473473  1
  B  B31  1  0.500000  0.902109  0.527941  1
  Ru  Ru32  1  0.000000  0.637983  0.319303  1
  Ru  Ru33  1  0.000000  0.361674  0.680237  1
  Ru  Ru34  1  0.000000  0.138119  0.179206  1
  Ru  Ru35  1  0.000000  0.861929  0.820221  1
