# generated using pymatgen
data_Y12InFe4Au
_symmetry_space_group_name_H-M   'P 1'
_cell_length_a   8.39966759
_cell_length_b   8.39966783
_cell_length_c   8.39966760
_cell_angle_alpha   110.89022220
_cell_angle_beta   110.70041216
_cell_angle_gamma   106.85435965
_symmetry_Int_Tables_number   1
_chemical_formula_structural   Y12InFe4Au
_chemical_formula_sum   'Y12 In1 Fe4 Au1'
_cell_volume   455.49862543
_cell_formula_units_Z   1
loop_
 _symmetry_equiv_pos_site_id
 _symmetry_equiv_pos_as_xyz
  1  'x, y, z'
loop_
 _atom_site_type_symbol
 _atom_site_label
 _atom_site_symmetry_multiplicity
 _atom_site_fract_x
 _atom_site_fract_y
 _atom_site_fract_z
 _atom_site_occupancy
  Y  Y0  1  0.425116  0.220941  0.204175  1
  Y  Y1  1  0.574884  0.779059  0.795825  1
  Y  Y2  1  0.016766  0.220941  0.795825  1
  Y  Y3  1  0.983234  0.779059  0.204175  1
  Y  Y4  1  0.187912  0.289764  0.477676  1
  Y  Y5  1  0.812088  0.710236  0.522324  1
  Y  Y6  1  0.187912  0.710236  0.898147  1
  Y  Y7  1  0.812088  0.289764  0.101853  1
  Y  Y8  1  0.312697  0.612671  0.299974  1
  Y  Y9  1  0.687303  0.387329  0.700026  1
  Y  Y10  1  0.312697  0.012724  0.700026  1
  Y  Y11  1  0.687303  0.987276  0.299974  1
  In  In12  1  0.500000  0.500000  0.000000  1
  Fe  Fe13  1  0.387021  0.000000  0.387021  1
  Fe  Fe14  1  0.612979  0.000000  0.612979  1
  Fe  Fe15  1  0.106856  0.606856  0.500000  1
  Fe  Fe16  1  0.893144  0.393144  0.500000  1
  Au  Au17  1  0.000000  0.000000  0.000000  1
