# generated using pymatgen
data_Er2Lu2GaSi3
_symmetry_space_group_name_H-M   'P 1'
_cell_length_a   3.82667500
_cell_length_b   4.25048200
_cell_length_c   10.45315400
_cell_angle_alpha   90.00000000
_cell_angle_beta   90.00000000
_cell_angle_gamma   90.00000000
_symmetry_Int_Tables_number   1
_chemical_formula_structural   Er2Lu2GaSi3
_chemical_formula_sum   'Er2 Lu2 Ga1 Si3'
_cell_volume   170.02277850
_cell_formula_units_Z   1
loop_
 _symmetry_equiv_pos_site_id
 _symmetry_equiv_pos_as_xyz
  1  'x, y, z'
loop_
 _atom_site_type_symbol
 _atom_site_label
 _atom_site_symmetry_multiplicity
 _atom_site_fract_x
 _atom_site_fract_y
 _atom_site_fract_z
 _atom_site_occupancy
  Er  Er0  1  0.000000  0.000000  0.362257  1
  Er  Er1  1  0.500000  0.000000  0.639521  1
  Lu  Lu2  1  0.000000  0.500000  0.857838  1
  Lu  Lu3  1  0.500000  0.500000  0.141037  1
  Ga  Ga4  1  0.000000  0.000000  0.077990  1
  Si  Si5  1  0.000000  0.500000  0.577680  1
  Si  Si6  1  0.500000  0.500000  0.423616  1
  Si  Si7  1  0.500000  0.000000  0.920061  1
