# generated using pymatgen
data_Tb3In3AgRh2
_symmetry_space_group_name_H-M   'P 1'
_cell_length_a   7.81310100
_cell_length_b   7.81310043
_cell_length_c   3.81852400
_cell_angle_alpha   90.00000000
_cell_angle_beta   90.00000000
_cell_angle_gamma   120.00000665
_symmetry_Int_Tables_number   1
_chemical_formula_structural   Tb3In3AgRh2
_chemical_formula_sum   'Tb3 In3 Ag1 Rh2'
_cell_volume   201.87055282
_cell_formula_units_Z   1
loop_
 _symmetry_equiv_pos_site_id
 _symmetry_equiv_pos_as_xyz
  1  'x, y, z'
loop_
 _atom_site_type_symbol
 _atom_site_label
 _atom_site_symmetry_multiplicity
 _atom_site_fract_x
 _atom_site_fract_y
 _atom_site_fract_z
 _atom_site_occupancy
  Tb  Tb0  1  0.973881  0.585132  0.500000  1
  Tb  Tb1  1  0.414868  0.388749  0.500000  1
  Tb  Tb2  1  0.611251  0.026119  0.500000  1
  In  In3  1  0.741282  0.743066  0.000000  1
  In  In4  1  0.001784  0.258718  0.000000  1
  In  In5  1  0.256934  0.998216  0.000000  1
  Ag  Ag6  1  0.333333  0.666667  0.000000  1
  Rh  Rh7  1  0.000000  0.000000  0.500000  1
  Rh  Rh8  1  0.666667  0.333333  0.000000  1
