# generated using pymatgen
data_V3Rh(SeO3)8
_symmetry_space_group_name_H-M   'P 1'
_cell_length_a   8.08941864
_cell_length_b   8.08941860
_cell_length_c   8.08941966
_cell_angle_alpha   89.57571068
_cell_angle_beta   90.42429046
_cell_angle_gamma   90.42428503
_symmetry_Int_Tables_number   1
_chemical_formula_structural   V3Rh(SeO3)8
_chemical_formula_sum   'V3 Rh1 Se8 O24'
_cell_volume   529.31772547
_cell_formula_units_Z   1
loop_
 _symmetry_equiv_pos_site_id
 _symmetry_equiv_pos_as_xyz
  1  'x, y, z'
loop_
 _atom_site_type_symbol
 _atom_site_label
 _atom_site_symmetry_multiplicity
 _atom_site_fract_x
 _atom_site_fract_y
 _atom_site_fract_z
 _atom_site_occupancy
  V  V0  1  0.500000  0.500000  0.500000  1
  V  V1  1  0.500000  0.000000  0.000000  1
  V  V2  1  0.000000  0.500000  0.000000  1
  Rh  Rh3  1  0.000000  0.000000  0.500000  1
  Se  Se4  1  0.836603  0.681146  0.320710  1
  Se  Se5  1  0.179290  0.163397  0.181146  1
  Se  Se6  1  0.674601  0.325399  0.825399  1
  Se  Se7  1  0.318854  0.820710  0.663397  1
  Se  Se8  1  0.163397  0.318854  0.679290  1
  Se  Se9  1  0.820710  0.836603  0.818854  1
  Se  Se10  1  0.325399  0.674601  0.174601  1
  Se  Se11  1  0.681146  0.179290  0.336603  1
  O  O12  1  0.731131  0.539149  0.441328  1
  O  O13  1  0.264362  0.022295  0.044262  1
  O  O14  1  0.766753  0.431850  0.988714  1
  O  O15  1  0.244851  0.974624  0.528425  1
  O  O16  1  0.455738  0.735638  0.522295  1
  O  O17  1  0.058672  0.268869  0.039149  1
  O  O18  1  0.971575  0.755149  0.474624  1
  O  O19  1  0.511286  0.233247  0.931850  1
  O  O20  1  0.568150  0.488714  0.733247  1
  O  O21  1  0.025376  0.028425  0.255149  1
  O  O22  1  0.460851  0.941328  0.768869  1
  O  O23  1  0.977705  0.544262  0.235638  1
  O  O24  1  0.268869  0.460851  0.558672  1
  O  O25  1  0.735638  0.977705  0.955738  1
  O  O26  1  0.233247  0.568150  0.011286  1
  O  O27  1  0.755149  0.025376  0.471575  1
  O  O28  1  0.544262  0.264362  0.477705  1
  O  O29  1  0.941328  0.731131  0.960851  1
  O  O30  1  0.028425  0.244851  0.525376  1
  O  O31  1  0.488714  0.766753  0.068150  1
  O  O32  1  0.431850  0.511286  0.266753  1
  O  O33  1  0.974624  0.971575  0.744851  1
  O  O34  1  0.539149  0.058672  0.231131  1
  O  O35  1  0.022295  0.455738  0.764362  1
