# generated using pymatgen
data_DyU3SbAs5Ru7
_symmetry_space_group_name_H-M   'P 1'
_cell_length_a   7.31387365
_cell_length_b   7.29095712
_cell_length_c   7.31387209
_cell_angle_alpha   109.61264644
_cell_angle_beta   109.60442937
_cell_angle_gamma   109.61263840
_symmetry_Int_Tables_number   1
_chemical_formula_structural   DyU3SbAs5Ru7
_chemical_formula_sum   'Dy1 U3 Sb1 As5 Ru7'
_cell_volume   298.68080587
_cell_formula_units_Z   1
loop_
 _symmetry_equiv_pos_site_id
 _symmetry_equiv_pos_as_xyz
  1  'x, y, z'
loop_
 _atom_site_type_symbol
 _atom_site_label
 _atom_site_symmetry_multiplicity
 _atom_site_fract_x
 _atom_site_fract_y
 _atom_site_fract_z
 _atom_site_occupancy
  Dy  Dy0  1  0.514829  0.518531  0.514829  1
  U  U1  1  0.995827  0.999871  0.509242  1
  U  U2  1  0.509242  0.999871  0.995827  1
  U  U3  1  0.995613  0.486986  0.995613  1
  Sb  Sb4  1  0.304471  0.005261  0.304471  1
  As  As5  1  0.006697  0.314038  0.316578  1
  As  As6  1  0.999355  0.685498  0.687710  1
  As  As7  1  0.316578  0.314038  0.006697  1
  As  As8  1  0.687710  0.685498  0.999355  1
  As  As9  1  0.676202  0.995950  0.676202  1
  Ru  Ru10  1  0.755737  0.498911  0.247603  1
  Ru  Ru11  1  0.502581  0.749610  0.244900  1
  Ru  Ru12  1  0.502137  0.249872  0.760407  1
  Ru  Ru13  1  0.760407  0.249872  0.502137  1
  Ru  Ru14  1  0.244900  0.749610  0.502581  1
  Ru  Ru15  1  0.247603  0.498911  0.755737  1
  Ru  Ru16  1  0.980110  0.997671  0.980110  1
