# generated using pymatgen
data_Sm2Gd4TlIn5O18
_symmetry_space_group_name_H-M   'P 1'
_cell_length_a   6.47377019
_cell_length_b   6.47346739
_cell_length_c   12.46443153
_cell_angle_alpha   90.11519529
_cell_angle_beta   90.11121812
_cell_angle_gamma   120.02761011
_symmetry_Int_Tables_number   1
_chemical_formula_structural   Sm2Gd4TlIn5O18
_chemical_formula_sum   'Sm2 Gd4 Tl1 In5 O18'
_cell_volume   452.24425765
_cell_formula_units_Z   1
loop_
 _symmetry_equiv_pos_site_id
 _symmetry_equiv_pos_as_xyz
  1  'x, y, z'
loop_
 _atom_site_type_symbol
 _atom_site_label
 _atom_site_symmetry_multiplicity
 _atom_site_fract_x
 _atom_site_fract_y
 _atom_site_fract_z
 _atom_site_occupancy
  Sm  Sm0  1  0.665853  0.329073  0.961681  1
  Sm  Sm1  1  0.331019  0.667524  0.459388  1
  Gd  Gd2  1  0.667545  0.330831  0.460043  1
  Gd  Gd3  1  0.328865  0.665773  0.962283  1
  Gd  Gd4  1  0.002759  0.002735  0.997583  1
  Gd  Gd5  1  0.004344  0.004339  0.495314  1
  Tl  Tl6  1  0.666475  0.666703  0.726045  1
  In  In7  1  0.999495  0.332816  0.726292  1
  In  In8  1  0.334056  0.333760  0.226421  1
  In  In9  1  0.999105  0.666648  0.226210  1
  In  In10  1  0.332808  0.999493  0.726297  1
  In  In11  1  0.666830  0.999404  0.226204  1
  O  O12  1  0.690153  0.692998  0.899047  1
  O  O13  1  0.002951  0.305747  0.899132  1
  O  O14  1  0.308307  0.305528  0.396738  1
  O  O15  1  0.996721  0.692709  0.396525  1
  O  O16  1  0.302698  0.997311  0.899132  1
  O  O17  1  0.695440  0.002289  0.396508  1
  O  O18  1  0.643758  0.641444  0.554661  1
  O  O19  1  0.997745  0.360442  0.556007  1
  O  O20  1  0.358954  0.361171  0.058281  1
  O  O21  1  0.001753  0.641485  0.058011  1
  O  O22  1  0.362831  0.002328  0.556034  1
  O  O23  1  0.639208  0.997236  0.057964  1
  O  O24  1  0.015471  0.015483  0.692806  1
  O  O25  1  0.000319  0.000349  0.196622  1
  O  O26  1  0.666573  0.318326  0.757818  1
  O  O27  1  0.332781  0.666683  0.254556  1
  O  O28  1  0.666670  0.332777  0.252406  1
  O  O29  1  0.318511  0.666591  0.755775  1
