# generated using pymatgen
data_Tb3Er2(CoB3)2
_symmetry_space_group_name_H-M   'P 1'
_cell_length_a   5.39985552
_cell_length_b   5.39985501
_cell_length_c   8.32824284
_cell_angle_alpha   71.08353158
_cell_angle_beta   71.08353333
_cell_angle_gamma   59.99999641
_symmetry_Int_Tables_number   1
_chemical_formula_structural   Tb3Er2(CoB3)2
_chemical_formula_sum   'Tb3 Er2 Co2 B6'
_cell_volume   195.01329716
_cell_formula_units_Z   1
loop_
 _symmetry_equiv_pos_site_id
 _symmetry_equiv_pos_as_xyz
  1  'x, y, z'
loop_
 _atom_site_type_symbol
 _atom_site_label
 _atom_site_symmetry_multiplicity
 _atom_site_fract_x
 _atom_site_fract_y
 _atom_site_fract_z
 _atom_site_occupancy
  Tb  Tb0  1  0.000000  0.000000  0.000000  1
  Tb  Tb1  1  0.252878  0.252878  0.241366  1
  Tb  Tb2  1  0.747122  0.747122  0.758634  1
  Er  Er3  1  0.417388  0.417388  0.747837  1
  Er  Er4  1  0.582612  0.582612  0.252163  1
  Co  Co5  1  0.120085  0.120085  0.639746  1
  Co  Co6  1  0.879915  0.879915  0.360254  1
  B  B7  1  0.168563  0.831437  0.500000  1
  B  B8  1  0.831437  0.500000  0.500000  1
  B  B9  1  0.500000  0.168563  0.500000  1
  B  B10  1  0.168563  0.500000  0.500000  1
  B  B11  1  0.500000  0.831437  0.500000  1
  B  B12  1  0.831437  0.168563  0.500000  1
