# generated using pymatgen
data_Ho4PaOsRu
_symmetry_space_group_name_H-M   'P 1'
_cell_length_a   6.31151945
_cell_length_b   7.29491184
_cell_length_c   8.39611600
_cell_angle_alpha   96.78416070
_cell_angle_beta   112.07743980
_cell_angle_gamma   90.00000177
_symmetry_Int_Tables_number   1
_chemical_formula_structural   Ho4PaOsRu
_chemical_formula_sum   'Ho8 Pa2 Os2 Ru2'
_cell_volume   355.30634470
_cell_formula_units_Z   2
loop_
 _symmetry_equiv_pos_site_id
 _symmetry_equiv_pos_as_xyz
  1  'x, y, z'
loop_
 _atom_site_type_symbol
 _atom_site_label
 _atom_site_symmetry_multiplicity
 _atom_site_fract_x
 _atom_site_fract_y
 _atom_site_fract_z
 _atom_site_occupancy
  Ho  Ho0  1  0.784083  0.081390  0.815068  1
  Ho  Ho1  1  0.969015  0.418610  0.184932  1
  Ho  Ho2  1  0.211805  0.920391  0.187536  1
  Ho  Ho3  1  0.024269  0.579609  0.812464  1
  Ho  Ho4  1  0.203091  0.187305  0.556520  1
  Ho  Ho5  1  0.646572  0.312695  0.443480  1
  Ho  Ho6  1  0.794119  0.813919  0.442544  1
  Ho  Ho7  1  0.351575  0.686081  0.557456  1
  Pa  Pa8  1  0.414187  0.250000  0.000000  1
  Pa  Pa9  1  0.580637  0.750000  0.000000  1
  Os  Os10  1  0.589467  0.436414  0.796904  1
  Os  Os11  1  0.792562  0.063586  0.203096  1
  Ru  Ru12  1  0.414852  0.558729  0.191086  1
  Ru  Ru13  1  0.223767  0.941271  0.808914  1
