# generated using pymatgen
data_Er2Ga2NiIr
_symmetry_space_group_name_H-M   'P 1'
_cell_length_a   4.28237000
_cell_length_b   6.74062300
_cell_length_c   7.59276600
_cell_angle_alpha   90.00000000
_cell_angle_beta   90.00000000
_cell_angle_gamma   90.00000000
_symmetry_Int_Tables_number   1
_chemical_formula_structural   Er2Ga2NiIr
_chemical_formula_sum   'Er4 Ga4 Ni2 Ir2'
_cell_volume   219.17158155
_cell_formula_units_Z   2
loop_
 _symmetry_equiv_pos_site_id
 _symmetry_equiv_pos_as_xyz
  1  'x, y, z'
loop_
 _atom_site_type_symbol
 _atom_site_label
 _atom_site_symmetry_multiplicity
 _atom_site_fract_x
 _atom_site_fract_y
 _atom_site_fract_z
 _atom_site_occupancy
  Er  Er0  1  0.250000  0.978317  0.312772  1
  Er  Er1  1  0.250000  0.478317  0.187228  1
  Er  Er2  1  0.750000  0.023843  0.686656  1
  Er  Er3  1  0.750000  0.523843  0.813344  1
  Ga  Ga4  1  0.250000  0.345283  0.576311  1
  Ga  Ga5  1  0.250000  0.845283  0.923689  1
  Ga  Ga6  1  0.750000  0.660717  0.441373  1
  Ga  Ga7  1  0.750000  0.160717  0.058627  1
  Ni  Ni8  1  0.250000  0.222240  0.885469  1
  Ni  Ni9  1  0.250000  0.722240  0.614531  1
  Ir  Ir10  1  0.750000  0.769600  0.111986  1
  Ir  Ir11  1  0.750000  0.269600  0.388014  1
