# generated using pymatgen
data_HfZr15(CoRe)4
_symmetry_space_group_name_H-M   'P 1'
_cell_length_a   8.73915764
_cell_length_b   8.73004889
_cell_length_c   8.73004962
_cell_angle_alpha   60.06704248
_cell_angle_beta   59.96548949
_cell_angle_gamma   59.96548899
_symmetry_Int_Tables_number   1
_chemical_formula_structural   HfZr15(CoRe)4
_chemical_formula_sum   'Hf1 Zr15 Co4 Re4'
_cell_volume   470.95624230
_cell_formula_units_Z   1
loop_
 _symmetry_equiv_pos_site_id
 _symmetry_equiv_pos_as_xyz
  1  'x, y, z'
loop_
 _atom_site_type_symbol
 _atom_site_label
 _atom_site_symmetry_multiplicity
 _atom_site_fract_x
 _atom_site_fract_y
 _atom_site_fract_z
 _atom_site_occupancy
  Hf  Hf0  1  0.957204  0.542796  0.542796  1
  Zr  Zr1  1  0.699197  0.100392  0.100392  1
  Zr  Zr2  1  0.100035  0.699254  0.100676  1
  Zr  Zr3  1  0.100035  0.100676  0.699254  1
  Zr  Zr4  1  0.100019  0.100392  0.100392  1
  Zr  Zr5  1  0.313869  0.315200  0.685106  1
  Zr  Zr6  1  0.685826  0.685106  0.315200  1
  Zr  Zr7  1  0.313869  0.685106  0.315200  1
  Zr  Zr8  1  0.685826  0.315200  0.685106  1
  Zr  Zr9  1  0.685341  0.314659  0.314659  1
  Zr  Zr10  1  0.314327  0.685673  0.685673  1
  Zr  Zr11  1  0.954493  0.953738  0.545666  1
  Zr  Zr12  1  0.546104  0.545666  0.953738  1
  Zr  Zr13  1  0.954493  0.545666  0.953738  1
  Zr  Zr14  1  0.546104  0.953738  0.545666  1
  Zr  Zr15  1  0.544758  0.955242  0.955242  1
  Co  Co16  1  0.330467  0.890007  0.890007  1
  Co  Co17  1  0.890079  0.331877  0.887965  1
  Co  Co18  1  0.890079  0.887965  0.331877  1
  Co  Co19  1  0.889518  0.890007  0.890007  1
  Re  Re20  1  0.005831  0.331767  0.331767  1
  Re  Re21  1  0.330947  0.006776  0.331331  1
  Re  Re22  1  0.330947  0.331331  0.006776  1
  Re  Re23  1  0.330635  0.331767  0.331767  1
