# generated using pymatgen
data_Ba3Ga2Cl2O5
_symmetry_space_group_name_H-M   'P 1'
_cell_length_a   8.71429191
_cell_length_b   8.71431153
_cell_length_c   8.71428501
_cell_angle_alpha   109.49327713
_cell_angle_beta   109.44388889
_cell_angle_gamma   109.47683022
_symmetry_Int_Tables_number   1
_chemical_formula_structural   Ba3Ga2Cl2O5
_chemical_formula_sum   'Ba6 Ga4 Cl4 O10'
_cell_volume   509.41672599
_cell_formula_units_Z   2
loop_
 _symmetry_equiv_pos_site_id
 _symmetry_equiv_pos_as_xyz
  1  'x, y, z'
loop_
 _atom_site_type_symbol
 _atom_site_label
 _atom_site_symmetry_multiplicity
 _atom_site_fract_x
 _atom_site_fract_y
 _atom_site_fract_z
 _atom_site_occupancy
  Ba  Ba0  1  0.656343  0.406346  0.250002  1
  Ba  Ba1  1  0.250004  0.656183  0.406179  1
  Ba  Ba2  1  0.843657  0.093653  0.749999  1
  Ba  Ba3  1  0.406415  0.250000  0.656413  1
  Ba  Ba4  1  0.093589  0.750001  0.843591  1
  Ba  Ba5  1  0.749996  0.843814  0.093817  1
  Ga  Ga6  1  0.499862  0.999866  0.311595  1
  Ga  Ga7  1  0.311733  0.500136  0.999997  1
  Ga  Ga8  1  0.000138  0.311735  0.500004  1
  Ga  Ga9  1  0.188269  0.188268  0.188407  1
  Cl  Cl10  1  0.999878  0.883812  0.499964  1
  Cl  Cl11  1  0.616150  0.616186  0.616066  1
  Cl  Cl12  1  0.883850  0.499914  0.000038  1
  Cl  Cl13  1  0.500123  0.000085  0.883935  1
  O  O14  1  0.978610  0.978618  0.978794  1
  O  O15  1  0.000176  0.521383  0.499995  1
  O  O16  1  0.521379  0.500174  0.000005  1
  O  O17  1  0.499832  0.999825  0.521205  1
  O  O18  1  0.109250  0.359254  0.750000  1
  O  O19  1  0.750002  0.109346  0.359342  1
  O  O20  1  0.140705  0.250002  0.390706  1
  O  O21  1  0.249995  0.390652  0.140655  1
  O  O22  1  0.390743  0.140744  0.249996  1
  O  O23  1  0.359300  0.750000  0.109299  1
