# generated using pymatgen
data_Er12Tm8CoBi8Ir3
_symmetry_space_group_name_H-M   'P 1'
_cell_length_a   7.91070137
_cell_length_b   8.94366100
_cell_length_c   12.39808406
_cell_angle_alpha   90.00000000
_cell_angle_beta   90.19768215
_cell_angle_gamma   90.00000000
_symmetry_Int_Tables_number   1
_chemical_formula_structural   Er12Tm8CoBi8Ir3
_chemical_formula_sum   'Er12 Tm8 Co1 Bi8 Ir3'
_cell_volume   877.16705339
_cell_formula_units_Z   1
loop_
 _symmetry_equiv_pos_site_id
 _symmetry_equiv_pos_as_xyz
  1  'x, y, z'
loop_
 _atom_site_type_symbol
 _atom_site_label
 _atom_site_symmetry_multiplicity
 _atom_site_fract_x
 _atom_site_fract_y
 _atom_site_fract_z
 _atom_site_occupancy
  Er  Er0  1  0.657359  0.750000  0.699761  1
  Er  Er1  1  0.338731  0.250000  0.292913  1
  Er  Er2  1  0.161032  0.250000  0.793090  1
  Er  Er3  1  0.839132  0.750000  0.206859  1
  Er  Er4  1  0.123151  0.750000  0.808309  1
  Er  Er5  1  0.875286  0.250000  0.191226  1
  Er  Er6  1  0.624283  0.250000  0.691242  1
  Er  Er7  1  0.380921  0.750000  0.314790  1
  Er  Er8  1  0.556640  0.750000  0.997478  1
  Er  Er9  1  0.446374  0.250000  0.001184  1
  Er  Er10  1  0.055560  0.250000  0.501441  1
  Er  Er11  1  0.946304  0.750000  0.498508  1
  Tm  Tm12  1  0.826271  0.457105  0.933193  1
  Tm  Tm13  1  0.174872  0.542140  0.066693  1
  Tm  Tm14  1  0.326035  0.543969  0.565535  1
  Tm  Tm15  1  0.174872  0.957860  0.066693  1
  Tm  Tm16  1  0.672249  0.464389  0.435818  1
  Tm  Tm17  1  0.826271  0.042895  0.933193  1
  Tm  Tm18  1  0.672249  0.035611  0.435818  1
  Tm  Tm19  1  0.326035  0.956031  0.565535  1
  Co  Co20  1  0.567586  0.750000  0.492292  1
  Bi  Bi21  1  0.932713  0.008783  0.672065  1
  Bi  Bi22  1  0.066133  0.990833  0.327694  1
  Bi  Bi23  1  0.434141  0.990533  0.826560  1
  Bi  Bi24  1  0.066133  0.509167  0.327694  1
  Bi  Bi25  1  0.565571  0.008026  0.173538  1
  Bi  Bi26  1  0.932713  0.491217  0.672065  1
  Bi  Bi27  1  0.565571  0.491974  0.173538  1
  Bi  Bi28  1  0.434141  0.509467  0.826560  1
  Ir  Ir29  1  0.929371  0.750000  0.991887  1
  Ir  Ir30  1  0.072311  0.250000  0.008894  1
  Ir  Ir31  1  0.429987  0.250000  0.507934  1
