# generated using pymatgen
data_DyTm2In3NiHg2
_symmetry_space_group_name_H-M   'P 1'
_cell_length_a   4.01701200
_cell_length_b   7.67918913
_cell_length_c   7.70696386
_cell_angle_alpha   119.88086776
_cell_angle_beta   90.00000000
_cell_angle_gamma   90.00000000
_symmetry_Int_Tables_number   1
_chemical_formula_structural   DyTm2In3NiHg2
_chemical_formula_sum   'Dy1 Tm2 In3 Ni1 Hg2'
_cell_volume   206.13538447
_cell_formula_units_Z   1
loop_
 _symmetry_equiv_pos_site_id
 _symmetry_equiv_pos_as_xyz
  1  'x, y, z'
loop_
 _atom_site_type_symbol
 _atom_site_label
 _atom_site_symmetry_multiplicity
 _atom_site_fract_x
 _atom_site_fract_y
 _atom_site_fract_z
 _atom_site_occupancy
  Dy  Dy0  1  0.500000  0.393403  0.000000  1
  Tm  Tm1  1  0.500000  0.608116  0.607724  1
  Tm  Tm2  1  0.500000  0.000391  0.392276  1
  In  In3  1  0.000000  0.759783  0.000000  1
  In  In4  1  0.000000  0.239630  0.240303  1
  In  In5  1  0.000000  0.999327  0.759697  1
  Ni  Ni6  1  0.500000  0.998593  0.000000  1
  Hg  Hg7  1  0.000000  0.668082  0.335304  1
  Hg  Hg8  1  0.000000  0.332778  0.664696  1
