# generated using pymatgen
data_Pr4Sm3Dy(GeO5)4
_symmetry_space_group_name_H-M   'P 1'
_cell_length_a   8.40507463
_cell_length_b   8.41868567
_cell_length_c   10.97409836
_cell_angle_alpha   61.45715014
_cell_angle_beta   61.28588122
_cell_angle_gamma   49.87372080
_symmetry_Int_Tables_number   1
_chemical_formula_structural   Pr4Sm3Dy(GeO5)4
_chemical_formula_sum   'Pr4 Sm3 Dy1 Ge4 O20'
_cell_volume   504.09234407
_cell_formula_units_Z   1
loop_
 _symmetry_equiv_pos_site_id
 _symmetry_equiv_pos_as_xyz
  1  'x, y, z'
loop_
 _atom_site_type_symbol
 _atom_site_label
 _atom_site_symmetry_multiplicity
 _atom_site_fract_x
 _atom_site_fract_y
 _atom_site_fract_z
 _atom_site_occupancy
  Pr  Pr0  1  0.718796  0.209691  0.965079  1
  Pr  Pr1  1  0.791147  0.275989  0.537041  1
  Pr  Pr2  1  0.277475  0.793706  0.035514  1
  Pr  Pr3  1  0.208443  0.719864  0.463883  1
  Sm  Sm4  1  0.987108  0.734502  0.836901  1
  Sm  Sm5  1  0.266976  0.016670  0.660260  1
  Sm  Sm6  1  0.009554  0.266431  0.165776  1
  Dy  Dy7  1  0.741596  0.979224  0.336968  1
  Ge  Ge8  1  0.777337  0.594815  0.689320  1
  Ge  Ge9  1  0.404846  0.224231  0.809666  1
  Ge  Ge10  1  0.225985  0.404367  0.307019  1
  Ge  Ge11  1  0.592996  0.778271  0.193437  1
  O  O12  1  0.777437  0.634108  0.058933  1
  O  O13  1  0.380825  0.218099  0.434888  1
  O  O14  1  0.219564  0.368245  0.943865  1
  O  O15  1  0.635050  0.782535  0.554605  1
  O  O16  1  0.588420  0.585935  0.360312  1
  O  O17  1  0.403980  0.420243  0.134263  1
  O  O18  1  0.411649  0.412754  0.641261  1
  O  O19  1  0.588079  0.587297  0.858073  1
  O  O20  1  0.952464  0.649910  0.679620  1
  O  O21  1  0.346927  0.050425  0.821172  1
  O  O22  1  0.051738  0.342359  0.323892  1
  O  O23  1  0.652167  0.950447  0.183671  1
  O  O24  1  0.884889  0.075807  0.395047  1
  O  O25  1  0.915200  0.109999  0.111504  1
  O  O26  1  0.112724  0.919979  0.606112  1
  O  O27  1  0.078999  0.892005  0.891939  1
  O  O28  1  0.082858  0.672625  0.322878  1
  O  O29  1  0.324716  0.916165  0.180196  1
  O  O30  1  0.916585  0.327818  0.674548  1
  O  O31  1  0.673466  0.085485  0.822355  1
