# generated using pymatgen
data_Dy3Er(MoO6)2
_symmetry_space_group_name_H-M   'P 1'
_cell_length_a   9.94408898
_cell_length_b   9.94408845
_cell_length_c   5.39120553
_cell_angle_alpha   74.95954858
_cell_angle_beta   74.95954457
_cell_angle_gamma   68.03095305
_symmetry_Int_Tables_number   1
_chemical_formula_structural   Dy3Er(MoO6)2
_chemical_formula_sum   'Dy6 Er2 Mo4 O24'
_cell_volume   469.54407182
_cell_formula_units_Z   2
loop_
 _symmetry_equiv_pos_site_id
 _symmetry_equiv_pos_as_xyz
  1  'x, y, z'
loop_
 _atom_site_type_symbol
 _atom_site_label
 _atom_site_symmetry_multiplicity
 _atom_site_fract_x
 _atom_site_fract_y
 _atom_site_fract_z
 _atom_site_occupancy
  Dy  Dy0  1  0.216726  0.448243  0.877942  1
  Dy  Dy1  1  0.448243  0.216726  0.377942  1
  Dy  Dy2  1  0.783274  0.551757  0.122058  1
  Dy  Dy3  1  0.551757  0.783274  0.622058  1
  Dy  Dy4  1  0.863254  0.136746  0.250000  1
  Dy  Dy5  1  0.136746  0.863254  0.750000  1
  Er  Er6  1  0.394613  0.605387  0.250000  1
  Er  Er7  1  0.605387  0.394613  0.750000  1
  Mo  Mo8  1  0.987859  0.704143  0.438594  1
  Mo  Mo9  1  0.295857  0.012141  0.061406  1
  Mo  Mo10  1  0.012141  0.295857  0.561406  1
  Mo  Mo11  1  0.704143  0.987859  0.938594  1
  O  O12  1  0.428308  0.391166  0.577714  1
  O  O13  1  0.608834  0.571692  0.922286  1
  O  O14  1  0.571692  0.608834  0.422286  1
  O  O15  1  0.391166  0.428308  0.077714  1
  O  O16  1  0.193785  0.662462  0.578632  1
  O  O17  1  0.337538  0.806215  0.921368  1
  O  O18  1  0.806215  0.337538  0.421368  1
  O  O19  1  0.662462  0.193785  0.078632  1
  O  O20  1  0.115315  0.673651  0.126217  1
  O  O21  1  0.326349  0.884685  0.373783  1
  O  O22  1  0.884685  0.326349  0.873783  1
  O  O23  1  0.673651  0.115315  0.626217  1
  O  O24  1  0.710885  0.815451  0.863815  1
  O  O25  1  0.184549  0.289115  0.636185  1
  O  O26  1  0.289115  0.184549  0.136185  1
  O  O27  1  0.815451  0.710885  0.363815  1
  O  O28  1  0.889661  0.951222  0.986416  1
  O  O29  1  0.048778  0.110339  0.513584  1
  O  O30  1  0.975473  0.567843  0.745020  1
  O  O31  1  0.951222  0.889661  0.486416  1
  O  O32  1  0.567843  0.975473  0.245020  1
  O  O33  1  0.024527  0.432157  0.254980  1
  O  O34  1  0.432157  0.024527  0.754980  1
  O  O35  1  0.110339  0.048778  0.013584  1
