# generated using pymatgen
data_Nd6Ho3TmPb6
_symmetry_space_group_name_H-M   'P 1'
_cell_length_a   6.75283600
_cell_length_b   9.26138466
_cell_length_c   9.26192000
_cell_angle_alpha   119.99781469
_cell_angle_beta   90.00001467
_cell_angle_gamma   89.99986157
_symmetry_Int_Tables_number   1
_chemical_formula_structural   Nd6Ho3TmPb6
_chemical_formula_sum   'Nd6 Ho3 Tm1 Pb6'
_cell_volume   501.65292051
_cell_formula_units_Z   1
loop_
 _symmetry_equiv_pos_site_id
 _symmetry_equiv_pos_as_xyz
  1  'x, y, z'
loop_
 _atom_site_type_symbol
 _atom_site_label
 _atom_site_symmetry_multiplicity
 _atom_site_fract_x
 _atom_site_fract_y
 _atom_site_fract_z
 _atom_site_occupancy
  Nd  Nd0  1  0.750042  0.240067  0.999953  1
  Nd  Nd1  1  0.750037  0.759813  0.759887  1
  Nd  Nd2  1  0.750037  0.000013  0.240157  1
  Nd  Nd3  1  0.249964  0.759888  0.999956  1
  Nd  Nd4  1  0.249956  0.240141  0.240156  1
  Nd  Nd5  1  0.249955  0.000073  0.759886  1
  Ho  Ho6  1  0.499994  0.333343  0.666717  1
  Ho  Ho7  1  0.500002  0.666635  0.333296  1
  Ho  Ho8  1  0.999993  0.666668  0.333296  1
  Tm  Tm9  1  0.999996  0.333363  0.666702  1
  Pb  Pb10  1  0.750101  0.601738  0.999867  1
  Pb  Pb11  1  0.750109  0.398092  0.398203  1
  Pb  Pb12  1  0.750107  0.000152  0.601928  1
  Pb  Pb13  1  0.249898  0.398129  0.999867  1
  Pb  Pb14  1  0.249906  0.601774  0.601926  1
  Pb  Pb15  1  0.249906  0.000110  0.398202  1
