# generated using pymatgen
data_Sm2Er(Si3Pd10)2
_symmetry_space_group_name_H-M   'P 1'
_cell_length_a   8.74625980
_cell_length_b   8.74630121
_cell_length_c   8.74628500
_cell_angle_alpha   60.00020556
_cell_angle_beta   60.00016152
_cell_angle_gamma   59.99994640
_symmetry_Int_Tables_number   1
_chemical_formula_structural   Sm2Er(Si3Pd10)2
_chemical_formula_sum   'Sm2 Er1 Si6 Pd20'
_cell_volume   473.10382495
_cell_formula_units_Z   1
loop_
 _symmetry_equiv_pos_site_id
 _symmetry_equiv_pos_as_xyz
  1  'x, y, z'
loop_
 _atom_site_type_symbol
 _atom_site_label
 _atom_site_symmetry_multiplicity
 _atom_site_fract_x
 _atom_site_fract_y
 _atom_site_fract_z
 _atom_site_occupancy
  Sm  Sm0  1  0.250000  0.250001  0.249999  1
  Sm  Sm1  1  0.750000  0.749999  0.750001  1
  Er  Er2  1  0.000000  0.000000  0.000000  1
  Si  Si3  1  0.733002  0.266998  0.266998  1
  Si  Si4  1  0.266998  0.733002  0.733002  1
  Si  Si5  1  0.266999  0.733002  0.266999  1
  Si  Si6  1  0.733001  0.266998  0.733001  1
  Si  Si7  1  0.266998  0.266998  0.733002  1
  Si  Si8  1  0.733002  0.733002  0.266998  1
  Pd  Pd9  1  0.344616  0.000000  0.000001  1
  Pd  Pd10  1  0.655384  0.000000  0.999999  1
  Pd  Pd11  1  0.000000  0.344619  0.655381  1
  Pd  Pd12  1  0.000000  0.655381  0.344619  1
  Pd  Pd13  1  0.000001  0.344617  0.000002  1
  Pd  Pd14  1  0.655381  0.000001  0.344617  1
  Pd  Pd15  1  0.999999  0.655383  0.999998  1
  Pd  Pd16  1  0.344619  0.999999  0.655383  1
  Pd  Pd17  1  0.000002  0.999998  0.344617  1
  Pd  Pd18  1  0.999998  0.000002  0.655383  1
  Pd  Pd19  1  0.655383  0.344616  0.000000  1
  Pd  Pd20  1  0.344617  0.655384  0.000000  1
  Pd  Pd21  1  0.384823  0.384822  0.384823  1
  Pd  Pd22  1  0.615177  0.615178  0.615177  1
  Pd  Pd23  1  0.384823  0.384823  0.845530  1
  Pd  Pd24  1  0.384821  0.845535  0.384823  1
  Pd  Pd25  1  0.615177  0.615177  0.154470  1
  Pd  Pd26  1  0.615179  0.154465  0.615177  1
  Pd  Pd27  1  0.845529  0.384823  0.384824  1
  Pd  Pd28  1  0.154471  0.615177  0.615176  1
