# generated using pymatgen
data_YbDy(MnB4)2
_symmetry_space_group_name_H-M   'P 1'
_cell_length_a   5.91135902
_cell_length_b   11.43139104
_cell_length_c   3.38856400
_cell_angle_alpha   90.00000000
_cell_angle_beta   90.00000000
_cell_angle_gamma   90.00941795
_symmetry_Int_Tables_number   1
_chemical_formula_structural   YbDy(MnB4)2
_chemical_formula_sum   'Yb2 Dy2 Mn4 B16'
_cell_volume   228.98240075
_cell_formula_units_Z   2
loop_
 _symmetry_equiv_pos_site_id
 _symmetry_equiv_pos_as_xyz
  1  'x, y, z'
loop_
 _atom_site_type_symbol
 _atom_site_label
 _atom_site_symmetry_multiplicity
 _atom_site_fract_x
 _atom_site_fract_y
 _atom_site_fract_z
 _atom_site_occupancy
  Yb  Yb0  1  0.624987  0.349930  0.000000  1
  Yb  Yb1  1  0.375013  0.650070  0.000000  1
  Dy  Dy2  1  0.126464  0.151640  0.000000  1
  Dy  Dy3  1  0.873536  0.848360  0.000000  1
  Mn  Mn4  1  0.626240  0.082611  0.000000  1
  Mn  Mn5  1  0.373760  0.917389  0.000000  1
  Mn  Mn6  1  0.122089  0.420524  0.000000  1
  Mn  Mn7  1  0.877911  0.579476  0.000000  1
  B  B8  1  0.779234  0.184006  0.500000  1
  B  B9  1  0.220766  0.815994  0.500000  1
  B  B10  1  0.280238  0.317896  0.500000  1
  B  B11  1  0.719762  0.682104  0.500000  1
  B  B12  1  0.861357  0.032366  0.500000  1
  B  B13  1  0.138643  0.967634  0.500000  1
  B  B14  1  0.362037  0.467428  0.500000  1
  B  B15  1  0.637963  0.532572  0.500000  1
  B  B16  1  0.886561  0.453651  0.500000  1
  B  B17  1  0.113439  0.546349  0.500000  1
  B  B18  1  0.388358  0.046708  0.500000  1
  B  B19  1  0.611642  0.953292  0.500000  1
  B  B20  1  0.975896  0.310006  0.500000  1
  B  B21  1  0.024104  0.689994  0.500000  1
  B  B22  1  0.475502  0.191511  0.500000  1
  B  B23  1  0.524498  0.808489  0.500000  1
