# generated using pymatgen
data_HoZn3AgRh
_symmetry_space_group_name_H-M   'P 1'
_cell_length_a   5.22274366
_cell_length_b   5.22274346
_cell_length_c   5.22274329
_cell_angle_alpha   60.58827625
_cell_angle_beta   60.58829109
_cell_angle_gamma   60.58827796
_symmetry_Int_Tables_number   1
_chemical_formula_structural   HoZn3AgRh
_chemical_formula_sum   'Ho1 Zn3 Ag1 Rh1'
_cell_volume   102.07367140
_cell_formula_units_Z   1
loop_
 _symmetry_equiv_pos_site_id
 _symmetry_equiv_pos_as_xyz
  1  'x, y, z'
loop_
 _atom_site_type_symbol
 _atom_site_label
 _atom_site_symmetry_multiplicity
 _atom_site_fract_x
 _atom_site_fract_y
 _atom_site_fract_z
 _atom_site_occupancy
  Ho  Ho0  1  0.251550  0.251550  0.251550  1
  Zn  Zn1  1  0.626822  0.626822  0.119575  1
  Zn  Zn2  1  0.626822  0.119575  0.626822  1
  Zn  Zn3  1  0.119575  0.626822  0.626822  1
  Ag  Ag4  1  0.002131  0.002131  0.002131  1
  Rh  Rh5  1  0.623100  0.623100  0.623100  1
