# generated using pymatgen
data_LaSmU2(NiP)4
_symmetry_space_group_name_H-M   'P 1'
_cell_length_a   3.91894300
_cell_length_b   3.91894308
_cell_length_c   15.64350400
_cell_angle_alpha   90.00000000
_cell_angle_beta   90.00000000
_cell_angle_gamma   120.00000775
_symmetry_Int_Tables_number   1
_chemical_formula_structural   LaSmU2(NiP)4
_chemical_formula_sum   'La1 Sm1 U2 Ni4 P4'
_cell_volume   208.06668031
_cell_formula_units_Z   1
loop_
 _symmetry_equiv_pos_site_id
 _symmetry_equiv_pos_as_xyz
  1  'x, y, z'
loop_
 _atom_site_type_symbol
 _atom_site_label
 _atom_site_symmetry_multiplicity
 _atom_site_fract_x
 _atom_site_fract_y
 _atom_site_fract_z
 _atom_site_occupancy
  La  La0  1  0.000000  0.000000  0.750000  1
  Sm  Sm1  1  0.000000  0.000000  0.250000  1
  U  U2  1  0.000000  0.000000  0.497366  1
  U  U3  1  0.000000  0.000000  0.002634  1
  Ni  Ni4  1  0.333333  0.666667  0.389684  1
  Ni  Ni5  1  0.666667  0.333333  0.600079  1
  Ni  Ni6  1  0.666667  0.333333  0.899921  1
  Ni  Ni7  1  0.333333  0.666667  0.110316  1
  P  P8  1  0.333333  0.666667  0.882329  1
  P  P9  1  0.666667  0.333333  0.122575  1
  P  P10  1  0.666667  0.333333  0.377425  1
  P  P11  1  0.333333  0.666667  0.617671  1
