# generated using pymatgen
data_Ca13PrTlInN8
_symmetry_space_group_name_H-M   'P 1'
_cell_length_a   3.61936600
_cell_length_b   12.12473098
_cell_length_c   11.67358713
_cell_angle_alpha   90.06557664
_cell_angle_beta   90.00000000
_cell_angle_gamma   90.00000000
_symmetry_Int_Tables_number   1
_chemical_formula_structural   Ca13PrTlInN8
_chemical_formula_sum   'Ca13 Pr1 Tl1 In1 N8'
_cell_volume   512.28148377
_cell_formula_units_Z   1
loop_
 _symmetry_equiv_pos_site_id
 _symmetry_equiv_pos_as_xyz
  1  'x, y, z'
loop_
 _atom_site_type_symbol
 _atom_site_label
 _atom_site_symmetry_multiplicity
 _atom_site_fract_x
 _atom_site_fract_y
 _atom_site_fract_z
 _atom_site_occupancy
  Ca  Ca0  1  0.500055  0.671401  0.240335  1
  Ca  Ca1  1  0.500055  0.328599  0.759665  1
  Ca  Ca2  1  0.500208  0.169473  0.265273  1
  Ca  Ca3  1  0.500208  0.830527  0.734727  1
  Ca  Ca4  1  0.500396  0.000000  0.500000  1
  Ca  Ca5  1  0.999195  0.929636  0.265962  1
  Ca  Ca6  1  0.999195  0.070364  0.734038  1
  Ca  Ca7  1  0.001891  0.425070  0.243240  1
  Ca  Ca8  1  0.001891  0.574930  0.756760  1
  Ca  Ca9  1  0.001660  0.766725  0.478782  1
  Ca  Ca10  1  0.001660  0.233275  0.521218  1
  Ca  Ca11  1  0.997705  0.258309  0.023120  1
  Ca  Ca12  1  0.997705  0.741691  0.976880  1
  Pr  Pr13  1  0.499587  0.500000  0.000000  1
  Tl  Tl14  1  0.461544  0.000000  0.000000  1
  In  In15  1  0.535823  0.500000  0.500000  1
  N  N16  1  0.000029  0.599062  0.124573  1
  N  N17  1  0.000029  0.400938  0.875427  1
  N  N18  1  0.000274  0.101768  0.370171  1
  N  N19  1  0.000274  0.898232  0.629829  1
  N  N20  1  0.500209  0.832361  0.356669  1
  N  N21  1  0.500209  0.167639  0.643331  1
  N  N22  1  0.500099  0.334418  0.139610  1
  N  N23  1  0.500099  0.665582  0.860390  1
