# generated using pymatgen
data_Li4Pr2HoTmSi6
_symmetry_space_group_name_H-M   'P 1'
_cell_length_a   9.34274205
_cell_length_b   9.34274323
_cell_length_c   6.84335900
_cell_angle_alpha   90.00000000
_cell_angle_beta   90.00000000
_cell_angle_gamma   153.30149936
_symmetry_Int_Tables_number   1
_chemical_formula_structural   Li4Pr2HoTmSi6
_chemical_formula_sum   'Li4 Pr2 Ho1 Tm1 Si6'
_cell_volume   268.38008105
_cell_formula_units_Z   1
loop_
 _symmetry_equiv_pos_site_id
 _symmetry_equiv_pos_as_xyz
  1  'x, y, z'
loop_
 _atom_site_type_symbol
 _atom_site_label
 _atom_site_symmetry_multiplicity
 _atom_site_fract_x
 _atom_site_fract_y
 _atom_site_fract_z
 _atom_site_occupancy
  Li  Li0  1  0.190998  0.809002  0.059436  1
  Li  Li1  1  0.190998  0.809002  0.440564  1
  Li  Li2  1  0.808753  0.191247  0.940082  1
  Li  Li3  1  0.808753  0.191247  0.559918  1
  Pr  Pr4  1  0.554527  0.445473  0.250000  1
  Pr  Pr5  1  0.445798  0.554202  0.750000  1
  Ho  Ho6  1  0.344750  0.655250  0.250000  1
  Tm  Tm7  1  0.655118  0.344882  0.750000  1
  Si  Si8  1  0.724091  0.275909  0.250000  1
  Si  Si9  1  0.275447  0.724553  0.750000  1
  Si  Si10  1  0.059764  0.940236  0.924035  1
  Si  Si11  1  0.940619  0.059381  0.075701  1
  Si  Si12  1  0.940619  0.059381  0.424299  1
  Si  Si13  1  0.059764  0.940236  0.575965  1
