# generated using pymatgen
data_Tb8Er4Co3Si8Ni
_symmetry_space_group_name_H-M   'P 1'
_cell_length_a   4.10287700
_cell_length_b   11.09581398
_cell_length_c   11.36677441
_cell_angle_alpha   90.01118745
_cell_angle_beta   90.00000000
_cell_angle_gamma   90.00000000
_symmetry_Int_Tables_number   1
_chemical_formula_structural   Tb8Er4Co3Si8Ni
_chemical_formula_sum   'Tb8 Er4 Co3 Si8 Ni1'
_cell_volume   517.46966688
_cell_formula_units_Z   1
loop_
 _symmetry_equiv_pos_site_id
 _symmetry_equiv_pos_as_xyz
  1  'x, y, z'
loop_
 _atom_site_type_symbol
 _atom_site_label
 _atom_site_symmetry_multiplicity
 _atom_site_fract_x
 _atom_site_fract_y
 _atom_site_fract_z
 _atom_site_occupancy
  Tb  Tb0  1  0.250000  0.126594  0.555409  1
  Tb  Tb1  1  0.250000  0.371581  0.056255  1
  Tb  Tb2  1  0.750000  0.872044  0.443080  1
  Tb  Tb3  1  0.750000  0.625064  0.944603  1
  Tb  Tb4  1  0.250000  0.803068  0.717001  1
  Tb  Tb5  1  0.250000  0.699537  0.220174  1
  Tb  Tb6  1  0.750000  0.200342  0.279566  1
  Tb  Tb7  1  0.750000  0.299607  0.780250  1
  Er  Er8  1  0.250000  0.059463  0.881604  1
  Er  Er9  1  0.250000  0.441988  0.382692  1
  Er  Er10  1  0.750000  0.942734  0.118572  1
  Er  Er11  1  0.750000  0.557360  0.619037  1
  Co  Co12  1  0.250000  0.367334  0.628708  1
  Co  Co13  1  0.250000  0.131882  0.127872  1
  Co  Co14  1  0.750000  0.630726  0.372111  1
  Si  Si15  1  0.250000  0.816964  0.976797  1
  Si  Si16  1  0.250000  0.682182  0.477594  1
  Si  Si17  1  0.750000  0.181419  0.022227  1
  Si  Si18  1  0.750000  0.317934  0.523202  1
  Si  Si19  1  0.250000  0.497042  0.800647  1
  Si  Si20  1  0.250000  0.002864  0.299968  1
  Si  Si21  1  0.750000  0.502460  0.199569  1
  Si  Si22  1  0.750000  0.998798  0.698394  1
  Ni  Ni23  1  0.750000  0.871010  0.874669  1
