# generated using pymatgen
data_Np12Rh4Se31
_symmetry_space_group_name_H-M   'P 1'
_cell_length_a   11.86009150
_cell_length_b   11.86009138
_cell_length_c   11.86009200
_cell_angle_alpha   109.52942054
_cell_angle_beta   109.52942032
_cell_angle_gamma   109.35488436
_symmetry_Int_Tables_number   1
_chemical_formula_structural   Np12Rh4Se31
_chemical_formula_sum   'Np12 Rh4 Se31'
_cell_volume   1284.22433569
_cell_formula_units_Z   1
loop_
 _symmetry_equiv_pos_site_id
 _symmetry_equiv_pos_as_xyz
  1  'x, y, z'
loop_
 _atom_site_type_symbol
 _atom_site_label
 _atom_site_symmetry_multiplicity
 _atom_site_fract_x
 _atom_site_fract_y
 _atom_site_fract_z
 _atom_site_occupancy
  Np  Np0  1  0.705259  0.001467  0.296207  1
  Np  Np1  1  0.294741  0.590947  0.296207  1
  Np  Np2  1  0.699612  0.699612  0.399225  1
  Np  Np3  1  0.409053  0.705259  0.703793  1
  Np  Np4  1  0.001467  0.705259  0.296207  1
  Np  Np5  1  0.300388  0.699612  0.000000  1
  Np  Np6  1  0.590947  0.294741  0.296207  1
  Np  Np7  1  0.300388  0.300388  0.600775  1
  Np  Np8  1  0.705259  0.409053  0.703793  1
  Np  Np9  1  0.998533  0.294741  0.703793  1
  Np  Np10  1  0.699612  0.300388  0.000000  1
  Np  Np11  1  0.294741  0.998533  0.703793  1
  Rh  Rh12  1  0.000000  0.000000  0.500000  1
  Rh  Rh13  1  0.500000  0.000000  0.000000  1
  Rh  Rh14  1  0.500000  0.500000  0.500000  1
  Rh  Rh15  1  0.000000  0.500000  0.000000  1
  Se  Se16  1  0.437512  0.999576  0.182196  1
  Se  Se17  1  0.182620  0.000424  0.437936  1
  Se  Se18  1  0.182620  0.744685  0.182196  1
  Se  Se19  1  0.817380  0.999576  0.562064  1
  Se  Se20  1  0.500000  0.763204  0.263204  1
  Se  Se21  1  0.250000  0.750000  0.500000  1
  Se  Se22  1  0.811531  0.811531  0.251836  1
  Se  Se23  1  0.255315  0.817380  0.817804  1
  Se  Se24  1  0.562488  0.744685  0.562064  1
  Se  Se25  1  0.999576  0.817380  0.562064  1
  Se  Se26  1  0.559695  0.811531  0.000000  1
  Se  Se27  1  0.000424  0.562488  0.817804  1
  Se  Se28  1  0.440305  0.440305  0.251836  1
  Se  Se29  1  0.255315  0.437512  0.437936  1
  Se  Se30  1  0.763204  0.500000  0.263204  1
  Se  Se31  1  0.236796  0.500000  0.736796  1
  Se  Se32  1  0.744685  0.562488  0.562064  1
  Se  Se33  1  0.559695  0.559695  0.748164  1
  Se  Se34  1  0.999576  0.437512  0.182196  1
  Se  Se35  1  0.188469  0.440305  0.000000  1
  Se  Se36  1  0.500000  0.500000  0.000000  1
  Se  Se37  1  0.437512  0.255315  0.437936  1
  Se  Se38  1  0.811531  0.559695  0.000000  1
  Se  Se39  1  0.744685  0.182620  0.182196  1
  Se  Se40  1  0.188469  0.188469  0.748164  1
  Se  Se41  1  0.750000  0.250000  0.500000  1
  Se  Se42  1  0.500000  0.236796  0.736796  1
  Se  Se43  1  0.817380  0.255315  0.817804  1
  Se  Se44  1  0.000424  0.182620  0.437936  1
  Se  Se45  1  0.440305  0.188469  0.000000  1
  Se  Se46  1  0.562488  0.000424  0.817804  1
