# generated using pymatgen
data_GdHo3Ru4F28
_symmetry_space_group_name_H-M   'P 1'
_cell_length_a   5.57089222
_cell_length_b   8.93615749
_cell_length_c   11.98042200
_cell_angle_alpha   63.41937871
_cell_angle_beta   89.92943564
_cell_angle_gamma   90.13833503
_symmetry_Int_Tables_number   1
_chemical_formula_structural   GdHo3Ru4F28
_chemical_formula_sum   'Gd1 Ho3 Ru4 F28'
_cell_volume   533.37288479
_cell_formula_units_Z   1
loop_
 _symmetry_equiv_pos_site_id
 _symmetry_equiv_pos_as_xyz
  1  'x, y, z'
loop_
 _atom_site_type_symbol
 _atom_site_label
 _atom_site_symmetry_multiplicity
 _atom_site_fract_x
 _atom_site_fract_y
 _atom_site_fract_z
 _atom_site_occupancy
  Gd  Gd0  1  0.741792  0.812058  0.269165  1
  Ho  Ho1  1  0.757192  0.811426  0.769518  1
  Ho  Ho2  1  0.258260  0.189413  0.730286  1
  Ho  Ho3  1  0.241933  0.193918  0.229086  1
  Ru  Ru4  1  0.755641  0.274325  0.953749  1
  Ru  Ru5  1  0.253713  0.726390  0.547879  1
  Ru  Ru6  1  0.246366  0.726968  0.042578  1
  Ru  Ru7  1  0.745942  0.270641  0.455860  1
  F  F8  1  0.450735  0.703936  0.917432  1
  F  F9  1  0.953458  0.294153  0.579962  1
  F  F10  1  0.547416  0.295986  0.078498  1
  F  F11  1  0.050159  0.704085  0.422373  1
  F  F12  1  0.455673  0.281785  0.547878  1
  F  F13  1  0.953293  0.716982  0.952210  1
  F  F14  1  0.543608  0.715128  0.456990  1
  F  F15  1  0.044632  0.284990  0.046158  1
  F  F16  1  0.765569  0.512488  0.858177  1
  F  F17  1  0.263971  0.487510  0.643134  1
  F  F18  1  0.235372  0.487816  0.139148  1
  F  F19  1  0.733481  0.508502  0.360027  1
  F  F20  1  0.756205  0.037162  0.046725  1
  F  F21  1  0.254195  0.962753  0.454736  1
  F  F22  1  0.245661  0.964293  0.950553  1
  F  F23  1  0.745802  0.033678  0.548595  1
  F  F24  1  0.969223  0.731807  0.644050  1
  F  F25  1  0.473857  0.266909  0.856949  1
  F  F26  1  0.030153  0.267913  0.358468  1
  F  F27  1  0.532129  0.730966  0.137222  1
  F  F28  1  0.048272  0.748233  0.171282  1
  F  F29  1  0.541286  0.247714  0.329024  1
  F  F30  1  0.961090  0.250269  0.827939  1
  F  F31  1  0.456997  0.749861  0.674357  1
  F  F32  1  0.419525  0.977339  0.233337  1
  F  F33  1  0.927364  0.031855  0.266915  1
  F  F34  1  0.570105  0.024909  0.765605  1
  F  F35  1  0.069933  0.975841  0.734137  1
