# generated using pymatgen
data_Yb4SnN4
_symmetry_space_group_name_H-M   'P 1'
_cell_length_a   6.06756709
_cell_length_b   6.06971944
_cell_length_c   9.12210676
_cell_angle_alpha   71.02009777
_cell_angle_beta   79.64744323
_cell_angle_gamma   68.11721462
_symmetry_Int_Tables_number   1
_chemical_formula_structural   Yb4SnN4
_chemical_formula_sum   'Yb8 Sn2 N8'
_cell_volume   294.14252878
_cell_formula_units_Z   2
loop_
 _symmetry_equiv_pos_site_id
 _symmetry_equiv_pos_as_xyz
  1  'x, y, z'
loop_
 _atom_site_type_symbol
 _atom_site_label
 _atom_site_symmetry_multiplicity
 _atom_site_fract_x
 _atom_site_fract_y
 _atom_site_fract_z
 _atom_site_occupancy
  Yb  Yb0  1  0.751902  0.594097  0.192693  1
  Yb  Yb1  1  0.248098  0.405903  0.807307  1
  Yb  Yb2  1  0.749042  0.245683  0.986114  1
  Yb  Yb3  1  0.250958  0.754317  0.013886  1
  Yb  Yb4  1  0.733417  0.484269  0.572851  1
  Yb  Yb5  1  0.266583  0.515731  0.427149  1
  Yb  Yb6  1  0.242561  0.949303  0.595706  1
  Yb  Yb7  1  0.757439  0.050697  0.404294  1
  Sn  Sn8  1  0.709936  0.850808  0.762762  1
  Sn  Sn9  1  0.290064  0.149192  0.237238  1
  N  N10  1  0.986925  0.698776  0.606396  1
  N  N11  1  0.013075  0.301224  0.393604  1
  N  N12  1  0.865165  0.847524  0.947880  1
  N  N13  1  0.134835  0.152476  0.052120  1
  N  N14  1  0.498813  0.619394  0.802791  1
  N  N15  1  0.501187  0.380606  0.197209  1
  N  N16  1  0.504436  0.807424  0.381893  1
  N  N17  1  0.495564  0.192576  0.618107  1
