# generated using pymatgen
data_CeLuZnRu2
_symmetry_space_group_name_H-M   'P 1'
_cell_length_a   5.52454313
_cell_length_b   5.52454260
_cell_length_c   7.16763516
_cell_angle_alpha   85.77127772
_cell_angle_beta   94.22871900
_cell_angle_gamma   115.84809757
_symmetry_Int_Tables_number   1
_chemical_formula_structural   CeLuZnRu2
_chemical_formula_sum   'Ce2 Lu2 Zn2 Ru4'
_cell_volume   196.12717094
_cell_formula_units_Z   2
loop_
 _symmetry_equiv_pos_site_id
 _symmetry_equiv_pos_as_xyz
  1  'x, y, z'
loop_
 _atom_site_type_symbol
 _atom_site_label
 _atom_site_symmetry_multiplicity
 _atom_site_fract_x
 _atom_site_fract_y
 _atom_site_fract_z
 _atom_site_occupancy
  Ce  Ce0  1  0.173661  0.826339  0.599660  1
  Ce  Ce1  1  0.826339  0.173661  0.400340  1
  Lu  Lu2  1  0.347121  0.652879  0.091179  1
  Lu  Lu3  1  0.652879  0.347121  0.908821  1
  Zn  Zn4  1  0.000000  0.000000  0.000000  1
  Zn  Zn5  1  0.500000  0.500000  0.500000  1
  Ru  Ru6  1  0.867587  0.629774  0.260155  1
  Ru  Ru7  1  0.629774  0.867587  0.739845  1
  Ru  Ru8  1  0.132413  0.370226  0.739845  1
  Ru  Ru9  1  0.370226  0.132413  0.260155  1
