# generated using pymatgen
data_Na5ZrAs3
_symmetry_space_group_name_H-M   'P 1'
_cell_length_a   7.57731800
_cell_length_b   8.55485633
_cell_length_c   16.34043311
_cell_angle_alpha   58.93130029
_cell_angle_beta   90.00000000
_cell_angle_gamma   90.00000000
_symmetry_Int_Tables_number   1
_chemical_formula_structural   Na5ZrAs3
_chemical_formula_sum   'Na20 Zr4 As12'
_cell_volume   907.28572761
_cell_formula_units_Z   4
loop_
 _symmetry_equiv_pos_site_id
 _symmetry_equiv_pos_as_xyz
  1  'x, y, z'
loop_
 _atom_site_type_symbol
 _atom_site_label
 _atom_site_symmetry_multiplicity
 _atom_site_fract_x
 _atom_site_fract_y
 _atom_site_fract_z
 _atom_site_occupancy
  Na  Na0  1  0.491709  0.917169  0.262309  1
  Na  Na1  1  0.991709  0.082831  0.237691  1
  Na  Na2  1  0.508291  0.082831  0.737691  1
  Na  Na3  1  0.008291  0.917169  0.762309  1
  Na  Na4  1  0.011582  0.261016  0.407158  1
  Na  Na5  1  0.511582  0.738984  0.092842  1
  Na  Na6  1  0.988418  0.738984  0.592842  1
  Na  Na7  1  0.488418  0.261016  0.907158  1
  Na  Na8  1  0.471932  0.595908  0.584834  1
  Na  Na9  1  0.971932  0.404092  0.915166  1
  Na  Na10  1  0.528068  0.404092  0.415166  1
  Na  Na11  1  0.028068  0.595908  0.084834  1
  Na  Na12  1  0.844756  0.679592  0.242844  1
  Na  Na13  1  0.344756  0.320408  0.257156  1
  Na  Na14  1  0.155244  0.320408  0.757156  1
  Na  Na15  1  0.655244  0.679592  0.742844  1
  Na  Na16  1  0.664029  0.002288  0.419132  1
  Na  Na17  1  0.164029  0.997712  0.080868  1
  Na  Na18  1  0.335971  0.997712  0.580868  1
  Na  Na19  1  0.835971  0.002288  0.919132  1
  Zr  Zr20  1  0.143822  0.661853  0.413205  1
  Zr  Zr21  1  0.643822  0.338147  0.086795  1
  Zr  Zr22  1  0.856178  0.338147  0.586795  1
  Zr  Zr23  1  0.356178  0.661853  0.913205  1
  As  As24  1  0.792227  0.658225  0.430125  1
  As  As25  1  0.292227  0.341775  0.069875  1
  As  As26  1  0.207773  0.341775  0.569875  1
  As  As27  1  0.707773  0.658225  0.930125  1
  As  As28  1  0.257969  0.946138  0.416986  1
  As  As29  1  0.757969  0.053862  0.083014  1
  As  As30  1  0.742031  0.053862  0.583014  1
  As  As31  1  0.242031  0.946138  0.916986  1
  As  As32  1  0.238513  0.646590  0.264023  1
  As  As33  1  0.738513  0.353410  0.235977  1
  As  As34  1  0.761487  0.353410  0.735977  1
  As  As35  1  0.261487  0.646590  0.764023  1
