# generated using pymatgen
data_GaCu6Te8W
_symmetry_space_group_name_H-M   'P 1'
_cell_length_a   8.40667700
_cell_length_b   8.40667825
_cell_length_c   13.95147100
_cell_angle_alpha   90.00000000
_cell_angle_beta   90.00000000
_cell_angle_gamma   119.99999901
_symmetry_Int_Tables_number   1
_chemical_formula_structural   GaCu6Te8W
_chemical_formula_sum   'Ga2 Cu12 Te16 W2'
_cell_volume   853.88507785
_cell_formula_units_Z   2
loop_
 _symmetry_equiv_pos_site_id
 _symmetry_equiv_pos_as_xyz
  1  'x, y, z'
loop_
 _atom_site_type_symbol
 _atom_site_label
 _atom_site_symmetry_multiplicity
 _atom_site_fract_x
 _atom_site_fract_y
 _atom_site_fract_z
 _atom_site_occupancy
  Ga  Ga0  1  0.000000  0.000000  0.853752  1
  Ga  Ga1  1  0.000000  0.000000  0.353752  1
  Cu  Cu2  1  0.831663  0.663327  0.101808  1
  Cu  Cu3  1  0.497757  0.502243  0.358149  1
  Cu  Cu4  1  0.995513  0.497757  0.858149  1
  Cu  Cu5  1  0.831663  0.168337  0.101808  1
  Cu  Cu6  1  0.502243  0.497757  0.858149  1
  Cu  Cu7  1  0.168337  0.336673  0.601808  1
  Cu  Cu8  1  0.497757  0.995513  0.358149  1
  Cu  Cu9  1  0.004487  0.502243  0.358149  1
  Cu  Cu10  1  0.168337  0.831663  0.601808  1
  Cu  Cu11  1  0.502243  0.004487  0.858149  1
  Cu  Cu12  1  0.663327  0.831663  0.601808  1
  Cu  Cu13  1  0.336673  0.168337  0.101808  1
  Te  Te14  1  0.000000  0.000000  0.043265  1
  Te  Te15  1  0.344174  0.172088  0.287929  1
  Te  Te16  1  0.827912  0.172088  0.287929  1
  Te  Te17  1  0.995227  0.497614  0.541792  1
  Te  Te18  1  0.827912  0.655826  0.287929  1
  Te  Te19  1  0.666667  0.333333  0.791373  1
  Te  Te20  1  0.172088  0.344174  0.787929  1
  Te  Te21  1  0.502386  0.497614  0.541792  1
  Te  Te22  1  0.000000  0.000000  0.543265  1
  Te  Te23  1  0.333333  0.666667  0.291373  1
  Te  Te24  1  0.004773  0.502386  0.041792  1
  Te  Te25  1  0.502386  0.004773  0.541792  1
  Te  Te26  1  0.172088  0.827912  0.787929  1
  Te  Te27  1  0.655826  0.827912  0.787929  1
  Te  Te28  1  0.497614  0.995227  0.041792  1
  Te  Te29  1  0.497614  0.502386  0.041792  1
  W  W30  1  0.333333  0.666667  0.478581  1
  W  W31  1  0.666667  0.333333  0.978581  1
