# generated using pymatgen
data_Ag3AuF10
_symmetry_space_group_name_H-M   'P 1'
_cell_length_a   5.38278358
_cell_length_b   7.74026073
_cell_length_c   11.64122134
_cell_angle_alpha   88.39781228
_cell_angle_beta   90.20668164
_cell_angle_gamma   70.00702161
_symmetry_Int_Tables_number   1
_chemical_formula_structural   Ag3AuF10
_chemical_formula_sum   'Ag6 Au2 F20'
_cell_volume   455.56856744
_cell_formula_units_Z   2
loop_
 _symmetry_equiv_pos_site_id
 _symmetry_equiv_pos_as_xyz
  1  'x, y, z'
loop_
 _atom_site_type_symbol
 _atom_site_label
 _atom_site_symmetry_multiplicity
 _atom_site_fract_x
 _atom_site_fract_y
 _atom_site_fract_z
 _atom_site_occupancy
  Ag  Ag0  1  0.500000  0.500000  0.000000  1
  Ag  Ag1  1  0.500000  0.000000  0.500000  1
  Ag  Ag2  1  0.035821  0.290325  0.753021  1
  Ag  Ag3  1  0.964179  0.709675  0.246979  1
  Ag  Ag4  1  0.021567  0.793121  0.749798  1
  Ag  Ag5  1  0.978433  0.206879  0.250202  1
  Au  Au6  1  0.500000  0.000000  0.000000  1
  Au  Au7  1  0.500000  0.500000  0.500000  1
  F  F8  1  0.511611  0.301260  0.395974  1
  F  F9  1  0.488389  0.698740  0.604026  1
  F  F10  1  0.644229  0.760687  0.084093  1
  F  F11  1  0.355771  0.239313  0.915907  1
  F  F12  1  0.438236  0.133027  0.143745  1
  F  F13  1  0.561764  0.866973  0.856255  1
  F  F14  1  0.965393  0.047445  0.811061  1
  F  F15  1  0.034607  0.952555  0.188939  1
  F  F16  1  0.684251  0.856501  0.359988  1
  F  F17  1  0.315749  0.143499  0.640012  1
  F  F18  1  0.730720  0.309891  0.604126  1
  F  F19  1  0.269280  0.690109  0.395874  1
  F  F20  1  0.825585  0.322298  0.095026  1
  F  F21  1  0.174415  0.677702  0.904974  1
  F  F22  1  0.748175  0.443822  0.861151  1
  F  F23  1  0.251825  0.556178  0.138849  1
  F  F24  1  0.094126  0.535233  0.691032  1
  F  F25  1  0.905874  0.464767  0.308968  1
  F  F26  1  0.863773  0.906546  0.594880  1
  F  F27  1  0.136227  0.093454  0.405120  1
