# generated using pymatgen
data_Er16In4Pd3Rh
_symmetry_space_group_name_H-M   'P 1'
_cell_length_a   9.63288162
_cell_length_b   9.63288186
_cell_length_c   9.63288156
_cell_angle_alpha   59.77612001
_cell_angle_beta   59.77611798
_cell_angle_gamma   59.77612527
_symmetry_Int_Tables_number   1
_chemical_formula_structural   Er16In4Pd3Rh
_chemical_formula_sum   'Er16 In4 Pd3 Rh1'
_cell_volume   628.84054243
_cell_formula_units_Z   1
loop_
 _symmetry_equiv_pos_site_id
 _symmetry_equiv_pos_as_xyz
  1  'x, y, z'
loop_
 _atom_site_type_symbol
 _atom_site_label
 _atom_site_symmetry_multiplicity
 _atom_site_fract_x
 _atom_site_fract_y
 _atom_site_fract_z
 _atom_site_occupancy
  Er  Er0  1  0.190271  0.190271  0.809547  1
  Er  Er1  1  0.439498  0.062764  0.062764  1
  Er  Er2  1  0.435823  0.065685  0.435823  1
  Er  Er3  1  0.062764  0.439498  0.062764  1
  Er  Er4  1  0.649859  0.055927  0.649859  1
  Er  Er5  1  0.184710  0.810968  0.810968  1
  Er  Er6  1  0.062764  0.062764  0.439498  1
  Er  Er7  1  0.809547  0.190271  0.190271  1
  Er  Er8  1  0.810968  0.810968  0.184710  1
  Er  Er9  1  0.649859  0.649859  0.055927  1
  Er  Er10  1  0.647493  0.647493  0.647493  1
  Er  Er11  1  0.065685  0.435823  0.435823  1
  Er  Er12  1  0.055927  0.649859  0.649859  1
  Er  Er13  1  0.810968  0.184710  0.810968  1
  Er  Er14  1  0.435823  0.435823  0.065685  1
  Er  Er15  1  0.190271  0.809547  0.190271  1
  In  In16  1  0.416404  0.750202  0.416404  1
  In  In17  1  0.416404  0.416404  0.750202  1
  In  In18  1  0.750202  0.416404  0.416404  1
  In  In19  1  0.415676  0.415676  0.415676  1
  Pd  Pd20  1  0.856028  0.430583  0.856028  1
  Pd  Pd21  1  0.856028  0.856028  0.430583  1
  Pd  Pd22  1  0.430583  0.856028  0.856028  1
  Rh  Rh23  1  0.856447  0.856447  0.856447  1
