# generated using pymatgen
data_Hf4AlAsRh10
_symmetry_space_group_name_H-M   'P 1'
_cell_length_a   4.08971500
_cell_length_b   5.56826409
_cell_length_c   10.91266313
_cell_angle_alpha   90.01897913
_cell_angle_beta   90.00000000
_cell_angle_gamma   90.00000000
_symmetry_Int_Tables_number   1
_chemical_formula_structural   Hf4AlAsRh10
_chemical_formula_sum   'Hf4 Al1 As1 Rh10'
_cell_volume   248.50984237
_cell_formula_units_Z   1
loop_
 _symmetry_equiv_pos_site_id
 _symmetry_equiv_pos_as_xyz
  1  'x, y, z'
loop_
 _atom_site_type_symbol
 _atom_site_label
 _atom_site_symmetry_multiplicity
 _atom_site_fract_x
 _atom_site_fract_y
 _atom_site_fract_z
 _atom_site_occupancy
  Hf  Hf0  1  0.500000  0.320965  0.361731  1
  Hf  Hf1  1  0.500000  0.679035  0.638269  1
  Hf  Hf2  1  0.500000  0.172656  0.856121  1
  Hf  Hf3  1  0.500000  0.827344  0.143879  1
  Al  Al4  1  0.000000  0.000000  0.500000  1
  As  As5  1  0.000000  0.500000  0.000000  1
  Rh  Rh6  1  0.500000  0.315516  0.105282  1
  Rh  Rh7  1  0.500000  0.684484  0.894718  1
  Rh  Rh8  1  0.500000  0.814288  0.392863  1
  Rh  Rh9  1  0.500000  0.185712  0.607137  1
  Rh  Rh10  1  0.000000  0.929133  0.744298  1
  Rh  Rh11  1  0.000000  0.070867  0.255702  1
  Rh  Rh12  1  0.000000  0.429859  0.756482  1
  Rh  Rh13  1  0.000000  0.570141  0.243518  1
  Rh  Rh14  1  0.000000  0.500000  0.500000  1
  Rh  Rh15  1  0.000000  0.000000  0.000000  1
