# generated using pymatgen
data_CaMn5P3
_symmetry_space_group_name_H-M   'P 1'
_cell_length_a   3.59152100
_cell_length_b   10.79316000
_cell_length_c   12.30347000
_cell_angle_alpha   90.00000000
_cell_angle_beta   90.00000000
_cell_angle_gamma   90.00000000
_symmetry_Int_Tables_number   1
_chemical_formula_structural   CaMn5P3
_chemical_formula_sum   'Ca4 Mn20 P12'
_cell_volume   476.92999839
_cell_formula_units_Z   4
loop_
 _symmetry_equiv_pos_site_id
 _symmetry_equiv_pos_as_xyz
  1  'x, y, z'
loop_
 _atom_site_type_symbol
 _atom_site_label
 _atom_site_symmetry_multiplicity
 _atom_site_fract_x
 _atom_site_fract_y
 _atom_site_fract_z
 _atom_site_occupancy
  Ca  Ca0  1  0.250000  0.587938  0.707229  1
  Ca  Ca1  1  0.750000  0.412062  0.292771  1
  Ca  Ca2  1  0.750000  0.087938  0.792771  1
  Ca  Ca3  1  0.250000  0.912062  0.207229  1
  Mn  Mn4  1  0.250000  0.407478  0.493832  1
  Mn  Mn5  1  0.750000  0.711732  0.322009  1
  Mn  Mn6  1  0.750000  0.788268  0.822009  1
  Mn  Mn7  1  0.250000  0.288268  0.677991  1
  Mn  Mn8  1  0.250000  0.617251  0.193335  1
  Mn  Mn9  1  0.750000  0.382749  0.806665  1
  Mn  Mn10  1  0.750000  0.117251  0.306665  1
  Mn  Mn11  1  0.250000  0.882749  0.693335  1
  Mn  Mn12  1  0.250000  0.034150  0.434587  1
  Mn  Mn13  1  0.750000  0.965850  0.565413  1
  Mn  Mn14  1  0.750000  0.534150  0.065413  1
  Mn  Mn15  1  0.250000  0.465850  0.934587  1
  Mn  Mn16  1  0.750000  0.907478  0.006168  1
  Mn  Mn17  1  0.250000  0.092522  0.993832  1
  Mn  Mn18  1  0.250000  0.717466  0.984258  1
  Mn  Mn19  1  0.750000  0.282534  0.015742  1
  Mn  Mn20  1  0.750000  0.217466  0.515742  1
  Mn  Mn21  1  0.250000  0.782534  0.484258  1
  Mn  Mn22  1  0.250000  0.211732  0.177991  1
  Mn  Mn23  1  0.750000  0.592522  0.506168  1
  P  P24  1  0.250000  0.589600  0.383656  1
  P  P25  1  0.750000  0.410400  0.616344  1
  P  P26  1  0.750000  0.089600  0.116344  1
  P  P27  1  0.250000  0.910400  0.883656  1
  P  P28  1  0.750000  0.765412  0.627344  1
  P  P29  1  0.250000  0.234588  0.372656  1
  P  P30  1  0.250000  0.411510  0.114618  1
  P  P31  1  0.750000  0.588490  0.885382  1
  P  P32  1  0.750000  0.911510  0.385382  1
  P  P33  1  0.250000  0.088490  0.614618  1
  P  P34  1  0.250000  0.265412  0.872656  1
  P  P35  1  0.750000  0.734588  0.127344  1
