# generated using pymatgen
data_Li2Sc3AgPb3
_symmetry_space_group_name_H-M   'P 1'
_cell_length_a   7.12966900
_cell_length_b   7.11171590
_cell_length_c   4.49363600
_cell_angle_alpha   90.00000000
_cell_angle_beta   90.00000000
_cell_angle_gamma   120.08354766
_symmetry_Int_Tables_number   1
_chemical_formula_structural   Li2Sc3AgPb3
_chemical_formula_sum   'Li2 Sc3 Ag1 Pb3'
_cell_volume   197.15420675
_cell_formula_units_Z   1
loop_
 _symmetry_equiv_pos_site_id
 _symmetry_equiv_pos_as_xyz
  1  'x, y, z'
loop_
 _atom_site_type_symbol
 _atom_site_label
 _atom_site_symmetry_multiplicity
 _atom_site_fract_x
 _atom_site_fract_y
 _atom_site_fract_z
 _atom_site_occupancy
  Li  Li0  1  0.771450  0.767698  0.000000  1
  Li  Li1  1  0.003753  0.232302  0.000000  1
  Sc  Sc2  1  0.547646  0.000000  0.500000  1
  Sc  Sc3  1  0.436418  0.431991  0.500000  1
  Sc  Sc4  1  0.004426  0.568009  0.500000  1
  Ag  Ag5  1  0.236225  0.000000  0.000000  1
  Pb  Pb6  1  0.982218  0.000000  0.500000  1
  Pb  Pb7  1  0.337224  0.656583  0.000000  1
  Pb  Pb8  1  0.680641  0.343417  0.000000  1
