# generated using pymatgen
data_Sr6InGa(Sn2Au3)2
_symmetry_space_group_name_H-M   'P 1'
_cell_length_a   4.86464300
_cell_length_b   8.39853526
_cell_length_c   23.63504271
_cell_angle_alpha   90.02821798
_cell_angle_beta   90.00000000
_cell_angle_gamma   90.00000000
_symmetry_Int_Tables_number   1
_chemical_formula_structural   Sr6InGa(Sn2Au3)2
_chemical_formula_sum   'Sr12 In2 Ga2 Sn8 Au12'
_cell_volume   965.63025115
_cell_formula_units_Z   2
loop_
 _symmetry_equiv_pos_site_id
 _symmetry_equiv_pos_as_xyz
  1  'x, y, z'
loop_
 _atom_site_type_symbol
 _atom_site_label
 _atom_site_symmetry_multiplicity
 _atom_site_fract_x
 _atom_site_fract_y
 _atom_site_fract_z
 _atom_site_occupancy
  Sr  Sr0  1  0.750000  0.209849  0.498637  1
  Sr  Sr1  1  0.250000  0.796469  0.164919  1
  Sr  Sr2  1  0.250000  0.793055  0.502472  1
  Sr  Sr3  1  0.250000  0.785592  0.835767  1
  Sr  Sr4  1  0.250000  0.710532  0.334721  1
  Sr  Sr5  1  0.750000  0.216074  0.837050  1
  Sr  Sr6  1  0.750000  0.285823  0.998996  1
  Sr  Sr7  1  0.750000  0.289293  0.665919  1
  Sr  Sr8  1  0.750000  0.290132  0.334810  1
  Sr  Sr9  1  0.250000  0.708176  0.666773  1
  Sr  Sr10  1  0.250000  0.707633  0.001804  1
  Sr  Sr11  1  0.750000  0.208857  0.164326  1
  In  In12  1  0.250000  0.421387  0.563391  1
  In  In13  1  0.250000  0.080469  0.399251  1
  Ga  Ga14  1  0.250000  0.075737  0.064390  1
  Ga  Ga15  1  0.250000  0.421520  0.898747  1
  Sn  Sn16  1  0.750000  0.583067  0.102053  1
  Sn  Sn17  1  0.250000  0.416952  0.770683  1
  Sn  Sn18  1  0.750000  0.582459  0.230715  1
  Sn  Sn19  1  0.750000  0.582611  0.436345  1
  Sn  Sn20  1  0.750000  0.917301  0.936353  1
  Sn  Sn21  1  0.250000  0.083212  0.268296  1
  Sn  Sn22  1  0.750000  0.916157  0.602314  1
  Sn  Sn23  1  0.750000  0.918216  0.731318  1
  Au  Au24  1  0.250000  0.088739  0.591538  1
  Au  Au25  1  0.250000  0.086162  0.740548  1
  Au  Au26  1  0.750000  0.572390  0.907207  1
  Au  Au27  1  0.750000  0.913091  0.408296  1
  Au  Au28  1  0.750000  0.582528  0.566471  1
  Au  Au29  1  0.750000  0.584986  0.760605  1
  Au  Au30  1  0.250000  0.414860  0.429994  1
  Au  Au31  1  0.250000  0.414408  0.240107  1
  Au  Au32  1  0.750000  0.934083  0.065608  1
  Au  Au33  1  0.250000  0.397158  0.090184  1
  Au  Au34  1  0.250000  0.096128  0.929301  1
  Au  Au35  1  0.750000  0.914893  0.260090  1
