# generated using pymatgen
data_Pa2SnBiSb2
_symmetry_space_group_name_H-M   'P 1'
_cell_length_a   4.37130500
_cell_length_b   4.37130500
_cell_length_c   8.81348200
_cell_angle_alpha   90.00000000
_cell_angle_beta   90.00000000
_cell_angle_gamma   90.00000000
_symmetry_Int_Tables_number   1
_chemical_formula_structural   Pa2SnBiSb2
_chemical_formula_sum   'Pa2 Sn1 Bi1 Sb2'
_cell_volume   168.41072335
_cell_formula_units_Z   1
loop_
 _symmetry_equiv_pos_site_id
 _symmetry_equiv_pos_as_xyz
  1  'x, y, z'
loop_
 _atom_site_type_symbol
 _atom_site_label
 _atom_site_symmetry_multiplicity
 _atom_site_fract_x
 _atom_site_fract_y
 _atom_site_fract_z
 _atom_site_occupancy
  Pa  Pa0  1  0.000000  0.500000  0.713255  1
  Pa  Pa1  1  0.500000  0.000000  0.286745  1
  Sn  Sn2  1  0.000000  0.000000  0.000000  1
  Bi  Bi3  1  0.500000  0.500000  0.000000  1
  Sb  Sb4  1  0.000000  0.500000  0.357240  1
  Sb  Sb5  1  0.500000  0.000000  0.642760  1
