# generated using pymatgen
data_Ho10In8NiPd2Ru
_symmetry_space_group_name_H-M   'P 1'
_cell_length_a   3.61449200
_cell_length_b   8.05989050
_cell_length_c   18.17715112
_cell_angle_alpha   90.12182336
_cell_angle_beta   90.00000000
_cell_angle_gamma   90.00000000
_symmetry_Int_Tables_number   1
_chemical_formula_structural   Ho10In8NiPd2Ru
_chemical_formula_sum   'Ho10 In8 Ni1 Pd2 Ru1'
_cell_volume   529.54301758
_cell_formula_units_Z   1
loop_
 _symmetry_equiv_pos_site_id
 _symmetry_equiv_pos_as_xyz
  1  'x, y, z'
loop_
 _atom_site_type_symbol
 _atom_site_label
 _atom_site_symmetry_multiplicity
 _atom_site_fract_x
 _atom_site_fract_y
 _atom_site_fract_z
 _atom_site_occupancy
  Ho  Ho0  1  0.000000  0.500272  0.500567  1
  Ho  Ho1  1  0.000000  0.000358  0.999855  1
  Ho  Ho2  1  0.000000  0.727154  0.277340  1
  Ho  Ho3  1  0.000000  0.267328  0.723242  1
  Ho  Ho4  1  0.000000  0.747075  0.780101  1
  Ho  Ho5  1  0.000000  0.253928  0.220056  1
  Ho  Ho6  1  0.000000  0.615619  0.086405  1
  Ho  Ho7  1  0.000000  0.387120  0.910664  1
  Ho  Ho8  1  0.000000  0.883438  0.585522  1
  Ho  Ho9  1  0.000000  0.118861  0.414971  1
  In  In10  1  0.500000  0.708480  0.930322  1
  In  In11  1  0.500000  0.293187  0.067592  1
  In  In12  1  0.500000  0.791569  0.432809  1
  In  In13  1  0.500000  0.209376  0.568905  1
  In  In14  1  0.500000  0.576865  0.651395  1
  In  In15  1  0.500000  0.426236  0.350321  1
  In  In16  1  0.500000  0.922916  0.149763  1
  In  In17  1  0.500000  0.075632  0.850512  1
  Ni  Ni18  1  0.500000  0.479282  0.804221  1
  Pd  Pd19  1  0.500000  0.977925  0.696665  1
  Pd  Pd20  1  0.500000  0.018575  0.304009  1
  Ru  Ru21  1  0.500000  0.518807  0.194765  1
