# generated using pymatgen
data_Y6Ho(TmSb2)3
_symmetry_space_group_name_H-M   'P 1'
_cell_length_a   6.26914900
_cell_length_b   8.97839169
_cell_length_c   8.97930818
_cell_angle_alpha   119.99243618
_cell_angle_beta   89.99916470
_cell_angle_gamma   89.99919877
_symmetry_Int_Tables_number   1
_chemical_formula_structural   Y6Ho(TmSb2)3
_chemical_formula_sum   'Y6 Ho1 Tm3 Sb6'
_cell_volume   437.73749145
_cell_formula_units_Z   1
loop_
 _symmetry_equiv_pos_site_id
 _symmetry_equiv_pos_as_xyz
  1  'x, y, z'
loop_
 _atom_site_type_symbol
 _atom_site_label
 _atom_site_symmetry_multiplicity
 _atom_site_fract_x
 _atom_site_fract_y
 _atom_site_fract_z
 _atom_site_occupancy
  Y  Y0  1  0.749999  0.247621  0.999953  1
  Y  Y1  1  0.749990  0.752359  0.752404  1
  Y  Y2  1  0.749992  0.000068  0.247642  1
  Y  Y3  1  0.250007  0.752315  0.999956  1
  Y  Y4  1  0.250001  0.247575  0.247639  1
  Y  Y5  1  0.250010  0.000058  0.752411  1
  Ho  Ho6  1  0.999980  0.333335  0.666664  1
  Tm  Tm7  1  0.500004  0.333333  0.666666  1
  Tm  Tm8  1  0.500004  0.666673  0.333340  1
  Tm  Tm9  1  0.999995  0.666663  0.333334  1
  Sb  Sb10  1  0.749202  0.610346  0.000928  1
  Sb  Sb11  1  0.749209  0.390624  0.389679  1
  Sb  Sb12  1  0.749210  0.999080  0.609391  1
  Sb  Sb13  1  0.250797  0.390580  0.000933  1
  Sb  Sb14  1  0.250799  0.610315  0.609393  1
  Sb  Sb15  1  0.250802  0.999054  0.389669  1
