# generated using pymatgen
data_AcLa5(OsBr3)2
_symmetry_space_group_name_H-M   'P 1'
_cell_length_a   4.37688400
_cell_length_b   9.34151550
_cell_length_c   12.29047599
_cell_angle_alpha   87.77463013
_cell_angle_beta   90.00000000
_cell_angle_gamma   90.00000000
_symmetry_Int_Tables_number   1
_chemical_formula_structural   AcLa5(OsBr3)2
_chemical_formula_sum   'Ac1 La5 Os2 Br6'
_cell_volume   502.13838190
_cell_formula_units_Z   1
loop_
 _symmetry_equiv_pos_site_id
 _symmetry_equiv_pos_as_xyz
  1  'x, y, z'
loop_
 _atom_site_type_symbol
 _atom_site_label
 _atom_site_symmetry_multiplicity
 _atom_site_fract_x
 _atom_site_fract_y
 _atom_site_fract_z
 _atom_site_occupancy
  Ac  Ac0  1  0.750000  0.670614  0.120791  1
  La  La1  1  0.250000  0.887240  0.338084  1
  La  La2  1  0.250000  0.320511  0.877956  1
  La  La3  1  0.250000  0.900171  0.890355  1
  La  La4  1  0.750000  0.118154  0.661277  1
  La  La5  1  0.750000  0.102381  0.109034  1
  Os  Os6  1  0.250000  0.891154  0.128486  1
  Os  Os7  1  0.750000  0.114586  0.872101  1
  Br  Br8  1  0.250000  0.387893  0.129048  1
  Br  Br9  1  0.750000  0.118528  0.381914  1
  Br  Br10  1  0.750000  0.598090  0.866574  1
  Br  Br11  1  0.250000  0.348088  0.628883  1
  Br  Br12  1  0.750000  0.655981  0.377187  1
  Br  Br13  1  0.250000  0.886608  0.618314  1
