# generated using pymatgen
data_Bi2PdPbO7
_symmetry_space_group_name_H-M   'P 1'
_cell_length_a   7.62130876
_cell_length_b   7.61402892
_cell_length_c   7.61846000
_cell_angle_alpha   60.01802368
_cell_angle_beta   60.00199987
_cell_angle_gamma   90.02602851
_symmetry_Int_Tables_number   1
_chemical_formula_structural   Bi2PdPbO7
_chemical_formula_sum   'Bi4 Pd2 Pb2 O14'
_cell_volume   312.62882169
_cell_formula_units_Z   2
loop_
 _symmetry_equiv_pos_site_id
 _symmetry_equiv_pos_as_xyz
  1  'x, y, z'
loop_
 _atom_site_type_symbol
 _atom_site_label
 _atom_site_symmetry_multiplicity
 _atom_site_fract_x
 _atom_site_fract_y
 _atom_site_fract_z
 _atom_site_occupancy
  Bi  Bi0  1  0.669185  0.403896  0.727981  1
  Bi  Bi1  1  0.117890  0.352666  0.227968  1
  Bi  Bi2  1  0.586225  0.877312  0.785349  1
  Bi  Bi3  1  0.587078  0.377662  0.285445  1
  Pd  Pd4  1  0.125849  0.876994  0.247908  1
  Pd  Pd5  1  0.125405  0.376654  0.747904  1
  Pb  Pb6  1  0.627286  0.880986  0.249919  1
  Pb  Pb7  1  0.118926  0.872983  0.750183  1
  O  O8  1  0.804884  0.225479  0.971083  1
  O  O9  1  0.486491  0.504515  0.000822  1
  O  O10  1  0.204630  0.223639  0.578412  1
  O  O11  1  0.448290  0.967202  0.078280  1
  O  O12  1  0.192428  0.198950  0.002801  1
  O  O13  1  0.469925  0.974598  0.502557  1
  O  O14  1  0.448540  0.529827  0.515501  1
  O  O15  1  0.054422  0.974723  0.470566  1
  O  O16  1  0.742727  0.261133  0.501053  1
  O  O17  1  0.048218  0.555092  0.503362  1
  O  O18  1  0.772901  0.777598  0.002313  1
  O  O19  1  0.051988  0.527826  0.917610  1
  O  O20  1  0.804906  0.780931  0.417549  1
  O  O21  1  0.204808  0.786333  0.015435  1
