# generated using pymatgen
data_Y6Lu4InPb5
_symmetry_space_group_name_H-M   'P 1'
_cell_length_a   9.00042169
_cell_length_b   9.00042185
_cell_length_c   6.56177000
_cell_angle_alpha   90.00000000
_cell_angle_beta   90.00000000
_cell_angle_gamma   120.14983813
_symmetry_Int_Tables_number   1
_chemical_formula_structural   Y6Lu4InPb5
_chemical_formula_sum   'Y6 Lu4 In1 Pb5'
_cell_volume   459.64194005
_cell_formula_units_Z   1
loop_
 _symmetry_equiv_pos_site_id
 _symmetry_equiv_pos_as_xyz
  1  'x, y, z'
loop_
 _atom_site_type_symbol
 _atom_site_label
 _atom_site_symmetry_multiplicity
 _atom_site_fract_x
 _atom_site_fract_y
 _atom_site_fract_z
 _atom_site_occupancy
  Y  Y0  1  0.760267  0.760267  0.750000  1
  Y  Y1  1  0.240184  0.004197  0.750000  1
  Y  Y2  1  0.004197  0.240184  0.750000  1
  Y  Y3  1  0.238821  0.238821  0.250000  1
  Y  Y4  1  0.761280  0.999358  0.250000  1
  Y  Y5  1  0.999358  0.761280  0.250000  1
  Lu  Lu6  1  0.664316  0.333685  0.997888  1
  Lu  Lu7  1  0.333685  0.664316  0.997888  1
  Lu  Lu8  1  0.333685  0.664316  0.502112  1
  Lu  Lu9  1  0.664316  0.333685  0.502112  1
  In  In10  1  0.397995  0.397995  0.750000  1
  Pb  Pb11  1  0.605072  0.000168  0.750000  1
  Pb  Pb12  1  0.000168  0.605072  0.750000  1
  Pb  Pb13  1  0.602900  0.602900  0.250000  1
  Pb  Pb14  1  0.395341  0.998415  0.250000  1
  Pb  Pb15  1  0.998415  0.395341  0.250000  1
