# generated using pymatgen
data_TbYbY5CoI12
_symmetry_space_group_name_H-M   'P 1'
_cell_length_a   9.69687701
_cell_length_b   9.77844805
_cell_length_c   9.78920656
_cell_angle_alpha   106.91836457
_cell_angle_beta   107.03652776
_cell_angle_gamma   106.74634757
_symmetry_Int_Tables_number   1
_chemical_formula_structural   TbYbY5CoI12
_chemical_formula_sum   'Tb1 Yb1 Y5 Co1 I12'
_cell_volume   775.11416996
_cell_formula_units_Z   1
loop_
 _symmetry_equiv_pos_site_id
 _symmetry_equiv_pos_as_xyz
  1  'x, y, z'
loop_
 _atom_site_type_symbol
 _atom_site_label
 _atom_site_symmetry_multiplicity
 _atom_site_fract_x
 _atom_site_fract_y
 _atom_site_fract_z
 _atom_site_occupancy
  Tb  Tb0  1  0.716453  0.976324  0.907568  1
  Yb  Yb1  1  0.500077  0.499894  0.499981  1
  Y  Y2  1  0.024295  0.096882  0.296855  1
  Y  Y3  1  0.096647  0.297024  0.025407  1
  Y  Y4  1  0.283151  0.023862  0.092286  1
  Y  Y5  1  0.975794  0.903155  0.703252  1
  Y  Y6  1  0.903690  0.703165  0.974725  1
  Co  Co7  1  0.999149  0.000050  0.999790  1
  I  I8  1  0.149483  0.458025  0.379366  1
  I  I9  1  0.458067  0.378343  0.151008  1
  I  I10  1  0.379851  0.150182  0.456220  1
  I  I11  1  0.850701  0.541961  0.620702  1
  I  I12  1  0.542095  0.621237  0.848924  1
  I  I13  1  0.620144  0.849207  0.542979  1
  I  I14  1  0.678967  0.071262  0.221717  1
  I  I15  1  0.072084  0.223470  0.678826  1
  I  I16  1  0.225226  0.680236  0.072660  1
  I  I17  1  0.320793  0.928813  0.779019  1
  I  I18  1  0.928046  0.776563  0.321185  1
  I  I19  1  0.775288  0.320345  0.927529  1
