# generated using pymatgen
data_Y4PtAu
_symmetry_space_group_name_H-M   'P 1'
_cell_length_a   4.88424000
_cell_length_b   7.18478500
_cell_length_c   8.91095200
_cell_angle_alpha   90.00000000
_cell_angle_beta   90.00000000
_cell_angle_gamma   90.00000000
_symmetry_Int_Tables_number   1
_chemical_formula_structural   Y4PtAu
_chemical_formula_sum   'Y8 Pt2 Au2'
_cell_volume   312.70503710
_cell_formula_units_Z   2
loop_
 _symmetry_equiv_pos_site_id
 _symmetry_equiv_pos_as_xyz
  1  'x, y, z'
loop_
 _atom_site_type_symbol
 _atom_site_label
 _atom_site_symmetry_multiplicity
 _atom_site_fract_x
 _atom_site_fract_y
 _atom_site_fract_z
 _atom_site_occupancy
  Y  Y0  1  0.250000  0.852473  0.927529  1
  Y  Y1  1  0.250000  0.352473  0.572471  1
  Y  Y2  1  0.750000  0.143884  0.089503  1
  Y  Y3  1  0.750000  0.643884  0.410497  1
  Y  Y4  1  0.250000  0.993116  0.332023  1
  Y  Y5  1  0.250000  0.493116  0.167977  1
  Y  Y6  1  0.750000  0.016285  0.671967  1
  Y  Y7  1  0.750000  0.516285  0.828033  1
  Pt  Pt8  1  0.750000  0.738489  0.092129  1
  Pt  Pt9  1  0.750000  0.238489  0.407871  1
  Au  Au10  1  0.250000  0.255753  0.898190  1
  Au  Au11  1  0.250000  0.755753  0.601810  1
