# generated using pymatgen
data_Sc4Al4Fe3Rh
_symmetry_space_group_name_H-M   'P 1'
_cell_length_a   5.15891790
_cell_length_b   5.21005968
_cell_length_c   8.38308700
_cell_angle_alpha   90.00000000
_cell_angle_beta   90.00000000
_cell_angle_gamma   120.38215155
_symmetry_Int_Tables_number   1
_chemical_formula_structural   Sc4Al4Fe3Rh
_chemical_formula_sum   'Sc4 Al4 Fe3 Rh1'
_cell_volume   194.37957142
_cell_formula_units_Z   1
loop_
 _symmetry_equiv_pos_site_id
 _symmetry_equiv_pos_as_xyz
  1  'x, y, z'
loop_
 _atom_site_type_symbol
 _atom_site_label
 _atom_site_symmetry_multiplicity
 _atom_site_fract_x
 _atom_site_fract_y
 _atom_site_fract_z
 _atom_site_occupancy
  Sc  Sc0  1  0.667082  0.333585  0.548275  1
  Sc  Sc1  1  0.336622  0.668335  0.423490  1
  Sc  Sc2  1  0.336622  0.668335  0.076510  1
  Sc  Sc3  1  0.667082  0.333585  0.951725  1
  Al  Al4  1  0.991085  0.995445  0.484451  1
  Al  Al5  1  0.991085  0.995445  0.015549  1
  Al  Al6  1  0.177155  0.342742  0.750000  1
  Al  Al7  1  0.177152  0.834443  0.750000  1
  Fe  Fe8  1  0.818627  0.641508  0.250000  1
  Fe  Fe9  1  0.818683  0.177182  0.250000  1
  Fe  Fe10  1  0.347918  0.173966  0.250000  1
  Rh  Rh11  1  0.670885  0.835430  0.750000  1
