# generated using pymatgen
data_KHfScTe4
_symmetry_space_group_name_H-M   'P 1'
_cell_length_a   4.18076000
_cell_length_b   9.03799395
_cell_length_c   7.15942400
_cell_angle_alpha   74.33019838
_cell_angle_beta   90.00000000
_cell_angle_gamma   90.00000000
_symmetry_Int_Tables_number   1
_chemical_formula_structural   KHfScTe4
_chemical_formula_sum   'K1 Hf1 Sc1 Te4'
_cell_volume   260.46950883
_cell_formula_units_Z   1
loop_
 _symmetry_equiv_pos_site_id
 _symmetry_equiv_pos_as_xyz
  1  'x, y, z'
loop_
 _atom_site_type_symbol
 _atom_site_label
 _atom_site_symmetry_multiplicity
 _atom_site_fract_x
 _atom_site_fract_y
 _atom_site_fract_z
 _atom_site_occupancy
  K  K0  1  0.500000  0.497335  0.654061  1
  Hf  Hf1  1  0.000000  0.997789  0.002379  1
  Sc  Sc2  1  0.500000  0.003356  0.502107  1
  Te  Te3  1  0.000000  0.808441  0.399789  1
  Te  Te4  1  0.500000  0.805442  0.904341  1
  Te  Te5  1  0.000000  0.195032  0.605737  1
  Te  Te6  1  0.500000  0.191724  0.098543  1
