# generated using pymatgen
data_Tb3NdAl4OsPd3
_symmetry_space_group_name_H-M   'P 1'
_cell_length_a   4.38412400
_cell_length_b   7.00284660
_cell_length_c   7.95495230
_cell_angle_alpha   90.27884942
_cell_angle_beta   90.00000000
_cell_angle_gamma   90.00000000
_symmetry_Int_Tables_number   1
_chemical_formula_structural   Tb3NdAl4OsPd3
_chemical_formula_sum   'Tb3 Nd1 Al4 Os1 Pd3'
_cell_volume   244.22486530
_cell_formula_units_Z   1
loop_
 _symmetry_equiv_pos_site_id
 _symmetry_equiv_pos_as_xyz
  1  'x, y, z'
loop_
 _atom_site_type_symbol
 _atom_site_label
 _atom_site_symmetry_multiplicity
 _atom_site_fract_x
 _atom_site_fract_y
 _atom_site_fract_z
 _atom_site_occupancy
  Tb  Tb0  1  0.250000  0.537598  0.811340  1
  Tb  Tb1  1  0.250000  0.019954  0.679881  1
  Tb  Tb2  1  0.750000  0.964112  0.323360  1
  Nd  Nd3  1  0.750000  0.469247  0.178915  1
  Al  Al4  1  0.250000  0.648327  0.443483  1
  Al  Al5  1  0.750000  0.362835  0.565436  1
  Al  Al6  1  0.250000  0.140126  0.060041  1
  Al  Al7  1  0.750000  0.856892  0.932892  1
  Os  Os8  1  0.750000  0.731298  0.621029  1
  Pd  Pd9  1  0.250000  0.269124  0.385443  1
  Pd  Pd10  1  0.750000  0.222061  0.878919  1
  Pd  Pd11  1  0.250000  0.778424  0.119258  1
