# generated using pymatgen
data_TmNi21SnB6
_symmetry_space_group_name_H-M   'P 1'
_cell_length_a   7.49268787
_cell_length_b   7.49268716
_cell_length_c   7.49268800
_cell_angle_alpha   59.99999627
_cell_angle_beta   59.99999942
_cell_angle_gamma   59.99999392
_symmetry_Int_Tables_number   1
_chemical_formula_structural   TmNi21SnB6
_chemical_formula_sum   'Tm1 Ni21 Sn1 B6'
_cell_volume   297.43896257
_cell_formula_units_Z   1
loop_
 _symmetry_equiv_pos_site_id
 _symmetry_equiv_pos_as_xyz
  1  'x, y, z'
loop_
 _atom_site_type_symbol
 _atom_site_label
 _atom_site_symmetry_multiplicity
 _atom_site_fract_x
 _atom_site_fract_y
 _atom_site_fract_z
 _atom_site_occupancy
  Tm  Tm0  1  0.250000  0.250000  0.250000  1
  Ni  Ni1  1  0.000641  0.000641  0.662972  1
  Ni  Ni2  1  0.616237  0.616237  0.151290  1
  Ni  Ni3  1  0.389528  0.831416  0.389528  1
  Ni  Ni4  1  0.662972  0.335746  0.000641  1
  Ni  Ni5  1  0.000641  0.335746  0.662972  1
  Ni  Ni6  1  0.662972  0.000641  0.000641  1
  Ni  Ni7  1  0.000641  0.000641  0.335746  1
  Ni  Ni8  1  0.000641  0.335746  0.000641  1
  Ni  Ni9  1  0.335746  0.000641  0.662972  1
  Ni  Ni10  1  0.662972  0.000641  0.335746  1
  Ni  Ni11  1  0.335746  0.000641  0.000641  1
  Ni  Ni12  1  0.000641  0.662972  0.000641  1
  Ni  Ni13  1  0.389528  0.389528  0.831416  1
  Ni  Ni14  1  0.000641  0.662972  0.335746  1
  Ni  Ni15  1  0.335746  0.662972  0.000641  1
  Ni  Ni16  1  0.000000  0.000000  0.000000  1
  Ni  Ni17  1  0.616237  0.151290  0.616237  1
  Ni  Ni18  1  0.151290  0.616237  0.616237  1
  Ni  Ni19  1  0.389528  0.389528  0.389528  1
  Ni  Ni20  1  0.831416  0.389528  0.389528  1
  Ni  Ni21  1  0.616237  0.616237  0.616237  1
  Sn  Sn22  1  0.750000  0.750000  0.750000  1
  B  B23  1  0.729096  0.729096  0.270904  1
  B  B24  1  0.729096  0.270904  0.729096  1
  B  B25  1  0.270904  0.729096  0.270904  1
  B  B26  1  0.729096  0.270904  0.270904  1
  B  B27  1  0.270904  0.729096  0.729096  1
  B  B28  1  0.270904  0.270904  0.729096  1
