# generated using pymatgen
data_Yb12Dy3Tm5Si16
_symmetry_space_group_name_H-M   'P 1'
_cell_length_a   7.36783839
_cell_length_b   7.78505029
_cell_length_c   15.05261144
_cell_angle_alpha   89.98627346
_cell_angle_beta   90.02402221
_cell_angle_gamma   89.97172538
_symmetry_Int_Tables_number   1
_chemical_formula_structural   Yb12Dy3Tm5Si16
_chemical_formula_sum   'Yb12 Dy3 Tm5 Si16'
_cell_volume   863.40241908
_cell_formula_units_Z   1
loop_
 _symmetry_equiv_pos_site_id
 _symmetry_equiv_pos_as_xyz
  1  'x, y, z'
loop_
 _atom_site_type_symbol
 _atom_site_label
 _atom_site_symmetry_multiplicity
 _atom_site_fract_x
 _atom_site_fract_y
 _atom_site_fract_z
 _atom_site_occupancy
  Yb  Yb0  1  0.973953  0.816415  0.404300  1
  Yb  Yb1  1  0.474122  0.683689  0.095880  1
  Yb  Yb2  1  0.526152  0.316245  0.595898  1
  Yb  Yb3  1  0.025601  0.183456  0.903908  1
  Yb  Yb4  1  0.026574  0.183502  0.596082  1
  Yb  Yb5  1  0.526975  0.316219  0.903775  1
  Yb  Yb6  1  0.473330  0.683808  0.404184  1
  Yb  Yb7  1  0.973061  0.816211  0.096067  1
  Yb  Yb8  1  0.352329  0.020183  0.749628  1
  Yb  Yb9  1  0.852171  0.479873  0.749920  1
  Yb  Yb10  1  0.147677  0.520375  0.250201  1
  Yb  Yb11  1  0.647789  0.979555  0.249883  1
  Dy  Dy12  1  0.314701  0.177011  0.121037  1
  Dy  Dy13  1  0.814697  0.322920  0.379211  1
  Dy  Dy14  1  0.185499  0.677163  0.878733  1
  Tm  Tm15  1  0.685068  0.823670  0.621257  1
  Tm  Tm16  1  0.314624  0.175860  0.379089  1
  Tm  Tm17  1  0.814222  0.323915  0.121276  1
  Tm  Tm18  1  0.185659  0.676507  0.621343  1
  Tm  Tm19  1  0.685725  0.823795  0.878414  1
  Si  Si20  1  0.858151  0.534671  0.539156  1
  Si  Si21  1  0.359729  0.966273  0.961318  1
  Si  Si22  1  0.641351  0.032768  0.462172  1
  Si  Si23  1  0.140201  0.466374  0.038630  1
  Si  Si24  1  0.144824  0.466796  0.462323  1
  Si  Si25  1  0.645489  0.033685  0.037831  1
  Si  Si26  1  0.356052  0.965556  0.538487  1
  Si  Si27  1  0.854570  0.533650  0.962016  1
  Si  Si28  1  0.976598  0.880767  0.749608  1
  Si  Si29  1  0.478171  0.619673  0.749177  1
  Si  Si30  1  0.522561  0.381417  0.249665  1
  Si  Si31  1  0.022653  0.118509  0.250482  1
  Si  Si32  1  0.249865  0.395862  0.749192  1
  Si  Si33  1  0.748334  0.103780  0.749755  1
  Si  Si34  1  0.250842  0.895346  0.250664  1
  Si  Si35  1  0.750682  0.604501  0.249439  1
