# generated using pymatgen
data_Y4Zr4IrPt3
_symmetry_space_group_name_H-M   'P 1'
_cell_length_a   4.70295900
_cell_length_b   7.15393140
_cell_length_c   8.21654678
_cell_angle_alpha   90.29351816
_cell_angle_beta   90.00000000
_cell_angle_gamma   90.00000000
_symmetry_Int_Tables_number   1
_chemical_formula_structural   Y4Zr4IrPt3
_chemical_formula_sum   'Y4 Zr4 Ir1 Pt3'
_cell_volume   276.43918112
_cell_formula_units_Z   1
loop_
 _symmetry_equiv_pos_site_id
 _symmetry_equiv_pos_as_xyz
  1  'x, y, z'
loop_
 _atom_site_type_symbol
 _atom_site_label
 _atom_site_symmetry_multiplicity
 _atom_site_fract_x
 _atom_site_fract_y
 _atom_site_fract_z
 _atom_site_occupancy
  Y  Y0  1  0.250000  0.017825  0.677533  1
  Y  Y1  1  0.250000  0.514930  0.818536  1
  Y  Y2  1  0.750000  0.987230  0.323836  1
  Y  Y3  1  0.750000  0.482073  0.179246  1
  Zr  Zr4  1  0.250000  0.147942  0.081109  1
  Zr  Zr5  1  0.250000  0.642889  0.418357  1
  Zr  Zr6  1  0.750000  0.851169  0.921227  1
  Zr  Zr7  1  0.750000  0.352581  0.576329  1
  Ir  Ir8  1  0.250000  0.274132  0.410108  1
  Pt  Pt9  1  0.250000  0.772714  0.092804  1
  Pt  Pt10  1  0.750000  0.729775  0.594155  1
  Pt  Pt11  1  0.750000  0.226739  0.906758  1
