# generated using pymatgen
data_Yb2Pr8GaSn7
_symmetry_space_group_name_H-M   'P 1'
_cell_length_a   8.04809300
_cell_length_b   8.55033900
_cell_length_c   16.16050700
_cell_angle_alpha   90.00000000
_cell_angle_beta   90.00000000
_cell_angle_gamma   90.00000000
_symmetry_Int_Tables_number   1
_chemical_formula_structural   Yb2Pr8GaSn7
_chemical_formula_sum   'Yb4 Pr16 Ga2 Sn14'
_cell_volume   1112.06789167
_cell_formula_units_Z   2
loop_
 _symmetry_equiv_pos_site_id
 _symmetry_equiv_pos_as_xyz
  1  'x, y, z'
loop_
 _atom_site_type_symbol
 _atom_site_label
 _atom_site_symmetry_multiplicity
 _atom_site_fract_x
 _atom_site_fract_y
 _atom_site_fract_z
 _atom_site_occupancy
  Yb  Yb0  1  0.819138  0.507211  0.750000  1
  Yb  Yb1  1  0.319138  0.992789  0.750000  1
  Yb  Yb2  1  0.170683  0.494778  0.250000  1
  Yb  Yb3  1  0.670683  0.005222  0.250000  1
  Pr  Pr4  1  0.658524  0.176031  0.629375  1
  Pr  Pr5  1  0.158524  0.323969  0.870625  1
  Pr  Pr6  1  0.341389  0.826481  0.123657  1
  Pr  Pr7  1  0.841389  0.673519  0.376343  1
  Pr  Pr8  1  0.341389  0.826481  0.376343  1
  Pr  Pr9  1  0.841389  0.673519  0.123657  1
  Pr  Pr10  1  0.658524  0.176031  0.870625  1
  Pr  Pr11  1  0.158524  0.323969  0.629375  1
  Pr  Pr12  1  0.505780  0.684175  0.598006  1
  Pr  Pr13  1  0.005780  0.815825  0.901994  1
  Pr  Pr14  1  0.496596  0.316761  0.095009  1
  Pr  Pr15  1  0.996596  0.183239  0.404991  1
  Pr  Pr16  1  0.496596  0.316761  0.404991  1
  Pr  Pr17  1  0.996596  0.183239  0.095009  1
  Pr  Pr18  1  0.505780  0.684175  0.901994  1
  Pr  Pr19  1  0.005780  0.815825  0.598006  1
  Ga  Ga20  1  0.457264  0.398451  0.750000  1
  Ga  Ga21  1  0.957264  0.101549  0.750000  1
  Sn  Sn22  1  0.678538  0.964311  0.465727  1
  Sn  Sn23  1  0.178538  0.535689  0.034273  1
  Sn  Sn24  1  0.320591  0.036717  0.961589  1
  Sn  Sn25  1  0.820591  0.463283  0.538411  1
  Sn  Sn26  1  0.320591  0.036717  0.538411  1
  Sn  Sn27  1  0.820591  0.463283  0.961589  1
  Sn  Sn28  1  0.678538  0.964311  0.034273  1
  Sn  Sn29  1  0.178538  0.535689  0.465727  1
  Sn  Sn30  1  0.539418  0.602775  0.250000  1
  Sn  Sn31  1  0.039418  0.897225  0.250000  1
  Sn  Sn32  1  0.709628  0.867794  0.750000  1
  Sn  Sn33  1  0.209628  0.632206  0.750000  1
  Sn  Sn34  1  0.301031  0.141413  0.250000  1
  Sn  Sn35  1  0.801031  0.358587  0.250000  1
