# generated using pymatgen
data_Nd3Zn3Ag2Ir
_symmetry_space_group_name_H-M   'P 1'
_cell_length_a   7.71942300
_cell_length_b   7.71942152
_cell_length_c   3.89455200
_cell_angle_alpha   90.00000000
_cell_angle_beta   90.00000000
_cell_angle_gamma   120.00000206
_symmetry_Int_Tables_number   1
_chemical_formula_structural   Nd3Zn3Ag2Ir
_chemical_formula_sum   'Nd3 Zn3 Ag2 Ir1'
_cell_volume   200.98225998
_cell_formula_units_Z   1
loop_
 _symmetry_equiv_pos_site_id
 _symmetry_equiv_pos_as_xyz
  1  'x, y, z'
loop_
 _atom_site_type_symbol
 _atom_site_label
 _atom_site_symmetry_multiplicity
 _atom_site_fract_x
 _atom_site_fract_y
 _atom_site_fract_z
 _atom_site_occupancy
  Nd  Nd0  1  0.419543  0.398567  0.500000  1
  Nd  Nd1  1  0.601433  0.020976  0.500000  1
  Nd  Nd2  1  0.979024  0.580457  0.500000  1
  Zn  Zn3  1  0.742598  0.734238  0.000000  1
  Zn  Zn4  1  0.265762  0.008360  0.000000  1
  Zn  Zn5  1  0.991640  0.257402  0.000000  1
  Ag  Ag6  1  0.333333  0.666667  0.000000  1
  Ag  Ag7  1  0.000000  0.000000  0.500000  1
  Ir  Ir8  1  0.666667  0.333333  0.000000  1
