# generated using pymatgen
data_Th5ZrPCl15
_symmetry_space_group_name_H-M   'P 1'
_cell_length_a   9.51694708
_cell_length_b   9.51694706
_cell_length_c   9.51694700
_cell_angle_alpha   109.03427301
_cell_angle_beta   110.34869496
_cell_angle_gamma   109.03427334
_symmetry_Int_Tables_number   1
_chemical_formula_structural   Th5ZrPCl15
_chemical_formula_sum   'Th5 Zr1 P1 Cl15'
_cell_volume   663.42912096
_cell_formula_units_Z   1
loop_
 _symmetry_equiv_pos_site_id
 _symmetry_equiv_pos_as_xyz
  1  'x, y, z'
loop_
 _atom_site_type_symbol
 _atom_site_label
 _atom_site_symmetry_multiplicity
 _atom_site_fract_x
 _atom_site_fract_y
 _atom_site_fract_z
 _atom_site_occupancy
  Th  Th0  1  0.251665  0.245949  0.005715  1
  Th  Th1  1  0.740914  0.000000  0.740914  1
  Th  Th2  1  0.005715  0.245949  0.251665  1
  Th  Th3  1  0.005715  0.754051  0.759766  1
  Th  Th4  1  0.759766  0.754051  0.005715  1
  Zr  Zr5  1  0.222761  0.000000  0.222761  1
  P  P6  1  0.992921  0.000000  0.992921  1
  Cl  Cl7  1  0.024420  0.767642  0.256778  1
  Cl  Cl8  1  0.256778  0.767642  0.024420  1
  Cl  Cl9  1  0.496311  0.747894  0.748417  1
  Cl  Cl10  1  0.000523  0.252106  0.748417  1
  Cl  Cl11  1  0.750649  0.000000  0.252606  1
  Cl  Cl12  1  0.252606  0.501956  0.252606  1
  Cl  Cl13  1  0.748417  0.252106  0.000523  1
  Cl  Cl14  1  0.501463  0.500000  0.001463  1
  Cl  Cl15  1  0.256778  0.232358  0.489137  1
  Cl  Cl16  1  0.750649  0.498044  0.750649  1
  Cl  Cl17  1  0.748417  0.747894  0.496311  1
  Cl  Cl18  1  0.489137  0.232358  0.256778  1
  Cl  Cl19  1  0.252606  0.000000  0.750649  1
  Cl  Cl20  1  0.001463  0.500000  0.501463  1
  Cl  Cl21  1  0.490326  0.000000  0.490326  1
