# generated using pymatgen
data_Ti6AlRe3Ru2
_symmetry_space_group_name_H-M   'P 1'
_cell_length_a   4.38880200
_cell_length_b   6.27801400
_cell_length_c   13.21323400
_cell_angle_alpha   90.00000000
_cell_angle_beta   90.00000000
_cell_angle_gamma   90.00000000
_symmetry_Int_Tables_number   1
_chemical_formula_structural   Ti6AlRe3Ru2
_chemical_formula_sum   'Ti12 Al2 Re6 Ru4'
_cell_volume   364.06371315
_cell_formula_units_Z   2
loop_
 _symmetry_equiv_pos_site_id
 _symmetry_equiv_pos_as_xyz
  1  'x, y, z'
loop_
 _atom_site_type_symbol
 _atom_site_label
 _atom_site_symmetry_multiplicity
 _atom_site_fract_x
 _atom_site_fract_y
 _atom_site_fract_z
 _atom_site_occupancy
  Ti  Ti0  1  0.500011  0.245591  0.005025  1
  Ti  Ti1  1  0.500011  0.754410  0.005025  1
  Ti  Ti2  1  0.000025  0.250328  0.167699  1
  Ti  Ti3  1  0.000025  0.749672  0.167699  1
  Ti  Ti4  1  0.500024  0.249671  0.332301  1
  Ti  Ti5  1  0.500024  0.750329  0.332301  1
  Ti  Ti6  1  0.000013  0.254410  0.494975  1
  Ti  Ti7  1  0.000013  0.745590  0.494975  1
  Ti  Ti8  1  0.499930  0.257217  0.661802  1
  Ti  Ti9  1  0.499930  0.742783  0.661802  1
  Ti  Ti10  1  0.999931  0.242782  0.838199  1
  Ti  Ti11  1  0.999931  0.757218  0.838199  1
  Al  Al12  1  0.999911  0.000000  0.664677  1
  Al  Al13  1  0.499909  0.499999  0.835322  1
  Re  Re14  1  0.000037  0.499999  0.995818  1
  Re  Re15  1  0.500048  0.000000  0.168019  1
  Re  Re16  1  0.000049  0.499999  0.331981  1
  Re  Re17  1  0.500035  0.000000  0.504182  1
  Re  Re18  1  0.999956  0.499999  0.670613  1
  Re  Re19  1  0.499954  0.000000  0.829387  1
  Ru  Ru20  1  0.000019  0.000000  0.001028  1
  Ru  Ru21  1  0.500088  0.499999  0.165697  1
  Ru  Ru22  1  0.000088  0.000000  0.334302  1
  Ru  Ru23  1  0.500017  0.499999  0.498972  1
