# generated using pymatgen
data_Ac6Sc2CdAu9
_symmetry_space_group_name_H-M   'P 1'
_cell_length_a   8.51029738
_cell_length_b   8.51029893
_cell_length_c   8.51029700
_cell_angle_alpha   65.88816400
_cell_angle_beta   65.88815933
_cell_angle_gamma   65.88815507
_symmetry_Int_Tables_number   1
_chemical_formula_structural   Ac6Sc2CdAu9
_chemical_formula_sum   'Ac6 Sc2 Cd1 Au9'
_cell_volume   491.42474933
_cell_formula_units_Z   1
loop_
 _symmetry_equiv_pos_site_id
 _symmetry_equiv_pos_as_xyz
  1  'x, y, z'
loop_
 _atom_site_type_symbol
 _atom_site_label
 _atom_site_symmetry_multiplicity
 _atom_site_fract_x
 _atom_site_fract_y
 _atom_site_fract_z
 _atom_site_occupancy
  Ac  Ac0  1  0.899323  0.182530  0.625530  1
  Ac  Ac1  1  0.625530  0.899323  0.182530  1
  Ac  Ac2  1  0.182530  0.625530  0.899323  1
  Ac  Ac3  1  0.100677  0.817470  0.374470  1
  Ac  Ac4  1  0.374470  0.100677  0.817470  1
  Ac  Ac5  1  0.817470  0.374470  0.100677  1
  Sc  Sc6  1  0.659688  0.659688  0.659688  1
  Sc  Sc7  1  0.340312  0.340312  0.340312  1
  Cd  Cd8  1  0.500000  0.500000  0.500000  1
  Au  Au9  1  0.000000  0.000000  0.000000  1
  Au  Au10  1  0.798160  0.798160  0.798160  1
  Au  Au11  1  0.201840  0.201840  0.201840  1
  Au  Au12  1  0.930449  0.546474  0.338657  1
  Au  Au13  1  0.338657  0.930449  0.546474  1
  Au  Au14  1  0.546474  0.338657  0.930449  1
  Au  Au15  1  0.069551  0.453526  0.661343  1
  Au  Au16  1  0.661343  0.069551  0.453526  1
  Au  Au17  1  0.453526  0.661343  0.069551  1
