# generated using pymatgen
data_Tb8Y12Si15Sn
_symmetry_space_group_name_H-M   'P 1'
_cell_length_a   7.74759038
_cell_length_b   7.76453197
_cell_length_c   14.19772427
_cell_angle_alpha   89.72191928
_cell_angle_beta   90.09110926
_cell_angle_gamma   89.77765640
_symmetry_Int_Tables_number   1
_chemical_formula_structural   Tb8Y12Si15Sn
_chemical_formula_sum   'Tb8 Y12 Si15 Sn1'
_cell_volume   854.06657135
_cell_formula_units_Z   1
loop_
 _symmetry_equiv_pos_site_id
 _symmetry_equiv_pos_as_xyz
  1  'x, y, z'
loop_
 _atom_site_type_symbol
 _atom_site_label
 _atom_site_symmetry_multiplicity
 _atom_site_fract_x
 _atom_site_fract_y
 _atom_site_fract_z
 _atom_site_occupancy
  Tb  Tb0  1  0.987977  0.362745  0.204615  1
  Tb  Tb1  1  0.006153  0.640400  0.709234  1
  Tb  Tb2  1  0.130308  0.503690  0.462860  1
  Tb  Tb3  1  0.507887  0.859672  0.040018  1
  Tb  Tb4  1  0.861598  0.506412  0.956940  1
  Tb  Tb5  1  0.492284  0.139549  0.543708  1
  Tb  Tb6  1  0.361825  0.994366  0.792442  1
  Tb  Tb7  1  0.644186  0.999793  0.291331  1
  Y  Y8  1  0.184027  0.183000  0.999161  1
  Y  Y9  1  0.814954  0.819789  0.502262  1
  Y  Y10  1  0.319431  0.687561  0.247967  1
  Y  Y11  1  0.684017  0.317404  0.750468  1
  Y  Y12  1  0.128678  0.999215  0.375290  1
  Y  Y13  1  0.863006  0.990362  0.874991  1
  Y  Y14  1  0.488938  0.638131  0.626369  1
  Y  Y15  1  0.363197  0.509108  0.873807  1
  Y  Y16  1  0.509604  0.360478  0.123349  1
  Y  Y17  1  0.651221  0.501840  0.375991  1
  Y  Y18  1  0.009259  0.138631  0.624857  1
  Y  Y19  1  0.989428  0.860373  0.121498  1
  Si  Si20  1  0.655522  0.704121  0.813508  1
  Si  Si21  1  0.202248  0.845952  0.564410  1
  Si  Si22  1  0.156143  0.795386  0.935096  1
  Si  Si23  1  0.797280  0.154889  0.061275  1
  Si  Si24  1  0.841889  0.202555  0.437661  1
  Si  Si25  1  0.295972  0.345135  0.687456  1
  Si  Si26  1  0.703506  0.652986  0.184307  1
  Si  Si27  1  0.295510  0.052050  0.184119  1
  Si  Si28  1  0.704251  0.938951  0.689055  1
  Si  Si29  1  0.438169  0.797573  0.438504  1
  Si  Si30  1  0.204182  0.558823  0.060888  1
  Si  Si31  1  0.562451  0.204580  0.937652  1
  Si  Si32  1  0.792835  0.438105  0.563357  1
  Si  Si33  1  0.062252  0.295615  0.811327  1
  Si  Si34  1  0.940164  0.704442  0.310291  1
  Sn  Sn35  1  0.349647  0.296320  0.323937  1
