# generated using pymatgen
data_Nd4Ga24Pt7Rh2
_symmetry_space_group_name_H-M   'P 1'
_cell_length_a   7.52443923
_cell_length_b   7.62557081
_cell_length_c   13.43933621
_cell_angle_alpha   85.11393842
_cell_angle_beta   100.41961942
_cell_angle_gamma   119.50543851
_symmetry_Int_Tables_number   1
_chemical_formula_structural   Nd4Ga24Pt7Rh2
_chemical_formula_sum   'Nd4 Ga24 Pt7 Rh2'
_cell_volume   660.04244684
_cell_formula_units_Z   1
loop_
 _symmetry_equiv_pos_site_id
 _symmetry_equiv_pos_as_xyz
  1  'x, y, z'
loop_
 _atom_site_type_symbol
 _atom_site_label
 _atom_site_symmetry_multiplicity
 _atom_site_fract_x
 _atom_site_fract_y
 _atom_site_fract_z
 _atom_site_occupancy
  Nd  Nd0  1  0.731897  0.999836  0.190117  1
  Nd  Nd1  1  0.269160  0.002288  0.809842  1
  Nd  Nd2  1  0.063249  0.667184  0.191004  1
  Nd  Nd3  1  0.934451  0.331656  0.809185  1
  Ga  Ga4  1  0.808013  0.870360  0.818632  1
  Ga  Ga5  1  0.192362  0.129249  0.181335  1
  Ga  Ga6  1  0.982795  0.669781  0.943127  1
  Ga  Ga7  1  0.025273  0.333876  0.056762  1
  Ga  Ga8  1  0.397886  0.663456  0.819910  1
  Ga  Ga9  1  0.597192  0.335122  0.182293  1
  Ga  Ga10  1  0.883651  0.665398  0.673396  1
  Ga  Ga11  1  0.117162  0.334888  0.325821  1
  Ga  Ga12  1  0.603189  0.464953  0.816329  1
  Ga  Ga13  1  0.397990  0.541051  0.181418  1
  Ga  Ga14  1  0.231005  0.338986  0.670139  1
  Ga  Ga15  1  0.769100  0.661703  0.329942  1
  Ga  Ga16  1  0.854950  0.332741  0.556435  1
  Ga  Ga17  1  0.186501  0.998584  0.557368  1
  Ga  Ga18  1  0.814495  0.001457  0.442602  1
  Ga  Ga19  1  0.351324  0.995016  0.056077  1
  Ga  Ga20  1  0.645031  0.996313  0.944425  1
  Ga  Ga21  1  0.557798  0.993417  0.672233  1
  Ga  Ga22  1  0.442526  0.005640  0.328093  1
  Ga  Ga23  1  0.523318  0.668143  0.560141  1
  Ga  Ga24  1  0.476750  0.331843  0.439742  1
  Ga  Ga25  1  0.686069  0.671595  0.048018  1
  Ga  Ga26  1  0.310283  0.332115  0.951657  1
  Ga  Ga27  1  0.145138  0.666286  0.443689  1
  Pt  Pt28  1  0.548697  0.326986  0.635923  1
  Pt  Pt29  1  0.451213  0.672015  0.363990  1
  Pt  Pt30  1  0.887958  0.004371  0.638065  1
  Pt  Pt31  1  0.112899  0.995379  0.362049  1
  Pt  Pt32  1  0.670184  0.329700  0.999213  1
  Pt  Pt33  1  0.208871  0.666315  0.638384  1
  Pt  Pt34  1  0.791615  0.333657  0.361656  1
  Rh  Rh35  1  0.329722  0.668891  0.000918  1
  Rh  Rh36  1  0.000288  0.999751  0.000072  1
