# generated using pymatgen
data_Dy3Er(OsC2)2
_symmetry_space_group_name_H-M   'P 1'
_cell_length_a   5.12809000
_cell_length_b   6.43732702
_cell_length_c   9.76270656
_cell_angle_alpha   90.21003170
_cell_angle_beta   90.00000000
_cell_angle_gamma   90.00000000
_symmetry_Int_Tables_number   1
_chemical_formula_structural   Dy3Er(OsC2)2
_chemical_formula_sum   'Dy6 Er2 Os4 C8'
_cell_volume   322.27641854
_cell_formula_units_Z   2
loop_
 _symmetry_equiv_pos_site_id
 _symmetry_equiv_pos_as_xyz
  1  'x, y, z'
loop_
 _atom_site_type_symbol
 _atom_site_label
 _atom_site_symmetry_multiplicity
 _atom_site_fract_x
 _atom_site_fract_y
 _atom_site_fract_z
 _atom_site_occupancy
  Dy  Dy0  1  0.750000  0.815271  0.052482  1
  Dy  Dy1  1  0.250000  0.184729  0.947518  1
  Dy  Dy2  1  0.250000  0.525776  0.220156  1
  Dy  Dy3  1  0.750000  0.474224  0.779844  1
  Dy  Dy4  1  0.750000  0.974284  0.717174  1
  Dy  Dy5  1  0.250000  0.025716  0.282826  1
  Er  Er6  1  0.250000  0.681314  0.552562  1
  Er  Er7  1  0.750000  0.318686  0.447438  1
  Os  Os8  1  0.250000  0.726047  0.864160  1
  Os  Os9  1  0.750000  0.273953  0.135840  1
  Os  Os10  1  0.750000  0.774683  0.366733  1
  Os  Os11  1  0.250000  0.225317  0.633267  1
  C  C12  1  0.250000  0.461389  0.756862  1
  C  C13  1  0.750000  0.538611  0.243138  1
  C  C14  1  0.750000  0.038875  0.259514  1
  C  C15  1  0.250000  0.961125  0.740486  1
  C  C16  1  0.250000  0.824455  0.052466  1
  C  C17  1  0.750000  0.175545  0.947534  1
  C  C18  1  0.750000  0.671950  0.553851  1
  C  C19  1  0.250000  0.328050  0.446149  1
