# generated using pymatgen
data_CsRb2O
_symmetry_space_group_name_H-M   'P 1'
_cell_length_a   8.48592695
_cell_length_b   8.44078454
_cell_length_c   7.40039700
_cell_angle_alpha   90.00000000
_cell_angle_beta   90.00000000
_cell_angle_gamma   119.82417919
_symmetry_Int_Tables_number   1
_chemical_formula_structural   CsRb2O
_chemical_formula_sum   'Cs2 Rb4 O2'
_cell_volume   459.86934957
_cell_formula_units_Z   2
loop_
 _symmetry_equiv_pos_site_id
 _symmetry_equiv_pos_as_xyz
  1  'x, y, z'
loop_
 _atom_site_type_symbol
 _atom_site_label
 _atom_site_symmetry_multiplicity
 _atom_site_fract_x
 _atom_site_fract_y
 _atom_site_fract_z
 _atom_site_occupancy
  Cs  Cs0  1  0.746457  0.744976  0.250000  1
  Cs  Cs1  1  0.746457  0.001481  0.750000  1
  Rb  Rb2  1  0.246254  0.001212  0.250000  1
  Rb  Rb3  1  0.246254  0.245042  0.750000  1
  Rb  Rb4  1  0.003319  0.754396  0.750000  1
  Rb  Rb5  1  0.003319  0.248923  0.250000  1
  O  O6  1  0.003971  0.001985  0.000000  1
  O  O7  1  0.003971  0.001985  0.500000  1
