# generated using pymatgen
data_Sm(GaCu)6
_symmetry_space_group_name_H-M   'P 1'
_cell_length_a   5.19106724
_cell_length_b   6.66286426
_cell_length_c   6.66285512
_cell_angle_alpha   97.50245711
_cell_angle_beta   112.92656168
_cell_angle_gamma   67.07322050
_symmetry_Int_Tables_number   1
_chemical_formula_structural   Sm(GaCu)6
_chemical_formula_sum   'Sm1 Ga6 Cu6'
_cell_volume   195.41852375
_cell_formula_units_Z   1
loop_
 _symmetry_equiv_pos_site_id
 _symmetry_equiv_pos_as_xyz
  1  'x, y, z'
loop_
 _atom_site_type_symbol
 _atom_site_label
 _atom_site_symmetry_multiplicity
 _atom_site_fract_x
 _atom_site_fract_y
 _atom_site_fract_z
 _atom_site_occupancy
  Sm  Sm0  1  0.000000  0.000000  0.000000  1
  Ga  Ga1  1  0.652547  0.347453  0.652547  1
  Ga  Ga2  1  0.347453  0.652547  0.347453  1
  Ga  Ga3  1  0.000007  0.347251  0.347251  1
  Ga  Ga4  1  0.999993  0.652749  0.652749  1
  Ga  Ga5  1  0.499996  0.805454  0.805454  1
  Ga  Ga6  1  0.500004  0.194546  0.194546  1
  Cu  Cu7  1  0.500000  0.000000  0.500000  1
  Cu  Cu8  1  0.000000  0.000000  0.500000  1
  Cu  Cu9  1  0.500000  0.500000  0.000000  1
  Cu  Cu10  1  0.000000  0.500000  0.000000  1
  Cu  Cu11  1  0.735020  0.764980  0.235020  1
  Cu  Cu12  1  0.264980  0.235020  0.764980  1
