# generated using pymatgen
data_Na3NdSn12
_symmetry_space_group_name_H-M   'P 1'
_cell_length_a   11.80775933
_cell_length_b   11.80775893
_cell_length_c   11.80775981
_cell_angle_alpha   33.06120227
_cell_angle_beta   33.06119585
_cell_angle_gamma   33.06120827
_symmetry_Int_Tables_number   1
_chemical_formula_structural   Na3NdSn12
_chemical_formula_sum   'Na3 Nd1 Sn12'
_cell_volume   436.05176928
_cell_formula_units_Z   1
loop_
 _symmetry_equiv_pos_site_id
 _symmetry_equiv_pos_as_xyz
  1  'x, y, z'
loop_
 _atom_site_type_symbol
 _atom_site_label
 _atom_site_symmetry_multiplicity
 _atom_site_fract_x
 _atom_site_fract_y
 _atom_site_fract_z
 _atom_site_occupancy
  Na  Na0  1  0.875454  0.875454  0.875454  1
  Na  Na1  1  0.124318  0.124318  0.124318  1
  Na  Na2  1  0.708177  0.708177  0.708177  1
  Nd  Nd3  1  0.291076  0.291076  0.291076  1
  Sn  Sn4  1  0.290574  0.792921  0.792921  1
  Sn  Sn5  1  0.792921  0.792921  0.290574  1
  Sn  Sn6  1  0.856870  0.384018  0.384018  1
  Sn  Sn7  1  0.384018  0.384018  0.856870  1
  Sn  Sn8  1  0.384018  0.856870  0.384018  1
  Sn  Sn9  1  0.620160  0.134713  0.620160  1
  Sn  Sn10  1  0.134713  0.620160  0.620160  1
  Sn  Sn11  1  0.620160  0.620160  0.134713  1
  Sn  Sn12  1  0.792921  0.290574  0.792921  1
  Sn  Sn13  1  0.205886  0.712849  0.205886  1
  Sn  Sn14  1  0.205886  0.205886  0.712849  1
  Sn  Sn15  1  0.712849  0.205886  0.205886  1
