# generated using pymatgen
data_Sm2Mn2Cr2Ni8P7
_symmetry_space_group_name_H-M   'P 1'
_cell_length_a   9.12766321
_cell_length_b   9.17374753
_cell_length_c   3.68940100
_cell_angle_alpha   90.00000000
_cell_angle_beta   90.00000000
_cell_angle_gamma   119.93881875
_symmetry_Int_Tables_number   1
_chemical_formula_structural   Sm2Mn2Cr2Ni8P7
_chemical_formula_sum   'Sm2 Mn2 Cr2 Ni8 P7'
_cell_volume   267.70735144
_cell_formula_units_Z   1
loop_
 _symmetry_equiv_pos_site_id
 _symmetry_equiv_pos_as_xyz
  1  'x, y, z'
loop_
 _atom_site_type_symbol
 _atom_site_label
 _atom_site_symmetry_multiplicity
 _atom_site_fract_x
 _atom_site_fract_y
 _atom_site_fract_z
 _atom_site_occupancy
  Sm  Sm0  1  0.665913  0.331250  0.000000  1
  Sm  Sm1  1  0.335056  0.669577  0.500000  1
  Mn  Mn2  1  0.880352  0.155107  0.000000  1
  Mn  Mn3  1  0.117609  0.218386  0.500000  1
  Cr  Cr4  1  0.098265  0.882205  0.500000  1
  Cr  Cr5  1  0.784818  0.899983  0.500000  1
  Ni  Ni6  1  0.059647  0.627120  0.000000  1
  Ni  Ni7  1  0.567736  0.938123  0.000000  1
  Ni  Ni8  1  0.371651  0.433633  0.000000  1
  Ni  Ni9  1  0.274150  0.123851  0.000000  1
  Ni  Ni10  1  0.846554  0.720365  0.000000  1
  Ni  Ni11  1  0.435413  0.052003  0.500000  1
  Ni  Ni12  1  0.615275  0.564098  0.500000  1
  Ni  Ni13  1  0.950527  0.385519  0.500000  1
  P  P14  1  0.293138  0.890153  0.000000  1
  P  P15  1  0.595994  0.705479  0.000000  1
  P  P16  1  0.109551  0.405688  0.000000  1
  P  P17  1  0.400884  0.291111  0.500000  1
  P  P18  1  0.889042  0.599517  0.500000  1
  P  P19  1  0.712432  0.110235  0.500000  1
  P  P20  1  0.995992  0.996595  0.000000  1
