# generated using pymatgen
data_HoEr3CdCo
_symmetry_space_group_name_H-M   'P 1'
_cell_length_a   9.43671207
_cell_length_b   9.43487593
_cell_length_c   9.43487501
_cell_angle_alpha   60.01651566
_cell_angle_beta   59.98957275
_cell_angle_gamma   59.98957196
_symmetry_Int_Tables_number   1
_chemical_formula_structural   HoEr3CdCo
_chemical_formula_sum   'Ho4 Er12 Cd4 Co4'
_cell_volume   593.96895108
_cell_formula_units_Z   4
loop_
 _symmetry_equiv_pos_site_id
 _symmetry_equiv_pos_as_xyz
  1  'x, y, z'
loop_
 _atom_site_type_symbol
 _atom_site_label
 _atom_site_symmetry_multiplicity
 _atom_site_fract_x
 _atom_site_fract_y
 _atom_site_fract_z
 _atom_site_occupancy
  Ho  Ho0  1  0.811613  0.188366  0.811654  1
  Ho  Ho1  1  0.188376  0.811649  0.188359  1
  Ho  Ho2  1  0.811613  0.811654  0.188366  1
  Ho  Ho3  1  0.188376  0.188359  0.811649  1
  Er  Er4  1  0.596063  0.595786  0.595786  1
  Er  Er5  1  0.595915  0.595684  0.212454  1
  Er  Er6  1  0.595915  0.212454  0.595684  1
  Er  Er7  1  0.212344  0.595799  0.595799  1
  Er  Er8  1  0.062336  0.437709  0.437709  1
  Er  Er9  1  0.437755  0.062280  0.062280  1
  Er  Er10  1  0.437619  0.062539  0.437595  1
  Er  Er11  1  0.062244  0.437618  0.062543  1
  Er  Er12  1  0.437619  0.437595  0.062539  1
  Er  Er13  1  0.062244  0.062543  0.437618  1
  Er  Er14  1  0.188897  0.811063  0.811063  1
  Er  Er15  1  0.811088  0.188884  0.188884  1
  Cd  Cd16  1  0.831073  0.830486  0.830486  1
  Cd  Cd17  1  0.830473  0.831092  0.507967  1
  Cd  Cd18  1  0.830473  0.507967  0.831092  1
  Cd  Cd19  1  0.507934  0.830488  0.830488  1
  Co  Co20  1  0.391134  0.390941  0.390941  1
  Co  Co21  1  0.390951  0.391133  0.826968  1
  Co  Co22  1  0.390951  0.826968  0.391133  1
  Co  Co23  1  0.826995  0.390941  0.390941  1
