# generated using pymatgen
data_RbCa(AcB12)2
_symmetry_space_group_name_H-M   'P 1'
_cell_length_a   7.25763200
_cell_length_b   7.25763356
_cell_length_c   5.96300200
_cell_angle_alpha   90.00000000
_cell_angle_beta   90.00000000
_cell_angle_gamma   109.22944818
_symmetry_Int_Tables_number   1
_chemical_formula_structural   RbCa(AcB12)2
_chemical_formula_sum   'Rb1 Ca1 Ac2 B24'
_cell_volume   296.56660921
_cell_formula_units_Z   1
loop_
 _symmetry_equiv_pos_site_id
 _symmetry_equiv_pos_as_xyz
  1  'x, y, z'
loop_
 _atom_site_type_symbol
 _atom_site_label
 _atom_site_symmetry_multiplicity
 _atom_site_fract_x
 _atom_site_fract_y
 _atom_site_fract_z
 _atom_site_occupancy
  Rb  Rb0  1  0.000000  0.000000  0.000000  1
  Ca  Ca1  1  0.500000  0.500000  0.000000  1
  Ac  Ac2  1  0.751717  0.248283  0.500000  1
  Ac  Ac3  1  0.248283  0.751717  0.500000  1
  B  B4  1  0.177520  0.326304  0.648948  1
  B  B5  1  0.923958  0.573534  0.147871  1
  B  B6  1  0.673696  0.822480  0.648948  1
  B  B7  1  0.426466  0.076042  0.147871  1
  B  B8  1  0.177520  0.326304  0.351052  1
  B  B9  1  0.923958  0.573534  0.852129  1
  B  B10  1  0.673696  0.822480  0.351052  1
  B  B11  1  0.426466  0.076042  0.852129  1
  B  B12  1  0.399812  0.399812  0.500000  1
  B  B13  1  0.148010  0.649648  0.000000  1
  B  B14  1  0.897554  0.897554  0.500000  1
  B  B15  1  0.649648  0.148009  0.000000  1
  B  B16  1  0.326304  0.177520  0.648948  1
  B  B17  1  0.076042  0.426466  0.147871  1
  B  B18  1  0.822480  0.673696  0.648948  1
  B  B19  1  0.573534  0.923958  0.147871  1
  B  B20  1  0.102446  0.102446  0.500000  1
  B  B21  1  0.851990  0.350352  0.000000  1
  B  B22  1  0.600188  0.600188  0.500000  1
  B  B23  1  0.350352  0.851991  0.000000  1
  B  B24  1  0.326304  0.177520  0.351052  1
  B  B25  1  0.076042  0.426466  0.852129  1
  B  B26  1  0.822480  0.673696  0.351052  1
  B  B27  1  0.573534  0.923958  0.852129  1
