# generated using pymatgen
data_CsScCr2O8
_symmetry_space_group_name_H-M   'P 1'
_cell_length_a   5.68404100
_cell_length_b   9.87297839
_cell_length_c   9.30000090
_cell_angle_alpha   66.08729308
_cell_angle_beta   89.99896147
_cell_angle_gamma   106.72750921
_symmetry_Int_Tables_number   1
_chemical_formula_structural   CsScCr2O8
_chemical_formula_sum   'Cs2 Sc2 Cr4 O16'
_cell_volume   452.83808577
_cell_formula_units_Z   2
loop_
 _symmetry_equiv_pos_site_id
 _symmetry_equiv_pos_as_xyz
  1  'x, y, z'
loop_
 _atom_site_type_symbol
 _atom_site_label
 _atom_site_symmetry_multiplicity
 _atom_site_fract_x
 _atom_site_fract_y
 _atom_site_fract_z
 _atom_site_occupancy
  Cs  Cs0  1  0.499957  0.999948  0.500152  1
  Cs  Cs1  1  0.000044  0.000048  0.999948  1
  Sc  Sc2  1  0.749989  0.500011  0.249979  1
  Sc  Sc3  1  0.250008  0.499982  0.750009  1
  Cr  Cr4  1  0.650346  0.300704  0.982589  1
  Cr  Cr5  1  0.150255  0.300618  0.482546  1
  Cr  Cr6  1  0.849658  0.699252  0.517419  1
  Cr  Cr7  1  0.349736  0.699415  0.017415  1
  O  O8  1  0.560244  0.120494  0.115225  1
  O  O9  1  0.060154  0.120354  0.615082  1
  O  O10  1  0.939779  0.879504  0.384790  1
  O  O11  1  0.439831  0.879688  0.884907  1
  O  O12  1  0.711321  0.422782  0.069217  1
  O  O13  1  0.211193  0.422582  0.569348  1
  O  O14  1  0.788683  0.577219  0.430745  1
  O  O15  1  0.288823  0.577456  0.930635  1
  O  O16  1  0.907703  0.330108  0.869645  1
  O  O17  1  0.407629  0.330146  0.369551  1
  O  O18  1  0.592315  0.669839  0.630375  1
  O  O19  1  0.092353  0.669874  0.130431  1
  O  O20  1  0.422441  0.330102  0.869595  1
  O  O21  1  0.922395  0.330109  0.369551  1
  O  O22  1  0.077560  0.669844  0.630405  1
  O  O23  1  0.577586  0.669919  0.130439  1
