# generated using pymatgen
data_Er6Tm3LuSi6
_symmetry_space_group_name_H-M   'P 1'
_cell_length_a   8.34452400
_cell_length_b   8.34452334
_cell_length_c   6.23602400
_cell_angle_alpha   90.00000000
_cell_angle_beta   90.00000000
_cell_angle_gamma   120.00000263
_symmetry_Int_Tables_number   1
_chemical_formula_structural   Er6Tm3LuSi6
_chemical_formula_sum   'Er6 Tm3 Lu1 Si6'
_cell_volume   376.04645572
_cell_formula_units_Z   1
loop_
 _symmetry_equiv_pos_site_id
 _symmetry_equiv_pos_as_xyz
  1  'x, y, z'
loop_
 _atom_site_type_symbol
 _atom_site_label
 _atom_site_symmetry_multiplicity
 _atom_site_fract_x
 _atom_site_fract_y
 _atom_site_fract_z
 _atom_site_occupancy
  Er  Er0  1  0.757530  0.000045  0.749963  1
  Er  Er1  1  0.757530  0.757485  0.250037  1
  Er  Er2  1  0.999955  0.242470  0.250037  1
  Er  Er3  1  0.999955  0.757485  0.749963  1
  Er  Er4  1  0.242515  0.242470  0.749963  1
  Er  Er5  1  0.242515  0.000045  0.250037  1
  Tm  Tm6  1  0.666667  0.333333  0.000000  1
  Tm  Tm7  1  0.333333  0.666667  0.500000  1
  Tm  Tm8  1  0.333333  0.666667  0.000000  1
  Lu  Lu9  1  0.666667  0.333333  0.500000  1
  Si  Si10  1  0.395239  0.000172  0.749851  1
  Si  Si11  1  0.395239  0.395067  0.250149  1
  Si  Si12  1  0.999828  0.604761  0.250149  1
  Si  Si13  1  0.999828  0.395067  0.749851  1
  Si  Si14  1  0.604933  0.604761  0.749851  1
  Si  Si15  1  0.604933  0.000172  0.250149  1
