# generated using pymatgen
data_Tm2Lu4VCo17P12
_symmetry_space_group_name_H-M   'P 1'
_cell_length_a   3.66452900
_cell_length_b   10.47560000
_cell_length_c   12.11260100
_cell_angle_alpha   90.00000000
_cell_angle_beta   90.00000000
_cell_angle_gamma   90.00000000
_symmetry_Int_Tables_number   1
_chemical_formula_structural   Tm2Lu4VCo17P12
_chemical_formula_sum   'Tm2 Lu4 V1 Co17 P12'
_cell_volume   464.98022286
_cell_formula_units_Z   1
loop_
 _symmetry_equiv_pos_site_id
 _symmetry_equiv_pos_as_xyz
  1  'x, y, z'
loop_
 _atom_site_type_symbol
 _atom_site_label
 _atom_site_symmetry_multiplicity
 _atom_site_fract_x
 _atom_site_fract_y
 _atom_site_fract_z
 _atom_site_occupancy
  Tm  Tm0  1  0.000000  0.500000  0.524319  1
  Tm  Tm1  1  0.500000  0.000000  0.476446  1
  Lu  Lu2  1  0.500000  0.818670  0.206214  1
  Lu  Lu3  1  0.500000  0.181330  0.206214  1
  Lu  Lu4  1  0.000000  0.681539  0.796191  1
  Lu  Lu5  1  0.000000  0.318461  0.796191  1
  V  V6  1  0.500000  0.500000  0.154997  1
  Co  Co7  1  0.000000  0.000000  0.839357  1
  Co  Co8  1  0.500000  0.500000  0.701842  1
  Co  Co9  1  0.000000  0.000000  0.296772  1
  Co  Co10  1  0.000000  0.500000  0.986305  1
  Co  Co11  1  0.500000  0.000000  0.014371  1
  Co  Co12  1  0.500000  0.331761  0.991911  1
  Co  Co13  1  0.500000  0.668239  0.991911  1
  Co  Co14  1  0.000000  0.166141  0.006192  1
  Co  Co15  1  0.000000  0.833859  0.006192  1
  Co  Co16  1  0.500000  0.296013  0.431795  1
  Co  Co17  1  0.500000  0.703987  0.431795  1
  Co  Co18  1  0.000000  0.202501  0.569519  1
  Co  Co19  1  0.000000  0.797499  0.569519  1
  Co  Co20  1  0.500000  0.878249  0.708463  1
  Co  Co21  1  0.500000  0.121751  0.708463  1
  Co  Co22  1  0.000000  0.622617  0.291943  1
  Co  Co23  1  0.000000  0.377383  0.291943  1
  P  P24  1  0.500000  0.500000  0.880628  1
  P  P25  1  0.000000  0.000000  0.118323  1
  P  P26  1  0.500000  0.500000  0.348614  1
  P  P27  1  0.000000  0.000000  0.654718  1
  P  P28  1  0.500000  0.311560  0.617589  1
  P  P29  1  0.500000  0.688440  0.617589  1
  P  P30  1  0.000000  0.187737  0.383734  1
  P  P31  1  0.000000  0.812263  0.383734  1
  P  P32  1  0.500000  0.848336  0.890625  1
  P  P33  1  0.500000  0.151664  0.890625  1
  P  P34  1  0.000000  0.655842  0.107478  1
  P  P35  1  0.000000  0.344158  0.107478  1
