# generated using pymatgen
data_LuHf2F11
_symmetry_space_group_name_H-M   'P 1'
_cell_length_a   8.16815804
_cell_length_b   8.16815796
_cell_length_c   8.16815766
_cell_angle_alpha   123.65985741
_cell_angle_beta   106.02654645
_cell_angle_gamma   99.76781410
_symmetry_Int_Tables_number   1
_chemical_formula_structural   LuHf2F11
_chemical_formula_sum   'Lu2 Hf4 F22'
_cell_volume   398.93396436
_cell_formula_units_Z   2
loop_
 _symmetry_equiv_pos_site_id
 _symmetry_equiv_pos_as_xyz
  1  'x, y, z'
loop_
 _atom_site_type_symbol
 _atom_site_label
 _atom_site_symmetry_multiplicity
 _atom_site_fract_x
 _atom_site_fract_y
 _atom_site_fract_z
 _atom_site_occupancy
  Lu  Lu0  1  0.750000  0.250000  0.500000  1
  Lu  Lu1  1  0.250000  0.750000  0.500000  1
  Hf  Hf2  1  0.682018  0.638510  0.320528  1
  Hf  Hf3  1  0.317982  0.361490  0.679472  1
  Hf  Hf4  1  0.182018  0.861490  0.043507  1
  Hf  Hf5  1  0.817982  0.138510  0.956493  1
  F  F6  1  0.709036  0.906550  0.346584  1
  F  F7  1  0.290964  0.093450  0.653416  1
  F  F8  1  0.559965  0.362453  0.653416  1
  F  F9  1  0.940035  0.593450  0.802486  1
  F  F10  1  0.440035  0.637547  0.346584  1
  F  F11  1  0.059965  0.406550  0.197514  1
  F  F12  1  0.790964  0.137547  0.197514  1
  F  F13  1  0.209036  0.862453  0.802486  1
  F  F14  1  0.500000  0.500000  0.000000  1
  F  F15  1  0.000000  0.000000  0.000000  1
  F  F16  1  0.783183  0.871182  0.654365  1
  F  F17  1  0.216817  0.128818  0.345635  1
  F  F18  1  0.283183  0.628818  0.912001  1
  F  F19  1  0.716817  0.371182  0.087999  1
  F  F20  1  0.962092  0.739619  0.420489  1
  F  F21  1  0.037908  0.260381  0.579511  1
  F  F22  1  0.319129  0.541603  0.579511  1
  F  F23  1  0.180871  0.760381  0.222473  1
  F  F24  1  0.680871  0.458397  0.420489  1
  F  F25  1  0.819129  0.239619  0.777527  1
  F  F26  1  0.537908  0.958397  0.777527  1
  F  F27  1  0.462092  0.041603  0.222473  1
