# generated using pymatgen
data_Ag4BCO6
_symmetry_space_group_name_H-M   'P 1'
_cell_length_a   9.78454200
_cell_length_b   3.43073667
_cell_length_c   4.96170758
_cell_angle_alpha   80.32103225
_cell_angle_beta   90.00000000
_cell_angle_gamma   90.00000000
_symmetry_Int_Tables_number   1
_chemical_formula_structural   Ag4BCO6
_chemical_formula_sum   'Ag4 B1 C1 O6'
_cell_volume   164.18465198
_cell_formula_units_Z   1
loop_
 _symmetry_equiv_pos_site_id
 _symmetry_equiv_pos_as_xyz
  1  'x, y, z'
loop_
 _atom_site_type_symbol
 _atom_site_label
 _atom_site_symmetry_multiplicity
 _atom_site_fract_x
 _atom_site_fract_y
 _atom_site_fract_z
 _atom_site_occupancy
  Ag  Ag0  1  0.427604  0.772251  0.210942  1
  Ag  Ag1  1  0.937573  0.219415  0.800108  1
  Ag  Ag2  1  0.562427  0.219415  0.800108  1
  Ag  Ag3  1  0.072396  0.772251  0.210942  1
  B  B4  1  0.250000  0.192624  0.717772  1
  C  C5  1  0.750000  0.812238  0.277835  1
  O  O6  1  0.864305  0.706677  0.399158  1
  O  O7  1  0.371854  0.305250  0.588195  1
  O  O8  1  0.250000  0.958586  0.974934  1
  O  O9  1  0.750000  0.029367  0.032654  1
  O  O10  1  0.635695  0.706677  0.399158  1
  O  O11  1  0.128146  0.305250  0.588195  1
