# generated using pymatgen
data_Tb3Lu2(In2Pt)2
_symmetry_space_group_name_H-M   'P 1'
_cell_length_a   3.62415000
_cell_length_b   8.15473500
_cell_length_c   18.09815700
_cell_angle_alpha   90.00000000
_cell_angle_beta   90.00000000
_cell_angle_gamma   90.00000000
_symmetry_Int_Tables_number   1
_chemical_formula_structural   Tb3Lu2(In2Pt)2
_chemical_formula_sum   'Tb6 Lu4 In8 Pt4'
_cell_volume   534.87262160
_cell_formula_units_Z   2
loop_
 _symmetry_equiv_pos_site_id
 _symmetry_equiv_pos_as_xyz
  1  'x, y, z'
loop_
 _atom_site_type_symbol
 _atom_site_label
 _atom_site_symmetry_multiplicity
 _atom_site_fract_x
 _atom_site_fract_y
 _atom_site_fract_z
 _atom_site_occupancy
  Tb  Tb0  1  0.000000  0.242860  0.219489  1
  Tb  Tb1  1  0.000000  0.757140  0.780511  1
  Tb  Tb2  1  0.000000  0.257140  0.719489  1
  Tb  Tb3  1  0.000000  0.742860  0.280511  1
  Tb  Tb4  1  0.000000  0.000000  0.000000  1
  Tb  Tb5  1  0.000000  0.500000  0.500000  1
  Lu  Lu6  1  0.000000  0.116194  0.414290  1
  Lu  Lu7  1  0.000000  0.883806  0.585710  1
  Lu  Lu8  1  0.000000  0.383806  0.914290  1
  Lu  Lu9  1  0.000000  0.616194  0.085710  1
  In  In10  1  0.500000  0.420973  0.351362  1
  In  In11  1  0.500000  0.579027  0.648638  1
  In  In12  1  0.500000  0.079027  0.851362  1
  In  In13  1  0.500000  0.920973  0.148638  1
  In  In14  1  0.500000  0.295743  0.065097  1
  In  In15  1  0.500000  0.704257  0.934903  1
  In  In16  1  0.500000  0.204257  0.565097  1
  In  In17  1  0.500000  0.795743  0.434903  1
  Pt  Pt18  1  0.500000  0.027152  0.305486  1
  Pt  Pt19  1  0.500000  0.972848  0.694514  1
  Pt  Pt20  1  0.500000  0.472848  0.805486  1
  Pt  Pt21  1  0.500000  0.527152  0.194514  1
