# generated using pymatgen
data_Dy2ErTm9Rh4
_symmetry_space_group_name_H-M   'P 1'
_cell_length_a   6.25718105
_cell_length_b   7.12301065
_cell_length_c   9.25924200
_cell_angle_alpha   90.00000000
_cell_angle_beta   90.00000000
_cell_angle_gamma   89.96861775
_symmetry_Int_Tables_number   1
_chemical_formula_structural   Dy2ErTm9Rh4
_chemical_formula_sum   'Dy2 Er1 Tm9 Rh4'
_cell_volume   412.68405041
_cell_formula_units_Z   1
loop_
 _symmetry_equiv_pos_site_id
 _symmetry_equiv_pos_as_xyz
  1  'x, y, z'
loop_
 _atom_site_type_symbol
 _atom_site_label
 _atom_site_symmetry_multiplicity
 _atom_site_fract_x
 _atom_site_fract_y
 _atom_site_fract_z
 _atom_site_occupancy
  Dy  Dy0  1  0.368380  0.533847  0.250000  1
  Dy  Dy1  1  0.631991  0.466118  0.750000  1
  Er  Er2  1  0.131846  0.034043  0.250000  1
  Tm  Tm3  1  0.673134  0.178040  0.062811  1
  Tm  Tm4  1  0.172096  0.321184  0.937129  1
  Tm  Tm5  1  0.827852  0.678894  0.437278  1
  Tm  Tm6  1  0.326792  0.821933  0.563053  1
  Tm  Tm7  1  0.326792  0.821933  0.936947  1
  Tm  Tm8  1  0.827852  0.678894  0.062722  1
  Tm  Tm9  1  0.172096  0.321184  0.562871  1
  Tm  Tm10  1  0.673134  0.178040  0.437189  1
  Tm  Tm11  1  0.867872  0.965580  0.750000  1
  Rh  Rh12  1  0.052542  0.616747  0.750000  1
  Rh  Rh13  1  0.552634  0.884629  0.250000  1
  Rh  Rh14  1  0.447978  0.115164  0.750000  1
  Rh  Rh15  1  0.947008  0.383771  0.250000  1
