# generated using pymatgen
data_V2Ge(O3F)2
_symmetry_space_group_name_H-M   'P 1'
_cell_length_a   5.20911300
_cell_length_b   5.20911345
_cell_length_c   7.11347900
_cell_angle_alpha   90.00000000
_cell_angle_beta   90.00000000
_cell_angle_gamma   120.00000178
_symmetry_Int_Tables_number   1
_chemical_formula_structural   V2Ge(O3F)2
_chemical_formula_sum   'V2 Ge1 O6 F2'
_cell_volume   167.16304461
_cell_formula_units_Z   1
loop_
 _symmetry_equiv_pos_site_id
 _symmetry_equiv_pos_as_xyz
  1  'x, y, z'
loop_
 _atom_site_type_symbol
 _atom_site_label
 _atom_site_symmetry_multiplicity
 _atom_site_fract_x
 _atom_site_fract_y
 _atom_site_fract_z
 _atom_site_occupancy
  V  V0  1  0.333333  0.666667  0.237048  1
  V  V1  1  0.666666  0.333333  0.762952  1
  Ge  Ge2  1  0.000000  0.000000  0.000000  1
  O  O3  1  0.253153  0.323822  0.156575  1
  O  O4  1  0.070669  0.746846  0.156575  1
  O  O5  1  0.676178  0.929329  0.156575  1
  O  O6  1  0.323822  0.070669  0.843426  1
  O  O7  1  0.929331  0.253154  0.843426  1
  O  O8  1  0.746846  0.676178  0.843426  1
  F  F9  1  0.666666  0.333333  0.513611  1
  F  F10  1  0.333333  0.666667  0.486389  1
