# generated using pymatgen
data_Sm4Al(Ga3Au2)3
_symmetry_space_group_name_H-M   'P 1'
_cell_length_a   8.70834876
_cell_length_b   8.70970493
_cell_length_c   8.70970500
_cell_angle_alpha   138.38391430
_cell_angle_beta   103.25499561
_cell_angle_gamma   91.32608166
_symmetry_Int_Tables_number   1
_chemical_formula_structural   Sm4Al(Ga3Au2)3
_chemical_formula_sum   'Sm4 Al1 Ga9 Au6'
_cell_volume   407.24409419
_cell_formula_units_Z   1
loop_
 _symmetry_equiv_pos_site_id
 _symmetry_equiv_pos_as_xyz
  1  'x, y, z'
loop_
 _atom_site_type_symbol
 _atom_site_label
 _atom_site_symmetry_multiplicity
 _atom_site_fract_x
 _atom_site_fract_y
 _atom_site_fract_z
 _atom_site_occupancy
  Sm  Sm0  1  0.868330  0.628482  0.239848  1
  Sm  Sm1  1  0.132934  0.373332  0.759601  1
  Sm  Sm2  1  0.612938  0.873681  0.739255  1
  Sm  Sm3  1  0.386307  0.126362  0.259944  1
  Al  Al4  1  0.740061  0.383771  0.356290  1
  Ga  Ga5  1  0.500268  0.747416  0.247652  1
  Ga  Ga6  1  0.500268  0.252615  0.752852  1
  Ga  Ga7  1  0.235969  0.987297  0.751601  1
  Ga  Ga8  1  0.764710  0.513756  0.749873  1
  Ga  Ga9  1  0.764710  0.014837  0.250954  1
  Ga  Ga10  1  0.235969  0.484368  0.248671  1
  Ga  Ga11  1  0.027479  0.882461  0.145019  1
  Ga  Ga12  1  0.972583  0.117240  0.855343  1
  Ga  Ga13  1  0.261031  0.617473  0.643558  1
  Au  Au14  1  0.508131  0.633679  0.874451  1
  Au  Au15  1  0.496829  0.367447  0.129383  1
  Au  Au16  1  0.995322  0.745816  0.744920  1
  Au  Au17  1  0.995322  0.250402  0.249505  1
  Au  Au18  1  0.244112  0.867952  0.376160  1
  Au  Au19  1  0.756729  0.131611  0.625118  1
