# generated using pymatgen
data_Lu4As6Ir4Ru3
_symmetry_space_group_name_H-M   'P 1'
_cell_length_a   7.19504316
_cell_length_b   7.19412013
_cell_length_c   7.19411925
_cell_angle_alpha   109.39832960
_cell_angle_beta   109.50507537
_cell_angle_gamma   109.50506462
_symmetry_Int_Tables_number   1
_chemical_formula_structural   Lu4As6Ir4Ru3
_chemical_formula_sum   'Lu4 As6 Ir4 Ru3'
_cell_volume   286.67794328
_cell_formula_units_Z   1
loop_
 _symmetry_equiv_pos_site_id
 _symmetry_equiv_pos_as_xyz
  1  'x, y, z'
loop_
 _atom_site_type_symbol
 _atom_site_label
 _atom_site_symmetry_multiplicity
 _atom_site_fract_x
 _atom_site_fract_y
 _atom_site_fract_z
 _atom_site_occupancy
  Lu  Lu0  1  0.000000  0.999802  0.499808  1
  Lu  Lu1  1  0.500000  0.999999  0.000001  1
  Lu  Lu2  1  0.000000  0.500192  0.000198  1
  Lu  Lu3  1  0.500000  0.499999  0.500001  1
  As  As4  1  0.681370  0.684602  0.996768  1
  As  As5  1  0.311960  0.315067  0.996893  1
  As  As6  1  0.000000  0.679903  0.686410  1
  As  As7  1  0.000000  0.313590  0.320097  1
  As  As8  1  0.688040  0.003107  0.684933  1
  As  As9  1  0.318630  0.003232  0.315398  1
  Ir  Ir10  1  0.500000  0.250836  0.749164  1
  Ir  Ir11  1  0.500000  0.750836  0.249164  1
  Ir  Ir12  1  0.748092  0.498840  0.249252  1
  Ir  Ir13  1  0.251908  0.750748  0.501160  1
  Ru  Ru14  1  0.000000  0.999859  0.000141  1
  Ru  Ru15  1  0.250483  0.499936  0.750547  1
  Ru  Ru16  1  0.749517  0.249453  0.500064  1
