# generated using pymatgen
data_CaNdTaNiO6
_symmetry_space_group_name_H-M   'P 1'
_cell_length_a   5.71358500
_cell_length_b   5.50699576
_cell_length_c   9.57845882
_cell_angle_alpha   55.31045531
_cell_angle_beta   90.00000000
_cell_angle_gamma   90.00000000
_symmetry_Int_Tables_number   1
_chemical_formula_structural   CaNdTaNiO6
_chemical_formula_sum   'Ca2 Nd2 Ta2 Ni2 O12'
_cell_volume   247.81172370
_cell_formula_units_Z   2
loop_
 _symmetry_equiv_pos_site_id
 _symmetry_equiv_pos_as_xyz
  1  'x, y, z'
loop_
 _atom_site_type_symbol
 _atom_site_label
 _atom_site_symmetry_multiplicity
 _atom_site_fract_x
 _atom_site_fract_y
 _atom_site_fract_z
 _atom_site_occupancy
  Ca  Ca0  1  0.801734  0.762402  0.749258  1
  Ca  Ca1  1  0.198266  0.762402  0.249258  1
  Nd  Nd2  1  0.310363  0.232345  0.752494  1
  Nd  Nd3  1  0.689637  0.232345  0.252494  1
  Ta  Ta4  1  0.757240  0.498993  0.500765  1
  Ta  Ta5  1  0.242760  0.498993  0.000765  1
  Ni  Ni6  1  0.248169  0.998820  0.500227  1
  Ni  Ni7  1  0.751831  0.998820  0.000227  1
  O  O8  1  0.784903  0.645723  0.255773  1
  O  O9  1  0.045651  0.258645  0.552086  1
  O  O10  1  0.054711  0.844196  0.951449  1
  O  O11  1  0.556922  0.160338  0.547249  1
  O  O12  1  0.535079  0.746859  0.946421  1
  O  O13  1  0.280502  0.351678  0.244276  1
  O  O14  1  0.215097  0.645723  0.755773  1
  O  O15  1  0.954349  0.258645  0.052086  1
  O  O16  1  0.945289  0.844196  0.451449  1
  O  O17  1  0.443078  0.160338  0.047249  1
  O  O18  1  0.464921  0.746859  0.446421  1
  O  O19  1  0.719498  0.351678  0.744276  1
