# generated using pymatgen
data_YTm4Lu(Al3Ru)8
_symmetry_space_group_name_H-M   'P 1'
_cell_length_a   8.76914024
_cell_length_b   8.76918782
_cell_length_c   9.57772000
_cell_angle_alpha   89.99995896
_cell_angle_beta   89.99971266
_cell_angle_gamma   119.99652144
_symmetry_Int_Tables_number   1
_chemical_formula_structural   YTm4Lu(Al3Ru)8
_chemical_formula_sum   'Y1 Tm4 Lu1 Al24 Ru8'
_cell_volume   637.85854451
_cell_formula_units_Z   1
loop_
 _symmetry_equiv_pos_site_id
 _symmetry_equiv_pos_as_xyz
  1  'x, y, z'
loop_
 _atom_site_type_symbol
 _atom_site_label
 _atom_site_symmetry_multiplicity
 _atom_site_fract_x
 _atom_site_fract_y
 _atom_site_fract_z
 _atom_site_occupancy
  Y  Y0  1  0.193339  0.806659  0.249998  1
  Tm  Tm1  1  0.387921  0.193927  0.750001  1
  Tm  Tm2  1  0.612068  0.805839  0.250001  1
  Tm  Tm3  1  0.806074  0.612077  0.749997  1
  Tm  Tm4  1  0.194163  0.387935  0.249999  1
  Lu  Lu5  1  0.805033  0.194927  0.750026  1
  Al  Al6  1  0.666765  0.333234  0.979662  1
  Al  Al7  1  0.333603  0.666401  0.019123  1
  Al  Al8  1  0.333603  0.666399  0.480874  1
  Al  Al9  1  0.666767  0.333235  0.520339  1
  Al  Al10  1  0.837228  0.162774  0.423048  1
  Al  Al11  1  0.162875  0.837128  0.578339  1
  Al  Al12  1  0.326042  0.163322  0.422913  1
  Al  Al13  1  0.162874  0.837128  0.921660  1
  Al  Al14  1  0.674611  0.837516  0.577887  1
  Al  Al15  1  0.837226  0.162772  0.076954  1
  Al  Al16  1  0.836678  0.673961  0.422913  1
  Al  Al17  1  0.674611  0.837517  0.922111  1
  Al  Al18  1  0.162482  0.325389  0.577886  1
  Al  Al19  1  0.326042  0.163322  0.077087  1
  Al  Al20  1  0.162484  0.325390  0.922111  1
  Al  Al21  1  0.836679  0.673962  0.077086  1
  Al  Al22  1  0.438732  0.561269  0.749998  1
  Al  Al23  1  0.561304  0.438701  0.249999  1
  Al  Al24  1  0.122160  0.560818  0.749997  1
  Al  Al25  1  0.876723  0.437664  0.250000  1
  Al  Al26  1  0.439181  0.877840  0.749999  1
  Al  Al27  1  0.562335  0.123274  0.250000  1
  Al  Al28  1  0.999277  0.000725  0.749998  1
  Al  Al29  1  0.999333  0.000669  0.249998  1
  Ru  Ru30  1  0.500211  0.499788  0.999802  1
  Ru  Ru31  1  0.999548  0.499092  0.999317  1
  Ru  Ru32  1  0.500206  0.499784  0.500195  1
  Ru  Ru33  1  0.500909  0.000453  0.999321  1
  Ru  Ru34  1  0.999557  0.499091  0.500683  1
  Ru  Ru35  1  0.500914  0.000458  0.500681  1
  Ru  Ru36  1  0.000218  0.999780  0.000051  1
  Ru  Ru37  1  0.000221  0.999783  0.499948  1
