# generated using pymatgen
data_PrHo3CdIr
_symmetry_space_group_name_H-M   'P 1'
_cell_length_a   9.71706016
_cell_length_b   9.70445339
_cell_length_c   9.70445320
_cell_angle_alpha   60.08596526
_cell_angle_beta   59.95701985
_cell_angle_gamma   59.95701188
_symmetry_Int_Tables_number   1
_chemical_formula_structural   PrHo3CdIr
_chemical_formula_sum   'Pr4 Ho12 Cd4 Ir4'
_cell_volume   647.08385591
_cell_formula_units_Z   4
loop_
 _symmetry_equiv_pos_site_id
 _symmetry_equiv_pos_as_xyz
  1  'x, y, z'
loop_
 _atom_site_type_symbol
 _atom_site_label
 _atom_site_symmetry_multiplicity
 _atom_site_fract_x
 _atom_site_fract_y
 _atom_site_fract_z
 _atom_site_occupancy
  Pr  Pr0  1  0.561323  0.938677  0.561323  1
  Pr  Pr1  1  0.938677  0.561323  0.938677  1
  Pr  Pr2  1  0.561323  0.561323  0.938677  1
  Pr  Pr3  1  0.938677  0.938677  0.561323  1
  Ho  Ho4  1  0.348680  0.347343  0.347343  1
  Ho  Ho5  1  0.347343  0.348680  0.956633  1
  Ho  Ho6  1  0.347343  0.956633  0.348680  1
  Ho  Ho7  1  0.956633  0.347343  0.347343  1
  Ho  Ho8  1  0.813236  0.186764  0.186764  1
  Ho  Ho9  1  0.186764  0.813236  0.813236  1
  Ho  Ho10  1  0.188643  0.811357  0.188643  1
  Ho  Ho11  1  0.811357  0.188643  0.811357  1
  Ho  Ho12  1  0.188643  0.188643  0.811357  1
  Ho  Ho13  1  0.811357  0.811357  0.188643  1
  Ho  Ho14  1  0.945970  0.554030  0.554030  1
  Ho  Ho15  1  0.554030  0.945970  0.945970  1
  Cd  Cd16  1  0.582872  0.578431  0.578431  1
  Cd  Cd17  1  0.578431  0.582872  0.260265  1
  Cd  Cd18  1  0.578431  0.260265  0.582872  1
  Cd  Cd19  1  0.260265  0.578431  0.578431  1
  Ir  Ir20  1  0.145418  0.139401  0.139401  1
  Ir  Ir21  1  0.139401  0.145418  0.575780  1
  Ir  Ir22  1  0.139401  0.575780  0.145418  1
  Ir  Ir23  1  0.575780  0.139401  0.139401  1
