# generated using pymatgen
data_LiY4Ho2Co17P12
_symmetry_space_group_name_H-M   'P 1'
_cell_length_a   3.70999900
_cell_length_b   10.54000800
_cell_length_c   12.18436000
_cell_angle_alpha   90.00000000
_cell_angle_beta   90.00000000
_cell_angle_gamma   90.00000000
_symmetry_Int_Tables_number   1
_chemical_formula_structural   LiY4Ho2Co17P12
_chemical_formula_sum   'Li1 Y4 Ho2 Co17 P12'
_cell_volume   476.45013603
_cell_formula_units_Z   1
loop_
 _symmetry_equiv_pos_site_id
 _symmetry_equiv_pos_as_xyz
  1  'x, y, z'
loop_
 _atom_site_type_symbol
 _atom_site_label
 _atom_site_symmetry_multiplicity
 _atom_site_fract_x
 _atom_site_fract_y
 _atom_site_fract_z
 _atom_site_occupancy
  Li  Li0  1  0.500000  0.500000  0.152576  1
  Y  Y1  1  0.000000  0.500000  0.522759  1
  Y  Y2  1  0.500000  0.000000  0.478232  1
  Y  Y3  1  0.500000  0.818994  0.206346  1
  Y  Y4  1  0.500000  0.181006  0.206346  1
  Ho  Ho5  1  0.000000  0.682326  0.794308  1
  Ho  Ho6  1  0.000000  0.317674  0.794308  1
  Co  Co7  1  0.000000  0.500000  0.985442  1
  Co  Co8  1  0.500000  0.000000  0.012058  1
  Co  Co9  1  0.500000  0.296340  0.432059  1
  Co  Co10  1  0.500000  0.703660  0.432059  1
  Co  Co11  1  0.000000  0.202465  0.570458  1
  Co  Co12  1  0.000000  0.797535  0.570458  1
  Co  Co13  1  0.500000  0.879583  0.709383  1
  Co  Co14  1  0.500000  0.120417  0.709383  1
  Co  Co15  1  0.000000  0.621910  0.292980  1
  Co  Co16  1  0.000000  0.378090  0.292980  1
  Co  Co17  1  0.500000  0.331259  0.994765  1
  Co  Co18  1  0.500000  0.668741  0.994765  1
  Co  Co19  1  0.000000  0.165144  0.003136  1
  Co  Co20  1  0.000000  0.834856  0.003136  1
  Co  Co21  1  0.000000  0.000000  0.840532  1
  Co  Co22  1  0.500000  0.500000  0.704404  1
  Co  Co23  1  0.000000  0.000000  0.296749  1
  P  P24  1  0.500000  0.309756  0.617045  1
  P  P25  1  0.500000  0.690244  0.617045  1
  P  P26  1  0.000000  0.189999  0.385191  1
  P  P27  1  0.000000  0.810001  0.385191  1
  P  P28  1  0.500000  0.500000  0.883904  1
  P  P29  1  0.000000  0.000000  0.116525  1
  P  P30  1  0.500000  0.847378  0.891770  1
  P  P31  1  0.500000  0.152622  0.891770  1
  P  P32  1  0.000000  0.656559  0.105187  1
  P  P33  1  0.000000  0.343441  0.105187  1
  P  P34  1  0.500000  0.500000  0.345367  1
  P  P35  1  0.000000  0.000000  0.656193  1
