# generated using pymatgen
data_Sc12Co4HgRh
_symmetry_space_group_name_H-M   'P 1'
_cell_length_a   7.71781925
_cell_length_b   7.71781924
_cell_length_c   7.71781939
_cell_angle_alpha   110.80784837
_cell_angle_beta   111.54454269
_cell_angle_gamma   106.11346750
_symmetry_Int_Tables_number   1
_chemical_formula_structural   Sc12Co4HgRh
_chemical_formula_sum   'Sc12 Co4 Hg1 Rh1'
_cell_volume   352.96459668
_cell_formula_units_Z   1
loop_
 _symmetry_equiv_pos_site_id
 _symmetry_equiv_pos_as_xyz
  1  'x, y, z'
loop_
 _atom_site_type_symbol
 _atom_site_label
 _atom_site_symmetry_multiplicity
 _atom_site_fract_x
 _atom_site_fract_y
 _atom_site_fract_z
 _atom_site_occupancy
  Sc  Sc0  1  0.423023  0.225738  0.197284  1
  Sc  Sc1  1  0.576977  0.774262  0.802716  1
  Sc  Sc2  1  0.028454  0.225738  0.802716  1
  Sc  Sc3  1  0.971546  0.774262  0.197284  1
  Sc  Sc4  1  0.313922  0.616075  0.302152  1
  Sc  Sc5  1  0.686078  0.383925  0.697848  1
  Sc  Sc6  1  0.313922  0.011769  0.697848  1
  Sc  Sc7  1  0.686078  0.988231  0.302152  1
  Sc  Sc8  1  0.186059  0.280264  0.466324  1
  Sc  Sc9  1  0.813941  0.719735  0.533676  1
  Sc  Sc10  1  0.186059  0.719735  0.905794  1
  Sc  Sc11  1  0.813941  0.280264  0.094206  1
  Co  Co12  1  0.367333  0.000000  0.367333  1
  Co  Co13  1  0.632667  0.000000  0.632667  1
  Co  Co14  1  0.118140  0.618140  0.500000  1
  Co  Co15  1  0.881860  0.381860  0.500000  1
  Hg  Hg16  1  0.500000  0.500000  0.000000  1
  Rh  Rh17  1  0.000000  0.000000  0.000000  1
