# generated using pymatgen
data_Er4Si10Ir4RuPt
_symmetry_space_group_name_H-M   'P 1'
_cell_length_a   8.11763035
_cell_length_b   8.13578005
_cell_length_c   8.13992007
_cell_angle_alpha   138.07314322
_cell_angle_beta   104.52187952
_cell_angle_gamma   90.31732215
_symmetry_Int_Tables_number   1
_chemical_formula_structural   Er4Si10Ir4RuPt
_chemical_formula_sum   'Er4 Si10 Ir4 Ru1 Pt1'
_cell_volume   332.04150872
_cell_formula_units_Z   1
loop_
 _symmetry_equiv_pos_site_id
 _symmetry_equiv_pos_as_xyz
  1  'x, y, z'
loop_
 _atom_site_type_symbol
 _atom_site_label
 _atom_site_symmetry_multiplicity
 _atom_site_fract_x
 _atom_site_fract_y
 _atom_site_fract_z
 _atom_site_occupancy
  Er  Er0  1  0.903474  0.130778  0.770785  1
  Er  Er1  1  0.096876  0.867389  0.228220  1
  Er  Er2  1  0.638624  0.368884  0.271163  1
  Er  Er3  1  0.360198  0.632428  0.729319  1
  Si  Si4  1  0.003077  0.747434  0.747682  1
  Si  Si5  1  0.002905  0.255048  0.255924  1
  Si  Si6  1  0.725231  0.471901  0.750546  1
  Si  Si7  1  0.275475  0.025631  0.750100  1
  Si  Si8  1  0.276893  0.526848  0.249490  1
  Si  Si9  1  0.724185  0.973366  0.253499  1
  Si  Si10  1  0.240608  0.399329  0.847582  1
  Si  Si11  1  0.546949  0.892737  0.647955  1
  Si  Si12  1  0.448136  0.100668  0.341223  1
  Si  Si13  1  0.759396  0.607301  0.158296  1
  Ir  Ir14  1  0.500167  0.251219  0.750581  1
  Ir  Ir15  1  0.972952  0.358557  0.612285  1
  Ir  Ir16  1  0.026088  0.638457  0.384504  1
  Ir  Ir17  1  0.254017  0.141902  0.115182  1
  Ru  Ru18  1  0.500274  0.749530  0.249113  1
  Pt  Pt19  1  0.744475  0.860594  0.886550  1
