# generated using pymatgen
data_Ho6Tm4Sn3Pb5
_symmetry_space_group_name_H-M   'P 1'
_cell_length_a   8.08891900
_cell_length_b   15.46177301
_cell_length_c   8.15818401
_cell_angle_alpha   89.99546739
_cell_angle_beta   90.00000000
_cell_angle_gamma   90.00000000
_symmetry_Int_Tables_number   1
_chemical_formula_structural   Ho6Tm4Sn3Pb5
_chemical_formula_sum   'Ho12 Tm8 Sn6 Pb10'
_cell_volume   1020.33615290
_cell_formula_units_Z   2
loop_
 _symmetry_equiv_pos_site_id
 _symmetry_equiv_pos_as_xyz
  1  'x, y, z'
loop_
 _atom_site_type_symbol
 _atom_site_label
 _atom_site_symmetry_multiplicity
 _atom_site_fract_x
 _atom_site_fract_y
 _atom_site_fract_z
 _atom_site_occupancy
  Ho  Ho0  1  0.377716  0.377716  0.838560  1
  Ho  Ho1  1  0.877716  0.122284  0.661440  1
  Ho  Ho2  1  0.622072  0.876730  0.160028  1
  Ho  Ho3  1  0.122072  0.623270  0.339972  1
  Ho  Ho4  1  0.465185  0.603321  0.676427  1
  Ho  Ho5  1  0.965185  0.896679  0.823573  1
  Ho  Ho6  1  0.534517  0.100388  0.325302  1
  Ho  Ho7  1  0.034517  0.399612  0.174698  1
  Ho  Ho8  1  0.534450  0.399705  0.325389  1
  Ho  Ho9  1  0.034450  0.100295  0.174611  1
  Ho  Ho10  1  0.465243  0.896766  0.676296  1
  Ho  Ho11  1  0.965243  0.603234  0.823704  1
  Tm  Tm12  1  0.622318  0.623341  0.159856  1
  Tm  Tm13  1  0.122318  0.876659  0.340144  1
  Tm  Tm14  1  0.377427  0.122333  0.838713  1
  Tm  Tm15  1  0.877427  0.377667  0.661287  1
  Tm  Tm16  1  0.790536  0.749967  0.496388  1
  Tm  Tm17  1  0.290536  0.750033  0.003612  1
  Tm  Tm18  1  0.209958  0.249961  0.507422  1
  Tm  Tm19  1  0.709958  0.250039  0.992578  1
  Sn  Sn20  1  0.426032  0.749950  0.376000  1
  Sn  Sn21  1  0.926032  0.750050  0.124000  1
  Sn  Sn22  1  0.573231  0.249912  0.625148  1
  Sn  Sn23  1  0.073231  0.250088  0.874852  1
  Sn  Sn24  1  0.657187  0.749886  0.851094  1
  Sn  Sn25  1  0.157187  0.750114  0.648906  1
  Pb  Pb26  1  0.717762  0.458499  0.966451  1
  Pb  Pb27  1  0.217762  0.041501  0.533549  1
  Pb  Pb28  1  0.281912  0.958041  0.033718  1
  Pb  Pb29  1  0.781912  0.541959  0.466282  1
  Pb  Pb30  1  0.282889  0.542416  0.033640  1
  Pb  Pb31  1  0.782889  0.957584  0.466360  1
  Pb  Pb32  1  0.716747  0.041962  0.966592  1
  Pb  Pb33  1  0.216747  0.458038  0.533408  1
  Pb  Pb34  1  0.344819  0.249847  0.151783  1
  Pb  Pb35  1  0.844819  0.250153  0.348217  1
