# generated using pymatgen
data_Zr6Zn20Ni2PdSe
_symmetry_space_group_name_H-M   'P 1'
_cell_length_a   8.72106417
_cell_length_b   8.72106262
_cell_length_c   8.77365300
_cell_angle_alpha   59.80033790
_cell_angle_beta   59.80034385
_cell_angle_gamma   60.39933890
_symmetry_Int_Tables_number   1
_chemical_formula_structural   Zr6Zn20Ni2PdSe
_chemical_formula_sum   'Zr6 Zn20 Ni2 Pd1 Se1'
_cell_volume   471.81597017
_cell_formula_units_Z   1
loop_
 _symmetry_equiv_pos_site_id
 _symmetry_equiv_pos_as_xyz
  1  'x, y, z'
loop_
 _atom_site_type_symbol
 _atom_site_label
 _atom_site_symmetry_multiplicity
 _atom_site_fract_x
 _atom_site_fract_y
 _atom_site_fract_z
 _atom_site_occupancy
  Zr  Zr0  1  0.710311  0.289689  0.289689  1
  Zr  Zr1  1  0.289689  0.710311  0.710311  1
  Zr  Zr2  1  0.289689  0.710311  0.289689  1
  Zr  Zr3  1  0.710311  0.289689  0.710311  1
  Zr  Zr4  1  0.281429  0.281429  0.718571  1
  Zr  Zr5  1  0.718571  0.718571  0.281429  1
  Zn  Zn6  1  0.117411  0.117411  0.134418  1
  Zn  Zn7  1  0.882589  0.882589  0.865582  1
  Zn  Zn8  1  0.117411  0.117411  0.630761  1
  Zn  Zn9  1  0.134418  0.630761  0.117411  1
  Zn  Zn10  1  0.882589  0.882589  0.369239  1
  Zn  Zn11  1  0.865582  0.369239  0.882589  1
  Zn  Zn12  1  0.630761  0.134418  0.117411  1
  Zn  Zn13  1  0.369239  0.865582  0.882589  1
  Zn  Zn14  1  0.500000  0.000000  0.000000  1
  Zn  Zn15  1  0.000000  0.500000  0.500000  1
  Zn  Zn16  1  0.000000  0.500000  0.000000  1
  Zn  Zn17  1  0.500000  0.000000  0.500000  1
  Zn  Zn18  1  0.337283  0.337283  0.328881  1
  Zn  Zn19  1  0.662717  0.662717  0.671119  1
  Zn  Zn20  1  0.337283  0.337283  0.996554  1
  Zn  Zn21  1  0.328881  0.996554  0.337283  1
  Zn  Zn22  1  0.662717  0.662717  0.003446  1
  Zn  Zn23  1  0.671119  0.003446  0.662717  1
  Zn  Zn24  1  0.996554  0.328881  0.337283  1
  Zn  Zn25  1  0.003446  0.671119  0.662717  1
  Ni  Ni26  1  0.000000  0.000000  0.500000  1
  Ni  Ni27  1  0.500000  0.500000  0.000000  1
  Pd  Pd28  1  0.000000  0.000000  0.000000  1
  Se  Se29  1  0.500000  0.500000  0.500000  1
