# generated using pymatgen
data_Ho4CrRuC4
_symmetry_space_group_name_H-M   'P 1'
_cell_length_a   5.03740200
_cell_length_b   6.45515974
_cell_length_c   9.75447691
_cell_angle_alpha   90.27396099
_cell_angle_beta   90.00000000
_cell_angle_gamma   90.00000000
_symmetry_Int_Tables_number   1
_chemical_formula_structural   Ho4CrRuC4
_chemical_formula_sum   'Ho8 Cr2 Ru2 C8'
_cell_volume   317.18498806
_cell_formula_units_Z   2
loop_
 _symmetry_equiv_pos_site_id
 _symmetry_equiv_pos_as_xyz
  1  'x, y, z'
loop_
 _atom_site_type_symbol
 _atom_site_label
 _atom_site_symmetry_multiplicity
 _atom_site_fract_x
 _atom_site_fract_y
 _atom_site_fract_z
 _atom_site_occupancy
  Ho  Ho0  1  0.250000  0.680073  0.558416  1
  Ho  Ho1  1  0.750000  0.319927  0.441584  1
  Ho  Ho2  1  0.750000  0.821200  0.054947  1
  Ho  Ho3  1  0.250000  0.178800  0.945053  1
  Ho  Ho4  1  0.250000  0.530841  0.216237  1
  Ho  Ho5  1  0.750000  0.469159  0.783763  1
  Ho  Ho6  1  0.750000  0.971664  0.715699  1
  Ho  Ho7  1  0.250000  0.028336  0.284301  1
  Cr  Cr8  1  0.250000  0.723575  0.862449  1
  Cr  Cr9  1  0.750000  0.276425  0.137551  1
  Ru  Ru10  1  0.750000  0.777260  0.363042  1
  Ru  Ru11  1  0.250000  0.222740  0.636958  1
  C  C12  1  0.250000  0.463458  0.764634  1
  C  C13  1  0.750000  0.536542  0.235366  1
  C  C14  1  0.750000  0.048756  0.254622  1
  C  C15  1  0.250000  0.951244  0.745378  1
  C  C16  1  0.250000  0.813659  0.040851  1
  C  C17  1  0.750000  0.186341  0.959149  1
  C  C18  1  0.750000  0.677978  0.549062  1
  C  C19  1  0.250000  0.322022  0.450938  1
