# generated using pymatgen
data_Hf12Ga8Sn3Sb
_symmetry_space_group_name_H-M   'P 1'
_cell_length_a   5.71085100
_cell_length_b   8.77946779
_cell_length_c   9.34340686
_cell_angle_alpha   89.95111468
_cell_angle_beta   90.00000000
_cell_angle_gamma   90.00000000
_symmetry_Int_Tables_number   1
_chemical_formula_structural   Hf12Ga8Sn3Sb
_chemical_formula_sum   'Hf12 Ga8 Sn3 Sb1'
_cell_volume   468.46173410
_cell_formula_units_Z   1
loop_
 _symmetry_equiv_pos_site_id
 _symmetry_equiv_pos_as_xyz
  1  'x, y, z'
loop_
 _atom_site_type_symbol
 _atom_site_label
 _atom_site_symmetry_multiplicity
 _atom_site_fract_x
 _atom_site_fract_y
 _atom_site_fract_z
 _atom_site_occupancy
  Hf  Hf0  1  0.000096  0.750283  0.121447  1
  Hf  Hf1  1  0.499357  0.249518  0.879046  1
  Hf  Hf2  1  0.000643  0.249518  0.879046  1
  Hf  Hf3  1  0.499904  0.750283  0.121447  1
  Hf  Hf4  1  0.750000  0.469679  0.610412  1
  Hf  Hf5  1  0.250000  0.530436  0.389978  1
  Hf  Hf6  1  0.750000  0.970208  0.389454  1
  Hf  Hf7  1  0.250000  0.030334  0.610527  1
  Hf  Hf8  1  0.750000  0.375192  0.198610  1
  Hf  Hf9  1  0.250000  0.625082  0.801835  1
  Hf  Hf10  1  0.750000  0.874335  0.802336  1
  Hf  Hf11  1  0.250000  0.125189  0.196948  1
  Ga  Ga12  1  0.999323  0.750192  0.570824  1
  Ga  Ga13  1  0.499172  0.250064  0.429135  1
  Ga  Ga14  1  0.000828  0.250064  0.429135  1
  Ga  Ga15  1  0.500677  0.750192  0.570824  1
  Ga  Ga16  1  0.750000  0.137467  0.645246  1
  Ga  Ga17  1  0.250000  0.862692  0.355080  1
  Ga  Ga18  1  0.750000  0.637450  0.354743  1
  Ga  Ga19  1  0.250000  0.362909  0.645548  1
  Sn  Sn20  1  0.250000  0.947800  0.913855  1
  Sn  Sn21  1  0.750000  0.550838  0.915182  1
  Sn  Sn22  1  0.250000  0.449355  0.084963  1
  Sb  Sb23  1  0.750000  0.050919  0.084381  1
