# generated using pymatgen
data_Nb16Al2FeNiTe16
_symmetry_space_group_name_H-M   'P 1'
_cell_length_a   4.90692600
_cell_length_b   11.05908202
_cell_length_c   19.36257717
_cell_angle_alpha   90.01141207
_cell_angle_beta   90.00000000
_cell_angle_gamma   90.00000000
_symmetry_Int_Tables_number   1
_chemical_formula_structural   Nb16Al2FeNiTe16
_chemical_formula_sum   'Nb16 Al2 Fe1 Ni1 Te16'
_cell_volume   1050.73147247
_cell_formula_units_Z   1
loop_
 _symmetry_equiv_pos_site_id
 _symmetry_equiv_pos_as_xyz
  1  'x, y, z'
loop_
 _atom_site_type_symbol
 _atom_site_label
 _atom_site_symmetry_multiplicity
 _atom_site_fract_x
 _atom_site_fract_y
 _atom_site_fract_z
 _atom_site_occupancy
  Nb  Nb0  1  0.500771  0.564884  0.382831  1
  Nb  Nb1  1  0.500771  0.435116  0.617169  1
  Nb  Nb2  1  0.499538  0.064401  0.116193  1
  Nb  Nb3  1  0.499538  0.935599  0.883807  1
  Nb  Nb4  1  0.502119  0.705921  0.536975  1
  Nb  Nb5  1  0.502119  0.294079  0.463025  1
  Nb  Nb6  1  0.500625  0.204079  0.963252  1
  Nb  Nb7  1  0.500625  0.795921  0.036748  1
  Nb  Nb8  1  0.999051  0.691368  0.443143  1
  Nb  Nb9  1  0.999051  0.308632  0.556857  1
  Nb  Nb10  1  0.999543  0.189800  0.056536  1
  Nb  Nb11  1  0.999543  0.810200  0.943464  1
  Nb  Nb12  1  0.998153  0.400239  0.391068  1
  Nb  Nb13  1  0.998153  0.599761  0.608932  1
  Nb  Nb14  1  0.000157  0.901476  0.108130  1
  Nb  Nb15  1  0.000157  0.098524  0.891870  1
  Al  Al16  1  0.750138  0.000000  0.000000  1
  Al  Al17  1  0.749969  0.500000  0.500000  1
  Fe  Fe18  1  0.250273  0.000000  0.000000  1
  Ni  Ni19  1  0.250138  0.500000  0.500000  1
  Te  Te20  1  0.006919  0.843784  0.561630  1
  Te  Te21  1  0.006919  0.156216  0.438370  1
  Te  Te22  1  0.005301  0.343331  0.938079  1
  Te  Te23  1  0.005301  0.656669  0.061921  1
  Te  Te24  1  0.492743  0.334144  0.317943  1
  Te  Te25  1  0.492743  0.665856  0.682057  1
  Te  Te26  1  0.495201  0.834413  0.182261  1
  Te  Te27  1  0.495201  0.165587  0.817739  1
  Te  Te28  1  0.493544  0.819527  0.405034  1
  Te  Te29  1  0.493544  0.180473  0.594966  1
  Te  Te30  1  0.494964  0.319657  0.094972  1
  Te  Te31  1  0.494964  0.680343  0.905028  1
  Te  Te32  1  0.006535  0.608010  0.304265  1
  Te  Te33  1  0.006535  0.391990  0.695735  1
  Te  Te34  1  0.004578  0.108142  0.196040  1
  Te  Te35  1  0.004578  0.891858  0.803960  1
