# generated using pymatgen
data_Y2Mn2FeCuO10
_symmetry_space_group_name_H-M   'P 1'
_cell_length_a   7.46366400
_cell_length_b   8.53813900
_cell_length_c   5.71765500
_cell_angle_alpha   90.00000000
_cell_angle_beta   90.00000000
_cell_angle_gamma   90.00000000
_symmetry_Int_Tables_number   1
_chemical_formula_structural   Y2Mn2FeCuO10
_chemical_formula_sum   'Y4 Mn4 Fe2 Cu2 O20'
_cell_volume   364.36214289
_cell_formula_units_Z   2
loop_
 _symmetry_equiv_pos_site_id
 _symmetry_equiv_pos_as_xyz
  1  'x, y, z'
loop_
 _atom_site_type_symbol
 _atom_site_label
 _atom_site_symmetry_multiplicity
 _atom_site_fract_x
 _atom_site_fract_y
 _atom_site_fract_z
 _atom_site_occupancy
  Y  Y0  1  0.136378  0.172417  0.000000  1
  Y  Y1  1  0.636379  0.327583  0.000000  1
  Y  Y2  1  0.356269  0.669739  0.000000  1
  Y  Y3  1  0.856268  0.830261  0.000000  1
  Mn  Mn4  1  0.500526  0.999888  0.254369  1
  Mn  Mn5  1  0.000525  0.500112  0.254369  1
  Mn  Mn6  1  0.500526  0.999888  0.745631  1
  Mn  Mn7  1  0.000525  0.500112  0.745631  1
  Fe  Fe8  1  0.606968  0.645014  0.499999  1
  Fe  Fe9  1  0.106967  0.854987  0.499999  1
  Cu  Cu10  1  0.923306  0.153916  0.499999  1
  Cu  Cu11  1  0.423306  0.346084  0.499999  1
  O  O12  1  0.659643  0.056505  0.000000  1
  O  O13  1  0.159643  0.443496  0.000000  1
  O  O14  1  0.834506  0.553691  0.000000  1
  O  O15  1  0.334505  0.946309  0.000000  1
  O  O16  1  0.396255  0.208031  0.244622  1
  O  O17  1  0.896256  0.291969  0.244622  1
  O  O18  1  0.100535  0.709385  0.237572  1
  O  O19  1  0.600536  0.790614  0.237572  1
  O  O20  1  0.996441  0.004871  0.272075  1
  O  O21  1  0.496442  0.495129  0.272075  1
  O  O22  1  0.648212  0.061232  0.499999  1
  O  O23  1  0.148213  0.438769  0.499999  1
  O  O24  1  0.847204  0.572470  0.499999  1
  O  O25  1  0.347204  0.927531  0.499999  1
  O  O26  1  0.996441  0.004871  0.727925  1
  O  O27  1  0.496442  0.495129  0.727925  1
  O  O28  1  0.396255  0.208031  0.755377  1
  O  O29  1  0.896256  0.291969  0.755377  1
  O  O30  1  0.100535  0.709385  0.762427  1
  O  O31  1  0.600536  0.790614  0.762427  1
