# generated using pymatgen
data_Nd2Y3Ga4
_symmetry_space_group_name_H-M   'P 1'
_cell_length_a   7.97175200
_cell_length_b   7.97175200
_cell_length_c   14.89373000
_cell_angle_alpha   90.00000000
_cell_angle_beta   90.00000000
_cell_angle_gamma   90.00000000
_symmetry_Int_Tables_number   1
_chemical_formula_structural   Nd2Y3Ga4
_chemical_formula_sum   'Nd8 Y12 Ga16'
_cell_volume   946.47911508
_cell_formula_units_Z   4
loop_
 _symmetry_equiv_pos_site_id
 _symmetry_equiv_pos_as_xyz
  1  'x, y, z'
loop_
 _atom_site_type_symbol
 _atom_site_label
 _atom_site_symmetry_multiplicity
 _atom_site_fract_x
 _atom_site_fract_y
 _atom_site_fract_z
 _atom_site_occupancy
  Nd  Nd0  1  0.639657  0.990710  0.458449  1
  Nd  Nd1  1  0.360343  0.009290  0.958449  1
  Nd  Nd2  1  0.990710  0.639657  0.541551  1
  Nd  Nd3  1  0.490710  0.860343  0.208449  1
  Nd  Nd4  1  0.509290  0.139657  0.708449  1
  Nd  Nd5  1  0.860343  0.490710  0.791551  1
  Nd  Nd6  1  0.139657  0.509290  0.291551  1
  Nd  Nd7  1  0.009290  0.360343  0.041551  1
  Y  Y8  1  0.492715  0.356340  0.125055  1
  Y  Y9  1  0.992715  0.143660  0.624945  1
  Y  Y10  1  0.856340  0.007285  0.875055  1
  Y  Y11  1  0.143660  0.992715  0.375055  1
  Y  Y12  1  0.507285  0.643660  0.625055  1
  Y  Y13  1  0.356340  0.492715  0.874945  1
  Y  Y14  1  0.643660  0.507285  0.374945  1
  Y  Y15  1  0.007285  0.856340  0.124945  1
  Y  Y16  1  0.320317  0.320317  0.500000  1
  Y  Y17  1  0.179683  0.820317  0.750000  1
  Y  Y18  1  0.820317  0.179683  0.250000  1
  Y  Y19  1  0.679683  0.679683  0.000000  1
  Ga  Ga20  1  0.288328  0.937177  0.561481  1
  Ga  Ga21  1  0.711672  0.062823  0.061481  1
  Ga  Ga22  1  0.937177  0.288328  0.438519  1
  Ga  Ga23  1  0.437177  0.211672  0.311481  1
  Ga  Ga24  1  0.562823  0.788328  0.811481  1
  Ga  Ga25  1  0.211672  0.437177  0.688519  1
  Ga  Ga26  1  0.788328  0.562823  0.188519  1
  Ga  Ga27  1  0.062823  0.711672  0.938519  1
  Ga  Ga28  1  0.798170  0.846564  0.687949  1
  Ga  Ga29  1  0.201830  0.153436  0.187949  1
  Ga  Ga30  1  0.846564  0.798170  0.312051  1
  Ga  Ga31  1  0.346564  0.701830  0.437949  1
  Ga  Ga32  1  0.653436  0.298170  0.937949  1
  Ga  Ga33  1  0.701830  0.346564  0.562051  1
  Ga  Ga34  1  0.298170  0.653436  0.062051  1
  Ga  Ga35  1  0.153436  0.201830  0.812051  1
