# generated using pymatgen
data_TbEr15(ZnIn3)2
_symmetry_space_group_name_H-M   'P 1'
_cell_length_a   10.57495400
_cell_length_b   10.57246444
_cell_length_c   6.73160300
_cell_angle_alpha   89.99756992
_cell_angle_beta   90.00000000
_cell_angle_gamma   120.00778977
_symmetry_Int_Tables_number   1
_chemical_formula_structural   TbEr15(ZnIn3)2
_chemical_formula_sum   'Tb1 Er15 Zn2 In6'
_cell_volume   651.73305968
_cell_formula_units_Z   1
loop_
 _symmetry_equiv_pos_site_id
 _symmetry_equiv_pos_as_xyz
  1  'x, y, z'
loop_
 _atom_site_type_symbol
 _atom_site_label
 _atom_site_symmetry_multiplicity
 _atom_site_fract_x
 _atom_site_fract_y
 _atom_site_fract_z
 _atom_site_occupancy
  Tb  Tb0  1  0.521710  0.043418  0.517922  1
  Er  Er1  1  0.956257  0.478020  0.518150  1
  Er  Er2  1  0.521766  0.478020  0.518150  1
  Er  Er3  1  0.478173  0.956349  0.018089  1
  Er  Er4  1  0.043563  0.521790  0.018111  1
  Er  Er5  1  0.478224  0.521790  0.018111  1
  Er  Er6  1  0.172966  0.345934  0.732307  1
  Er  Er7  1  0.654162  0.826809  0.732455  1
  Er  Er8  1  0.172646  0.826809  0.732455  1
  Er  Er9  1  0.827102  0.654203  0.232308  1
  Er  Er10  1  0.345694  0.173025  0.231980  1
  Er  Er11  1  0.827332  0.173025  0.231980  1
  Er  Er12  1  0.666855  0.333710  0.871582  1
  Er  Er13  1  0.333134  0.666270  0.370950  1
  Er  Er14  1  0.999920  0.999840  0.498191  1
  Er  Er15  1  0.000021  0.000041  0.998065  1
  Zn  Zn16  1  0.666931  0.333862  0.301455  1
  Zn  Zn17  1  0.333407  0.666814  0.801764  1
  In  In18  1  0.835603  0.671208  0.749891  1
  In  In19  1  0.328567  0.164614  0.750270  1
  In  In20  1  0.836047  0.164614  0.750270  1
  In  In21  1  0.164410  0.328818  0.249967  1
  In  In22  1  0.671180  0.835509  0.249888  1
  In  In23  1  0.164330  0.835509  0.249888  1
