# generated using pymatgen
data_Er10In5Hg3PdPt3
_symmetry_space_group_name_H-M   'P 1'
_cell_length_a   3.59045300
_cell_length_b   8.03301407
_cell_length_c   18.20628011
_cell_angle_alpha   89.95628197
_cell_angle_beta   90.00000000
_cell_angle_gamma   90.00000000
_symmetry_Int_Tables_number   1
_chemical_formula_structural   Er10In5Hg3PdPt3
_chemical_formula_sum   'Er10 In5 Hg3 Pd1 Pt3'
_cell_volume   525.10828112
_cell_formula_units_Z   1
loop_
 _symmetry_equiv_pos_site_id
 _symmetry_equiv_pos_as_xyz
  1  'x, y, z'
loop_
 _atom_site_type_symbol
 _atom_site_label
 _atom_site_symmetry_multiplicity
 _atom_site_fract_x
 _atom_site_fract_y
 _atom_site_fract_z
 _atom_site_occupancy
  Er  Er0  1  0.000000  0.503954  0.497819  1
  Er  Er1  1  0.000000  0.999630  0.000100  1
  Er  Er2  1  0.000000  0.742419  0.283326  1
  Er  Er3  1  0.000000  0.255695  0.720295  1
  Er  Er4  1  0.000000  0.754872  0.782720  1
  Er  Er5  1  0.000000  0.248360  0.215467  1
  Er  Er6  1  0.000000  0.609563  0.084972  1
  Er  Er7  1  0.000000  0.392007  0.915948  1
  Er  Er8  1  0.000000  0.883309  0.585215  1
  Er  Er9  1  0.000000  0.108998  0.415115  1
  In  In10  1  0.500000  0.210190  0.566603  1
  In  In11  1  0.500000  0.576040  0.648458  1
  In  In12  1  0.500000  0.418952  0.351073  1
  In  In13  1  0.500000  0.921610  0.148708  1
  In  In14  1  0.500000  0.078532  0.852465  1
  Hg  Hg15  1  0.500000  0.715008  0.934657  1
  Hg  Hg16  1  0.500000  0.286752  0.064864  1
  Hg  Hg17  1  0.500000  0.789004  0.433113  1
  Pd  Pd18  1  0.500000  0.031834  0.301420  1
  Pt  Pt19  1  0.500000  0.531120  0.198060  1
  Pt  Pt20  1  0.500000  0.470541  0.802699  1
  Pt  Pt21  1  0.500000  0.971611  0.696904  1
