# generated using pymatgen
data_DyLu2Ni9
_symmetry_space_group_name_H-M   'P 1'
_cell_length_a   4.90713009
_cell_length_b   4.90712856
_cell_length_c   8.49911256
_cell_angle_alpha   73.22076379
_cell_angle_beta   73.22077238
_cell_angle_gamma   60.00001600
_symmetry_Int_Tables_number   1
_chemical_formula_structural   DyLu2Ni9
_chemical_formula_sum   'Dy1 Lu2 Ni9'
_cell_volume   167.10183202
_cell_formula_units_Z   1
loop_
 _symmetry_equiv_pos_site_id
 _symmetry_equiv_pos_as_xyz
  1  'x, y, z'
loop_
 _atom_site_type_symbol
 _atom_site_label
 _atom_site_symmetry_multiplicity
 _atom_site_fract_x
 _atom_site_fract_y
 _atom_site_fract_z
 _atom_site_occupancy
  Dy  Dy0  1  0.000000  0.000000  0.000000  1
  Lu  Lu1  1  0.139568  0.139568  0.581297  1
  Lu  Lu2  1  0.860432  0.860432  0.418703  1
  Ni  Ni3  1  0.080712  0.584408  0.750474  1
  Ni  Ni4  1  0.584408  0.584408  0.750474  1
  Ni  Ni5  1  0.584408  0.080712  0.750474  1
  Ni  Ni6  1  0.919288  0.415592  0.249526  1
  Ni  Ni7  1  0.415592  0.415592  0.249526  1
  Ni  Ni8  1  0.415592  0.919288  0.249526  1
  Ni  Ni9  1  0.333303  0.333303  0.000091  1
  Ni  Ni10  1  0.666697  0.666697  0.999909  1
  Ni  Ni11  1  0.500000  0.500000  0.500000  1
