# generated using pymatgen
data_DyZr8(In2Co)7
_symmetry_space_group_name_H-M   'P 1'
_cell_length_a   9.47836312
_cell_length_b   9.47842368
_cell_length_c   9.47836312
_cell_angle_alpha   120.01050605
_cell_angle_beta   89.98158723
_cell_angle_gamma   120.01050605
_symmetry_Int_Tables_number   1
_chemical_formula_structural   DyZr8(In2Co)7
_chemical_formula_sum   'Dy1 Zr8 In14 Co7'
_cell_volume   602.03207730
_cell_formula_units_Z   1
loop_
 _symmetry_equiv_pos_site_id
 _symmetry_equiv_pos_as_xyz
  1  'x, y, z'
loop_
 _atom_site_type_symbol
 _atom_site_label
 _atom_site_symmetry_multiplicity
 _atom_site_fract_x
 _atom_site_fract_y
 _atom_site_fract_z
 _atom_site_occupancy
  Dy  Dy0  1  0.000004  0.000006  0.000004  1
  Zr  Zr1  1  0.378290  0.758187  0.136463  1
  Zr  Zr2  1  0.620106  0.241824  0.378273  1
  Zr  Zr3  1  0.136463  0.758187  0.378290  1
  Zr  Zr4  1  0.621727  0.758189  0.379905  1
  Zr  Zr5  1  0.378273  0.241824  0.620106  1
  Zr  Zr6  1  0.863550  0.241819  0.621721  1
  Zr  Zr7  1  0.379905  0.758189  0.621727  1
  Zr  Zr8  1  0.621721  0.241819  0.863550  1
  In  In9  1  0.344288  0.000002  0.000392  1
  In  In10  1  0.655727  0.000004  0.999584  1
  In  In11  1  0.999559  0.343847  0.999559  1
  In  In12  1  0.344462  0.344440  0.999977  1
  In  In13  1  0.000382  0.656098  0.000382  1
  In  In14  1  0.655552  0.655543  0.999991  1
  In  In15  1  0.750019  0.500022  0.250019  1
  In  In16  1  0.000392  0.000002  0.344288  1
  In  In17  1  0.999977  0.344440  0.344462  1
  In  In18  1  0.344301  0.343889  0.344301  1
  In  In19  1  0.999584  0.000004  0.655727  1
  In  In20  1  0.999991  0.655543  0.655552  1
  In  In21  1  0.655725  0.656133  0.655725  1
  In  In22  1  0.250019  0.500022  0.750019  1
  Co  Co23  1  0.281353  0.000013  0.281353  1
  Co  Co24  1  0.719709  0.000010  0.280305  1
  Co  Co25  1  0.280267  0.560528  0.280267  1
  Co  Co26  1  0.499993  0.999989  0.499993  1
  Co  Co27  1  0.280305  0.000010  0.719709  1
  Co  Co28  1  0.718655  0.000013  0.718655  1
  Co  Co29  1  0.719706  0.439411  0.719706  1
