# generated using pymatgen
data_Sc5Sb3Pt
_symmetry_space_group_name_H-M   'P 1'
_cell_length_a   7.56890300
_cell_length_b   14.46732000
_cell_length_c   7.60260600
_cell_angle_alpha   90.00000000
_cell_angle_beta   90.00000000
_cell_angle_gamma   90.00000000
_symmetry_Int_Tables_number   1
_chemical_formula_structural   Sc5Sb3Pt
_chemical_formula_sum   'Sc20 Sb12 Pt4'
_cell_volume   832.49859884
_cell_formula_units_Z   4
loop_
 _symmetry_equiv_pos_site_id
 _symmetry_equiv_pos_as_xyz
  1  'x, y, z'
loop_
 _atom_site_type_symbol
 _atom_site_label
 _atom_site_symmetry_multiplicity
 _atom_site_fract_x
 _atom_site_fract_y
 _atom_site_fract_z
 _atom_site_occupancy
  Sc  Sc0  1  0.223655  0.250000  0.025006  1
  Sc  Sc1  1  0.102957  0.621349  0.142449  1
  Sc  Sc2  1  0.102957  0.878651  0.142449  1
  Sc  Sc3  1  0.552925  0.117381  0.191542  1
  Sc  Sc4  1  0.552925  0.382619  0.191542  1
  Sc  Sc5  1  0.052925  0.117381  0.308458  1
  Sc  Sc6  1  0.052925  0.382619  0.308458  1
  Sc  Sc7  1  0.602956  0.621349  0.357551  1
  Sc  Sc8  1  0.602956  0.878651  0.357551  1
  Sc  Sc9  1  0.723655  0.250000  0.474994  1
  Sc  Sc10  1  0.276345  0.750000  0.525006  1
  Sc  Sc11  1  0.397043  0.121349  0.642449  1
  Sc  Sc12  1  0.397043  0.378651  0.642449  1
  Sc  Sc13  1  0.947075  0.617381  0.691543  1
  Sc  Sc14  1  0.947075  0.882619  0.691543  1
  Sc  Sc15  1  0.447075  0.617381  0.808458  1
  Sc  Sc16  1  0.447075  0.882619  0.808458  1
  Sc  Sc17  1  0.897043  0.121349  0.857551  1
  Sc  Sc18  1  0.897043  0.378651  0.857551  1
  Sc  Sc19  1  0.776345  0.750000  0.974994  1
  Sb  Sb20  1  0.757064  0.543617  0.030787  1
  Sb  Sb21  1  0.757064  0.956383  0.030787  1
  Sb  Sb22  1  0.405679  0.750000  0.122757  1
  Sb  Sb23  1  0.905679  0.750000  0.377243  1
  Sb  Sb24  1  0.257064  0.543617  0.469213  1
  Sb  Sb25  1  0.257064  0.956383  0.469213  1
  Sb  Sb26  1  0.742936  0.043617  0.530787  1
  Sb  Sb27  1  0.742936  0.456383  0.530787  1
  Sb  Sb28  1  0.094321  0.250000  0.622757  1
  Sb  Sb29  1  0.594321  0.250000  0.877243  1
  Sb  Sb30  1  0.242935  0.043617  0.969213  1
  Sb  Sb31  1  0.242935  0.456383  0.969213  1
  Pt  Pt32  1  0.869555  0.250000  0.133816  1
  Pt  Pt33  1  0.369555  0.250000  0.366184  1
  Pt  Pt34  1  0.630444  0.750000  0.633816  1
  Pt  Pt35  1  0.130444  0.750000  0.866184  1
