# generated using pymatgen
data_Ba3Si8PbAu20
_symmetry_space_group_name_H-M   'P 1'
_cell_length_a   7.04582500
_cell_length_b   9.06237553
_cell_length_c   10.69892058
_cell_angle_alpha   89.38373955
_cell_angle_beta   90.00000000
_cell_angle_gamma   90.00000000
_symmetry_Int_Tables_number   1
_chemical_formula_structural   Ba3Si8PbAu20
_chemical_formula_sum   'Ba3 Si8 Pb1 Au20'
_cell_volume   683.10702090
_cell_formula_units_Z   1
loop_
 _symmetry_equiv_pos_site_id
 _symmetry_equiv_pos_as_xyz
  1  'x, y, z'
loop_
 _atom_site_type_symbol
 _atom_site_label
 _atom_site_symmetry_multiplicity
 _atom_site_fract_x
 _atom_site_fract_y
 _atom_site_fract_z
 _atom_site_occupancy
  Ba  Ba0  1  0.250000  0.721570  0.394656  1
  Ba  Ba1  1  0.750000  0.774979  0.891966  1
  Ba  Ba2  1  0.750000  0.280430  0.608929  1
  Si  Si3  1  0.250000  0.061410  0.626553  1
  Si  Si4  1  0.250000  0.549539  0.864729  1
  Si  Si5  1  0.750000  0.943046  0.358434  1
  Si  Si6  1  0.750000  0.455767  0.132255  1
  Si  Si7  1  0.250000  0.312209  0.443092  1
  Si  Si8  1  0.250000  0.817162  0.054380  1
  Si  Si9  1  0.750000  0.693126  0.557246  1
  Si  Si10  1  0.750000  0.180889  0.939914  1
  Pb  Pb11  1  0.250000  0.173443  0.110156  1
  Au  Au12  1  0.045236  0.082981  0.389828  1
  Au  Au13  1  0.451835  0.591891  0.111913  1
  Au  Au14  1  0.546501  0.919471  0.615783  1
  Au  Au15  1  0.954858  0.412189  0.897862  1
  Au  Au16  1  0.953499  0.919471  0.615783  1
  Au  Au17  1  0.545142  0.412189  0.897862  1
  Au  Au18  1  0.454764  0.082981  0.389828  1
  Au  Au19  1  0.048165  0.591891  0.111913  1
  Au  Au20  1  0.044881  0.097487  0.846487  1
  Au  Au21  1  0.466768  0.598410  0.663874  1
  Au  Au22  1  0.534008  0.915252  0.156098  1
  Au  Au23  1  0.968519  0.395712  0.329697  1
  Au  Au24  1  0.965992  0.915252  0.156098  1
  Au  Au25  1  0.531481  0.395712  0.329697  1
  Au  Au26  1  0.455119  0.097487  0.846487  1
  Au  Au27  1  0.033232  0.598410  0.663874  1
  Au  Au28  1  0.250000  0.329723  0.672983  1
  Au  Au29  1  0.250000  0.823942  0.825947  1
  Au  Au30  1  0.750000  0.671487  0.328781  1
  Au  Au31  1  0.750000  0.184489  0.166893  1
