# generated using pymatgen
data_Zr13TaPt20
_symmetry_space_group_name_H-M   'P 1'
_cell_length_a   8.18039764
_cell_length_b   8.18039788
_cell_length_c   9.74845120
_cell_angle_alpha   90.03375815
_cell_angle_beta   90.03375842
_cell_angle_gamma   107.05977089
_symmetry_Int_Tables_number   1
_chemical_formula_structural   Zr13TaPt20
_chemical_formula_sum   'Zr13 Ta1 Pt20'
_cell_volume   623.65124745
_cell_formula_units_Z   1
loop_
 _symmetry_equiv_pos_site_id
 _symmetry_equiv_pos_as_xyz
  1  'x, y, z'
loop_
 _atom_site_type_symbol
 _atom_site_label
 _atom_site_symmetry_multiplicity
 _atom_site_fract_x
 _atom_site_fract_y
 _atom_site_fract_z
 _atom_site_occupancy
  Zr  Zr0  1  0.689759  0.310241  0.000000  1
  Zr  Zr1  1  0.310241  0.689759  0.000000  1
  Zr  Zr2  1  0.809861  0.190139  0.500000  1
  Zr  Zr3  1  0.190139  0.809861  0.500000  1
  Zr  Zr4  1  0.500000  0.500000  0.500000  1
  Zr  Zr5  1  0.002043  0.502037  0.249040  1
  Zr  Zr6  1  0.997957  0.497963  0.750960  1
  Zr  Zr7  1  0.497963  0.997957  0.750960  1
  Zr  Zr8  1  0.502037  0.002043  0.249040  1
  Zr  Zr9  1  0.316905  0.316905  0.182220  1
  Zr  Zr10  1  0.683095  0.683095  0.817780  1
  Zr  Zr11  1  0.182145  0.182145  0.684279  1
  Zr  Zr12  1  0.817855  0.817855  0.315721  1
  Ta  Ta13  1  0.000000  0.000000  0.000000  1
  Pt  Pt14  1  0.856971  0.143450  0.205060  1
  Pt  Pt15  1  0.143029  0.856550  0.794940  1
  Pt  Pt16  1  0.647285  0.353103  0.708620  1
  Pt  Pt17  1  0.646897  0.352715  0.291380  1
  Pt  Pt18  1  0.352715  0.646897  0.291380  1
  Pt  Pt19  1  0.353103  0.647285  0.708620  1
  Pt  Pt20  1  0.856550  0.143029  0.794940  1
  Pt  Pt21  1  0.143450  0.856971  0.205060  1
  Pt  Pt22  1  0.938606  0.650000  0.000167  1
  Pt  Pt23  1  0.061394  0.350000  0.999833  1
  Pt  Pt24  1  0.563085  0.854881  0.499525  1
  Pt  Pt25  1  0.145119  0.436915  0.500475  1
  Pt  Pt26  1  0.436915  0.145119  0.500475  1
  Pt  Pt27  1  0.854881  0.563085  0.499525  1
  Pt  Pt28  1  0.350000  0.061394  0.999833  1
  Pt  Pt29  1  0.650000  0.938606  0.000167  1
  Pt  Pt30  1  0.108419  0.108419  0.394137  1
  Pt  Pt31  1  0.891581  0.891581  0.605863  1
  Pt  Pt32  1  0.393234  0.393234  0.892879  1
  Pt  Pt33  1  0.606766  0.606766  0.107121  1
