# generated using pymatgen
data_DyTm11Tc4
_symmetry_space_group_name_H-M   'P 1'
_cell_length_a   6.15373577
_cell_length_b   7.38943982
_cell_length_c   9.00464900
_cell_angle_alpha   90.00000000
_cell_angle_beta   90.00000000
_cell_angle_gamma   90.05653229
_symmetry_Int_Tables_number   1
_chemical_formula_structural   DyTm11Tc4
_chemical_formula_sum   'Dy1 Tm11 Tc4'
_cell_volume   409.46514408
_cell_formula_units_Z   1
loop_
 _symmetry_equiv_pos_site_id
 _symmetry_equiv_pos_as_xyz
  1  'x, y, z'
loop_
 _atom_site_type_symbol
 _atom_site_label
 _atom_site_symmetry_multiplicity
 _atom_site_fract_x
 _atom_site_fract_y
 _atom_site_fract_z
 _atom_site_occupancy
  Dy  Dy0  1  0.624756  0.040000  0.250000  1
  Tm  Tm1  1  0.126004  0.459312  0.750000  1
  Tm  Tm2  1  0.657048  0.325954  0.937330  1
  Tm  Tm3  1  0.375152  0.960653  0.750000  1
  Tm  Tm4  1  0.874561  0.539752  0.250000  1
  Tm  Tm5  1  0.156084  0.175454  0.438438  1
  Tm  Tm6  1  0.843609  0.823699  0.562674  1
  Tm  Tm7  1  0.156084  0.175454  0.061562  1
  Tm  Tm8  1  0.843609  0.823699  0.937326  1
  Tm  Tm9  1  0.657048  0.325954  0.562670  1
  Tm  Tm10  1  0.342373  0.675138  0.061767  1
  Tm  Tm11  1  0.342373  0.675138  0.438233  1
  Tc  Tc12  1  0.542465  0.616425  0.750000  1
  Tc  Tc13  1  0.957379  0.115721  0.750000  1
  Tc  Tc14  1  0.044257  0.883281  0.250000  1
  Tc  Tc15  1  0.457198  0.384369  0.250000  1
