# generated using pymatgen
data_Ho5(TlSb)2
_symmetry_space_group_name_H-M   'P 1'
_cell_length_a   8.76696576
_cell_length_b   8.76693722
_cell_length_c   8.10859313
_cell_angle_alpha   90.00942888
_cell_angle_beta   90.00927904
_cell_angle_gamma   124.91746019
_symmetry_Int_Tables_number   1
_chemical_formula_structural   Ho5(TlSb)2
_chemical_formula_sum   'Ho10 Tl4 Sb4'
_cell_volume   511.02790458
_cell_formula_units_Z   2
loop_
 _symmetry_equiv_pos_site_id
 _symmetry_equiv_pos_as_xyz
  1  'x, y, z'
loop_
 _atom_site_type_symbol
 _atom_site_label
 _atom_site_symmetry_multiplicity
 _atom_site_fract_x
 _atom_site_fract_y
 _atom_site_fract_z
 _atom_site_occupancy
  Ho  Ho0  1  0.030422  0.305214  0.335083  1
  Ho  Ho1  1  0.969578  0.694786  0.664917  1
  Ho  Ho2  1  0.469590  0.194780  0.835091  1
  Ho  Ho3  1  0.805215  0.530407  0.164910  1
  Ho  Ho4  1  0.530410  0.805220  0.164909  1
  Ho  Ho5  1  0.194785  0.469593  0.835090  1
  Ho  Ho6  1  0.694787  0.969580  0.664911  1
  Ho  Ho7  1  0.305213  0.030420  0.335089  1
  Ho  Ho8  1  0.000000  0.000000  0.000000  1
  Ho  Ho9  1  0.500000  0.500000  0.500000  1
  Tl  Tl10  1  0.366336  0.366334  0.133047  1
  Tl  Tl11  1  0.633664  0.633666  0.866953  1
  Tl  Tl12  1  0.133676  0.133680  0.633058  1
  Tl  Tl13  1  0.866324  0.866320  0.366942  1
  Sb  Sb14  1  0.796691  0.203310  0.999997  1
  Sb  Sb15  1  0.203309  0.796690  0.000003  1
  Sb  Sb16  1  0.703306  0.296695  0.499998  1
  Sb  Sb17  1  0.296694  0.703305  0.500002  1
