# generated using pymatgen
data_DyHo3ReB12Rh
_symmetry_space_group_name_H-M   'P 1'
_cell_length_a   3.67358700
_cell_length_b   9.13884702
_cell_length_c   11.52940903
_cell_angle_alpha   90.44808333
_cell_angle_beta   90.00000000
_cell_angle_gamma   90.00000000
_symmetry_Int_Tables_number   1
_chemical_formula_structural   DyHo3ReB12Rh
_chemical_formula_sum   'Dy2 Ho6 Re2 B24 Rh2'
_cell_volume   387.05751423
_cell_formula_units_Z   2
loop_
 _symmetry_equiv_pos_site_id
 _symmetry_equiv_pos_as_xyz
  1  'x, y, z'
loop_
 _atom_site_type_symbol
 _atom_site_label
 _atom_site_symmetry_multiplicity
 _atom_site_fract_x
 _atom_site_fract_y
 _atom_site_fract_z
 _atom_site_occupancy
  Dy  Dy0  1  0.000000  0.318615  0.410757  1
  Dy  Dy1  1  0.000000  0.681385  0.589243  1
  Ho  Ho2  1  0.000000  0.826312  0.082667  1
  Ho  Ho3  1  0.000000  0.173688  0.917333  1
  Ho  Ho4  1  0.000000  0.945163  0.371789  1
  Ho  Ho5  1  0.000000  0.054837  0.628211  1
  Ho  Ho6  1  0.000000  0.442406  0.126569  1
  Ho  Ho7  1  0.000000  0.557594  0.873431  1
  Re  Re8  1  0.000000  0.138666  0.179512  1
  Re  Re9  1  0.000000  0.861334  0.820488  1
  B  B10  1  0.500000  0.554341  0.433942  1
  B  B11  1  0.500000  0.445659  0.566058  1
  B  B12  1  0.500000  0.052893  0.067378  1
  B  B13  1  0.500000  0.947107  0.932622  1
  B  B14  1  0.500000  0.748886  0.421193  1
  B  B15  1  0.500000  0.251114  0.578807  1
  B  B16  1  0.500000  0.248137  0.081146  1
  B  B17  1  0.500000  0.751863  0.918854  1
  B  B18  1  0.500000  0.791110  0.265341  1
  B  B19  1  0.500000  0.208890  0.734659  1
  B  B20  1  0.500000  0.292591  0.234419  1
  B  B21  1  0.500000  0.707409  0.765581  1
  B  B22  1  0.500000  0.632570  0.183552  1
  B  B23  1  0.500000  0.367430  0.816448  1
  B  B24  1  0.500000  0.131824  0.314620  1
  B  B25  1  0.500000  0.868176  0.685380  1
  B  B26  1  0.500000  0.982918  0.212939  1
  B  B27  1  0.500000  0.017082  0.787061  1
  B  B28  1  0.500000  0.483612  0.287578  1
  B  B29  1  0.500000  0.516388  0.712422  1
  B  B30  1  0.500000  0.606960  0.029688  1
  B  B31  1  0.500000  0.393040  0.970312  1
  B  B32  1  0.500000  0.107818  0.470880  1
  B  B33  1  0.500000  0.892182  0.529120  1
  Rh  Rh34  1  0.000000  0.637910  0.321300  1
  Rh  Rh35  1  0.000000  0.362090  0.678700  1
