# generated using pymatgen
data_Zr10Tl5InCuSe
_symmetry_space_group_name_H-M   'P 1'
_cell_length_a   8.77855906
_cell_length_b   8.78032381
_cell_length_c   5.93645600
_cell_angle_alpha   89.99892858
_cell_angle_beta   90.00053789
_cell_angle_gamma   120.00663744
_symmetry_Int_Tables_number   1
_chemical_formula_structural   Zr10Tl5InCuSe
_chemical_formula_sum   'Zr10 Tl5 In1 Cu1 Se1'
_cell_volume   396.24391143
_cell_formula_units_Z   1
loop_
 _symmetry_equiv_pos_site_id
 _symmetry_equiv_pos_as_xyz
  1  'x, y, z'
loop_
 _atom_site_type_symbol
 _atom_site_label
 _atom_site_symmetry_multiplicity
 _atom_site_fract_x
 _atom_site_fract_y
 _atom_site_fract_z
 _atom_site_occupancy
  Zr  Zr0  1  0.742002  0.742290  0.247511  1
  Zr  Zr1  1  0.257998  0.000288  0.247511  1
  Zr  Zr2  1  0.000000  0.257781  0.246919  1
  Zr  Zr3  1  0.257145  0.258363  0.752688  1
  Zr  Zr4  1  0.742855  0.001218  0.752688  1
  Zr  Zr5  1  0.000000  0.741051  0.752701  1
  Zr  Zr6  1  0.667252  0.333479  0.500634  1
  Zr  Zr7  1  0.332748  0.666228  0.500634  1
  Zr  Zr8  1  0.332720  0.666161  0.999341  1
  Zr  Zr9  1  0.667280  0.333440  0.999341  1
  Tl  Tl10  1  0.388802  0.388721  0.249194  1
  Tl  Tl11  1  0.611198  0.999919  0.249194  1
  Tl  Tl12  1  0.000000  0.610484  0.249015  1
  Tl  Tl13  1  0.611284  0.611363  0.750869  1
  Tl  Tl14  1  0.388716  0.000079  0.750869  1
  In  In15  1  0.000000  0.389059  0.751041  1
  Cu  Cu16  1  0.000000  0.000281  0.999696  1
  Se  Se17  1  0.000000  0.999793  0.500155  1
