# generated using pymatgen
data_Sm9GdB2Cl15
_symmetry_space_group_name_H-M   'P 1'
_cell_length_a   8.85533425
_cell_length_b   9.67748782
_cell_length_c   10.45862300
_cell_angle_alpha   90.74184437
_cell_angle_beta   114.54960295
_cell_angle_gamma   111.16585119
_symmetry_Int_Tables_number   1
_chemical_formula_structural   Sm9GdB2Cl15
_chemical_formula_sum   'Sm9 Gd1 B2 Cl15'
_cell_volume   746.09459192
_cell_formula_units_Z   1
loop_
 _symmetry_equiv_pos_site_id
 _symmetry_equiv_pos_as_xyz
  1  'x, y, z'
loop_
 _atom_site_type_symbol
 _atom_site_label
 _atom_site_symmetry_multiplicity
 _atom_site_fract_x
 _atom_site_fract_y
 _atom_site_fract_z
 _atom_site_occupancy
  Sm  Sm0  1  0.812869  0.420116  0.279642  1
  Sm  Sm1  1  0.187834  0.581172  0.721158  1
  Sm  Sm2  1  0.681657  0.743219  0.817328  1
  Sm  Sm3  1  0.318544  0.255674  0.181379  1
  Sm  Sm4  1  0.527275  0.700693  0.102336  1
  Sm  Sm5  1  0.471847  0.298708  0.897197  1
  Sm  Sm6  1  0.591740  0.038347  0.333117  1
  Sm  Sm7  1  0.406279  0.960873  0.666355  1
  Sm  Sm8  1  0.734897  0.078330  0.048731  1
  Gd  Gd9  1  0.271709  0.923974  0.952814  1
  B  B10  1  0.466220  0.816438  0.875188  1
  B  B11  1  0.535073  0.183507  0.124769  1
  Cl  Cl12  1  0.002029  0.998716  0.999047  1
  Cl  Cl13  1  0.632696  0.882659  0.584344  1
  Cl  Cl14  1  0.362417  0.115207  0.413539  1
  Cl  Cl15  1  0.883292  0.299726  0.523842  1
  Cl  Cl16  1  0.114121  0.699382  0.475579  1
  Cl  Cl17  1  0.294140  0.765129  0.180534  1
  Cl  Cl18  1  0.702882  0.235049  0.815115  1
  Cl  Cl19  1  0.058475  0.346074  0.227205  1
  Cl  Cl20  1  0.165148  0.056239  0.707666  1
  Cl  Cl21  1  0.834042  0.941430  0.295806  1
  Cl  Cl22  1  0.234898  0.410655  0.945882  1
  Cl  Cl23  1  0.763428  0.588583  0.053262  1
  Cl  Cl24  1  0.404754  0.466774  0.659129  1
  Cl  Cl25  1  0.592035  0.532187  0.340197  1
  Cl  Cl26  1  0.949699  0.661138  0.778841  1
