# generated using pymatgen
data_Y3Zn2Cd3Si
_symmetry_space_group_name_H-M   'P 1'
_cell_length_a   7.38953600
_cell_length_b   7.38953472
_cell_length_c   4.19634700
_cell_angle_alpha   90.00000000
_cell_angle_beta   90.00000000
_cell_angle_gamma   119.99999677
_symmetry_Int_Tables_number   1
_chemical_formula_structural   Y3Zn2Cd3Si
_chemical_formula_sum   'Y3 Zn2 Cd3 Si1'
_cell_volume   198.44323694
_cell_formula_units_Z   1
loop_
 _symmetry_equiv_pos_site_id
 _symmetry_equiv_pos_as_xyz
  1  'x, y, z'
loop_
 _atom_site_type_symbol
 _atom_site_label
 _atom_site_symmetry_multiplicity
 _atom_site_fract_x
 _atom_site_fract_y
 _atom_site_fract_z
 _atom_site_occupancy
  Y  Y0  1  0.420014  0.003229  0.499999  1
  Y  Y1  1  0.996771  0.416785  0.499999  1
  Y  Y2  1  0.583215  0.579986  0.499999  1
  Zn  Zn3  1  0.333333  0.666666  0.000000  1
  Zn  Zn4  1  0.000000  0.000000  0.499999  1
  Cd  Cd5  1  0.744825  0.992125  0.000000  1
  Cd  Cd6  1  0.247300  0.255175  0.000000  1
  Cd  Cd7  1  0.007875  0.752700  0.000000  1
  Si  Si8  1  0.666667  0.333334  0.000000  1
