# generated using pymatgen
data_YbPaTeO2
_symmetry_space_group_name_H-M   'P 1'
_cell_length_a   6.90907871
_cell_length_b   6.90907939
_cell_length_c   6.90907838
_cell_angle_alpha   147.03787922
_cell_angle_beta   147.03789533
_cell_angle_gamma   47.30768775
_symmetry_Int_Tables_number   1
_chemical_formula_structural   YbPaTeO2
_chemical_formula_sum   'Yb1 Pa1 Te1 O2'
_cell_volume   97.25743913
_cell_formula_units_Z   1
loop_
 _symmetry_equiv_pos_site_id
 _symmetry_equiv_pos_as_xyz
  1  'x, y, z'
loop_
 _atom_site_type_symbol
 _atom_site_label
 _atom_site_symmetry_multiplicity
 _atom_site_fract_x
 _atom_site_fract_y
 _atom_site_fract_z
 _atom_site_occupancy
  Yb  Yb0  1  0.658249  0.658249  0.000000  1
  Pa  Pa1  1  0.340666  0.340666  0.000000  1
  Te  Te2  1  0.992904  0.992904  0.000000  1
  O  O3  1  0.754091  0.254091  0.500000  1
  O  O4  1  0.254091  0.754091  0.500000  1
