# generated using pymatgen
data_Er2Tm2VTc3B16
_symmetry_space_group_name_H-M   'P 1'
_cell_length_a   3.55191100
_cell_length_b   5.94518904
_cell_length_c   11.48866811
_cell_angle_alpha   89.87083175
_cell_angle_beta   90.00000000
_cell_angle_gamma   90.00000000
_symmetry_Int_Tables_number   1
_chemical_formula_structural   Er2Tm2VTc3B16
_chemical_formula_sum   'Er2 Tm2 V1 Tc3 B16'
_cell_volume   242.60308758
_cell_formula_units_Z   1
loop_
 _symmetry_equiv_pos_site_id
 _symmetry_equiv_pos_as_xyz
  1  'x, y, z'
loop_
 _atom_site_type_symbol
 _atom_site_label
 _atom_site_symmetry_multiplicity
 _atom_site_fract_x
 _atom_site_fract_y
 _atom_site_fract_z
 _atom_site_occupancy
  Er  Er0  1  0.500000  0.627329  0.650171  1
  Er  Er1  1  0.500000  0.372469  0.348759  1
  Tm  Tm2  1  0.500000  0.126105  0.850309  1
  Tm  Tm3  1  0.500000  0.874014  0.149845  1
  V  V4  1  0.500000  0.371606  0.082380  1
  Tc  Tc5  1  0.500000  0.134671  0.587989  1
  Tc  Tc6  1  0.500000  0.865667  0.413252  1
  Tc  Tc7  1  0.500000  0.627589  0.916303  1
  B  B8  1  0.000000  0.286367  0.686306  1
  B  B9  1  0.000000  0.713698  0.314144  1
  B  B10  1  0.000000  0.786919  0.815274  1
  B  B11  1  0.000000  0.212912  0.185058  1
  B  B12  1  0.000000  0.365000  0.531264  1
  B  B13  1  0.000000  0.635125  0.468773  1
  B  B14  1  0.000000  0.865627  0.967990  1
  B  B15  1  0.000000  0.133979  0.032026  1
  B  B16  1  0.000000  0.023884  0.306730  1
  B  B17  1  0.000000  0.976005  0.693262  1
  B  B18  1  0.000000  0.523296  0.192872  1
  B  B19  1  0.000000  0.476844  0.807127  1
  B  B20  1  0.000000  0.114233  0.452338  1
  B  B21  1  0.000000  0.886316  0.547715  1
  B  B22  1  0.000000  0.614897  0.047644  1
  B  B23  1  0.000000  0.385451  0.952471  1
