# generated using pymatgen
data_Tb8HoSc(SiB4)4
_symmetry_space_group_name_H-M   'P 1'
_cell_length_a   7.21952200
_cell_length_b   7.21952200
_cell_length_c   8.06333300
_cell_angle_alpha   90.00000000
_cell_angle_beta   90.00000000
_cell_angle_gamma   90.00000000
_symmetry_Int_Tables_number   1
_chemical_formula_structural   Tb8HoSc(SiB4)4
_chemical_formula_sum   'Tb8 Ho1 Sc1 Si4 B16'
_cell_volume   420.27299409
_cell_formula_units_Z   1
loop_
 _symmetry_equiv_pos_site_id
 _symmetry_equiv_pos_as_xyz
  1  'x, y, z'
loop_
 _atom_site_type_symbol
 _atom_site_label
 _atom_site_symmetry_multiplicity
 _atom_site_fract_x
 _atom_site_fract_y
 _atom_site_fract_z
 _atom_site_occupancy
  Tb  Tb0  1  0.681172  0.179757  0.226718  1
  Tb  Tb1  1  0.318828  0.820243  0.773282  1
  Tb  Tb2  1  0.318828  0.820243  0.226718  1
  Tb  Tb3  1  0.820243  0.681172  0.226718  1
  Tb  Tb4  1  0.820243  0.681172  0.773282  1
  Tb  Tb5  1  0.681172  0.179757  0.773282  1
  Tb  Tb6  1  0.179757  0.318828  0.773282  1
  Tb  Tb7  1  0.179757  0.318828  0.226718  1
  Ho  Ho8  1  0.500000  0.500000  0.500000  1
  Sc  Sc9  1  0.000000  0.000000  0.500000  1
  Si  Si10  1  0.110675  0.621436  0.500000  1
  Si  Si11  1  0.889325  0.378564  0.500000  1
  Si  Si12  1  0.378564  0.110675  0.500000  1
  Si  Si13  1  0.621436  0.889325  0.500000  1
  B  B14  1  0.172532  0.039122  0.000000  1
  B  B15  1  0.827468  0.960878  0.000000  1
  B  B16  1  0.960878  0.172532  0.000000  1
  B  B17  1  0.327747  0.539311  0.000000  1
  B  B18  1  0.039122  0.827468  0.000000  1
  B  B19  1  0.672253  0.460689  0.000000  1
  B  B20  1  0.539311  0.672253  0.000000  1
  B  B21  1  0.460689  0.327747  0.000000  1
  B  B22  1  0.090207  0.590054  0.000000  1
  B  B23  1  0.909793  0.409946  0.000000  1
  B  B24  1  0.409946  0.090207  0.000000  1
  B  B25  1  0.590054  0.909793  0.000000  1
  B  B26  1  0.000000  0.000000  0.162894  1
  B  B27  1  0.000000  0.000000  0.837106  1
  B  B28  1  0.500000  0.500000  0.837741  1
  B  B29  1  0.500000  0.500000  0.162259  1
