# generated using pymatgen
data_Tb2GaIrRu
_symmetry_space_group_name_H-M   'P 1'
_cell_length_a   4.10588135
_cell_length_b   5.54867486
_cell_length_c   5.54867581
_cell_angle_alpha   63.88663769
_cell_angle_beta   68.28513453
_cell_angle_gamma   68.28514666
_symmetry_Int_Tables_number   1
_chemical_formula_structural   Tb2GaIrRu
_chemical_formula_sum   'Tb2 Ga1 Ir1 Ru1'
_cell_volume   102.15014333
_cell_formula_units_Z   1
loop_
 _symmetry_equiv_pos_site_id
 _symmetry_equiv_pos_as_xyz
  1  'x, y, z'
loop_
 _atom_site_type_symbol
 _atom_site_label
 _atom_site_symmetry_multiplicity
 _atom_site_fract_x
 _atom_site_fract_y
 _atom_site_fract_z
 _atom_site_occupancy
  Tb  Tb0  1  0.203179  0.298095  0.295547  1
  Tb  Tb1  1  0.796821  0.704453  0.701905  1
  Ga  Ga2  1  0.000000  0.993962  0.006038  1
  Ir  Ir3  1  0.500000  0.269202  0.730798  1
  Ru  Ru4  1  0.500000  0.734288  0.265712  1
