# generated using pymatgen
data_Y3Tm2Sb3
_symmetry_space_group_name_H-M   'P 1'
_cell_length_a   6.25343500
_cell_length_b   8.97401840
_cell_length_c   8.97479530
_cell_angle_alpha   119.99714405
_cell_angle_beta   90.00000000
_cell_angle_gamma   90.00000000
_symmetry_Int_Tables_number   1
_chemical_formula_structural   Y3Tm2Sb3
_chemical_formula_sum   'Y6 Tm4 Sb6'
_cell_volume   436.18756118
_cell_formula_units_Z   2
loop_
 _symmetry_equiv_pos_site_id
 _symmetry_equiv_pos_as_xyz
  1  'x, y, z'
loop_
 _atom_site_type_symbol
 _atom_site_label
 _atom_site_symmetry_multiplicity
 _atom_site_fract_x
 _atom_site_fract_y
 _atom_site_fract_z
 _atom_site_occupancy
  Y  Y0  1  0.749999  0.247912  0.000000  1
  Y  Y1  1  0.750000  0.752176  0.752166  1
  Y  Y2  1  0.750000  0.000010  0.247834  1
  Y  Y3  1  0.249999  0.752088  0.000000  1
  Y  Y4  1  0.250000  0.247824  0.247834  1
  Y  Y5  1  0.250000  0.999990  0.752166  1
  Tm  Tm6  1  0.500004  0.333326  0.666654  1
  Tm  Tm7  1  0.500004  0.666672  0.333346  1
  Tm  Tm8  1  0.000004  0.666674  0.333346  1
  Tm  Tm9  1  0.000004  0.333328  0.666654  1
  Sb  Sb10  1  0.749997  0.610153  0.000000  1
  Sb  Sb11  1  0.749999  0.389896  0.389896  1
  Sb  Sb12  1  0.749999  0.000000  0.610104  1
  Sb  Sb13  1  0.249997  0.389847  0.000000  1
  Sb  Sb14  1  0.249999  0.610104  0.610104  1
  Sb  Sb15  1  0.249999  0.000000  0.389896  1
