# generated using pymatgen
data_RbHf2CuS5
_symmetry_space_group_name_H-M   'P 1'
_cell_length_a   3.73354600
_cell_length_b   7.82503457
_cell_length_c   15.64289800
_cell_angle_alpha   90.00000000
_cell_angle_beta   90.00000000
_cell_angle_gamma   76.19817953
_symmetry_Int_Tables_number   1
_chemical_formula_structural   RbHf2CuS5
_chemical_formula_sum   'Rb2 Hf4 Cu2 S10'
_cell_volume   443.81387922
_cell_formula_units_Z   2
loop_
 _symmetry_equiv_pos_site_id
 _symmetry_equiv_pos_as_xyz
  1  'x, y, z'
loop_
 _atom_site_type_symbol
 _atom_site_label
 _atom_site_symmetry_multiplicity
 _atom_site_fract_x
 _atom_site_fract_y
 _atom_site_fract_z
 _atom_site_occupancy
  Rb  Rb0  1  0.957217  0.085564  0.250000  1
  Rb  Rb1  1  0.042782  0.914436  0.750000  1
  Hf  Hf2  1  0.210552  0.578895  0.097627  1
  Hf  Hf3  1  0.210552  0.578895  0.402373  1
  Hf  Hf4  1  0.789447  0.421105  0.597627  1
  Hf  Hf5  1  0.789447  0.421105  0.902373  1
  Cu  Cu6  1  0.676863  0.646271  0.250000  1
  Cu  Cu7  1  0.323135  0.353729  0.750000  1
  S  S8  1  0.823604  0.352790  0.062091  1
  S  S9  1  0.599299  0.801401  0.124130  1
  S  S10  1  0.272721  0.454558  0.250000  1
  S  S11  1  0.599299  0.801401  0.375870  1
  S  S12  1  0.823604  0.352790  0.437909  1
  S  S13  1  0.176395  0.647210  0.562091  1
  S  S14  1  0.400700  0.198599  0.624130  1
  S  S15  1  0.727278  0.545442  0.750000  1
  S  S16  1  0.400700  0.198599  0.875870  1
  S  S17  1  0.176395  0.647210  0.937909  1
