# generated using pymatgen
data_YbEr(GaNi)2
_symmetry_space_group_name_H-M   'P 1'
_cell_length_a   4.15689200
_cell_length_b   6.74571600
_cell_length_c   7.52208500
_cell_angle_alpha   90.00000000
_cell_angle_beta   90.00000000
_cell_angle_gamma   90.00000000
_symmetry_Int_Tables_number   1
_chemical_formula_structural   YbEr(GaNi)2
_chemical_formula_sum   'Yb2 Er2 Ga4 Ni4'
_cell_volume   210.92838675
_cell_formula_units_Z   2
loop_
 _symmetry_equiv_pos_site_id
 _symmetry_equiv_pos_as_xyz
  1  'x, y, z'
loop_
 _atom_site_type_symbol
 _atom_site_label
 _atom_site_symmetry_multiplicity
 _atom_site_fract_x
 _atom_site_fract_y
 _atom_site_fract_z
 _atom_site_occupancy
  Yb  Yb0  1  0.250000  0.971857  0.316120  1
  Yb  Yb1  1  0.250000  0.471857  0.183880  1
  Er  Er2  1  0.750000  0.028200  0.684703  1
  Er  Er3  1  0.750000  0.528200  0.815297  1
  Ga  Ga4  1  0.250000  0.347277  0.566292  1
  Ga  Ga5  1  0.250000  0.847277  0.933708  1
  Ga  Ga6  1  0.750000  0.654009  0.433569  1
  Ga  Ga7  1  0.750000  0.154009  0.066431  1
  Ni  Ni8  1  0.250000  0.218972  0.880398  1
  Ni  Ni9  1  0.250000  0.718972  0.619602  1
  Ni  Ni10  1  0.750000  0.779684  0.115594  1
  Ni  Ni11  1  0.750000  0.279684  0.384406  1
