# generated using pymatgen
data_Er6Zn21Rh2C
_symmetry_space_group_name_H-M   'P 1'
_cell_length_a   8.94343354
_cell_length_b   8.92557589
_cell_length_c   8.94343300
_cell_angle_alpha   60.06602907
_cell_angle_beta   59.47424535
_cell_angle_gamma   60.06602641
_symmetry_Int_Tables_number   1
_chemical_formula_structural   Er6Zn21Rh2C
_chemical_formula_sum   'Er6 Zn21 Rh2 C1'
_cell_volume   503.27310160
_cell_formula_units_Z   1
loop_
 _symmetry_equiv_pos_site_id
 _symmetry_equiv_pos_as_xyz
  1  'x, y, z'
loop_
 _atom_site_type_symbol
 _atom_site_label
 _atom_site_symmetry_multiplicity
 _atom_site_fract_x
 _atom_site_fract_y
 _atom_site_fract_z
 _atom_site_occupancy
  Er  Er0  1  0.692473  0.302757  0.307527  1
  Er  Er1  1  0.307527  0.697243  0.692473  1
  Er  Er2  1  0.303993  0.696007  0.303993  1
  Er  Er3  1  0.696007  0.303993  0.696007  1
  Er  Er4  1  0.307527  0.302757  0.692473  1
  Er  Er5  1  0.692473  0.697243  0.307527  1
  Zn  Zn6  1  0.118542  0.118451  0.118542  1
  Zn  Zn7  1  0.881458  0.881549  0.881458  1
  Zn  Zn8  1  0.124795  0.116806  0.641594  1
  Zn  Zn9  1  0.118542  0.644467  0.118542  1
  Zn  Zn10  1  0.875205  0.883194  0.358406  1
  Zn  Zn11  1  0.881458  0.355533  0.881458  1
  Zn  Zn12  1  0.641594  0.116806  0.124795  1
  Zn  Zn13  1  0.358406  0.883194  0.875205  1
  Zn  Zn14  1  0.500000  0.000000  0.000000  1
  Zn  Zn15  1  0.000000  0.500000  0.500000  1
  Zn  Zn16  1  0.000000  0.500000  0.000000  1
  Zn  Zn17  1  0.000000  0.000000  0.500000  1
  Zn  Zn18  1  0.500000  0.500000  0.000000  1
  Zn  Zn19  1  0.327663  0.327631  0.327663  1
  Zn  Zn20  1  0.672337  0.672369  0.672337  1
  Zn  Zn21  1  0.326438  0.330285  0.012994  1
  Zn  Zn22  1  0.327663  0.017044  0.327663  1
  Zn  Zn23  1  0.673562  0.669715  0.987006  1
  Zn  Zn24  1  0.672337  0.982956  0.672337  1
  Zn  Zn25  1  0.012994  0.330285  0.326438  1
  Zn  Zn26  1  0.987006  0.669715  0.673562  1
  Rh  Rh27  1  0.500000  0.000000  0.500000  1
  Rh  Rh28  1  0.000000  0.000000  0.000000  1
  C  C29  1  0.500000  0.500000  0.500000  1
