# generated using pymatgen
data_DyZr3(NiP2)2
_symmetry_space_group_name_H-M   'P 1'
_cell_length_a   3.82519500
_cell_length_b   3.82519435
_cell_length_c   13.33926300
_cell_angle_alpha   90.00000000
_cell_angle_beta   90.00000000
_cell_angle_gamma   120.00001431
_symmetry_Int_Tables_number   1
_chemical_formula_structural   DyZr3(NiP2)2
_chemical_formula_sum   'Dy1 Zr3 Ni2 P4'
_cell_volume   169.03221750
_cell_formula_units_Z   1
loop_
 _symmetry_equiv_pos_site_id
 _symmetry_equiv_pos_as_xyz
  1  'x, y, z'
loop_
 _atom_site_type_symbol
 _atom_site_label
 _atom_site_symmetry_multiplicity
 _atom_site_fract_x
 _atom_site_fract_y
 _atom_site_fract_z
 _atom_site_occupancy
  Dy  Dy0  1  0.333333  0.666667  0.387819  1
  Zr  Zr1  1  0.666667  0.333333  0.620272  1
  Zr  Zr2  1  0.666667  0.333333  0.892751  1
  Zr  Zr3  1  0.333333  0.666667  0.102954  1
  Ni  Ni4  1  0.000000  0.000000  0.233578  1
  Ni  Ni5  1  0.000000  0.000000  0.758435  1
  P  P6  1  0.000000  0.000000  0.511320  1
  P  P7  1  0.000000  0.000000  0.997729  1
  P  P8  1  0.333333  0.666667  0.754233  1
  P  P9  1  0.666667  0.333333  0.240909  1
