# generated using pymatgen
data_Sm2Y3HoRh18
_symmetry_space_group_name_H-M   'P 1'
_cell_length_a   5.29178300
_cell_length_b   5.29178454
_cell_length_c   17.53324900
_cell_angle_alpha   90.00000000
_cell_angle_beta   90.00000000
_cell_angle_gamma   119.99999662
_symmetry_Int_Tables_number   1
_chemical_formula_structural   Sm2Y3HoRh18
_chemical_formula_sum   'Sm2 Y3 Ho1 Rh18'
_cell_volume   425.20388805
_cell_formula_units_Z   1
loop_
 _symmetry_equiv_pos_site_id
 _symmetry_equiv_pos_as_xyz
  1  'x, y, z'
loop_
 _atom_site_type_symbol
 _atom_site_label
 _atom_site_symmetry_multiplicity
 _atom_site_fract_x
 _atom_site_fract_y
 _atom_site_fract_z
 _atom_site_occupancy
  Sm  Sm0  1  0.333333  0.666667  0.750077  1
  Sm  Sm1  1  0.666667  0.333333  0.249997  1
  Y  Y2  1  0.666667  0.333333  0.041896  1
  Y  Y3  1  0.666667  0.333333  0.457967  1
  Y  Y4  1  0.333333  0.666667  0.542026  1
  Ho  Ho5  1  0.333333  0.666667  0.957843  1
  Rh  Rh6  1  0.167250  0.832750  0.374207  1
  Rh  Rh7  1  0.167250  0.334500  0.374207  1
  Rh  Rh8  1  0.665500  0.832750  0.374207  1
  Rh  Rh9  1  0.832755  0.167245  0.625797  1
  Rh  Rh10  1  0.832755  0.665511  0.625797  1
  Rh  Rh11  1  0.334489  0.167245  0.625797  1
  Rh  Rh12  1  0.832720  0.167280  0.874393  1
  Rh  Rh13  1  0.832720  0.665441  0.874393  1
  Rh  Rh14  1  0.334559  0.167280  0.874393  1
  Rh  Rh15  1  0.167319  0.832681  0.125715  1
  Rh  Rh16  1  0.167319  0.334637  0.125715  1
  Rh  Rh17  1  0.665363  0.832681  0.125715  1
  Rh  Rh18  1  0.333333  0.666667  0.250012  1
  Rh  Rh19  1  0.666667  0.333333  0.749984  1
  Rh  Rh20  1  0.000000  0.000000  0.249958  1
  Rh  Rh21  1  0.000000  0.000000  0.749984  1
  Rh  Rh22  1  0.000000  0.000000  0.499997  1
  Rh  Rh23  1  0.000000  0.000000  0.999926  1
