# generated using pymatgen
data_TbHg4Te2Br5
_symmetry_space_group_name_H-M   'P 1'
_cell_length_a   8.88098780
_cell_length_b   11.35312000
_cell_length_c   9.66655300
_cell_angle_alpha   90.00000000
_cell_angle_beta   113.54707521
_cell_angle_gamma   90.00000000
_symmetry_Int_Tables_number   1
_chemical_formula_structural   TbHg4Te2Br5
_chemical_formula_sum   'Tb2 Hg8 Te4 Br10'
_cell_volume   893.49185624
_cell_formula_units_Z   2
loop_
 _symmetry_equiv_pos_site_id
 _symmetry_equiv_pos_as_xyz
  1  'x, y, z'
loop_
 _atom_site_type_symbol
 _atom_site_label
 _atom_site_symmetry_multiplicity
 _atom_site_fract_x
 _atom_site_fract_y
 _atom_site_fract_z
 _atom_site_occupancy
  Tb  Tb0  1  0.501252  0.430255  0.503372  1
  Tb  Tb1  1  0.498748  0.930255  0.496628  1
  Hg  Hg2  1  0.933582  0.184269  0.335125  1
  Hg  Hg3  1  0.066418  0.684269  0.664875  1
  Hg  Hg4  1  0.963568  0.665005  0.366735  1
  Hg  Hg5  1  0.036432  0.165005  0.633265  1
  Hg  Hg6  1  0.495290  0.184532  0.991623  1
  Hg  Hg7  1  0.504710  0.684532  0.008377  1
  Hg  Hg8  1  0.801014  0.433267  0.001148  1
  Hg  Hg9  1  0.198986  0.933267  0.998852  1
  Te  Te10  1  0.812577  0.192074  0.019556  1
  Te  Te11  1  0.187423  0.692074  0.980444  1
  Te  Te12  1  0.173567  0.171755  0.949248  1
  Te  Te13  1  0.826433  0.671755  0.050752  1
  Br  Br14  1  0.834824  0.926120  0.677056  1
  Br  Br15  1  0.165176  0.426120  0.322944  1
  Br  Br16  1  0.840885  0.438304  0.700137  1
  Br  Br17  1  0.159115  0.938304  0.299863  1
  Br  Br18  1  0.423501  0.458876  0.759989  1
  Br  Br19  1  0.576499  0.958876  0.240011  1
  Br  Br20  1  0.594192  0.389902  0.264142  1
  Br  Br21  1  0.405808  0.889902  0.735858  1
  Br  Br22  1  0.495804  0.179240  0.554438  1
  Br  Br23  1  0.504196  0.679240  0.445562  1
