# generated using pymatgen
data_LaGd4Al2Ru3
_symmetry_space_group_name_H-M   'P 1'
_cell_length_a   8.43092926
_cell_length_b   8.43092915
_cell_length_c   8.41314000
_cell_angle_alpha   109.52351180
_cell_angle_beta   109.41663712
_cell_angle_gamma   109.55903249
_symmetry_Int_Tables_number   1
_chemical_formula_structural   LaGd4Al2Ru3
_chemical_formula_sum   'La2 Gd8 Al4 Ru6'
_cell_volume   459.86181761
_cell_formula_units_Z   2
loop_
 _symmetry_equiv_pos_site_id
 _symmetry_equiv_pos_as_xyz
  1  'x, y, z'
loop_
 _atom_site_type_symbol
 _atom_site_label
 _atom_site_symmetry_multiplicity
 _atom_site_fract_x
 _atom_site_fract_y
 _atom_site_fract_z
 _atom_site_occupancy
  La  La0  1  0.286229  0.499552  0.000677  1
  La  La1  1  0.998875  0.285551  0.499323  1
  Gd  Gd2  1  0.252018  0.686842  0.435632  1
  Gd  Gd3  1  0.751210  0.816386  0.064368  1
  Gd  Gd4  1  0.435713  0.246764  0.681712  1
  Gd  Gd5  1  0.682887  0.432887  0.250000  1
  Gd  Gd6  1  0.065052  0.754001  0.818288  1
  Gd  Gd7  1  0.812370  0.062370  0.750000  1
  Gd  Gd8  1  0.215274  0.213772  0.215384  1
  Gd  Gd9  1  0.498387  0.999890  0.284616  1
  Al  Al10  1  0.589400  0.588920  0.588969  1
  Al  Al11  1  0.499950  0.000431  0.911031  1
  Al  Al12  1  0.906925  0.500764  0.000582  1
  Al  Al13  1  0.000182  0.906343  0.499418  1
  Ru  Ru14  1  0.250518  0.120366  0.872216  1
  Ru  Ru15  1  0.748151  0.378301  0.627784  1
  Ru  Ru16  1  0.872259  0.252008  0.121157  1
  Ru  Ru17  1  0.122965  0.872964  0.250000  1
  Ru  Ru18  1  0.630851  0.751103  0.378843  1
  Ru  Ru19  1  0.380783  0.630783  0.750000  1
