# generated using pymatgen
data_Y20Cd3Fe2Pd3
_symmetry_space_group_name_H-M   'P 1'
_cell_length_a   9.54190000
_cell_length_b   9.54192149
_cell_length_c   9.55705000
_cell_angle_alpha   90.00000000
_cell_angle_beta   90.00000000
_cell_angle_gamma   120.00003500
_symmetry_Int_Tables_number   1
_chemical_formula_structural   Y20Cd3Fe2Pd3
_chemical_formula_sum   'Y20 Cd3 Fe2 Pd3'
_cell_volume   753.57249149
_cell_formula_units_Z   1
loop_
 _symmetry_equiv_pos_site_id
 _symmetry_equiv_pos_as_xyz
  1  'x, y, z'
loop_
 _atom_site_type_symbol
 _atom_site_label
 _atom_site_symmetry_multiplicity
 _atom_site_fract_x
 _atom_site_fract_y
 _atom_site_fract_z
 _atom_site_occupancy
  Y  Y0  1  0.000000  0.000000  0.452703  1
  Y  Y1  1  0.000000  0.000000  0.047297  1
  Y  Y2  1  0.541877  0.458122  0.250000  1
  Y  Y3  1  0.541877  0.083755  0.250000  1
  Y  Y4  1  0.916245  0.458123  0.250000  1
  Y  Y5  1  0.458326  0.541673  0.750000  1
  Y  Y6  1  0.458326  0.916653  0.750000  1
  Y  Y7  1  0.083347  0.541673  0.750000  1
  Y  Y8  1  0.210848  0.789152  0.436033  1
  Y  Y9  1  0.210848  0.421698  0.436033  1
  Y  Y10  1  0.578302  0.789152  0.436033  1
  Y  Y11  1  0.790040  0.209960  0.561056  1
  Y  Y12  1  0.790040  0.580078  0.561056  1
  Y  Y13  1  0.419922  0.209960  0.561056  1
  Y  Y14  1  0.790040  0.209960  0.938944  1
  Y  Y15  1  0.790040  0.580078  0.938944  1
  Y  Y16  1  0.419922  0.209960  0.938944  1
  Y  Y17  1  0.210848  0.789152  0.063967  1
  Y  Y18  1  0.210848  0.421698  0.063967  1
  Y  Y19  1  0.578302  0.789152  0.063967  1
  Cd  Cd20  1  0.108322  0.891679  0.750000  1
  Cd  Cd21  1  0.108322  0.216643  0.750000  1
  Cd  Cd22  1  0.783357  0.891679  0.750000  1
  Fe  Fe23  1  0.333333  0.666667  0.250000  1
  Fe  Fe24  1  0.666664  0.333330  0.750000  1
  Pd  Pd25  1  0.870531  0.129470  0.250000  1
  Pd  Pd26  1  0.870531  0.741061  0.250000  1
  Pd  Pd27  1  0.258940  0.129470  0.250000  1
