# generated using pymatgen
data_Ni(OsCl6)5
_symmetry_space_group_name_H-M   'P 1'
_cell_length_a   13.00191899
_cell_length_b   13.00191840
_cell_length_c   6.12449900
_cell_angle_alpha   88.86633765
_cell_angle_beta   88.86633770
_cell_angle_gamma   86.86063483
_symmetry_Int_Tables_number   1
_chemical_formula_structural   Ni(OsCl6)5
_chemical_formula_sum   'Ni1 Os5 Cl30'
_cell_volume   1033.40838744
_cell_formula_units_Z   1
loop_
 _symmetry_equiv_pos_site_id
 _symmetry_equiv_pos_as_xyz
  1  'x, y, z'
loop_
 _atom_site_type_symbol
 _atom_site_label
 _atom_site_symmetry_multiplicity
 _atom_site_fract_x
 _atom_site_fract_y
 _atom_site_fract_z
 _atom_site_occupancy
  Ni  Ni0  1  0.901801  0.098199  0.000000  1
  Os  Os1  1  0.770413  0.562980  0.524076  1
  Os  Os2  1  0.437020  0.229587  0.475924  1
  Os  Os3  1  0.229272  0.436225  0.475696  1
  Os  Os4  1  0.563775  0.770728  0.524304  1
  Os  Os5  1  0.100524  0.899476  0.000000  1
  Cl  Cl6  1  0.666063  0.471298  0.750671  1
  Cl  Cl7  1  0.528702  0.333937  0.249329  1
  Cl  Cl8  1  0.333909  0.528642  0.249487  1
  Cl  Cl9  1  0.471358  0.666091  0.750513  1
  Cl  Cl10  1  0.800832  0.428101  0.305095  1
  Cl  Cl11  1  0.571899  0.199168  0.694905  1
  Cl  Cl12  1  0.950278  0.951798  0.210846  1
  Cl  Cl13  1  0.048202  0.049722  0.789154  1
  Cl  Cl14  1  0.769035  0.134204  0.207457  1
  Cl  Cl15  1  0.865796  0.230965  0.792543  1
  Cl  Cl16  1  0.237648  0.867826  0.773334  1
  Cl  Cl17  1  0.132174  0.762352  0.226666  1
  Cl  Cl18  1  0.807180  0.004568  0.796773  1
  Cl  Cl19  1  0.995432  0.192820  0.203227  1
  Cl  Cl20  1  0.193098  0.001922  0.211969  1
  Cl  Cl21  1  0.998078  0.806902  0.788031  1
  Cl  Cl22  1  0.716779  0.717007  0.733675  1
  Cl  Cl23  1  0.282993  0.283221  0.266325  1
  Cl  Cl24  1  0.533859  0.905458  0.745009  1
  Cl  Cl25  1  0.094542  0.466141  0.254991  1
  Cl  Cl26  1  0.466835  0.094784  0.255223  1
  Cl  Cl27  1  0.905216  0.533165  0.744777  1
  Cl  Cl28  1  0.668050  0.862668  0.299039  1
  Cl  Cl29  1  0.137332  0.331950  0.700961  1
  Cl  Cl30  1  0.331818  0.137723  0.701261  1
  Cl  Cl31  1  0.862277  0.668182  0.298739  1
  Cl  Cl32  1  0.617003  0.616991  0.315094  1
  Cl  Cl33  1  0.383009  0.382997  0.684906  1
  Cl  Cl34  1  0.428549  0.800747  0.303922  1
  Cl  Cl35  1  0.199253  0.571451  0.696078  1
