# generated using pymatgen
data_TbEr2Zr(Al3Rh)6
_symmetry_space_group_name_H-M   'P 1'
_cell_length_a   7.53831901
_cell_length_b   7.52674349
_cell_length_c   9.40207000
_cell_angle_alpha   90.00000000
_cell_angle_beta   90.00000000
_cell_angle_gamma   119.46261406
_symmetry_Int_Tables_number   1
_chemical_formula_structural   TbEr2Zr(Al3Rh)6
_chemical_formula_sum   'Tb1 Er2 Zr1 Al18 Rh6'
_cell_volume   464.47473025
_cell_formula_units_Z   1
loop_
 _symmetry_equiv_pos_site_id
 _symmetry_equiv_pos_as_xyz
  1  'x, y, z'
loop_
 _atom_site_type_symbol
 _atom_site_label
 _atom_site_symmetry_multiplicity
 _atom_site_fract_x
 _atom_site_fract_y
 _atom_site_fract_z
 _atom_site_occupancy
  Tb  Tb0  1  0.006475  0.326461  0.250000  1
  Er  Er1  1  0.672479  0.995877  0.750000  1
  Er  Er2  1  0.327569  0.006808  0.250000  1
  Zr  Zr3  1  0.996412  0.672324  0.750000  1
  Al  Al4  1  0.124433  0.122155  0.750000  1
  Al  Al5  1  0.870747  0.869301  0.250000  1
  Al  Al6  1  0.999821  0.338507  0.579935  1
  Al  Al7  1  0.999941  0.664675  0.427281  1
  Al  Al8  1  0.999941  0.664675  0.072719  1
  Al  Al9  1  0.332791  0.997658  0.920198  1
  Al  Al10  1  0.999821  0.338507  0.920065  1
  Al  Al11  1  0.663635  0.998546  0.076033  1
  Al  Al12  1  0.663635  0.998546  0.423967  1
  Al  Al13  1  0.332791  0.997658  0.579802  1
  Al  Al14  1  0.333741  0.333582  0.047926  1
  Al  Al15  1  0.669989  0.667989  0.944152  1
  Al  Al16  1  0.669989  0.667989  0.555848  1
  Al  Al17  1  0.333741  0.333582  0.452074  1
  Al  Al18  1  0.336701  0.552199  0.750000  1
  Al  Al19  1  0.659904  0.449611  0.250000  1
  Al  Al20  1  0.557155  0.344405  0.750000  1
  Al  Al21  1  0.448383  0.658536  0.250000  1
  Rh  Rh22  1  0.672738  0.327938  0.501133  1
  Rh  Rh23  1  0.327868  0.672989  0.501790  1
  Rh  Rh24  1  0.327868  0.672989  0.998210  1
  Rh  Rh25  1  0.672738  0.327938  0.998867  1
  Rh  Rh26  1  0.999347  0.999277  0.501046  1
  Rh  Rh27  1  0.999347  0.999277  0.998954  1
