# generated using pymatgen
data_Dy2ErGa5Co
_symmetry_space_group_name_H-M   'P 1'
_cell_length_a   6.87951647
_cell_length_b   6.87951739
_cell_length_c   4.21150500
_cell_angle_alpha   90.00000000
_cell_angle_beta   90.00000000
_cell_angle_gamma   119.74613134
_symmetry_Int_Tables_number   1
_chemical_formula_structural   Dy2ErGa5Co
_chemical_formula_sum   'Dy2 Er1 Ga5 Co1'
_cell_volume   173.05699387
_cell_formula_units_Z   1
loop_
 _symmetry_equiv_pos_site_id
 _symmetry_equiv_pos_as_xyz
  1  'x, y, z'
loop_
 _atom_site_type_symbol
 _atom_site_label
 _atom_site_symmetry_multiplicity
 _atom_site_fract_x
 _atom_site_fract_y
 _atom_site_fract_z
 _atom_site_occupancy
  Dy  Dy0  1  0.599629  0.999585  0.000000  1
  Dy  Dy1  1  0.999585  0.599629  0.000000  1
  Er  Er2  1  0.397508  0.397508  0.000000  1
  Ga  Ga3  1  0.231007  0.999238  0.500000  1
  Ga  Ga4  1  0.999238  0.231007  0.500000  1
  Ga  Ga5  1  0.769963  0.769963  0.500000  1
  Ga  Ga6  1  0.334355  0.665499  0.500000  1
  Ga  Ga7  1  0.665499  0.334355  0.500000  1
  Co  Co8  1  0.003218  0.003218  0.000000  1
