# generated using pymatgen
data_CaHoIr2O7
_symmetry_space_group_name_H-M   'P 1'
_cell_length_a   7.26243426
_cell_length_b   7.26243356
_cell_length_c   7.26243500
_cell_angle_alpha   120.29229416
_cell_angle_beta   119.81004013
_cell_angle_gamma   89.91190318
_symmetry_Int_Tables_number   1
_chemical_formula_structural   CaHoIr2O7
_chemical_formula_sum   'Ca2 Ho2 Ir4 O14'
_cell_volume   270.63593531
_cell_formula_units_Z   2
loop_
 _symmetry_equiv_pos_site_id
 _symmetry_equiv_pos_as_xyz
  1  'x, y, z'
loop_
 _atom_site_type_symbol
 _atom_site_label
 _atom_site_symmetry_multiplicity
 _atom_site_fract_x
 _atom_site_fract_y
 _atom_site_fract_z
 _atom_site_occupancy
  Ca  Ca0  1  0.500000  0.500000  0.500000  1
  Ca  Ca1  1  0.500000  0.000000  0.000000  1
  Ho  Ho2  1  0.500000  0.500000  0.000000  1
  Ho  Ho3  1  0.000000  0.500000  0.500000  1
  Ir  Ir4  1  0.000000  0.000000  0.500000  1
  Ir  Ir5  1  0.000000  0.500000  0.000000  1
  Ir  Ir6  1  0.000000  0.000000  0.000000  1
  Ir  Ir7  1  0.500000  0.000000  0.500000  1
  O  O8  1  0.367583  0.617583  0.750000  1
  O  O9  1  0.632417  0.382417  0.250000  1
  O  O10  1  0.326572  0.076572  0.250000  1
  O  O11  1  0.917186  0.667186  0.250000  1
  O  O12  1  0.329013  0.668525  0.241002  1
  O  O13  1  0.927523  0.088012  0.258998  1
  O  O14  1  0.329018  0.088022  0.660493  1
  O  O15  1  0.927529  0.668526  0.839507  1
  O  O16  1  0.673428  0.923428  0.750000  1
  O  O17  1  0.082814  0.332814  0.750000  1
  O  O18  1  0.670987  0.331475  0.758998  1
  O  O19  1  0.072477  0.911988  0.741002  1
  O  O20  1  0.670982  0.911978  0.339507  1
  O  O21  1  0.072471  0.331474  0.160493  1
