# generated using pymatgen
data_Ta8CoSi3
_symmetry_space_group_name_H-M   'P 1'
_cell_length_a   6.22144200
_cell_length_b   6.22144200
_cell_length_c   5.02089100
_cell_angle_alpha   90.00000000
_cell_angle_beta   90.00000000
_cell_angle_gamma   90.00000000
_symmetry_Int_Tables_number   1
_chemical_formula_structural   Ta8CoSi3
_chemical_formula_sum   'Ta8 Co1 Si3'
_cell_volume   194.34031696
_cell_formula_units_Z   1
loop_
 _symmetry_equiv_pos_site_id
 _symmetry_equiv_pos_as_xyz
  1  'x, y, z'
loop_
 _atom_site_type_symbol
 _atom_site_label
 _atom_site_symmetry_multiplicity
 _atom_site_fract_x
 _atom_site_fract_y
 _atom_site_fract_z
 _atom_site_occupancy
  Ta  Ta0  1  0.334885  0.155666  0.496693  1
  Ta  Ta1  1  0.665115  0.844334  0.496693  1
  Ta  Ta2  1  0.155666  0.665115  0.496693  1
  Ta  Ta3  1  0.844334  0.334885  0.496693  1
  Ta  Ta4  1  0.334885  0.844334  0.003307  1
  Ta  Ta5  1  0.844334  0.665115  0.003307  1
  Ta  Ta6  1  0.155666  0.334885  0.003307  1
  Ta  Ta7  1  0.665115  0.155666  0.003307  1
  Co  Co8  1  0.000000  0.000000  0.250000  1
  Si  Si9  1  0.500000  0.500000  0.750000  1
  Si  Si10  1  0.500000  0.500000  0.250000  1
  Si  Si11  1  0.000000  0.000000  0.750000  1
