# generated using pymatgen
data_DyTm2Ta3(B2Ru5)2
_symmetry_space_group_name_H-M   'P 1'
_cell_length_a   9.58165347
_cell_length_b   9.58123038
_cell_length_c   3.11309800
_cell_angle_alpha   90.00000000
_cell_angle_beta   90.00000000
_cell_angle_gamma   90.40134304
_symmetry_Int_Tables_number   1
_chemical_formula_structural   DyTm2Ta3(B2Ru5)2
_chemical_formula_sum   'Dy1 Tm2 Ta3 B4 Ru10'
_cell_volume   285.78792838
_cell_formula_units_Z   1
loop_
 _symmetry_equiv_pos_site_id
 _symmetry_equiv_pos_as_xyz
  1  'x, y, z'
loop_
 _atom_site_type_symbol
 _atom_site_label
 _atom_site_symmetry_multiplicity
 _atom_site_fract_x
 _atom_site_fract_y
 _atom_site_fract_z
 _atom_site_occupancy
  Dy  Dy0  1  0.824590  0.674746  0.000000  1
  Tm  Tm1  1  0.175333  0.324176  0.000000  1
  Tm  Tm2  1  0.325629  0.825748  0.000000  1
  Ta  Ta3  1  0.675608  0.175562  0.000000  1
  Ta  Ta4  1  0.497505  0.502513  0.000000  1
  Ta  Ta5  1  0.003051  0.998643  0.000000  1
  B  B6  1  0.622335  0.881320  0.000000  1
  B  B7  1  0.380271  0.123254  0.000000  1
  B  B8  1  0.120354  0.619331  0.000000  1
  B  B9  1  0.876710  0.375828  0.000000  1
  Ru  Ru10  1  0.569913  0.722069  0.500000  1
  Ru  Ru11  1  0.439725  0.280544  0.500000  1
  Ru  Ru12  1  0.071047  0.781005  0.500000  1
  Ru  Ru13  1  0.916471  0.213260  0.500000  1
  Ru  Ru14  1  0.280923  0.569620  0.500000  1
  Ru  Ru15  1  0.713136  0.415348  0.500000  1
  Ru  Ru16  1  0.221405  0.071679  0.500000  1
  Ru  Ru17  1  0.780108  0.941155  0.500000  1
  Ru  Ru18  1  0.508460  0.009225  0.500000  1
  Ru  Ru19  1  0.997428  0.494973  0.500000  1
