# generated using pymatgen
data_Ho3Al12(RuRh)2
_symmetry_space_group_name_H-M   'P 1'
_cell_length_a   8.82637266
_cell_length_b   8.76600250
_cell_length_c   9.53152500
_cell_angle_alpha   90.00000000
_cell_angle_beta   90.00000000
_cell_angle_gamma   119.77399839
_symmetry_Int_Tables_number   1
_chemical_formula_structural   Ho3Al12(RuRh)2
_chemical_formula_sum   'Ho6 Al24 Ru4 Rh4'
_cell_volume   640.12002343
_cell_formula_units_Z   2
loop_
 _symmetry_equiv_pos_site_id
 _symmetry_equiv_pos_as_xyz
  1  'x, y, z'
loop_
 _atom_site_type_symbol
 _atom_site_label
 _atom_site_symmetry_multiplicity
 _atom_site_fract_x
 _atom_site_fract_y
 _atom_site_fract_z
 _atom_site_occupancy
  Ho  Ho0  1  0.190380  0.387138  0.250000  1
  Ho  Ho1  1  0.809620  0.612862  0.750000  1
  Ho  Ho2  1  0.615831  0.807916  0.250000  1
  Ho  Ho3  1  0.384169  0.192084  0.750000  1
  Ho  Ho4  1  0.190380  0.803243  0.250000  1
  Ho  Ho5  1  0.809620  0.196757  0.750000  1
  Al  Al6  1  0.331286  0.665644  0.022784  1
  Al  Al7  1  0.668714  0.334356  0.977216  1
  Al  Al8  1  0.668714  0.334356  0.522784  1
  Al  Al9  1  0.331286  0.665644  0.477216  1
  Al  Al10  1  0.162221  0.326324  0.578642  1
  Al  Al11  1  0.837779  0.673676  0.421358  1
  Al  Al12  1  0.674777  0.837389  0.577985  1
  Al  Al13  1  0.837779  0.673676  0.078642  1
  Al  Al14  1  0.325223  0.162611  0.422015  1
  Al  Al15  1  0.162221  0.326324  0.921358  1
  Al  Al16  1  0.162221  0.835898  0.578642  1
  Al  Al17  1  0.325223  0.162611  0.077985  1
  Al  Al18  1  0.837779  0.164102  0.421358  1
  Al  Al19  1  0.674777  0.837389  0.922015  1
  Al  Al20  1  0.837779  0.164102  0.078642  1
  Al  Al21  1  0.162221  0.835898  0.921358  1
  Al  Al22  1  0.561122  0.122957  0.250000  1
  Al  Al23  1  0.438878  0.877043  0.750000  1
  Al  Al24  1  0.876197  0.438098  0.250000  1
  Al  Al25  1  0.123803  0.561902  0.750000  1
  Al  Al26  1  0.561122  0.438164  0.250000  1
  Al  Al27  1  0.438878  0.561836  0.750000  1
  Al  Al28  1  0.997575  0.998788  0.250000  1
  Al  Al29  1  0.002425  0.001212  0.750000  1
  Ru  Ru30  1  0.000000  0.500000  0.000000  1
  Ru  Ru31  1  0.000000  0.500000  0.500000  1
  Ru  Ru32  1  0.000000  0.000000  0.000000  1
  Ru  Ru33  1  0.000000  0.000000  0.500000  1
  Rh  Rh34  1  0.500000  0.000000  0.000000  1
  Rh  Rh35  1  0.500000  0.000000  0.500000  1
  Rh  Rh36  1  0.500000  0.500000  0.000000  1
  Rh  Rh37  1  0.500000  0.500000  0.500000  1
