# generated using pymatgen
data_Zr2Nb(CrP)3
_symmetry_space_group_name_H-M   'P 1'
_cell_length_a   6.61680608
_cell_length_b   6.61680820
_cell_length_c   3.39103900
_cell_angle_alpha   90.00000000
_cell_angle_beta   90.00000000
_cell_angle_gamma   119.78205977
_symmetry_Int_Tables_number   1
_chemical_formula_structural   Zr2Nb(CrP)3
_chemical_formula_sum   'Zr2 Nb1 Cr3 P3'
_cell_volume   128.85757227
_cell_formula_units_Z   1
loop_
 _symmetry_equiv_pos_site_id
 _symmetry_equiv_pos_as_xyz
  1  'x, y, z'
loop_
 _atom_site_type_symbol
 _atom_site_label
 _atom_site_symmetry_multiplicity
 _atom_site_fract_x
 _atom_site_fract_y
 _atom_site_fract_z
 _atom_site_occupancy
  Zr  Zr0  1  0.593309  0.997905  0.500000  1
  Zr  Zr1  1  0.997905  0.593309  0.500000  1
  Nb  Nb2  1  0.404273  0.404273  0.500000  1
  Cr  Cr3  1  0.005952  0.249621  0.000000  1
  Cr  Cr4  1  0.249621  0.005952  0.000000  1
  Cr  Cr5  1  0.750469  0.750469  0.000000  1
  P  P6  1  0.661406  0.334061  0.000000  1
  P  P7  1  0.334061  0.661406  0.000000  1
  P  P8  1  0.003004  0.003004  0.500000  1
