# generated using pymatgen
data_Hf2Ta2WN6
_symmetry_space_group_name_H-M   'P 1'
_cell_length_a   5.24526582
_cell_length_b   5.23584940
_cell_length_c   10.63314500
_cell_angle_alpha   90.00000000
_cell_angle_beta   90.00000000
_cell_angle_gamma   119.94061188
_symmetry_Int_Tables_number   1
_chemical_formula_structural   Hf2Ta2WN6
_chemical_formula_sum   'Hf4 Ta4 W2 N12'
_cell_volume   253.05015189
_cell_formula_units_Z   2
loop_
 _symmetry_equiv_pos_site_id
 _symmetry_equiv_pos_as_xyz
  1  'x, y, z'
loop_
 _atom_site_type_symbol
 _atom_site_label
 _atom_site_symmetry_multiplicity
 _atom_site_fract_x
 _atom_site_fract_y
 _atom_site_fract_z
 _atom_site_occupancy
  Hf  Hf0  1  0.667471  0.333845  0.004677  1
  Hf  Hf1  1  0.332529  0.666375  0.004677  1
  Hf  Hf2  1  0.332529  0.666375  0.495323  1
  Hf  Hf3  1  0.667471  0.333845  0.495323  1
  Ta  Ta4  1  0.000000  0.325127  0.750000  1
  Ta  Ta5  1  0.324261  0.324360  0.250000  1
  Ta  Ta6  1  0.675739  0.000099  0.250000  1
  Ta  Ta7  1  0.000000  0.675738  0.250000  1
  W  W8  1  0.674671  0.673968  0.750000  1
  W  W9  1  0.325329  0.999297  0.750000  1
  N  N10  1  0.659285  0.659670  0.375807  1
  N  N11  1  0.340715  0.000385  0.375807  1
  N  N12  1  0.000000  0.339758  0.375385  1
  N  N13  1  0.345559  0.343399  0.628674  1
  N  N14  1  0.654441  0.997840  0.628674  1
  N  N15  1  0.000000  0.659434  0.628501  1
  N  N16  1  0.345559  0.343399  0.871326  1
  N  N17  1  0.654441  0.997840  0.871326  1
  N  N18  1  0.000000  0.659434  0.871499  1
  N  N19  1  0.659285  0.659670  0.124193  1
  N  N20  1  0.340715  0.000385  0.124193  1
  N  N21  1  0.000000  0.339758  0.124615  1
