# generated using pymatgen
data_La7YbSmPt6
_symmetry_space_group_name_H-M   'P 1'
_cell_length_a   7.80025784
_cell_length_b   7.80025756
_cell_length_c   7.80025762
_cell_angle_alpha   71.18646081
_cell_angle_beta   71.18646476
_cell_angle_gamma   71.18645351
_symmetry_Int_Tables_number   1
_chemical_formula_structural   La7YbSmPt6
_chemical_formula_sum   'La7 Yb1 Sm1 Pt6'
_cell_volume   412.40421438
_cell_formula_units_Z   1
loop_
 _symmetry_equiv_pos_site_id
 _symmetry_equiv_pos_as_xyz
  1  'x, y, z'
loop_
 _atom_site_type_symbol
 _atom_site_label
 _atom_site_symmetry_multiplicity
 _atom_site_fract_x
 _atom_site_fract_y
 _atom_site_fract_z
 _atom_site_occupancy
  La  La0  1  0.197521  0.197521  0.197521  1
  La  La1  1  0.326245  0.609863  0.843294  1
  La  La2  1  0.843294  0.326245  0.609863  1
  La  La3  1  0.609863  0.843294  0.326245  1
  La  La4  1  0.673625  0.393582  0.153710  1
  La  La5  1  0.153710  0.673625  0.393582  1
  La  La6  1  0.393582  0.153710  0.673625  1
  Yb  Yb7  1  0.999665  0.999665  0.999665  1
  Sm  Sm8  1  0.803986  0.803986  0.803986  1
  Pt  Pt9  1  0.165068  0.957150  0.590012  1
  Pt  Pt10  1  0.590012  0.165068  0.957150  1
  Pt  Pt11  1  0.957150  0.590012  0.165068  1
  Pt  Pt12  1  0.832663  0.040290  0.413327  1
  Pt  Pt13  1  0.413327  0.832663  0.040290  1
  Pt  Pt14  1  0.040290  0.413327  0.832663  1
