# generated using pymatgen
data_Rb(ZrS2)4
_symmetry_space_group_name_H-M   'P 1'
_cell_length_a   9.40431865
_cell_length_b   9.40431849
_cell_length_c   9.40431900
_cell_angle_alpha   45.44268962
_cell_angle_beta   45.44269056
_cell_angle_gamma   45.44269607
_symmetry_Int_Tables_number   1
_chemical_formula_structural   Rb(ZrS2)4
_chemical_formula_sum   'Rb1 Zr4 S8'
_cell_volume   384.72228825
_cell_formula_units_Z   1
loop_
 _symmetry_equiv_pos_site_id
 _symmetry_equiv_pos_as_xyz
  1  'x, y, z'
loop_
 _atom_site_type_symbol
 _atom_site_label
 _atom_site_symmetry_multiplicity
 _atom_site_fract_x
 _atom_site_fract_y
 _atom_site_fract_z
 _atom_site_occupancy
  Rb  Rb0  1  0.500000  0.500000  0.500000  1
  Zr  Zr1  1  0.000000  0.500000  0.500000  1
  Zr  Zr2  1  0.500000  0.000000  0.500000  1
  Zr  Zr3  1  0.500000  0.500000  0.000000  1
  Zr  Zr4  1  0.000000  0.000000  0.000000  1
  S  S5  1  0.272432  0.773983  0.773983  1
  S  S6  1  0.226017  0.226017  0.727568  1
  S  S7  1  0.727568  0.226017  0.226017  1
  S  S8  1  0.226017  0.727568  0.226017  1
  S  S9  1  0.273879  0.273879  0.273879  1
  S  S10  1  0.726121  0.726121  0.726121  1
  S  S11  1  0.773983  0.272432  0.773983  1
  S  S12  1  0.773983  0.773983  0.272432  1
