# generated using pymatgen
data_Dy(ErSi2)5
_symmetry_space_group_name_H-M   'P 1'
_cell_length_a   6.57517900
_cell_length_b   6.57419976
_cell_length_c   8.28254100
_cell_angle_alpha   90.03658155
_cell_angle_beta   90.00000000
_cell_angle_gamma   120.00493243
_symmetry_Int_Tables_number   1
_chemical_formula_structural   Dy(ErSi2)5
_chemical_formula_sum   'Dy1 Er5 Si10'
_cell_volume   310.04376136
_cell_formula_units_Z   1
loop_
 _symmetry_equiv_pos_site_id
 _symmetry_equiv_pos_as_xyz
  1  'x, y, z'
loop_
 _atom_site_type_symbol
 _atom_site_label
 _atom_site_symmetry_multiplicity
 _atom_site_fract_x
 _atom_site_fract_y
 _atom_site_fract_z
 _atom_site_occupancy
  Dy  Dy0  1  0.329984  0.000000  0.000000  1
  Er  Er1  1  0.330085  0.000000  0.500000  1
  Er  Er2  1  0.669888  0.669957  0.499973  1
  Er  Er3  1  0.999931  0.330043  0.500027  1
  Er  Er4  1  0.999942  0.329994  0.999953  1
  Er  Er5  1  0.669948  0.670006  0.000047  1
  Si  Si6  1  0.999734  0.000015  0.749823  1
  Si  Si7  1  0.668767  0.063203  0.749748  1
  Si  Si8  1  0.394844  0.332069  0.749684  1
  Si  Si9  1  0.936804  0.605196  0.749910  1
  Si  Si10  1  0.333402  0.666398  0.749830  1
  Si  Si11  1  0.999719  0.999985  0.250177  1
  Si  Si12  1  0.667005  0.333602  0.250170  1
  Si  Si13  1  0.331609  0.394804  0.250090  1
  Si  Si14  1  0.062776  0.667931  0.250316  1
  Si  Si15  1  0.605563  0.936797  0.250252  1
