# generated using pymatgen
data_Nd9Ga(Ni2Ag)2
_symmetry_space_group_name_H-M   'P 1'
_cell_length_a   8.90804596
_cell_length_b   8.90804686
_cell_length_c   8.90804600
_cell_angle_alpha   128.71233958
_cell_angle_beta   128.71235245
_cell_angle_gamma   75.47386256
_symmetry_Int_Tables_number   1
_chemical_formula_structural   Nd9Ga(Ni2Ag)2
_chemical_formula_sum   'Nd9 Ga1 Ni4 Ag2'
_cell_volume   418.80834331
_cell_formula_units_Z   1
loop_
 _symmetry_equiv_pos_site_id
 _symmetry_equiv_pos_as_xyz
  1  'x, y, z'
loop_
 _atom_site_type_symbol
 _atom_site_label
 _atom_site_symmetry_multiplicity
 _atom_site_fract_x
 _atom_site_fract_y
 _atom_site_fract_z
 _atom_site_occupancy
  Nd  Nd0  1  0.720480  0.562741  0.540821  1
  Nd  Nd1  1  0.437259  0.978079  0.157739  1
  Nd  Nd2  1  0.820340  0.279520  0.842261  1
  Nd  Nd3  1  0.562741  0.021921  0.842261  1
  Nd  Nd4  1  0.021921  0.179660  0.459179  1
  Nd  Nd5  1  0.279520  0.437259  0.459179  1
  Nd  Nd6  1  0.179660  0.720480  0.157739  1
  Nd  Nd7  1  0.978079  0.820340  0.540821  1
  Nd  Nd8  1  0.500000  0.500000  0.000000  1
  Ga  Ga9  1  0.000000  0.000000  0.000000  1
  Ni  Ni10  1  0.126781  0.618547  0.745327  1
  Ni  Ni11  1  0.873219  0.381453  0.254673  1
  Ni  Ni12  1  0.618547  0.873219  0.491766  1
  Ni  Ni13  1  0.381453  0.126781  0.508234  1
  Ag  Ag14  1  0.263063  0.263063  0.000000  1
  Ag  Ag15  1  0.736937  0.736937  0.000000  1
