# generated using pymatgen
data_Tc2MoS4
_symmetry_space_group_name_H-M   'P 1'
_cell_length_a   6.51207787
_cell_length_b   6.50299096
_cell_length_c   6.50539855
_cell_angle_alpha   93.13807316
_cell_angle_beta   93.39624735
_cell_angle_gamma   92.63881128
_symmetry_Int_Tables_number   1
_chemical_formula_structural   Tc2MoS4
_chemical_formula_sum   'Tc4 Mo2 S8'
_cell_volume   274.25845047
_cell_formula_units_Z   2
loop_
 _symmetry_equiv_pos_site_id
 _symmetry_equiv_pos_as_xyz
  1  'x, y, z'
loop_
 _atom_site_type_symbol
 _atom_site_label
 _atom_site_symmetry_multiplicity
 _atom_site_fract_x
 _atom_site_fract_y
 _atom_site_fract_z
 _atom_site_occupancy
  Tc  Tc0  1  0.230261  0.409271  0.550753  1
  Tc  Tc1  1  0.552112  0.230335  0.411115  1
  Tc  Tc2  1  0.408717  0.549178  0.231017  1
  Tc  Tc3  1  0.767666  0.588789  0.448110  1
  Mo  Mo4  1  0.447181  0.770340  0.590110  1
  Mo  Mo5  1  0.591559  0.451065  0.771395  1
  S  S6  1  0.381445  0.130410  0.720242  1
  S  S7  1  0.721466  0.378674  0.133307  1
  S  S8  1  0.125401  0.719492  0.378198  1
  S  S9  1  0.621687  0.868590  0.271760  1
  S  S10  1  0.272265  0.622439  0.871923  1
  S  S11  1  0.873557  0.277661  0.621123  1
  S  S12  1  0.225375  0.224202  0.225671  1
  S  S13  1  0.781307  0.779554  0.775276  1
