# generated using pymatgen
data_Tb3YAl10(Ga4Ir3)2
_symmetry_space_group_name_H-M   'P 1'
_cell_length_a   7.54755279
_cell_length_b   7.54673062
_cell_length_c   9.57672807
_cell_angle_alpha   90.09390768
_cell_angle_beta   89.85309507
_cell_angle_gamma   119.63620254
_symmetry_Int_Tables_number   1
_chemical_formula_structural   Tb3YAl10(Ga4Ir3)2
_chemical_formula_sum   'Tb3 Y1 Al10 Ga8 Ir6'
_cell_volume   474.12379097
_cell_formula_units_Z   1
loop_
 _symmetry_equiv_pos_site_id
 _symmetry_equiv_pos_as_xyz
  1  'x, y, z'
loop_
 _atom_site_type_symbol
 _atom_site_label
 _atom_site_symmetry_multiplicity
 _atom_site_fract_x
 _atom_site_fract_y
 _atom_site_fract_z
 _atom_site_occupancy
  Tb  Tb0  1  0.996315  0.667232  0.245822  1
  Tb  Tb1  1  0.003728  0.332790  0.754195  1
  Tb  Tb2  1  0.672475  0.998398  0.249111  1
  Y  Y3  1  0.327556  0.001668  0.750836  1
  Al  Al4  1  0.997721  0.665350  0.570761  1
  Al  Al5  1  0.334587  0.000886  0.427773  1
  Al  Al6  1  0.002422  0.334816  0.429280  1
  Al  Al7  1  0.665254  0.999063  0.572328  1
  Al  Al8  1  0.663866  0.996821  0.926676  1
  Al  Al9  1  0.335953  0.003131  0.073210  1
  Al  Al10  1  0.333570  0.333443  0.554665  1
  Al  Al11  1  0.666443  0.666440  0.445353  1
  Al  Al12  1  0.666767  0.666036  0.053389  1
  Al  Al13  1  0.333244  0.333833  0.946597  1
  Ga  Ga14  1  0.130596  0.127073  0.250634  1
  Ga  Ga15  1  0.869506  0.873131  0.749360  1
  Ga  Ga16  1  0.000016  0.333760  0.079585  1
  Ga  Ga17  1  0.000099  0.666377  0.920468  1
  Ga  Ga18  1  0.341305  0.548715  0.250839  1
  Ga  Ga19  1  0.658844  0.451257  0.749139  1
  Ga  Ga20  1  0.546190  0.339873  0.250081  1
  Ga  Ga21  1  0.453622  0.660003  0.749907  1
  Ir  Ir22  1  0.667121  0.326012  0.999252  1
  Ir  Ir23  1  0.332825  0.673914  0.000684  1
  Ir  Ir24  1  0.328179  0.671622  0.500725  1
  Ir  Ir25  1  0.671777  0.328331  0.499334  1
  Ir  Ir26  1  0.000005  0.000008  0.999986  1
  Ir  Ir27  1  0.000013  0.000018  0.500009  1
