# generated using pymatgen
data_Nd6Ho10Cd4Ni3Os
_symmetry_space_group_name_H-M   'P 1'
_cell_length_a   9.67353307
_cell_length_b   9.67353217
_cell_length_c   9.67353246
_cell_angle_alpha   59.62442509
_cell_angle_beta   59.62443205
_cell_angle_gamma   59.62443210
_symmetry_Int_Tables_number   1
_chemical_formula_structural   Nd6Ho10Cd4Ni3Os
_chemical_formula_sum   'Nd6 Ho10 Cd4 Ni3 Os1'
_cell_volume   634.62574230
_cell_formula_units_Z   1
loop_
 _symmetry_equiv_pos_site_id
 _symmetry_equiv_pos_as_xyz
  1  'x, y, z'
loop_
 _atom_site_type_symbol
 _atom_site_label
 _atom_site_symmetry_multiplicity
 _atom_site_fract_x
 _atom_site_fract_y
 _atom_site_fract_z
 _atom_site_occupancy
  Nd  Nd0  1  0.188716  0.812517  0.812517  1
  Nd  Nd1  1  0.803450  0.191885  0.191885  1
  Nd  Nd2  1  0.812517  0.188716  0.812517  1
  Nd  Nd3  1  0.191885  0.803450  0.191885  1
  Nd  Nd4  1  0.812517  0.812517  0.188716  1
  Nd  Nd5  1  0.191885  0.191885  0.803450  1
  Ho  Ho6  1  0.597792  0.597792  0.597792  1
  Ho  Ho7  1  0.599002  0.599002  0.209027  1
  Ho  Ho8  1  0.599002  0.209027  0.599002  1
  Ho  Ho9  1  0.209027  0.599002  0.599002  1
  Ho  Ho10  1  0.062428  0.435949  0.435949  1
  Ho  Ho11  1  0.432987  0.062658  0.062658  1
  Ho  Ho12  1  0.435949  0.062428  0.435949  1
  Ho  Ho13  1  0.062658  0.432987  0.062658  1
  Ho  Ho14  1  0.435949  0.435949  0.062428  1
  Ho  Ho15  1  0.062658  0.062658  0.432987  1
  Cd  Cd16  1  0.828946  0.828946  0.828946  1
  Cd  Cd17  1  0.828938  0.828938  0.510569  1
  Cd  Cd18  1  0.828938  0.510569  0.828938  1
  Cd  Cd19  1  0.510569  0.828938  0.828938  1
  Ni  Ni20  1  0.392566  0.392566  0.826312  1
  Ni  Ni21  1  0.392566  0.826312  0.392566  1
  Ni  Ni22  1  0.826312  0.392566  0.392566  1
  Os  Os23  1  0.392743  0.392743  0.392743  1
