# generated using pymatgen
data_Tb2Lu2Al18RePd5
_symmetry_space_group_name_H-M   'P 1'
_cell_length_a   7.60572212
_cell_length_b   7.61616486
_cell_length_c   9.47323705
_cell_angle_alpha   89.85395811
_cell_angle_beta   89.70039995
_cell_angle_gamma   119.25608200
_symmetry_Int_Tables_number   1
_chemical_formula_structural   Tb2Lu2Al18RePd5
_chemical_formula_sum   'Tb2 Lu2 Al18 Re1 Pd5'
_cell_volume   478.73970934
_cell_formula_units_Z   1
loop_
 _symmetry_equiv_pos_site_id
 _symmetry_equiv_pos_as_xyz
  1  'x, y, z'
loop_
 _atom_site_type_symbol
 _atom_site_label
 _atom_site_symmetry_multiplicity
 _atom_site_fract_x
 _atom_site_fract_y
 _atom_site_fract_z
 _atom_site_occupancy
  Tb  Tb0  1  0.995488  0.674997  0.248195  1
  Tb  Tb1  1  0.004472  0.324970  0.751813  1
  Lu  Lu2  1  0.675825  0.995209  0.247092  1
  Lu  Lu3  1  0.324150  0.004801  0.752899  1
  Al  Al4  1  0.131816  0.132424  0.247578  1
  Al  Al5  1  0.868191  0.867587  0.752442  1
  Al  Al6  1  0.998377  0.330061  0.075795  1
  Al  Al7  1  0.001613  0.669926  0.924196  1
  Al  Al8  1  0.999607  0.663789  0.579328  1
  Al  Al9  1  0.338827  0.001558  0.421293  1
  Al  Al10  1  0.000391  0.336210  0.420670  1
  Al  Al11  1  0.661171  0.998440  0.578703  1
  Al  Al12  1  0.666935  0.999742  0.925074  1
  Al  Al13  1  0.333102  0.000252  0.074934  1
  Al  Al14  1  0.333912  0.332736  0.555836  1
  Al  Al15  1  0.666085  0.667262  0.444161  1
  Al  Al16  1  0.669887  0.670989  0.052011  1
  Al  Al17  1  0.330137  0.329041  0.947978  1
  Al  Al18  1  0.343193  0.551369  0.249104  1
  Al  Al19  1  0.656806  0.448632  0.750893  1
  Al  Al20  1  0.549841  0.342649  0.249108  1
  Al  Al21  1  0.450157  0.657349  0.750892  1
  Re  Re22  1  0.000021  0.000006  0.000002  1
  Pd  Pd23  1  0.672181  0.328085  0.999940  1
  Pd  Pd24  1  0.327817  0.671917  0.000059  1
  Pd  Pd25  1  0.327345  0.672257  0.500298  1
  Pd  Pd26  1  0.672656  0.327744  0.499703  1
  Pd  Pd27  1  0.999997  0.999999  0.500000  1
