# generated using pymatgen
data_EuHo2TaO7
_symmetry_space_group_name_H-M   'P 1'
_cell_length_a   6.46159974
_cell_length_b   6.46159914
_cell_length_c   7.54853800
_cell_angle_alpha   90.00000000
_cell_angle_beta   90.00000000
_cell_angle_gamma   108.95511756
_symmetry_Int_Tables_number   1
_chemical_formula_structural   EuHo2TaO7
_chemical_formula_sum   'Eu2 Ho4 Ta2 O14'
_cell_volume   298.07803046
_cell_formula_units_Z   2
loop_
 _symmetry_equiv_pos_site_id
 _symmetry_equiv_pos_as_xyz
  1  'x, y, z'
loop_
 _atom_site_type_symbol
 _atom_site_label
 _atom_site_symmetry_multiplicity
 _atom_site_fract_x
 _atom_site_fract_y
 _atom_site_fract_z
 _atom_site_occupancy
  Eu  Eu0  1  0.504796  0.504796  0.500000  1
  Eu  Eu1  1  0.495204  0.495204  0.000000  1
  Ho  Ho2  1  0.999822  0.466001  0.748163  1
  Ho  Ho3  1  0.000178  0.533999  0.248163  1
  Ho  Ho4  1  0.533999  0.000178  0.751837  1
  Ho  Ho5  1  0.466001  0.999822  0.251837  1
  Ta  Ta6  1  0.999904  0.999904  0.500000  1
  Ta  Ta7  1  0.000096  0.000096  0.000000  1
  O  O8  1  0.641059  0.358941  0.750000  1
  O  O9  1  0.358941  0.641059  0.250000  1
  O  O10  1  0.933673  0.066327  0.750000  1
  O  O11  1  0.066327  0.933673  0.250000  1
  O  O12  1  0.930370  0.677585  0.531199  1
  O  O13  1  0.069630  0.322415  0.031199  1
  O  O14  1  0.322415  0.069630  0.968801  1
  O  O15  1  0.677585  0.930370  0.468801  1
  O  O16  1  0.365864  0.634136  0.750000  1
  O  O17  1  0.634136  0.365864  0.250000  1
  O  O18  1  0.936289  0.681902  0.964433  1
  O  O19  1  0.063711  0.318098  0.464433  1
  O  O20  1  0.318098  0.063711  0.535567  1
  O  O21  1  0.681902  0.936289  0.035567  1
