# generated using pymatgen
data_Ba4Nd7SbSe16
_symmetry_space_group_name_H-M   'P 1'
_cell_length_a   4.33905300
_cell_length_b   13.03270483
_cell_length_c   15.57387297
_cell_angle_alpha   89.81361894
_cell_angle_beta   90.00000000
_cell_angle_gamma   90.00000000
_symmetry_Int_Tables_number   1
_chemical_formula_structural   Ba4Nd7SbSe16
_chemical_formula_sum   'Ba4 Nd7 Sb1 Se16'
_cell_volume   880.69158011
_cell_formula_units_Z   1
loop_
 _symmetry_equiv_pos_site_id
 _symmetry_equiv_pos_as_xyz
  1  'x, y, z'
loop_
 _atom_site_type_symbol
 _atom_site_label
 _atom_site_symmetry_multiplicity
 _atom_site_fract_x
 _atom_site_fract_y
 _atom_site_fract_z
 _atom_site_occupancy
  Ba  Ba0  1  0.250000  0.756226  0.337538  1
  Ba  Ba1  1  0.250000  0.257977  0.165008  1
  Ba  Ba2  1  0.750000  0.240736  0.660368  1
  Ba  Ba3  1  0.750000  0.742359  0.836457  1
  Nd  Nd4  1  0.250000  0.427993  0.392983  1
  Nd  Nd5  1  0.250000  0.932366  0.109897  1
  Nd  Nd6  1  0.750000  0.568877  0.608318  1
  Nd  Nd7  1  0.750000  0.069153  0.891723  1
  Nd  Nd8  1  0.250000  0.419906  0.899432  1
  Nd  Nd9  1  0.250000  0.923508  0.599112  1
  Nd  Nd10  1  0.750000  0.579224  0.101175  1
  Sb  Sb11  1  0.750000  0.077125  0.398303  1
  Se  Se12  1  0.250000  0.206934  0.826527  1
  Se  Se13  1  0.250000  0.708443  0.670723  1
  Se  Se14  1  0.750000  0.793613  0.173355  1
  Se  Se15  1  0.750000  0.290376  0.331123  1
  Se  Se16  1  0.250000  0.129403  0.521820  1
  Se  Se17  1  0.250000  0.629704  0.974150  1
  Se  Se18  1  0.750000  0.874000  0.469265  1
  Se  Se19  1  0.750000  0.369685  0.026398  1
  Se  Se20  1  0.250000  0.521773  0.217350  1
  Se  Se21  1  0.250000  0.025948  0.286231  1
  Se  Se22  1  0.750000  0.476388  0.783032  1
  Se  Se23  1  0.750000  0.977564  0.716288  1
  Se  Se24  1  0.250000  0.415474  0.580177  1
  Se  Se25  1  0.250000  0.915875  0.922491  1
  Se  Se26  1  0.750000  0.584142  0.420197  1
  Se  Se27  1  0.750000  0.085234  0.080560  1
