# generated using pymatgen
data_HoEr(NiIr)2
_symmetry_space_group_name_H-M   'P 1'
_cell_length_a   5.19666907
_cell_length_b   5.19666897
_cell_length_c   5.05075500
_cell_angle_alpha   60.92455198
_cell_angle_beta   60.92455257
_cell_angle_gamma   62.21620829
_symmetry_Int_Tables_number   1
_chemical_formula_structural   HoEr(NiIr)2
_chemical_formula_sum   'Ho1 Er1 Ni2 Ir2'
_cell_volume   99.35175132
_cell_formula_units_Z   1
loop_
 _symmetry_equiv_pos_site_id
 _symmetry_equiv_pos_as_xyz
  1  'x, y, z'
loop_
 _atom_site_type_symbol
 _atom_site_label
 _atom_site_symmetry_multiplicity
 _atom_site_fract_x
 _atom_site_fract_y
 _atom_site_fract_z
 _atom_site_occupancy
  Ho  Ho0  1  0.003166  0.003166  0.996834  1
  Er  Er1  1  0.746809  0.746809  0.753193  1
  Ni  Ni2  1  0.375063  0.375063  0.374972  1
  Ni  Ni3  1  0.375063  0.375063  0.874905  1
  Ir  Ir4  1  0.874771  0.375132  0.375049  1
  Ir  Ir5  1  0.375132  0.874771  0.375049  1
