# generated using pymatgen
data_RbThAuS3
_symmetry_space_group_name_H-M   'P 1'
_cell_length_a   4.21715400
_cell_length_b   7.76619595
_cell_length_c   10.64993706
_cell_angle_alpha   89.99906357
_cell_angle_beta   90.00000000
_cell_angle_gamma   74.24603484
_symmetry_Int_Tables_number   1
_chemical_formula_structural   RbThAuS3
_chemical_formula_sum   'Rb2 Th2 Au2 S6'
_cell_volume   335.69657333
_cell_formula_units_Z   2
loop_
 _symmetry_equiv_pos_site_id
 _symmetry_equiv_pos_as_xyz
  1  'x, y, z'
loop_
 _atom_site_type_symbol
 _atom_site_label
 _atom_site_symmetry_multiplicity
 _atom_site_fract_x
 _atom_site_fract_y
 _atom_site_fract_z
 _atom_site_occupancy
  Rb  Rb0  1  0.255486  0.489027  0.250004  1
  Rb  Rb1  1  0.744514  0.510972  0.749997  1
  Th  Th2  1  0.000000  0.000000  0.000000  1
  Th  Th3  1  0.000000  0.000000  0.500000  1
  Au  Au4  1  0.544328  0.911345  0.250003  1
  Au  Au5  1  0.455672  0.088654  0.749997  1
  S  S6  1  0.621842  0.756316  0.045387  1
  S  S7  1  0.936301  0.127399  0.249999  1
  S  S8  1  0.621844  0.756312  0.454621  1
  S  S9  1  0.378156  0.243687  0.545379  1
  S  S10  1  0.063699  0.872602  0.750001  1
  S  S11  1  0.378158  0.243684  0.954613  1
