# generated using pymatgen
data_Eu3Be2(SiPd5)4
_symmetry_space_group_name_H-M   'P 1'
_cell_length_a   8.69669309
_cell_length_b   8.62397458
_cell_length_c   8.62397400
_cell_angle_alpha   60.55866303
_cell_angle_beta   59.72067598
_cell_angle_gamma   59.72067440
_symmetry_Int_Tables_number   1
_chemical_formula_structural   Eu3Be2(SiPd5)4
_chemical_formula_sum   'Eu3 Be2 Si4 Pd20'
_cell_volume   457.29010797
_cell_formula_units_Z   1
loop_
 _symmetry_equiv_pos_site_id
 _symmetry_equiv_pos_as_xyz
  1  'x, y, z'
loop_
 _atom_site_type_symbol
 _atom_site_label
 _atom_site_symmetry_multiplicity
 _atom_site_fract_x
 _atom_site_fract_y
 _atom_site_fract_z
 _atom_site_occupancy
  Eu  Eu0  1  0.250000  0.250000  0.250000  1
  Eu  Eu1  1  0.750000  0.750000  0.750000  1
  Eu  Eu2  1  0.000000  0.000000  0.000000  1
  Be  Be3  1  0.727120  0.272880  0.272880  1
  Be  Be4  1  0.272880  0.727120  0.727120  1
  Si  Si5  1  0.269897  0.730103  0.269897  1
  Si  Si6  1  0.730103  0.269897  0.730103  1
  Si  Si7  1  0.269897  0.269897  0.730103  1
  Si  Si8  1  0.730103  0.730103  0.269897  1
  Pd  Pd9  1  0.389063  0.382987  0.382987  1
  Pd  Pd10  1  0.610937  0.617013  0.617013  1
  Pd  Pd11  1  0.382987  0.389063  0.844965  1
  Pd  Pd12  1  0.382987  0.844965  0.389063  1
  Pd  Pd13  1  0.617013  0.610937  0.155035  1
  Pd  Pd14  1  0.617013  0.155035  0.610937  1
  Pd  Pd15  1  0.844965  0.382987  0.382987  1
  Pd  Pd16  1  0.155035  0.617013  0.617013  1
  Pd  Pd17  1  0.344900  0.000000  0.000000  1
  Pd  Pd18  1  0.655100  0.000000  0.000000  1
  Pd  Pd19  1  0.000000  0.344900  0.655100  1
  Pd  Pd20  1  0.000000  0.655100  0.344900  1
  Pd  Pd21  1  0.994408  0.343061  0.005592  1
  Pd  Pd22  1  0.656939  0.005592  0.343061  1
  Pd  Pd23  1  0.005592  0.656939  0.994408  1
  Pd  Pd24  1  0.343061  0.994408  0.656939  1
  Pd  Pd25  1  0.994408  0.005592  0.343061  1
  Pd  Pd26  1  0.005592  0.994408  0.656939  1
  Pd  Pd27  1  0.656939  0.343061  0.005592  1
  Pd  Pd28  1  0.343061  0.656939  0.994408  1
