# generated using pymatgen
data_Dy4Sc4IrPt3
_symmetry_space_group_name_H-M   'P 1'
_cell_length_a   4.56081000
_cell_length_b   6.99961160
_cell_length_c   8.46932849
_cell_angle_alpha   89.12218795
_cell_angle_beta   90.00000000
_cell_angle_gamma   90.00000000
_symmetry_Int_Tables_number   1
_chemical_formula_structural   Dy4Sc4IrPt3
_chemical_formula_sum   'Dy4 Sc4 Ir1 Pt3'
_cell_volume   270.34225289
_cell_formula_units_Z   1
loop_
 _symmetry_equiv_pos_site_id
 _symmetry_equiv_pos_as_xyz
  1  'x, y, z'
loop_
 _atom_site_type_symbol
 _atom_site_label
 _atom_site_symmetry_multiplicity
 _atom_site_fract_x
 _atom_site_fract_y
 _atom_site_fract_z
 _atom_site_occupancy
  Dy  Dy0  1  0.250000  0.481597  0.177601  1
  Dy  Dy1  1  0.750000  0.523082  0.821374  1
  Dy  Dy2  1  0.750000  0.010526  0.672691  1
  Dy  Dy3  1  0.250000  0.981958  0.327431  1
  Sc  Sc4  1  0.250000  0.861873  0.927733  1
  Sc  Sc5  1  0.750000  0.140691  0.070533  1
  Sc  Sc6  1  0.750000  0.642217  0.430704  1
  Sc  Sc7  1  0.250000  0.358128  0.574050  1
  Ir  Ir8  1  0.250000  0.741256  0.600031  1
  Pt  Pt9  1  0.750000  0.256696  0.396775  1
  Pt  Pt10  1  0.750000  0.754996  0.099321  1
  Pt  Pt11  1  0.250000  0.246978  0.901754  1
