# generated using pymatgen
data_Pr3Ga2B4Rh9
_symmetry_space_group_name_H-M   'P 1'
_cell_length_a   5.58404000
_cell_length_b   5.58404044
_cell_length_c   10.10135500
_cell_angle_alpha   90.00000000
_cell_angle_beta   90.00000000
_cell_angle_gamma   119.99999741
_symmetry_Int_Tables_number   1
_chemical_formula_structural   Pr3Ga2B4Rh9
_chemical_formula_sum   'Pr3 Ga2 B4 Rh9'
_cell_volume   272.77675103
_cell_formula_units_Z   1
loop_
 _symmetry_equiv_pos_site_id
 _symmetry_equiv_pos_as_xyz
  1  'x, y, z'
loop_
 _atom_site_type_symbol
 _atom_site_label
 _atom_site_symmetry_multiplicity
 _atom_site_fract_x
 _atom_site_fract_y
 _atom_site_fract_z
 _atom_site_occupancy
  Pr  Pr0  1  0.000000  0.000000  0.661630  1
  Pr  Pr1  1  0.000000  0.000000  0.338370  1
  Pr  Pr2  1  0.000000  0.000000  0.000000  1
  Ga  Ga3  1  0.333333  0.666667  0.000000  1
  Ga  Ga4  1  0.666667  0.333333  0.000000  1
  B  B5  1  0.333333  0.666667  0.653458  1
  B  B6  1  0.666667  0.333333  0.653458  1
  B  B7  1  0.666667  0.333333  0.346542  1
  B  B8  1  0.333333  0.666667  0.346542  1
  Rh  Rh9  1  0.500000  0.500000  0.500000  1
  Rh  Rh10  1  0.000000  0.500000  0.500000  1
  Rh  Rh11  1  0.500000  0.000000  0.205144  1
  Rh  Rh12  1  0.500000  0.500000  0.205144  1
  Rh  Rh13  1  0.000000  0.500000  0.205144  1
  Rh  Rh14  1  0.500000  0.000000  0.794856  1
  Rh  Rh15  1  0.500000  0.500000  0.794856  1
  Rh  Rh16  1  0.000000  0.500000  0.794856  1
  Rh  Rh17  1  0.500000  0.000000  0.500000  1
