# generated using pymatgen
data_Y11Ho9Co3Bi8Os
_symmetry_space_group_name_H-M   'P 1'
_cell_length_a   7.99274666
_cell_length_b   8.92116800
_cell_length_c   12.46307324
_cell_angle_alpha   90.00000000
_cell_angle_beta   89.77211703
_cell_angle_gamma   90.00000000
_symmetry_Int_Tables_number   1
_chemical_formula_structural   Y11Ho9Co3Bi8Os
_chemical_formula_sum   'Y11 Ho9 Co3 Bi8 Os1'
_cell_volume   888.66786940
_cell_formula_units_Z   1
loop_
 _symmetry_equiv_pos_site_id
 _symmetry_equiv_pos_as_xyz
  1  'x, y, z'
loop_
 _atom_site_type_symbol
 _atom_site_label
 _atom_site_symmetry_multiplicity
 _atom_site_fract_x
 _atom_site_fract_y
 _atom_site_fract_z
 _atom_site_occupancy
  Y  Y0  1  0.346365  0.750000  0.701881  1
  Y  Y1  1  0.652573  0.250000  0.299919  1
  Y  Y2  1  0.847738  0.250000  0.799062  1
  Y  Y3  1  0.154935  0.750000  0.206615  1
  Y  Y4  1  0.879689  0.750000  0.804859  1
  Y  Y5  1  0.116339  0.250000  0.190282  1
  Y  Y6  1  0.383388  0.250000  0.689149  1
  Y  Y7  1  0.616530  0.750000  0.311892  1
  Y  Y8  1  0.050884  0.750000  0.498061  1
  Y  Y9  1  0.948699  0.250000  0.502440  1
  Y  Y10  1  0.553873  0.250000  0.003066  1
  Ho  Ho11  1  0.674027  0.536818  0.562964  1
  Ho  Ho12  1  0.325070  0.461861  0.437039  1
  Ho  Ho13  1  0.175568  0.458003  0.935732  1
  Ho  Ho14  1  0.325070  0.038139  0.437039  1
  Ho  Ho15  1  0.825358  0.538029  0.063209  1
  Ho  Ho16  1  0.674027  0.963182  0.562964  1
  Ho  Ho17  1  0.825358  0.961971  0.063209  1
  Ho  Ho18  1  0.175568  0.041997  0.935732  1
  Ho  Ho19  1  0.444069  0.750000  0.996849  1
  Co  Co20  1  0.931609  0.250000  0.008955  1
  Co  Co21  1  0.563732  0.250000  0.507795  1
  Co  Co22  1  0.434809  0.750000  0.492609  1
  Bi  Bi23  1  0.571536  0.508499  0.826621  1
  Bi  Bi24  1  0.429700  0.491386  0.173226  1
  Bi  Bi25  1  0.072056  0.490607  0.672241  1
  Bi  Bi26  1  0.429700  0.008614  0.173226  1
  Bi  Bi27  1  0.927663  0.508601  0.327407  1
  Bi  Bi28  1  0.571536  0.991501  0.826621  1
  Bi  Bi29  1  0.927663  0.991399  0.327407  1
  Bi  Bi30  1  0.072056  0.009393  0.672241  1
  Os  Os31  1  0.072813  0.750000  0.989690  1
