# generated using pymatgen
data_Tb3Np2PaAl18
_symmetry_space_group_name_H-M   'P 1'
_cell_length_a   14.63039091
_cell_length_b   14.63039044
_cell_length_c   14.63039000
_cell_angle_alpha   24.38152193
_cell_angle_beta   24.38152598
_cell_angle_gamma   24.38152721
_symmetry_Int_Tables_number   1
_chemical_formula_structural   Tb3Np2PaAl18
_chemical_formula_sum   'Tb3 Np2 Pa1 Al18'
_cell_volume   469.13844356
_cell_formula_units_Z   1
loop_
 _symmetry_equiv_pos_site_id
 _symmetry_equiv_pos_as_xyz
  1  'x, y, z'
loop_
 _atom_site_type_symbol
 _atom_site_label
 _atom_site_symmetry_multiplicity
 _atom_site_fract_x
 _atom_site_fract_y
 _atom_site_fract_z
 _atom_site_occupancy
  Tb  Tb0  1  0.999673  0.999673  0.999673  1
  Tb  Tb1  1  0.499815  0.499815  0.499815  1
  Tb  Tb2  1  0.609725  0.609725  0.609725  1
  Np  Np3  1  0.890973  0.890973  0.890973  1
  Np  Np4  1  0.391499  0.391499  0.391499  1
  Pa  Pa5  1  0.108901  0.108901  0.108901  1
  Al  Al6  1  0.921038  0.372641  0.372641  1
  Al  Al7  1  0.419917  0.871815  0.871815  1
  Al  Al8  1  0.372641  0.372641  0.921038  1
  Al  Al9  1  0.871815  0.871815  0.419917  1
  Al  Al10  1  0.372641  0.921038  0.372641  1
  Al  Al11  1  0.871815  0.419917  0.871815  1
  Al  Al12  1  0.579691  0.126898  0.126898  1
  Al  Al13  1  0.078805  0.627814  0.627814  1
  Al  Al14  1  0.126898  0.126898  0.579691  1
  Al  Al15  1  0.627814  0.627814  0.078805  1
  Al  Al16  1  0.126898  0.579691  0.126898  1
  Al  Al17  1  0.627814  0.078805  0.627814  1
  Al  Al18  1  0.496289  0.496289  0.007633  1
  Al  Al19  1  0.000424  0.000424  0.500571  1
  Al  Al20  1  0.496289  0.007633  0.496289  1
  Al  Al21  1  0.000424  0.500571  0.000424  1
  Al  Al22  1  0.007633  0.496289  0.496289  1
  Al  Al23  1  0.500571  0.000424  0.000424  1
