# generated using pymatgen
data_Th4ZnAg3Au4
_symmetry_space_group_name_H-M   'P 1'
_cell_length_a   4.80676400
_cell_length_b   6.88708256
_cell_length_c   8.32363636
_cell_angle_alpha   90.03426203
_cell_angle_beta   90.00000000
_cell_angle_gamma   90.00000000
_symmetry_Int_Tables_number   1
_chemical_formula_structural   Th4ZnAg3Au4
_chemical_formula_sum   'Th4 Zn1 Ag3 Au4'
_cell_volume   275.55044094
_cell_formula_units_Z   1
loop_
 _symmetry_equiv_pos_site_id
 _symmetry_equiv_pos_as_xyz
  1  'x, y, z'
loop_
 _atom_site_type_symbol
 _atom_site_label
 _atom_site_symmetry_multiplicity
 _atom_site_fract_x
 _atom_site_fract_y
 _atom_site_fract_z
 _atom_site_occupancy
  Th  Th0  1  0.250000  0.004420  0.266449  1
  Th  Th1  1  0.250000  0.496512  0.234202  1
  Th  Th2  1  0.750000  0.997937  0.735527  1
  Th  Th3  1  0.750000  0.498570  0.764852  1
  Zn  Zn4  1  0.750000  0.776068  0.080625  1
  Ag  Ag5  1  0.250000  0.730289  0.586162  1
  Ag  Ag6  1  0.250000  0.226084  0.915777  1
  Ag  Ag7  1  0.750000  0.271281  0.417085  1
  Au  Au8  1  0.250000  0.264306  0.584502  1
  Au  Au9  1  0.250000  0.762813  0.927246  1
  Au  Au10  1  0.750000  0.739239  0.403252  1
  Au  Au11  1  0.750000  0.232484  0.084318  1
