# generated using pymatgen
data_ZnMo12Pt5(RhN2)2
_symmetry_space_group_name_H-M   'P 1'
_cell_length_a   6.87467024
_cell_length_b   6.87037347
_cell_length_c   6.87457383
_cell_angle_alpha   89.85305347
_cell_angle_beta   89.82940199
_cell_angle_gamma   89.97251248
_symmetry_Int_Tables_number   1
_chemical_formula_structural   ZnMo12Pt5(RhN2)2
_chemical_formula_sum   'Zn1 Mo12 Pt5 Rh2 N4'
_cell_volume   324.69424799
_cell_formula_units_Z   1
loop_
 _symmetry_equiv_pos_site_id
 _symmetry_equiv_pos_as_xyz
  1  'x, y, z'
loop_
 _atom_site_type_symbol
 _atom_site_label
 _atom_site_symmetry_multiplicity
 _atom_site_fract_x
 _atom_site_fract_y
 _atom_site_fract_z
 _atom_site_occupancy
  Zn  Zn0  1  0.189517  0.188770  0.189087  1
  Mo  Mo1  1  0.621546  0.702149  0.948407  1
  Mo  Mo2  1  0.458017  0.871388  0.306979  1
  Mo  Mo3  1  0.699363  0.948138  0.622134  1
  Mo  Mo4  1  0.551814  0.376419  0.205562  1
  Mo  Mo5  1  0.375724  0.202972  0.552493  1
  Mo  Mo6  1  0.204876  0.551502  0.376703  1
  Mo  Mo7  1  0.871937  0.304718  0.458954  1
  Mo  Mo8  1  0.046165  0.120888  0.795218  1
  Mo  Mo9  1  0.306002  0.461882  0.870409  1
  Mo  Mo10  1  0.122665  0.796483  0.043706  1
  Mo  Mo11  1  0.794906  0.046172  0.120868  1
  Mo  Mo12  1  0.951123  0.623417  0.700759  1
  Pt  Pt13  1  0.428405  0.060178  0.947976  1
  Pt  Pt14  1  0.811447  0.687349  0.308127  1
  Pt  Pt15  1  0.687166  0.308128  0.811627  1
  Pt  Pt16  1  0.063770  0.948364  0.431080  1
  Pt  Pt17  1  0.950140  0.428966  0.062140  1
  Rh  Rh18  1  0.307720  0.811225  0.687579  1
  Rh  Rh19  1  0.555509  0.559085  0.558721  1
  N  N20  1  0.376132  0.625990  0.126423  1
  N  N21  1  0.873211  0.873105  0.872787  1
  N  N22  1  0.126720  0.376339  0.626105  1
  N  N23  1  0.626127  0.126375  0.376156  1
