# generated using pymatgen
data_Sc6Nb2Co7Si14Os
_symmetry_space_group_name_H-M   'P 1'
_cell_length_a   9.41527031
_cell_length_b   9.39498640
_cell_length_c   9.46220854
_cell_angle_alpha   94.07280253
_cell_angle_beta   94.19372282
_cell_angle_gamma   148.75728687
_symmetry_Int_Tables_number   1
_chemical_formula_structural   Sc6Nb2Co7Si14Os
_chemical_formula_sum   'Sc6 Nb2 Co7 Si14 Os1'
_cell_volume   418.27788703
_cell_formula_units_Z   1
loop_
 _symmetry_equiv_pos_site_id
 _symmetry_equiv_pos_as_xyz
  1  'x, y, z'
loop_
 _atom_site_type_symbol
 _atom_site_label
 _atom_site_symmetry_multiplicity
 _atom_site_fract_x
 _atom_site_fract_y
 _atom_site_fract_z
 _atom_site_occupancy
  Sc  Sc0  1  0.307051  0.503956  0.805253  1
  Sc  Sc1  1  0.694543  0.500271  0.196016  1
  Sc  Sc2  1  0.501476  0.695711  0.196026  1
  Sc  Sc3  1  0.498244  0.301316  0.805286  1
  Sc  Sc4  1  0.139337  0.139334  0.278546  1
  Sc  Sc5  1  0.861498  0.861493  0.723074  1
  Nb  Nb6  1  0.134780  0.863123  0.000725  1
  Nb  Nb7  1  0.865962  0.137639  0.000716  1
  Co  Co8  1  0.104065  0.604064  0.208133  1
  Co  Co9  1  0.899474  0.103023  0.498374  1
  Co  Co10  1  0.598875  0.395315  0.498346  1
  Co  Co11  1  0.601232  0.101247  0.202421  1
  Co  Co12  1  0.899618  0.399603  0.799054  1
  Co  Co13  1  0.101517  0.895469  0.498362  1
  Co  Co14  1  0.396842  0.602887  0.498379  1
  Si  Si15  1  0.291171  0.291121  0.582268  1
  Si  Si16  1  0.709854  0.709829  0.419795  1
  Si  Si17  1  0.281682  0.702747  0.006287  1
  Si  Si18  1  0.724615  0.303570  0.006276  1
  Si  Si19  1  0.075399  0.483512  0.586641  1
  Si  Si20  1  0.900574  0.493794  0.406499  1
  Si  Si21  1  0.505872  0.912705  0.406507  1
  Si  Si22  1  0.511262  0.103198  0.586639  1
  Si  Si23  1  0.245350  0.245025  0.000522  1
  Si  Si24  1  0.755175  0.755476  0.000530  1
  Si  Si25  1  0.300726  0.999308  0.297760  1
  Si  Si26  1  0.714716  0.008483  0.700262  1
  Si  Si27  1  0.985447  0.691711  0.700190  1
  Si  Si28  1  0.997028  0.298443  0.297718  1
  Os  Os29  1  0.396616  0.896624  0.793399  1
