# generated using pymatgen
data_Li25ZnSi8
_symmetry_space_group_name_H-M   'P 1'
_cell_length_a   7.91565424
_cell_length_b   14.84295705
_cell_length_c   4.42971100
_cell_angle_alpha   90.00000000
_cell_angle_beta   90.00000000
_cell_angle_gamma   90.06220939
_symmetry_Int_Tables_number   1
_chemical_formula_structural   Li25ZnSi8
_chemical_formula_sum   'Li25 Zn1 Si8'
_cell_volume   520.45403971
_cell_formula_units_Z   1
loop_
 _symmetry_equiv_pos_site_id
 _symmetry_equiv_pos_as_xyz
  1  'x, y, z'
loop_
 _atom_site_type_symbol
 _atom_site_label
 _atom_site_symmetry_multiplicity
 _atom_site_fract_x
 _atom_site_fract_y
 _atom_site_fract_z
 _atom_site_occupancy
  Li  Li0  1  0.150500  0.022908  0.000000  1
  Li  Li1  1  0.770539  0.152247  0.000000  1
  Li  Li2  1  0.091850  0.191748  0.000000  1
  Li  Li3  1  0.595219  0.306355  0.000000  1
  Li  Li4  1  0.266188  0.349760  0.000000  1
  Li  Li5  1  0.651122  0.475341  0.000000  1
  Li  Li6  1  0.000000  0.500000  0.000000  1
  Li  Li7  1  0.348879  0.524658  0.000000  1
  Li  Li8  1  0.733812  0.650241  0.000000  1
  Li  Li9  1  0.404783  0.693646  0.000000  1
  Li  Li10  1  0.908149  0.808253  0.000000  1
  Li  Li11  1  0.229462  0.847753  0.000000  1
  Li  Li12  1  0.849501  0.977091  0.000000  1
  Li  Li13  1  0.262463  0.089178  0.500000  1
  Li  Li14  1  0.599262  0.101809  0.500000  1
  Li  Li15  1  0.906027  0.245743  0.500000  1
  Li  Li16  1  0.406822  0.252927  0.500000  1
  Li  Li17  1  0.094608  0.393346  0.500000  1
  Li  Li18  1  0.759578  0.406058  0.500000  1
  Li  Li19  1  0.240422  0.593942  0.500000  1
  Li  Li20  1  0.905392  0.606654  0.500000  1
  Li  Li21  1  0.593179  0.747073  0.500000  1
  Li  Li22  1  0.093972  0.754257  0.500000  1
  Li  Li23  1  0.400739  0.898191  0.500000  1
  Li  Li24  1  0.737538  0.910822  0.500000  1
  Zn  Zn25  1  0.500000  0.000000  0.000000  1
  Si  Si26  1  0.417791  0.155443  0.000000  1
  Si  Si27  1  0.916080  0.338908  0.000000  1
  Si  Si28  1  0.083921  0.661092  0.000000  1
  Si  Si29  1  0.582209  0.844557  0.000000  1
  Si  Si30  1  0.930667  0.070865  0.500000  1
  Si  Si31  1  0.424596  0.429843  0.500000  1
  Si  Si32  1  0.575404  0.570157  0.500000  1
  Si  Si33  1  0.069333  0.929136  0.500000  1
