# generated using pymatgen
data_Y2ThMgIn2Au3
_symmetry_space_group_name_H-M   'P 1'
_cell_length_a   7.74715902
_cell_length_b   7.65805252
_cell_length_c   4.13952600
_cell_angle_alpha   90.00000000
_cell_angle_beta   90.00000000
_cell_angle_gamma   119.62026055
_symmetry_Int_Tables_number   1
_chemical_formula_structural   Y2ThMgIn2Au3
_chemical_formula_sum   'Y2 Th1 Mg1 In2 Au3'
_cell_volume   213.49671745
_cell_formula_units_Z   1
loop_
 _symmetry_equiv_pos_site_id
 _symmetry_equiv_pos_as_xyz
  1  'x, y, z'
loop_
 _atom_site_type_symbol
 _atom_site_label
 _atom_site_symmetry_multiplicity
 _atom_site_fract_x
 _atom_site_fract_y
 _atom_site_fract_z
 _atom_site_occupancy
  Y  Y0  1  0.592996  0.001401  0.500000  1
  Y  Y1  1  0.407004  0.408406  0.500000  1
  Th  Th2  1  0.000000  0.588308  0.500000  1
  Mg  Mg3  1  0.000000  0.244097  0.000000  1
  In  In4  1  0.259819  0.007795  0.000000  1
  In  In5  1  0.740181  0.747975  0.000000  1
  Au  Au6  1  0.000000  0.010485  0.500000  1
  Au  Au7  1  0.673578  0.332555  0.000000  1
  Au  Au8  1  0.326422  0.658978  0.000000  1
