# generated using pymatgen
data_TbCeNd2CdRu
_symmetry_space_group_name_H-M   'P 1'
_cell_length_a   9.79958737
_cell_length_b   9.75761195
_cell_length_c   9.79648824
_cell_angle_alpha   60.17524222
_cell_angle_beta   59.98953731
_cell_angle_gamma   59.85759426
_symmetry_Int_Tables_number   1
_chemical_formula_structural   TbCeNd2CdRu
_chemical_formula_sum   'Tb4 Ce4 Nd8 Cd4 Ru4'
_cell_volume   662.48102037
_cell_formula_units_Z   4
loop_
 _symmetry_equiv_pos_site_id
 _symmetry_equiv_pos_as_xyz
  1  'x, y, z'
loop_
 _atom_site_type_symbol
 _atom_site_label
 _atom_site_symmetry_multiplicity
 _atom_site_fract_x
 _atom_site_fract_y
 _atom_site_fract_z
 _atom_site_occupancy
  Tb  Tb0  1  0.189544  0.808804  0.812108  1
  Tb  Tb1  1  0.811749  0.810854  0.190021  1
  Tb  Tb2  1  0.187376  0.810853  0.190020  1
  Tb  Tb3  1  0.810410  0.187443  0.191738  1
  Ce  Ce4  1  0.342879  0.348196  0.966047  1
  Ce  Ce5  1  0.344072  0.964927  0.346931  1
  Ce  Ce6  1  0.966919  0.344521  0.341583  1
  Ce  Ce7  1  0.346978  0.344521  0.341583  1
  Nd  Nd8  1  0.558679  0.560056  0.941762  1
  Nd  Nd9  1  0.939503  0.560056  0.941762  1
  Nd  Nd10  1  0.558888  0.938970  0.943253  1
  Nd  Nd11  1  0.942093  0.940465  0.557274  1
  Nd  Nd12  1  0.560169  0.940465  0.557274  1
  Nd  Nd13  1  0.940962  0.561188  0.556889  1
  Nd  Nd14  1  0.189865  0.187863  0.811879  1
  Nd  Nd15  1  0.810392  0.187863  0.811879  1
  Cd  Cd16  1  0.579938  0.578852  0.261272  1
  Cd  Cd17  1  0.580790  0.260853  0.577568  1
  Cd  Cd18  1  0.261656  0.580560  0.578867  1
  Cd  Cd19  1  0.578918  0.580560  0.578867  1
  Ru  Ru20  1  0.146816  0.143894  0.562474  1
  Ru  Ru21  1  0.144669  0.566536  0.144125  1
  Ru  Ru22  1  0.564252  0.145850  0.147413  1
  Ru  Ru23  1  0.142484  0.145850  0.147413  1
