# generated using pymatgen
data_Cs3Hf2NiTe10
_symmetry_space_group_name_H-M   'P 1'
_cell_length_a   10.24757614
_cell_length_b   11.24928755
_cell_length_c   11.44849518
_cell_angle_alpha   89.23457101
_cell_angle_beta   89.36319064
_cell_angle_gamma   78.42896472
_symmetry_Int_Tables_number   1
_chemical_formula_structural   Cs3Hf2NiTe10
_chemical_formula_sum   'Cs6 Hf4 Ni2 Te20'
_cell_volume   1292.77377986
_cell_formula_units_Z   2
loop_
 _symmetry_equiv_pos_site_id
 _symmetry_equiv_pos_as_xyz
  1  'x, y, z'
loop_
 _atom_site_type_symbol
 _atom_site_label
 _atom_site_symmetry_multiplicity
 _atom_site_fract_x
 _atom_site_fract_y
 _atom_site_fract_z
 _atom_site_occupancy
  Cs  Cs0  1  0.884548  0.891903  0.262752  1
  Cs  Cs1  1  0.115452  0.108097  0.737248  1
  Cs  Cs2  1  0.443369  0.765496  0.390475  1
  Cs  Cs3  1  0.556631  0.234504  0.609525  1
  Cs  Cs4  1  0.299023  0.625864  0.896780  1
  Cs  Cs5  1  0.700977  0.374136  0.103220  1
  Hf  Hf6  1  0.110789  0.375060  0.362494  1
  Hf  Hf7  1  0.889211  0.624940  0.637506  1
  Hf  Hf8  1  0.307415  0.159073  0.142831  1
  Hf  Hf9  1  0.692585  0.840927  0.857169  1
  Ni  Ni10  1  0.928513  0.390170  0.551052  1
  Ni  Ni11  1  0.071487  0.609830  0.448948  1
  Te  Te12  1  0.845566  0.556704  0.397710  1
  Te  Te13  1  0.154434  0.443296  0.602290  1
  Te  Te14  1  0.929613  0.212466  0.414133  1
  Te  Te15  1  0.070387  0.787534  0.585867  1
  Te  Te16  1  0.188432  0.589745  0.250500  1
  Te  Te17  1  0.811568  0.410255  0.749500  1
  Te  Te18  1  0.212971  0.115788  0.390818  1
  Te  Te19  1  0.787029  0.884212  0.609182  1
  Te  Te20  1  0.081417  0.362390  0.108728  1
  Te  Te21  1  0.918583  0.637610  0.891272  1
  Te  Te22  1  0.391053  0.356705  0.290091  1
  Te  Te23  1  0.608947  0.643295  0.709909  1
  Te  Te24  1  0.044923  0.121523  0.067781  1
  Te  Te25  1  0.955077  0.878477  0.932219  1
  Te  Te26  1  0.523207  0.091837  0.302982  1
  Te  Te27  1  0.476793  0.908163  0.697018  1
  Te  Te28  1  0.331885  0.913415  0.069997  1
  Te  Te29  1  0.668115  0.086585  0.930003  1
  Te  Te30  1  0.410618  0.244726  0.930867  1
  Te  Te31  1  0.589382  0.755274  0.069133  1
