# generated using pymatgen
data_Dy20Pt5Rh7
_symmetry_space_group_name_H-M   'P 1'
_cell_length_a   11.00537408
_cell_length_b   11.00537518
_cell_length_c   6.31397315
_cell_angle_alpha   89.98841564
_cell_angle_beta   89.98840991
_cell_angle_gamma   89.81543583
_symmetry_Int_Tables_number   1
_chemical_formula_structural   Dy20Pt5Rh7
_chemical_formula_sum   'Dy20 Pt5 Rh7'
_cell_volume   764.73351083
_cell_formula_units_Z   1
loop_
 _symmetry_equiv_pos_site_id
 _symmetry_equiv_pos_as_xyz
  1  'x, y, z'
loop_
 _atom_site_type_symbol
 _atom_site_label
 _atom_site_symmetry_multiplicity
 _atom_site_fract_x
 _atom_site_fract_y
 _atom_site_fract_z
 _atom_site_occupancy
  Dy  Dy0  1  0.293542  0.090435  0.374963  1
  Dy  Dy1  1  0.293681  0.909640  0.873714  1
  Dy  Dy2  1  0.705936  0.087461  0.873615  1
  Dy  Dy3  1  0.706148  0.909063  0.374279  1
  Dy  Dy4  1  0.588443  0.789812  0.877944  1
  Dy  Dy5  1  0.586748  0.207349  0.375078  1
  Dy  Dy6  1  0.411702  0.791532  0.377768  1
  Dy  Dy7  1  0.409584  0.207977  0.879419  1
  Dy  Dy8  1  0.210188  0.411557  0.622056  1
  Dy  Dy9  1  0.208468  0.588298  0.122232  1
  Dy  Dy10  1  0.792651  0.413252  0.124922  1
  Dy  Dy11  1  0.792023  0.590416  0.620581  1
  Dy  Dy12  1  0.909565  0.706458  0.125037  1
  Dy  Dy13  1  0.912539  0.294064  0.626385  1
  Dy  Dy14  1  0.090360  0.706319  0.626286  1
  Dy  Dy15  1  0.090937  0.293852  0.125721  1
  Dy  Dy16  1  0.999480  0.999671  0.499826  1
  Dy  Dy17  1  0.000329  0.000520  0.000174  1
  Dy  Dy18  1  0.498720  0.500300  0.000113  1
  Dy  Dy19  1  0.499700  0.501280  0.499887  1
  Pt  Pt20  1  0.844959  0.155041  0.250000  1
  Pt  Pt21  1  0.845188  0.846231  0.750398  1
  Pt  Pt22  1  0.153769  0.154812  0.749602  1
  Pt  Pt23  1  0.154924  0.845076  0.250000  1
  Pt  Pt24  1  0.655003  0.344997  0.750000  1
  Rh  Rh25  1  0.653888  0.653608  0.249765  1
  Rh  Rh26  1  0.346392  0.346112  0.250235  1
  Rh  Rh27  1  0.345070  0.654930  0.750000  1
  Rh  Rh28  1  0.499965  0.999907  0.121922  1
  Rh  Rh29  1  0.499841  0.999837  0.622710  1
  Rh  Rh30  1  0.000163  0.500159  0.877290  1
  Rh  Rh31  1  0.000093  0.500035  0.378078  1
