# generated using pymatgen
data_Zr10C8O
_symmetry_space_group_name_H-M   'P 1'
_cell_length_a   6.67629359
_cell_length_b   8.83735013
_cell_length_c   10.55175010
_cell_angle_alpha   68.90613243
_cell_angle_beta   71.60210882
_cell_angle_gamma   67.78596341
_symmetry_Int_Tables_number   1
_chemical_formula_structural   Zr10C8O
_chemical_formula_sum   'Zr20 C16 O2'
_cell_volume   525.98681078
_cell_formula_units_Z   2
loop_
 _symmetry_equiv_pos_site_id
 _symmetry_equiv_pos_as_xyz
  1  'x, y, z'
loop_
 _atom_site_type_symbol
 _atom_site_label
 _atom_site_symmetry_multiplicity
 _atom_site_fract_x
 _atom_site_fract_y
 _atom_site_fract_z
 _atom_site_occupancy
  Zr  Zr0  1  0.998221  0.008591  0.004852  1
  Zr  Zr1  1  0.503785  0.999274  0.991423  1
  Zr  Zr2  1  0.144248  0.893813  0.301620  1
  Zr  Zr3  1  0.805753  0.806187  0.598380  1
  Zr  Zr4  1  0.446215  0.700726  0.908577  1
  Zr  Zr5  1  0.657621  0.892960  0.308716  1
  Zr  Zr6  1  0.107518  0.593238  0.202057  1
  Zr  Zr7  1  0.292379  0.807040  0.591284  1
  Zr  Zr8  1  0.753746  0.495683  0.493326  1
  Zr  Zr9  1  0.951779  0.691409  0.895148  1
  Zr  Zr10  1  0.594086  0.598175  0.203913  1
  Zr  Zr11  1  0.393929  0.392315  0.804685  1
  Zr  Zr12  1  0.250094  0.499102  0.502909  1
  Zr  Zr13  1  0.038698  0.308481  0.099064  1
  Zr  Zr14  1  0.699906  0.200898  0.397091  1
  Zr  Zr15  1  0.911302  0.391519  0.800936  1
  Zr  Zr16  1  0.355914  0.101825  0.696087  1
  Zr  Zr17  1  0.556071  0.307685  0.095315  1
  Zr  Zr18  1  0.196254  0.204317  0.406674  1
  Zr  Zr19  1  0.842482  0.106762  0.697943  1
  C  C20  1  0.648202  0.901001  0.803806  1
  C  C21  1  0.451007  0.703803  0.398660  1
  C  C22  1  0.301798  0.798999  0.096194  1
  C  C23  1  0.098836  0.602475  0.701794  1
  C  C24  1  0.945694  0.704361  0.398558  1
  C  C25  1  0.749727  0.501492  0.999620  1
  C  C26  1  0.399251  0.400585  0.298471  1
  C  C27  1  0.051671  0.298464  0.598837  1
  C  C28  1  0.249353  0.502398  0.998736  1
  C  C29  1  0.898329  0.401536  0.301163  1
  C  C30  1  0.700647  0.197602  0.901264  1
  C  C31  1  0.550749  0.299415  0.601529  1
  C  C32  1  0.004306  0.995639  0.501442  1
  C  C33  1  0.200273  0.198508  0.900380  1
  C  C34  1  0.851164  0.097525  0.198206  1
  C  C35  1  0.498993  0.996197  0.501340  1
  O  O36  1  0.150370  0.897102  0.802074  1
  O  O37  1  0.799630  0.802898  0.097926  1
