# generated using pymatgen
data_Dy20FeNi3Sb8
_symmetry_space_group_name_H-M   'P 1'
_cell_length_a   7.88234790
_cell_length_b   8.75827200
_cell_length_c   12.13947313
_cell_angle_alpha   90.00000000
_cell_angle_beta   89.96867825
_cell_angle_gamma   90.00000000
_symmetry_Int_Tables_number   1
_chemical_formula_structural   Dy20FeNi3Sb8
_chemical_formula_sum   'Dy20 Fe1 Ni3 Sb8'
_cell_volume   838.05746926
_cell_formula_units_Z   1
loop_
 _symmetry_equiv_pos_site_id
 _symmetry_equiv_pos_as_xyz
  1  'x, y, z'
loop_
 _atom_site_type_symbol
 _atom_site_label
 _atom_site_symmetry_multiplicity
 _atom_site_fract_x
 _atom_site_fract_y
 _atom_site_fract_z
 _atom_site_occupancy
  Dy  Dy0  1  0.318920  0.539334  0.432756  1
  Dy  Dy1  1  0.873232  0.250000  0.802440  1
  Dy  Dy2  1  0.179575  0.542962  0.935716  1
  Dy  Dy3  1  0.318920  0.960666  0.432756  1
  Dy  Dy4  1  0.123138  0.750000  0.195080  1
  Dy  Dy5  1  0.846488  0.750000  0.798700  1
  Dy  Dy6  1  0.373974  0.750000  0.694611  1
  Dy  Dy7  1  0.955277  0.750000  0.501381  1
  Dy  Dy8  1  0.457243  0.250000  0.998378  1
  Dy  Dy9  1  0.679484  0.459696  0.565975  1
  Dy  Dy10  1  0.821180  0.033161  0.064775  1
  Dy  Dy11  1  0.661011  0.750000  0.289931  1
  Dy  Dy12  1  0.546113  0.750000  0.001845  1
  Dy  Dy13  1  0.043793  0.250000  0.500318  1
  Dy  Dy14  1  0.679484  0.040304  0.565975  1
  Dy  Dy15  1  0.179575  0.957038  0.935716  1
  Dy  Dy16  1  0.626081  0.250000  0.304608  1
  Dy  Dy17  1  0.340515  0.250000  0.708457  1
  Dy  Dy18  1  0.821180  0.466839  0.064775  1
  Dy  Dy19  1  0.156088  0.250000  0.204548  1
  Fe  Fe20  1  0.927924  0.750000  0.013343  1
  Ni  Ni21  1  0.569364  0.750000  0.508033  1
  Ni  Ni22  1  0.072643  0.250000  0.986915  1
  Ni  Ni23  1  0.429124  0.250000  0.490474  1
  Sb  Sb24  1  0.929167  0.490526  0.328135  1
  Sb  Sb25  1  0.429234  0.507307  0.173383  1
  Sb  Sb26  1  0.429234  0.992693  0.173383  1
  Sb  Sb27  1  0.570206  0.492616  0.826583  1
  Sb  Sb28  1  0.071230  0.508818  0.673146  1
  Sb  Sb29  1  0.570206  0.007384  0.826583  1
  Sb  Sb30  1  0.929167  0.009474  0.328135  1
  Sb  Sb31  1  0.071230  0.991182  0.673146  1
