# generated using pymatgen
data_U3Pa(Al8Pt3)3
_symmetry_space_group_name_H-M   'P 1'
_cell_length_a   7.56716668
_cell_length_b   7.58152383
_cell_length_c   13.14636842
_cell_angle_alpha   84.20107909
_cell_angle_beta   78.93797213
_cell_angle_gamma   59.91725071
_symmetry_Int_Tables_number   1
_chemical_formula_structural   U3Pa(Al8Pt3)3
_chemical_formula_sum   'U3 Pa1 Al24 Pt9'
_cell_volume   640.48845310
_cell_formula_units_Z   1
loop_
 _symmetry_equiv_pos_site_id
 _symmetry_equiv_pos_as_xyz
  1  'x, y, z'
loop_
 _atom_site_type_symbol
 _atom_site_label
 _atom_site_symmetry_multiplicity
 _atom_site_fract_x
 _atom_site_fract_y
 _atom_site_fract_z
 _atom_site_occupancy
  U  U0  1  0.606233  0.831093  0.194928  1
  U  U1  1  0.736433  0.497985  0.805619  1
  U  U2  1  0.265119  0.501347  0.195185  1
  Pa  Pa3  1  0.395553  0.167842  0.805505  1
  Al  Al4  1  0.683508  0.831676  0.946982  1
  Al  Al5  1  0.318677  0.165341  0.056552  1
  Al  Al6  1  0.145445  0.833863  0.560660  1
  Al  Al7  1  0.854548  0.166562  0.438632  1
  Al  Al8  1  0.481474  0.166745  0.557995  1
  Al  Al9  1  0.519012  0.833082  0.441402  1
  Al  Al10  1  0.215708  0.165185  0.330189  1
  Al  Al11  1  0.784868  0.833469  0.669603  1
  Al  Al12  1  0.436130  0.508932  0.669940  1
  Al  Al13  1  0.563189  0.492946  0.329567  1
  Al  Al14  1  0.109069  0.157216  0.668105  1
  Al  Al15  1  0.889200  0.843121  0.331148  1
  Al  Al16  1  0.354378  0.500461  0.946284  1
  Al  Al17  1  0.645247  0.502722  0.053917  1
  Al  Al18  1  0.014518  0.169035  0.953218  1
  Al  Al19  1  0.984522  0.829566  0.049173  1
  Al  Al20  1  0.185943  0.500222  0.441942  1
  Al  Al21  1  0.813439  0.499723  0.558252  1
  Al  Al22  1  0.734767  0.164632  0.181493  1
  Al  Al23  1  0.263554  0.836250  0.817450  1
  Al  Al24  1  0.061204  0.632196  0.816517  1
  Al  Al25  1  0.938443  0.368866  0.182957  1
  Al  Al26  1  0.856660  0.039276  0.817109  1
  Al  Al27  1  0.143889  0.959330  0.182239  1
  Pt  Pt28  1  0.120510  0.490780  0.640063  1
  Pt  Pt29  1  0.879336  0.508054  0.360757  1
  Pt  Pt30  1  0.659904  0.169288  0.998058  1
  Pt  Pt31  1  0.339044  0.833178  0.998834  1
  Pt  Pt32  1  0.537536  0.167972  0.361186  1
  Pt  Pt33  1  0.461549  0.834136  0.639235  1
  Pt  Pt34  1  0.777897  0.174218  0.638298  1
  Pt  Pt35  1  0.220040  0.825995  0.362275  1
  Pt  Pt36  1  0.003456  0.497691  0.998731  1
