# generated using pymatgen
data_Er17Th3(Bi2Os)4
_symmetry_space_group_name_H-M   'P 1'
_cell_length_a   8.07392938
_cell_length_b   8.92755862
_cell_length_c   12.44343742
_cell_angle_alpha   90.30710271
_cell_angle_beta   89.80407348
_cell_angle_gamma   90.06228401
_symmetry_Int_Tables_number   1
_chemical_formula_structural   Er17Th3(Bi2Os)4
_chemical_formula_sum   'Er17 Th3 Bi8 Os4'
_cell_volume   896.91027456
_cell_formula_units_Z   1
loop_
 _symmetry_equiv_pos_site_id
 _symmetry_equiv_pos_as_xyz
  1  'x, y, z'
loop_
 _atom_site_type_symbol
 _atom_site_label
 _atom_site_symmetry_multiplicity
 _atom_site_fract_x
 _atom_site_fract_y
 _atom_site_fract_z
 _atom_site_occupancy
  Er  Er0  1  0.663271  0.752165  0.707620  1
  Er  Er1  1  0.337144  0.249706  0.295073  1
  Er  Er2  1  0.166300  0.247358  0.791112  1
  Er  Er3  1  0.834050  0.752722  0.208744  1
  Er  Er4  1  0.121621  0.754055  0.802268  1
  Er  Er5  1  0.879973  0.244162  0.197471  1
  Er  Er6  1  0.622731  0.248590  0.695622  1
  Er  Er7  1  0.383475  0.753054  0.303694  1
  Er  Er8  1  0.556004  0.752681  0.000381  1
  Er  Er9  1  0.445272  0.247872  0.000097  1
  Er  Er10  1  0.053679  0.247290  0.501166  1
  Er  Er11  1  0.935177  0.751023  0.499003  1
  Er  Er12  1  0.171908  0.955895  0.064328  1
  Er  Er13  1  0.679343  0.451094  0.432180  1
  Er  Er14  1  0.828387  0.044529  0.936109  1
  Er  Er15  1  0.669710  0.045756  0.434972  1
  Er  Er16  1  0.327952  0.957659  0.564428  1
  Th  Th17  1  0.818453  0.456698  0.934744  1
  Th  Th18  1  0.182176  0.543448  0.065716  1
  Th  Th19  1  0.327624  0.542176  0.559507  1
  Bi  Bi20  1  0.931778  0.011041  0.673514  1
  Bi  Bi21  1  0.068574  0.987135  0.327912  1
  Bi  Bi22  1  0.432857  0.988304  0.827670  1
  Bi  Bi23  1  0.066874  0.512181  0.328416  1
  Bi  Bi24  1  0.567432  0.012872  0.172366  1
  Bi  Bi25  1  0.928505  0.487741  0.671630  1
  Bi  Bi26  1  0.575406  0.485571  0.174727  1
  Bi  Bi27  1  0.426270  0.513823  0.826689  1
  Os  Os28  1  0.925452  0.739836  0.987929  1
  Os  Os29  1  0.076318  0.260457  0.011635  1
  Os  Os30  1  0.421451  0.255567  0.513723  1
  Os  Os31  1  0.574831  0.747538  0.489552  1
