# generated using pymatgen
data_Y5(SnBi)2
_symmetry_space_group_name_H-M   'P 1'
_cell_length_a   8.21204800
_cell_length_b   8.22901300
_cell_length_c   15.71569100
_cell_angle_alpha   90.00000000
_cell_angle_beta   90.00000000
_cell_angle_gamma   90.00000000
_symmetry_Int_Tables_number   1
_chemical_formula_structural   Y5(SnBi)2
_chemical_formula_sum   'Y20 Sn8 Bi8'
_cell_volume   1062.02003254
_cell_formula_units_Z   4
loop_
 _symmetry_equiv_pos_site_id
 _symmetry_equiv_pos_as_xyz
  1  'x, y, z'
loop_
 _atom_site_type_symbol
 _atom_site_label
 _atom_site_symmetry_multiplicity
 _atom_site_fract_x
 _atom_site_fract_y
 _atom_site_fract_z
 _atom_site_occupancy
  Y  Y0  1  0.397386  0.837078  0.877942  1
  Y  Y1  1  0.897386  0.662922  0.622058  1
  Y  Y2  1  0.602614  0.162922  0.377942  1
  Y  Y3  1  0.102614  0.337078  0.122058  1
  Y  Y4  1  0.602614  0.162922  0.122058  1
  Y  Y5  1  0.102614  0.337078  0.377942  1
  Y  Y6  1  0.397386  0.837078  0.622058  1
  Y  Y7  1  0.897386  0.662922  0.877942  1
  Y  Y8  1  0.567071  0.331722  0.886377  1
  Y  Y9  1  0.067071  0.168278  0.613623  1
  Y  Y10  1  0.432929  0.668278  0.386377  1
  Y  Y11  1  0.932929  0.831722  0.113623  1
  Y  Y12  1  0.432929  0.668278  0.113623  1
  Y  Y13  1  0.932929  0.831722  0.386377  1
  Y  Y14  1  0.567071  0.331722  0.613623  1
  Y  Y15  1  0.067071  0.168278  0.886377  1
  Y  Y16  1  0.230452  0.498740  0.750000  1
  Y  Y17  1  0.730452  0.001260  0.750000  1
  Y  Y18  1  0.769548  0.501260  0.250000  1
  Y  Y19  1  0.269548  0.998740  0.250000  1
  Sn  Sn20  1  0.596100  0.629897  0.750000  1
  Sn  Sn21  1  0.096100  0.870103  0.750000  1
  Sn  Sn22  1  0.403900  0.370103  0.250000  1
  Sn  Sn23  1  0.903900  0.129897  0.250000  1
  Sn  Sn24  1  0.370264  0.141362  0.750000  1
  Sn  Sn25  1  0.870264  0.358638  0.750000  1
  Sn  Sn26  1  0.629736  0.858638  0.250000  1
  Sn  Sn27  1  0.129736  0.641362  0.250000  1
  Bi  Bi28  1  0.263019  0.013399  0.045266  1
  Bi  Bi29  1  0.763019  0.486601  0.454734  1
  Bi  Bi30  1  0.736981  0.986601  0.545266  1
  Bi  Bi31  1  0.236981  0.513399  0.954734  1
  Bi  Bi32  1  0.736981  0.986601  0.954734  1
  Bi  Bi33  1  0.236981  0.513399  0.545266  1
  Bi  Bi34  1  0.263019  0.013399  0.454734  1
  Bi  Bi35  1  0.763019  0.486601  0.045266  1
