# generated using pymatgen
data_Ba8LiCu2AgO12
_symmetry_space_group_name_H-M   'P 1'
_cell_length_a   7.22119644
_cell_length_b   7.22119612
_cell_length_c   11.39260400
_cell_angle_alpha   90.00000000
_cell_angle_beta   90.00000000
_cell_angle_gamma   132.74486145
_symmetry_Int_Tables_number   1
_chemical_formula_structural   Ba8LiCu2AgO12
_chemical_formula_sum   'Ba8 Li1 Cu2 Ag1 O12'
_cell_volume   436.27883397
_cell_formula_units_Z   1
loop_
 _symmetry_equiv_pos_site_id
 _symmetry_equiv_pos_as_xyz
  1  'x, y, z'
loop_
 _atom_site_type_symbol
 _atom_site_label
 _atom_site_symmetry_multiplicity
 _atom_site_fract_x
 _atom_site_fract_y
 _atom_site_fract_z
 _atom_site_occupancy
  Ba  Ba0  1  0.197313  0.908577  0.750000  1
  Ba  Ba1  1  0.640829  0.348040  0.493616  1
  Ba  Ba2  1  0.815159  0.107674  0.250000  1
  Ba  Ba3  1  0.908577  0.197313  0.750000  1
  Ba  Ba4  1  0.107674  0.815159  0.250000  1
  Ba  Ba5  1  0.348040  0.640829  0.006384  1
  Ba  Ba6  1  0.348040  0.640829  0.493616  1
  Ba  Ba7  1  0.640829  0.348040  0.006384  1
  Li  Li8  1  0.531575  0.531575  0.250000  1
  Cu  Cu9  1  0.988907  0.988907  0.002597  1
  Cu  Cu10  1  0.988907  0.988907  0.497403  1
  Ag  Ag11  1  0.566633  0.566633  0.750000  1
  O  O12  1  0.268647  0.572294  0.250000  1
  O  O13  1  0.136439  0.845644  0.498501  1
  O  O14  1  0.572294  0.268647  0.250000  1
  O  O15  1  0.741916  0.741916  0.390627  1
  O  O16  1  0.136439  0.845644  0.001499  1
  O  O17  1  0.845644  0.136439  0.001499  1
  O  O18  1  0.414447  0.733593  0.750000  1
  O  O19  1  0.733593  0.414447  0.750000  1
  O  O20  1  0.741916  0.741916  0.109373  1
  O  O21  1  0.845644  0.136439  0.498501  1
  O  O22  1  0.240267  0.240267  0.598281  1
  O  O23  1  0.240267  0.240267  0.901719  1
