# generated using pymatgen
data_Ca5YbPr2(Si3Ag)4
_symmetry_space_group_name_H-M   'P 1'
_cell_length_a   8.39903800
_cell_length_b   8.37681463
_cell_length_c   8.48484400
_cell_angle_alpha   90.00000000
_cell_angle_beta   90.00000000
_cell_angle_gamma   120.08780606
_symmetry_Int_Tables_number   1
_chemical_formula_structural   Ca5YbPr2(Si3Ag)4
_chemical_formula_sum   'Ca5 Yb1 Pr2 Si12 Ag4'
_cell_volume   516.53291831
_cell_formula_units_Z   1
loop_
 _symmetry_equiv_pos_site_id
 _symmetry_equiv_pos_as_xyz
  1  'x, y, z'
loop_
 _atom_site_type_symbol
 _atom_site_label
 _atom_site_symmetry_multiplicity
 _atom_site_fract_x
 _atom_site_fract_y
 _atom_site_fract_z
 _atom_site_occupancy
  Ca  Ca0  1  0.499743  0.500208  0.750000  1
  Ca  Ca1  1  0.500280  0.499760  0.250000  1
  Ca  Ca2  1  0.000465  0.500208  0.750000  1
  Ca  Ca3  1  0.999480  0.499760  0.250000  1
  Ca  Ca4  1  0.499772  0.999543  0.750000  1
  Yb  Yb5  1  0.500189  0.000379  0.250000  1
  Pr  Pr6  1  0.000006  0.000011  0.750000  1
  Pr  Pr7  1  0.999987  0.999975  0.250000  1
  Si  Si8  1  0.838297  0.162110  0.001609  1
  Si  Si9  1  0.161718  0.837899  0.001465  1
  Si  Si10  1  0.323814  0.162110  0.001609  1
  Si  Si11  1  0.161718  0.837899  0.498535  1
  Si  Si12  1  0.676181  0.837899  0.001465  1
  Si  Si13  1  0.838297  0.162110  0.498391  1
  Si  Si14  1  0.837763  0.675526  0.000005  1
  Si  Si15  1  0.676181  0.837899  0.498535  1
  Si  Si16  1  0.162250  0.324499  0.999951  1
  Si  Si17  1  0.323814  0.162110  0.498391  1
  Si  Si18  1  0.162250  0.324499  0.500049  1
  Si  Si19  1  0.837763  0.675526  0.499995  1
  Ag  Ag20  1  0.665924  0.331846  0.001829  1
  Ag  Ag21  1  0.334091  0.668185  0.003600  1
  Ag  Ag22  1  0.334091  0.668185  0.496400  1
  Ag  Ag23  1  0.665924  0.331846  0.498171  1
