# generated using pymatgen
data_TbTm3Al13Ga5Ir6
_symmetry_space_group_name_H-M   'P 1'
_cell_length_a   7.51507200
_cell_length_b   7.51713231
_cell_length_c   9.53107900
_cell_angle_alpha   90.00000000
_cell_angle_beta   90.00000000
_cell_angle_gamma   119.59179668
_symmetry_Int_Tables_number   1
_chemical_formula_structural   TbTm3Al13Ga5Ir6
_chemical_formula_sum   'Tb1 Tm3 Al13 Ga5 Ir6'
_cell_volume   468.19824420
_cell_formula_units_Z   1
loop_
 _symmetry_equiv_pos_site_id
 _symmetry_equiv_pos_as_xyz
  1  'x, y, z'
loop_
 _atom_site_type_symbol
 _atom_site_label
 _atom_site_symmetry_multiplicity
 _atom_site_fract_x
 _atom_site_fract_y
 _atom_site_fract_z
 _atom_site_occupancy
  Tb  Tb0  1  0.994961  0.670155  0.250000  1
  Tm  Tm1  1  0.001191  0.326620  0.750000  1
  Tm  Tm2  1  0.670487  0.996311  0.250000  1
  Tm  Tm3  1  0.329915  0.006288  0.750000  1
  Al  Al4  1  0.001925  0.334367  0.072603  1
  Al  Al5  1  0.999506  0.665359  0.926162  1
  Al  Al6  1  0.999506  0.665359  0.573838  1
  Al  Al7  1  0.335379  0.001900  0.427555  1
  Al  Al8  1  0.001925  0.334367  0.427397  1
  Al  Al9  1  0.664870  0.998434  0.573602  1
  Al  Al10  1  0.664870  0.998434  0.926398  1
  Al  Al11  1  0.335379  0.001900  0.072445  1
  Al  Al12  1  0.333429  0.333804  0.557660  1
  Al  Al13  1  0.665714  0.666279  0.445939  1
  Al  Al14  1  0.665714  0.666279  0.054061  1
  Al  Al15  1  0.333429  0.333804  0.942340  1
  Al  Al16  1  0.450454  0.661675  0.750000  1
  Ga  Ga17  1  0.128689  0.129135  0.250000  1
  Ga  Ga18  1  0.870203  0.869628  0.750000  1
  Ga  Ga19  1  0.339392  0.548114  0.250000  1
  Ga  Ga20  1  0.661483  0.453179  0.750000  1
  Ga  Ga21  1  0.547266  0.338779  0.250000  1
  Ir  Ir22  1  0.672400  0.327465  0.999945  1
  Ir  Ir23  1  0.329222  0.671917  0.997431  1
  Ir  Ir24  1  0.329222  0.671917  0.502569  1
  Ir  Ir25  1  0.672400  0.327465  0.500055  1
  Ir  Ir26  1  0.000536  0.000532  0.999677  1
  Ir  Ir27  1  0.000536  0.000532  0.500323  1
