# generated using pymatgen
data_Th2Al9FeRh2
_symmetry_space_group_name_H-M   'P 1'
_cell_length_a   7.62000740
_cell_length_b   7.62000764
_cell_length_c   9.53249600
_cell_angle_alpha   90.00000000
_cell_angle_beta   90.00000000
_cell_angle_gamma   119.17950579
_symmetry_Int_Tables_number   1
_chemical_formula_structural   Th2Al9FeRh2
_chemical_formula_sum   'Th4 Al18 Fe2 Rh4'
_cell_volume   483.25871074
_cell_formula_units_Z   2
loop_
 _symmetry_equiv_pos_site_id
 _symmetry_equiv_pos_as_xyz
  1  'x, y, z'
loop_
 _atom_site_type_symbol
 _atom_site_label
 _atom_site_symmetry_multiplicity
 _atom_site_fract_x
 _atom_site_fract_y
 _atom_site_fract_z
 _atom_site_occupancy
  Th  Th0  1  0.993528  0.673536  0.250000  1
  Th  Th1  1  0.006472  0.326464  0.750000  1
  Th  Th2  1  0.673536  0.993528  0.250000  1
  Th  Th3  1  0.326464  0.006472  0.750000  1
  Al  Al4  1  0.128835  0.128835  0.250000  1
  Al  Al5  1  0.871165  0.871165  0.750000  1
  Al  Al6  1  0.004739  0.330840  0.073803  1
  Al  Al7  1  0.995261  0.669160  0.926197  1
  Al  Al8  1  0.995261  0.669160  0.573803  1
  Al  Al9  1  0.330840  0.004739  0.426197  1
  Al  Al10  1  0.004739  0.330840  0.426197  1
  Al  Al11  1  0.669160  0.995261  0.573803  1
  Al  Al12  1  0.669160  0.995261  0.926197  1
  Al  Al13  1  0.330840  0.004739  0.073803  1
  Al  Al14  1  0.331168  0.331168  0.542956  1
  Al  Al15  1  0.668832  0.668832  0.457044  1
  Al  Al16  1  0.668832  0.668832  0.042956  1
  Al  Al17  1  0.331168  0.331168  0.957044  1
  Al  Al18  1  0.340359  0.545442  0.250000  1
  Al  Al19  1  0.659641  0.454558  0.750000  1
  Al  Al20  1  0.545442  0.340359  0.250000  1
  Al  Al21  1  0.454558  0.659641  0.750000  1
  Fe  Fe22  1  0.000000  0.000000  0.000000  1
  Fe  Fe23  1  0.000000  0.000000  0.500000  1
  Rh  Rh24  1  0.672220  0.327780  0.000000  1
  Rh  Rh25  1  0.327780  0.672220  0.000000  1
  Rh  Rh26  1  0.327780  0.672220  0.500000  1
  Rh  Rh27  1  0.672220  0.327780  0.500000  1
