# generated using pymatgen
data_Er9LuZnGePb6
_symmetry_space_group_name_H-M   'P 1'
_cell_length_a   9.16156200
_cell_length_b   9.16156213
_cell_length_c   6.63859200
_cell_angle_alpha   90.00000000
_cell_angle_beta   90.00000000
_cell_angle_gamma   120.00000676
_symmetry_Int_Tables_number   1
_chemical_formula_structural   Er9LuZnGePb6
_chemical_formula_sum   'Er9 Lu1 Zn1 Ge1 Pb6'
_cell_volume   482.55368492
_cell_formula_units_Z   1
loop_
 _symmetry_equiv_pos_site_id
 _symmetry_equiv_pos_as_xyz
  1  'x, y, z'
loop_
 _atom_site_type_symbol
 _atom_site_label
 _atom_site_symmetry_multiplicity
 _atom_site_fract_x
 _atom_site_fract_y
 _atom_site_fract_z
 _atom_site_occupancy
  Er  Er0  1  0.254626  0.000120  0.737194  1
  Er  Er1  1  0.745493  0.000120  0.262806  1
  Er  Er2  1  0.999880  0.254507  0.737194  1
  Er  Er3  1  0.999880  0.745374  0.262806  1
  Er  Er4  1  0.745493  0.745374  0.737194  1
  Er  Er5  1  0.254626  0.254507  0.262806  1
  Er  Er6  1  0.333333  0.666667  0.500000  1
  Er  Er7  1  0.666667  0.333333  0.500000  1
  Er  Er8  1  0.666667  0.333333  0.000000  1
  Lu  Lu9  1  0.333333  0.666667  0.000000  1
  Zn  Zn10  1  0.000000  0.000000  0.000000  1
  Ge  Ge11  1  0.000000  0.000000  0.500000  1
  Pb  Pb12  1  0.607101  0.999069  0.749228  1
  Pb  Pb13  1  0.391968  0.999069  0.250772  1
  Pb  Pb14  1  0.000931  0.608032  0.749228  1
  Pb  Pb15  1  0.000931  0.392899  0.250772  1
  Pb  Pb16  1  0.391968  0.392899  0.749228  1
  Pb  Pb17  1  0.607101  0.608032  0.250772  1
