# generated using pymatgen
data_Dy2B6IrRh8
_symmetry_space_group_name_H-M   'P 1'
_cell_length_a   5.61753712
_cell_length_b   5.60574238
_cell_length_c   8.60066900
_cell_angle_alpha   90.00000000
_cell_angle_beta   90.00000000
_cell_angle_gamma   119.93055827
_symmetry_Int_Tables_number   1
_chemical_formula_structural   Dy2B6IrRh8
_chemical_formula_sum   'Dy2 B6 Ir1 Rh8'
_cell_volume   234.71747307
_cell_formula_units_Z   1
loop_
 _symmetry_equiv_pos_site_id
 _symmetry_equiv_pos_as_xyz
  1  'x, y, z'
loop_
 _atom_site_type_symbol
 _atom_site_label
 _atom_site_symmetry_multiplicity
 _atom_site_fract_x
 _atom_site_fract_y
 _atom_site_fract_z
 _atom_site_occupancy
  Dy  Dy0  1  0.000000  0.000000  0.705405  1
  Dy  Dy1  1  0.000000  0.000000  0.294595  1
  B  B2  1  0.666907  0.333453  0.000000  1
  B  B3  1  0.333093  0.666547  0.000000  1
  B  B4  1  0.667644  0.333822  0.668027  1
  B  B5  1  0.332356  0.666178  0.668027  1
  B  B6  1  0.332356  0.666178  0.331973  1
  B  B7  1  0.667644  0.333822  0.331973  1
  Ir  Ir8  1  0.000000  0.500000  0.500000  1
  Rh  Rh9  1  0.500000  0.500000  0.835513  1
  Rh  Rh10  1  0.500000  0.000000  0.835513  1
  Rh  Rh11  1  0.000000  0.500000  0.836051  1
  Rh  Rh12  1  0.500000  0.500000  0.164487  1
  Rh  Rh13  1  0.500000  0.000000  0.164487  1
  Rh  Rh14  1  0.000000  0.500000  0.163949  1
  Rh  Rh15  1  0.500000  0.500000  0.500000  1
  Rh  Rh16  1  0.500000  0.000000  0.500000  1
