# generated using pymatgen
data_DyThPRh6
_symmetry_space_group_name_H-M   'P 1'
_cell_length_a   6.01818157
_cell_length_b   6.01818131
_cell_length_c   6.01818000
_cell_angle_alpha   59.99999619
_cell_angle_beta   59.99999764
_cell_angle_gamma   59.99999063
_symmetry_Int_Tables_number   1
_chemical_formula_structural   DyThPRh6
_chemical_formula_sum   'Dy1 Th1 P1 Rh6'
_cell_volume   154.12769302
_cell_formula_units_Z   1
loop_
 _symmetry_equiv_pos_site_id
 _symmetry_equiv_pos_as_xyz
  1  'x, y, z'
loop_
 _atom_site_type_symbol
 _atom_site_label
 _atom_site_symmetry_multiplicity
 _atom_site_fract_x
 _atom_site_fract_y
 _atom_site_fract_z
 _atom_site_occupancy
  Dy  Dy0  1  0.750000  0.750000  0.750000  1
  Th  Th1  1  0.250000  0.250000  0.250000  1
  P  P2  1  0.000000  0.000000  0.000000  1
  Rh  Rh3  1  0.735286  0.264715  0.264715  1
  Rh  Rh4  1  0.264715  0.735286  0.264715  1
  Rh  Rh5  1  0.735285  0.735285  0.264716  1
  Rh  Rh6  1  0.264715  0.264715  0.735286  1
  Rh  Rh7  1  0.735285  0.264716  0.735285  1
  Rh  Rh8  1  0.264716  0.735285  0.735285  1
