# generated using pymatgen
data_Zr3Sc(Al3Rh)6
_symmetry_space_group_name_H-M   'P 1'
_cell_length_a   7.45923327
_cell_length_b   7.45694196
_cell_length_c   9.27903100
_cell_angle_alpha   90.00000000
_cell_angle_beta   90.00000000
_cell_angle_gamma   119.77104669
_symmetry_Int_Tables_number   1
_chemical_formula_structural   Zr3Sc(Al3Rh)6
_chemical_formula_sum   'Zr3 Sc1 Al18 Rh6'
_cell_volume   448.00777096
_cell_formula_units_Z   1
loop_
 _symmetry_equiv_pos_site_id
 _symmetry_equiv_pos_as_xyz
  1  'x, y, z'
loop_
 _atom_site_type_symbol
 _atom_site_label
 _atom_site_symmetry_multiplicity
 _atom_site_fract_x
 _atom_site_fract_y
 _atom_site_fract_z
 _atom_site_occupancy
  Zr  Zr0  1  0.994632  0.671683  0.250000  1
  Zr  Zr1  1  0.006403  0.329664  0.750000  1
  Zr  Zr2  1  0.670043  0.993672  0.250000  1
  Sc  Sc3  1  0.328980  0.006121  0.750000  1
  Al  Al4  1  0.121893  0.122730  0.250000  1
  Al  Al5  1  0.877041  0.878071  0.750000  1
  Al  Al6  1  0.997026  0.334359  0.075962  1
  Al  Al7  1  0.003511  0.666066  0.923452  1
  Al  Al8  1  0.003511  0.666066  0.576548  1
  Al  Al9  1  0.334595  0.997883  0.423231  1
  Al  Al10  1  0.997026  0.334359  0.424038  1
  Al  Al11  1  0.665118  0.002543  0.576761  1
  Al  Al12  1  0.665118  0.002543  0.923239  1
  Al  Al13  1  0.334595  0.997883  0.076769  1
  Al  Al14  1  0.331462  0.331020  0.558009  1
  Al  Al15  1  0.668563  0.668408  0.441504  1
  Al  Al16  1  0.668563  0.668408  0.058496  1
  Al  Al17  1  0.331462  0.331020  0.941991  1
  Al  Al18  1  0.337517  0.552719  0.250000  1
  Al  Al19  1  0.663354  0.446657  0.750000  1
  Al  Al20  1  0.554129  0.338481  0.250000  1
  Al  Al21  1  0.445033  0.659783  0.750000  1
  Rh  Rh22  1  0.672520  0.327676  0.000592  1
  Rh  Rh23  1  0.327998  0.672882  0.001162  1
  Rh  Rh24  1  0.327998  0.672882  0.498838  1
  Rh  Rh25  1  0.672520  0.327676  0.499408  1
  Rh  Rh26  1  0.999697  0.999374  0.000629  1
  Rh  Rh27  1  0.999697  0.999374  0.499371  1
