# generated using pymatgen
data_Ta2FeB2PRu4
_symmetry_space_group_name_H-M   'P 1'
_cell_length_a   9.09102500
_cell_length_b   9.09102500
_cell_length_c   2.95651600
_cell_angle_alpha   90.00000000
_cell_angle_beta   90.00000000
_cell_angle_gamma   90.00000000
_symmetry_Int_Tables_number   1
_chemical_formula_structural   Ta2FeB2PRu4
_chemical_formula_sum   'Ta4 Fe2 B4 P2 Ru8'
_cell_volume   244.34639600
_cell_formula_units_Z   2
loop_
 _symmetry_equiv_pos_site_id
 _symmetry_equiv_pos_as_xyz
  1  'x, y, z'
loop_
 _atom_site_type_symbol
 _atom_site_label
 _atom_site_symmetry_multiplicity
 _atom_site_fract_x
 _atom_site_fract_y
 _atom_site_fract_z
 _atom_site_occupancy
  Ta  Ta0  1  0.828181  0.671819  0.000000  1
  Ta  Ta1  1  0.171819  0.328181  0.000000  1
  Ta  Ta2  1  0.328181  0.828181  0.000000  1
  Ta  Ta3  1  0.671819  0.171819  0.000000  1
  Fe  Fe4  1  0.500000  0.000000  0.500000  1
  Fe  Fe5  1  0.000000  0.500000  0.500000  1
  B  B6  1  0.615376  0.884624  0.000000  1
  B  B7  1  0.384624  0.115376  0.000000  1
  B  B8  1  0.115376  0.615376  0.000000  1
  B  B9  1  0.884624  0.384624  0.000000  1
  P  P10  1  0.500000  0.500000  0.000000  1
  P  P11  1  0.000000  0.000000  0.000000  1
  Ru  Ru12  1  0.565965  0.712181  0.500000  1
  Ru  Ru13  1  0.434035  0.287819  0.500000  1
  Ru  Ru14  1  0.065965  0.787819  0.500000  1
  Ru  Ru15  1  0.934035  0.212181  0.500000  1
  Ru  Ru16  1  0.287819  0.565965  0.500000  1
  Ru  Ru17  1  0.712181  0.434035  0.500000  1
  Ru  Ru18  1  0.212181  0.065965  0.500000  1
  Ru  Ru19  1  0.787819  0.934035  0.500000  1
