# generated using pymatgen
data_KCaNd2CuSe5
_symmetry_space_group_name_H-M   'P 1'
_cell_length_a   4.22895500
_cell_length_b   7.45486517
_cell_length_c   18.43960200
_cell_angle_alpha   90.00000000
_cell_angle_beta   90.00000000
_cell_angle_gamma   73.52258796
_symmetry_Int_Tables_number   1
_chemical_formula_structural   KCaNd2CuSe5
_chemical_formula_sum   'K2 Ca2 Nd4 Cu2 Se10'
_cell_volume   557.45786015
_cell_formula_units_Z   2
loop_
 _symmetry_equiv_pos_site_id
 _symmetry_equiv_pos_as_xyz
  1  'x, y, z'
loop_
 _atom_site_type_symbol
 _atom_site_label
 _atom_site_symmetry_multiplicity
 _atom_site_fract_x
 _atom_site_fract_y
 _atom_site_fract_z
 _atom_site_occupancy
  K  K0  1  0.522088  0.955827  0.250000  1
  K  K1  1  0.477913  0.044173  0.750000  1
  Ca  Ca2  1  0.000000  0.000000  0.000000  1
  Ca  Ca3  1  0.000000  0.000000  0.500000  1
  Nd  Nd4  1  0.270398  0.459202  0.103483  1
  Nd  Nd5  1  0.270398  0.459202  0.396517  1
  Nd  Nd6  1  0.729603  0.540798  0.603483  1
  Nd  Nd7  1  0.729603  0.540798  0.896518  1
  Cu  Cu8  1  0.797275  0.405452  0.250000  1
  Cu  Cu9  1  0.202726  0.594547  0.750000  1
  Se  Se10  1  0.637088  0.725827  0.046594  1
  Se  Se11  1  0.901841  0.196320  0.141367  1
  Se  Se12  1  0.198672  0.602655  0.250000  1
  Se  Se13  1  0.901841  0.196320  0.358633  1
  Se  Se14  1  0.637088  0.725827  0.453407  1
  Se  Se15  1  0.362913  0.274173  0.546593  1
  Se  Se16  1  0.098159  0.803680  0.641367  1
  Se  Se17  1  0.801329  0.397345  0.750000  1
  Se  Se18  1  0.098159  0.803680  0.858633  1
  Se  Se19  1  0.362913  0.274173  0.953407  1
