# generated using pymatgen
data_La7Nd(WC2)4
_symmetry_space_group_name_H-M   'P 1'
_cell_length_a   5.83889489
_cell_length_b   5.83889495
_cell_length_c   10.69641216
_cell_angle_alpha   89.66668834
_cell_angle_beta   89.66669091
_cell_angle_gamma   89.88111307
_symmetry_Int_Tables_number   1
_chemical_formula_structural   La7Nd(WC2)4
_chemical_formula_sum   'La7 Nd1 W4 C8'
_cell_volume   364.65640493
_cell_formula_units_Z   1
loop_
 _symmetry_equiv_pos_site_id
 _symmetry_equiv_pos_as_xyz
  1  'x, y, z'
loop_
 _atom_site_type_symbol
 _atom_site_label
 _atom_site_symmetry_multiplicity
 _atom_site_fract_x
 _atom_site_fract_y
 _atom_site_fract_z
 _atom_site_occupancy
  La  La0  1  0.194096  0.807770  0.156221  1
  La  La1  1  0.808797  0.194476  0.843361  1
  La  La2  1  0.194476  0.808797  0.843361  1
  La  La3  1  0.307131  0.307131  0.344713  1
  La  La4  1  0.692827  0.692827  0.342646  1
  La  La5  1  0.302919  0.302919  0.658368  1
  La  La6  1  0.807770  0.194096  0.156221  1
  Nd  Nd7  1  0.693874  0.693874  0.654200  1
  W  W8  1  0.325182  0.325182  0.999089  1
  W  W9  1  0.174961  0.820476  0.500980  1
  W  W10  1  0.678440  0.678440  0.998393  1
  W  W11  1  0.820476  0.174961  0.500980  1
  C  C12  1  0.996133  0.498081  0.502040  1
  C  C13  1  0.999940  0.999940  0.362097  1
  C  C14  1  0.501679  0.001857  0.999539  1
  C  C15  1  0.997154  0.997154  0.639293  1
  C  C16  1  0.503456  0.503456  0.858860  1
  C  C17  1  0.500752  0.500752  0.138061  1
  C  C18  1  0.498081  0.996133  0.502040  1
  C  C19  1  0.001857  0.501679  0.999539  1
