# generated using pymatgen
data_Ho20Ir8RuPt3
_symmetry_space_group_name_H-M   'P 1'
_cell_length_a   10.90076839
_cell_length_b   10.90441016
_cell_length_c   6.34699129
_cell_angle_alpha   89.98249613
_cell_angle_beta   89.97028881
_cell_angle_gamma   90.14747049
_symmetry_Int_Tables_number   1
_chemical_formula_structural   Ho20Ir8RuPt3
_chemical_formula_sum   'Ho20 Ir8 Ru1 Pt3'
_cell_volume   754.44168408
_cell_formula_units_Z   1
loop_
 _symmetry_equiv_pos_site_id
 _symmetry_equiv_pos_as_xyz
  1  'x, y, z'
loop_
 _atom_site_type_symbol
 _atom_site_label
 _atom_site_symmetry_multiplicity
 _atom_site_fract_x
 _atom_site_fract_y
 _atom_site_fract_z
 _atom_site_occupancy
  Ho  Ho0  1  0.294345  0.086153  0.371667  1
  Ho  Ho1  1  0.294279  0.909535  0.879076  1
  Ho  Ho2  1  0.704140  0.088972  0.876361  1
  Ho  Ho3  1  0.703954  0.910769  0.372491  1
  Ho  Ho4  1  0.584686  0.792381  0.880261  1
  Ho  Ho5  1  0.584808  0.207928  0.377384  1
  Ho  Ho6  1  0.411695  0.792267  0.377666  1
  Ho  Ho7  1  0.414742  0.207614  0.879606  1
  Ho  Ho8  1  0.209369  0.414358  0.621158  1
  Ho  Ho9  1  0.208871  0.589352  0.121171  1
  Ho  Ho10  1  0.790858  0.414370  0.121170  1
  Ho  Ho11  1  0.790606  0.586316  0.621895  1
  Ho  Ho12  1  0.912878  0.706821  0.126930  1
  Ho  Ho13  1  0.909626  0.293996  0.625478  1
  Ho  Ho14  1  0.091944  0.707616  0.622546  1
  Ho  Ho15  1  0.090264  0.294885  0.125727  1
  Ho  Ho16  1  0.001246  0.998369  0.498804  1
  Ho  Ho17  1  0.001614  0.998669  0.999668  1
  Ho  Ho18  1  0.499753  0.499781  0.999526  1
  Ho  Ho19  1  0.500221  0.500126  0.498359  1
  Ir  Ir20  1  0.152013  0.847227  0.249581  1
  Ir  Ir21  1  0.654376  0.345895  0.749622  1
  Ir  Ir22  1  0.655067  0.653803  0.249189  1
  Ir  Ir23  1  0.345394  0.345749  0.250093  1
  Ir  Ir24  1  0.346593  0.653099  0.749477  1
  Ir  Ir25  1  0.500372  0.000335  0.624929  1
  Ir  Ir26  1  0.999642  0.499600  0.876444  1
  Ir  Ir27  1  0.999883  0.499557  0.377557  1
  Ru  Ru28  1  0.500354  0.000028  0.127055  1
  Pt  Pt29  1  0.847217  0.153571  0.249725  1
  Pt  Pt30  1  0.845786  0.846650  0.749551  1
  Pt  Pt31  1  0.153405  0.154208  0.749839  1
