# generated using pymatgen
data_Tm10IrPb6Au
_symmetry_space_group_name_H-M   'P 1'
_cell_length_a   9.10915300
_cell_length_b   9.10915283
_cell_length_c   6.78275700
_cell_angle_alpha   90.00000000
_cell_angle_beta   90.00000000
_cell_angle_gamma   119.99999698
_symmetry_Int_Tables_number   1
_chemical_formula_structural   Tm10IrPb6Au
_chemical_formula_sum   'Tm10 Ir1 Pb6 Au1'
_cell_volume   487.40826418
_cell_formula_units_Z   1
loop_
 _symmetry_equiv_pos_site_id
 _symmetry_equiv_pos_as_xyz
  1  'x, y, z'
loop_
 _atom_site_type_symbol
 _atom_site_label
 _atom_site_symmetry_multiplicity
 _atom_site_fract_x
 _atom_site_fract_y
 _atom_site_fract_z
 _atom_site_occupancy
  Tm  Tm0  1  0.754460  0.754460  0.269321  1
  Tm  Tm1  1  0.000000  0.754460  0.730679  1
  Tm  Tm2  1  0.333333  0.666667  0.500000  1
  Tm  Tm3  1  0.245540  0.000000  0.269321  1
  Tm  Tm4  1  0.245540  0.245540  0.730679  1
  Tm  Tm5  1  0.000000  0.245540  0.269321  1
  Tm  Tm6  1  0.666667  0.333333  0.500000  1
  Tm  Tm7  1  0.754460  0.000000  0.730679  1
  Tm  Tm8  1  0.333333  0.666667  0.000000  1
  Tm  Tm9  1  0.666667  0.333333  0.000000  1
  Ir  Ir10  1  0.000000  0.000000  0.500000  1
  Pb  Pb11  1  0.401212  0.000000  0.751602  1
  Pb  Pb12  1  0.598788  0.000000  0.248398  1
  Pb  Pb13  1  0.401212  0.401212  0.248398  1
  Pb  Pb14  1  0.000000  0.598788  0.248398  1
  Pb  Pb15  1  0.000000  0.401212  0.751602  1
  Pb  Pb16  1  0.598788  0.598788  0.751602  1
  Au  Au17  1  0.000000  0.000000  0.000000  1
