# generated using pymatgen
data_Ho10ZnCo4Os
_symmetry_space_group_name_H-M   'P 1'
_cell_length_a   8.67633396
_cell_length_b   8.67633408
_cell_length_c   8.67633334
_cell_angle_alpha   130.64322997
_cell_angle_beta   130.64322911
_cell_angle_gamma   72.38053264
_symmetry_Int_Tables_number   1
_chemical_formula_structural   Ho10ZnCo4Os
_chemical_formula_sum   'Ho10 Zn1 Co4 Os1'
_cell_volume   367.56863571
_cell_formula_units_Z   1
loop_
 _symmetry_equiv_pos_site_id
 _symmetry_equiv_pos_as_xyz
  1  'x, y, z'
loop_
 _atom_site_type_symbol
 _atom_site_label
 _atom_site_symmetry_multiplicity
 _atom_site_fract_x
 _atom_site_fract_y
 _atom_site_fract_z
 _atom_site_occupancy
  Ho  Ho0  1  0.701539  0.549471  0.529487  1
  Ho  Ho1  1  0.480016  0.950529  0.152068  1
  Ho  Ho2  1  0.798461  0.327948  0.847932  1
  Ho  Ho3  1  0.549471  0.019984  0.847932  1
  Ho  Ho4  1  0.014417  0.014417  0.000000  1
  Ho  Ho5  1  0.019984  0.172052  0.470513  1
  Ho  Ho6  1  0.327948  0.480016  0.529487  1
  Ho  Ho7  1  0.172052  0.701539  0.152068  1
  Ho  Ho8  1  0.950529  0.798461  0.470513  1
  Ho  Ho9  1  0.485583  0.485583  0.000000  1
  Zn  Zn10  1  0.250000  0.250000  0.000000  1
  Co  Co11  1  0.111551  0.611551  0.723102  1
  Co  Co12  1  0.888449  0.388449  0.276898  1
  Co  Co13  1  0.611551  0.888449  0.500000  1
  Co  Co14  1  0.388449  0.111551  0.500000  1
  Os  Os15  1  0.750000  0.750000  0.000000  1
