# generated using pymatgen
data_Ho5Ge6P6Ir19
_symmetry_space_group_name_H-M   'P 1'
_cell_length_a   12.94895900
_cell_length_b   12.94895923
_cell_length_c   3.97051400
_cell_angle_alpha   90.00000000
_cell_angle_beta   90.00000000
_cell_angle_gamma   119.99999686
_symmetry_Int_Tables_number   1
_chemical_formula_structural   Ho5Ge6P6Ir19
_chemical_formula_sum   'Ho5 Ge6 P6 Ir19'
_cell_volume   576.56343486
_cell_formula_units_Z   1
loop_
 _symmetry_equiv_pos_site_id
 _symmetry_equiv_pos_as_xyz
  1  'x, y, z'
loop_
 _atom_site_type_symbol
 _atom_site_label
 _atom_site_symmetry_multiplicity
 _atom_site_fract_x
 _atom_site_fract_y
 _atom_site_fract_z
 _atom_site_occupancy
  Ho  Ho0  1  0.333333  0.666667  0.500000  1
  Ho  Ho1  1  0.666667  0.333333  0.500000  1
  Ho  Ho2  1  0.001975  0.819392  0.000000  1
  Ho  Ho3  1  0.180608  0.182583  0.000000  1
  Ho  Ho4  1  0.817417  0.998025  0.000000  1
  Ge  Ge5  1  0.998571  0.639458  0.500000  1
  Ge  Ge6  1  0.360542  0.359112  0.500000  1
  Ge  Ge7  1  0.640888  0.001429  0.500000  1
  Ge  Ge8  1  0.518528  0.677930  0.000000  1
  Ge  Ge9  1  0.322070  0.840597  0.000000  1
  Ge  Ge10  1  0.159403  0.481472  0.000000  1
  P  P11  1  0.484235  0.178794  0.000000  1
  P  P12  1  0.694558  0.515765  0.000000  1
  P  P13  1  0.821206  0.305442  0.000000  1
  P  P14  1  0.994427  0.174765  0.500000  1
  P  P15  1  0.825235  0.819662  0.500000  1
  P  P16  1  0.180338  0.005573  0.500000  1
  Ir  Ir17  1  0.521005  0.869535  0.000000  1
  Ir  Ir18  1  0.130465  0.651471  0.000000  1
  Ir  Ir19  1  0.348529  0.478995  0.000000  1
  Ir  Ir20  1  0.500145  0.368989  0.000000  1
  Ir  Ir21  1  0.868845  0.499855  0.000000  1
  Ir  Ir22  1  0.631011  0.131155  0.000000  1
  Ir  Ir23  1  0.008619  0.454192  0.500000  1
  Ir  Ir24  1  0.545808  0.554427  0.500000  1
  Ir  Ir25  1  0.445573  0.991381  0.500000  1
  Ir  Ir26  1  0.989375  0.269878  0.000000  1
  Ir  Ir27  1  0.730122  0.719497  0.000000  1
  Ir  Ir28  1  0.280503  0.010625  0.000000  1
  Ir  Ir29  1  0.639504  0.809578  0.500000  1
  Ir  Ir30  1  0.190422  0.829926  0.500000  1
  Ir  Ir31  1  0.170074  0.360496  0.500000  1
  Ir  Ir32  1  0.386660  0.180042  0.500000  1
  Ir  Ir33  1  0.793383  0.613340  0.500000  1
  Ir  Ir34  1  0.819958  0.206617  0.500000  1
  Ir  Ir35  1  0.000000  0.000000  0.500000  1
