# generated using pymatgen
data_CoSe2O7
_symmetry_space_group_name_H-M   'P 1'
_cell_length_a   8.71625800
_cell_length_b   5.15969647
_cell_length_c   7.33318630
_cell_angle_alpha   72.27905302
_cell_angle_beta   90.00000000
_cell_angle_gamma   90.00000000
_symmetry_Int_Tables_number   1
_chemical_formula_structural   CoSe2O7
_chemical_formula_sum   'Co2 Se4 O14'
_cell_volume   314.14839972
_cell_formula_units_Z   2
loop_
 _symmetry_equiv_pos_site_id
 _symmetry_equiv_pos_as_xyz
  1  'x, y, z'
loop_
 _atom_site_type_symbol
 _atom_site_label
 _atom_site_symmetry_multiplicity
 _atom_site_fract_x
 _atom_site_fract_y
 _atom_site_fract_z
 _atom_site_occupancy
  Co  Co0  1  0.005287  0.216535  0.273381  1
  Co  Co1  1  0.505287  0.783465  0.726619  1
  Se  Se2  1  0.786126  0.784995  0.083284  1
  Se  Se3  1  0.687462  0.384313  0.494046  1
  Se  Se4  1  0.286126  0.215005  0.916716  1
  Se  Se5  1  0.187462  0.615687  0.505954  1
  O  O6  1  0.363510  0.731658  0.509641  1
  O  O7  1  0.863510  0.268342  0.490359  1
  O  O8  1  0.641631  0.584720  0.246717  1
  O  O9  1  0.826193  0.048896  0.158157  1
  O  O10  1  0.682812  0.595333  0.624351  1
  O  O11  1  0.141631  0.415280  0.753283  1
  O  O12  1  0.046341  0.838459  0.474922  1
  O  O13  1  0.546341  0.161541  0.525078  1
  O  O14  1  0.934193  0.586212  0.077431  1
  O  O15  1  0.684383  0.887195  0.885160  1
  O  O16  1  0.182812  0.404667  0.375649  1
  O  O17  1  0.326193  0.951104  0.841843  1
  O  O18  1  0.184383  0.112805  0.114840  1
  O  O19  1  0.434193  0.413788  0.922569  1
