# generated using pymatgen
data_YbSb12(IrOs)2
_symmetry_space_group_name_H-M   'P 1'
_cell_length_a   8.13945854
_cell_length_b   8.13945807
_cell_length_c   8.15895054
_cell_angle_alpha   109.48126646
_cell_angle_beta   109.46790171
_cell_angle_gamma   109.36748918
_symmetry_Int_Tables_number   1
_chemical_formula_structural   YbSb12(IrOs)2
_chemical_formula_sum   'Yb1 Sb12 Ir2 Os2'
_cell_volume   416.60249555
_cell_formula_units_Z   1
loop_
 _symmetry_equiv_pos_site_id
 _symmetry_equiv_pos_as_xyz
  1  'x, y, z'
loop_
 _atom_site_type_symbol
 _atom_site_label
 _atom_site_symmetry_multiplicity
 _atom_site_fract_x
 _atom_site_fract_y
 _atom_site_fract_z
 _atom_site_occupancy
  Yb  Yb0  1  0.000000  0.000000  0.000000  1
  Sb  Sb1  1  0.845443  0.658951  0.504394  1
  Sb  Sb2  1  0.154557  0.341049  0.495606  1
  Sb  Sb3  1  0.156817  0.661630  0.818448  1
  Sb  Sb4  1  0.843183  0.338370  0.181552  1
  Sb  Sb5  1  0.661092  0.504477  0.845389  1
  Sb  Sb6  1  0.338908  0.495523  0.154611  1
  Sb  Sb7  1  0.659088  0.815704  0.154611  1
  Sb  Sb8  1  0.340912  0.184296  0.845389  1
  Sb  Sb9  1  0.504435  0.845847  0.661610  1
  Sb  Sb10  1  0.495565  0.154153  0.338390  1
  Sb  Sb11  1  0.184236  0.842825  0.338390  1
  Sb  Sb12  1  0.815764  0.157175  0.661610  1
  Ir  Ir13  1  0.500000  0.500000  0.500000  1
  Ir  Ir14  1  0.000000  0.000000  0.500000  1
  Os  Os15  1  0.500000  0.000000  0.000000  1
  Os  Os16  1  0.000000  0.500000  0.000000  1
