# generated using pymatgen
data_TbCo3P3Pd2
_symmetry_space_group_name_H-M   'P 1'
_cell_length_a   3.76313900
_cell_length_b   10.44204700
_cell_length_c   12.42648100
_cell_angle_alpha   90.00000000
_cell_angle_beta   90.00000000
_cell_angle_gamma   90.00000000
_symmetry_Int_Tables_number   1
_chemical_formula_structural   TbCo3P3Pd2
_chemical_formula_sum   'Tb4 Co12 P12 Pd8'
_cell_volume   488.29700896
_cell_formula_units_Z   4
loop_
 _symmetry_equiv_pos_site_id
 _symmetry_equiv_pos_as_xyz
  1  'x, y, z'
loop_
 _atom_site_type_symbol
 _atom_site_label
 _atom_site_symmetry_multiplicity
 _atom_site_fract_x
 _atom_site_fract_y
 _atom_site_fract_z
 _atom_site_occupancy
  Tb  Tb0  1  0.250000  0.581675  0.713456  1
  Tb  Tb1  1  0.250000  0.918325  0.213456  1
  Tb  Tb2  1  0.750000  0.418325  0.286544  1
  Tb  Tb3  1  0.750000  0.081675  0.786544  1
  Co  Co4  1  0.250000  0.221843  0.177561  1
  Co  Co5  1  0.250000  0.278157  0.677561  1
  Co  Co6  1  0.750000  0.778157  0.822439  1
  Co  Co7  1  0.750000  0.721843  0.322439  1
  Co  Co8  1  0.250000  0.880043  0.694980  1
  Co  Co9  1  0.250000  0.619957  0.194980  1
  Co  Co10  1  0.750000  0.119957  0.305020  1
  Co  Co11  1  0.750000  0.380043  0.805020  1
  Co  Co12  1  0.250000  0.462074  0.933578  1
  Co  Co13  1  0.250000  0.037926  0.433578  1
  Co  Co14  1  0.750000  0.537926  0.066422  1
  Co  Co15  1  0.750000  0.962074  0.566422  1
  P  P16  1  0.250000  0.425249  0.111512  1
  P  P17  1  0.250000  0.074751  0.611512  1
  P  P18  1  0.750000  0.574751  0.888488  1
  P  P19  1  0.750000  0.925249  0.388488  1
  P  P20  1  0.250000  0.276760  0.854423  1
  P  P21  1  0.250000  0.223240  0.354423  1
  P  P22  1  0.750000  0.723240  0.145577  1
  P  P23  1  0.750000  0.776760  0.645577  1
  P  P24  1  0.250000  0.608039  0.371819  1
  P  P25  1  0.250000  0.891961  0.871819  1
  P  P26  1  0.750000  0.391961  0.628181  1
  P  P27  1  0.750000  0.108039  0.128181  1
  Pd  Pd28  1  0.250000  0.710402  0.985366  1
  Pd  Pd29  1  0.250000  0.789598  0.485366  1
  Pd  Pd30  1  0.750000  0.289598  0.014634  1
  Pd  Pd31  1  0.750000  0.210402  0.514634  1
  Pd  Pd32  1  0.250000  0.406938  0.473854  1
  Pd  Pd33  1  0.250000  0.093062  0.973854  1
  Pd  Pd34  1  0.750000  0.593062  0.526146  1
  Pd  Pd35  1  0.750000  0.906938  0.026146  1
