# generated using pymatgen
data_HoTmCuSi2Ru
_symmetry_space_group_name_H-M   'P 1'
_cell_length_a   4.19986900
_cell_length_b   6.90629028
_cell_length_c   7.33193252
_cell_angle_alpha   91.33040469
_cell_angle_beta   90.00000000
_cell_angle_gamma   90.00000000
_symmetry_Int_Tables_number   1
_chemical_formula_structural   HoTmCuSi2Ru
_chemical_formula_sum   'Ho2 Tm2 Cu2 Si4 Ru2'
_cell_volume   212.60914617
_cell_formula_units_Z   2
loop_
 _symmetry_equiv_pos_site_id
 _symmetry_equiv_pos_as_xyz
  1  'x, y, z'
loop_
 _atom_site_type_symbol
 _atom_site_label
 _atom_site_symmetry_multiplicity
 _atom_site_fract_x
 _atom_site_fract_y
 _atom_site_fract_z
 _atom_site_occupancy
  Ho  Ho0  1  0.250000  0.994863  0.796922  1
  Ho  Ho1  1  0.750000  0.005137  0.203078  1
  Tm  Tm2  1  0.250000  0.493374  0.689860  1
  Tm  Tm3  1  0.750000  0.506626  0.310140  1
  Cu  Cu4  1  0.750000  0.831284  0.574894  1
  Cu  Cu5  1  0.250000  0.168716  0.425106  1
  Si  Si6  1  0.250000  0.297877  0.091352  1
  Si  Si7  1  0.750000  0.702123  0.908648  1
  Si  Si8  1  0.250000  0.793031  0.390884  1
  Si  Si9  1  0.750000  0.206969  0.609116  1
  Ru  Ru10  1  0.750000  0.346659  0.934247  1
  Ru  Ru11  1  0.250000  0.653341  0.065753  1
