# generated using pymatgen
data_Dy2Er7ThPb8
_symmetry_space_group_name_H-M   'P 1'
_cell_length_a   8.22756200
_cell_length_b   8.28351351
_cell_length_c   15.58593914
_cell_angle_alpha   90.24639425
_cell_angle_beta   90.00000000
_cell_angle_gamma   90.00000000
_symmetry_Int_Tables_number   1
_chemical_formula_structural   Dy2Er7ThPb8
_chemical_formula_sum   'Dy4 Er14 Th2 Pb16'
_cell_volume   1062.22057364
_cell_formula_units_Z   2
loop_
 _symmetry_equiv_pos_site_id
 _symmetry_equiv_pos_as_xyz
  1  'x, y, z'
loop_
 _atom_site_type_symbol
 _atom_site_label
 _atom_site_symmetry_multiplicity
 _atom_site_fract_x
 _atom_site_fract_y
 _atom_site_fract_z
 _atom_site_occupancy
  Dy  Dy0  1  0.459879  0.673972  0.100477  1
  Dy  Dy1  1  0.959879  0.826028  0.399523  1
  Dy  Dy2  1  0.537719  0.324449  0.601126  1
  Dy  Dy3  1  0.037719  0.175551  0.898874  1
  Er  Er4  1  0.374498  0.842945  0.877589  1
  Er  Er5  1  0.874498  0.657055  0.622411  1
  Er  Er6  1  0.623946  0.158352  0.378602  1
  Er  Er7  1  0.123946  0.341648  0.121398  1
  Er  Er8  1  0.623815  0.159723  0.120794  1
  Er  Er9  1  0.123815  0.340277  0.379206  1
  Er  Er10  1  0.375924  0.843389  0.622955  1
  Er  Er11  1  0.875924  0.656611  0.877045  1
  Er  Er12  1  0.538218  0.325744  0.898607  1
  Er  Er13  1  0.038218  0.174256  0.601393  1
  Er  Er14  1  0.207804  0.502560  0.750045  1
  Er  Er15  1  0.707804  0.997440  0.749955  1
  Er  Er16  1  0.792423  0.496385  0.249421  1
  Er  Er17  1  0.292423  0.003615  0.250579  1
  Th  Th18  1  0.466145  0.677292  0.402473  1
  Th  Th19  1  0.966145  0.822708  0.097527  1
  Pb  Pb20  1  0.285036  0.036146  0.042833  1
  Pb  Pb21  1  0.785036  0.463854  0.457167  1
  Pb  Pb22  1  0.717693  0.965794  0.542848  1
  Pb  Pb23  1  0.217693  0.534206  0.957152  1
  Pb  Pb24  1  0.715921  0.968318  0.954860  1
  Pb  Pb25  1  0.215921  0.531682  0.545140  1
  Pb  Pb26  1  0.279583  0.033592  0.457135  1
  Pb  Pb27  1  0.779583  0.466408  0.042865  1
  Pb  Pb28  1  0.570270  0.628044  0.750264  1
  Pb  Pb29  1  0.070270  0.871956  0.749736  1
  Pb  Pb30  1  0.429843  0.370718  0.250588  1
  Pb  Pb31  1  0.929843  0.129282  0.249412  1
  Pb  Pb32  1  0.349387  0.156096  0.750525  1
  Pb  Pb33  1  0.849387  0.343904  0.749475  1
  Pb  Pb34  1  0.651896  0.848970  0.247559  1
  Pb  Pb35  1  0.151896  0.651030  0.252441  1
