# generated using pymatgen
data_Sc4In2NiB4Ir9
_symmetry_space_group_name_H-M   'P 1'
_cell_length_a   3.15769400
_cell_length_b   9.46366377
_cell_length_c   9.46366297
_cell_angle_alpha   89.35933231
_cell_angle_beta   90.00000000
_cell_angle_gamma   90.00000000
_symmetry_Int_Tables_number   1
_chemical_formula_structural   Sc4In2NiB4Ir9
_chemical_formula_sum   'Sc4 In2 Ni1 B4 Ir9'
_cell_volume   282.78831379
_cell_formula_units_Z   1
loop_
 _symmetry_equiv_pos_site_id
 _symmetry_equiv_pos_as_xyz
  1  'x, y, z'
loop_
 _atom_site_type_symbol
 _atom_site_label
 _atom_site_symmetry_multiplicity
 _atom_site_fract_x
 _atom_site_fract_y
 _atom_site_fract_z
 _atom_site_occupancy
  Sc  Sc0  1  0.000000  0.176500  0.676500  1
  Sc  Sc1  1  0.000000  0.823500  0.323500  1
  Sc  Sc2  1  0.000000  0.321223  0.178777  1
  Sc  Sc3  1  0.000000  0.678777  0.821223  1
  In  In4  1  0.000000  0.000000  0.000000  1
  In  In5  1  0.000000  0.500000  0.500000  1
  Ni  Ni6  1  0.500000  0.000000  0.500000  1
  B  B7  1  0.000000  0.620987  0.120987  1
  B  B8  1  0.000000  0.379013  0.879013  1
  B  B9  1  0.000000  0.885189  0.614811  1
  B  B10  1  0.000000  0.114811  0.385189  1
  Ir  Ir11  1  0.500000  0.063845  0.232339  1
  Ir  Ir12  1  0.500000  0.936155  0.767661  1
  Ir  Ir13  1  0.500000  0.776246  0.070085  1
  Ir  Ir14  1  0.500000  0.429915  0.723754  1
  Ir  Ir15  1  0.500000  0.223754  0.929915  1
  Ir  Ir16  1  0.500000  0.570085  0.276246  1
  Ir  Ir17  1  0.500000  0.732339  0.563845  1
  Ir  Ir18  1  0.500000  0.267661  0.436155  1
  Ir  Ir19  1  0.500000  0.500000  0.000000  1
