# generated using pymatgen
data_CaNd7SbPd24
_symmetry_space_group_name_H-M   'P 1'
_cell_length_a   8.51325910
_cell_length_b   8.51325910
_cell_length_c   8.51325910
_cell_angle_alpha   89.98731964
_cell_angle_beta   89.98731964
_cell_angle_gamma   89.98731964
_symmetry_Int_Tables_number   1
_chemical_formula_structural   CaNd7SbPd24
_chemical_formula_sum   'Ca1 Nd7 Sb1 Pd24'
_cell_volume   617.00335085
_cell_formula_units_Z   1
loop_
 _symmetry_equiv_pos_site_id
 _symmetry_equiv_pos_as_xyz
  1  'x, y, z'
loop_
 _atom_site_type_symbol
 _atom_site_label
 _atom_site_symmetry_multiplicity
 _atom_site_fract_x
 _atom_site_fract_y
 _atom_site_fract_z
 _atom_site_occupancy
  Ca  Ca0  1  0.252021  0.252021  0.252021  1
  Nd  Nd1  1  0.746343  0.746343  0.253432  1
  Nd  Nd2  1  0.746343  0.253432  0.746343  1
  Nd  Nd3  1  0.253432  0.746343  0.746343  1
  Nd  Nd4  1  0.746665  0.746665  0.746665  1
  Nd  Nd5  1  0.746072  0.253862  0.253862  1
  Nd  Nd6  1  0.253862  0.253862  0.746072  1
  Nd  Nd7  1  0.253862  0.746072  0.253862  1
  Sb  Sb8  1  0.000462  0.000462  0.000462  1
  Pd  Pd9  1  0.000715  0.000715  0.307807  1
  Pd  Pd10  1  0.734945  0.999708  0.499915  1
  Pd  Pd11  1  0.734945  0.499915  0.999708  1
  Pd  Pd12  1  0.499915  0.999708  0.734945  1
  Pd  Pd13  1  0.999708  0.734945  0.499915  1
  Pd  Pd14  1  0.499938  0.000462  0.265405  1
  Pd  Pd15  1  0.000462  0.265405  0.499938  1
  Pd  Pd16  1  0.499915  0.734945  0.999708  1
  Pd  Pd17  1  0.254679  0.499303  0.499303  1
  Pd  Pd18  1  0.500161  0.500161  0.745062  1
  Pd  Pd19  1  0.499303  0.499303  0.254679  1
  Pd  Pd20  1  0.499303  0.254679  0.499303  1
  Pd  Pd21  1  0.500161  0.745062  0.500161  1
  Pd  Pd22  1  0.745062  0.500161  0.500161  1
  Pd  Pd23  1  0.307807  0.000715  0.000715  1
  Pd  Pd24  1  0.000108  0.000108  0.692071  1
  Pd  Pd25  1  0.000462  0.499938  0.265405  1
  Pd  Pd26  1  0.000715  0.307807  0.000715  1
  Pd  Pd27  1  0.000108  0.692071  0.000108  1
  Pd  Pd28  1  0.692071  0.000108  0.000108  1
  Pd  Pd29  1  0.265405  0.499938  0.000462  1
  Pd  Pd30  1  0.265405  0.000462  0.499938  1
  Pd  Pd31  1  0.999708  0.499915  0.734945  1
  Pd  Pd32  1  0.499938  0.265405  0.000462  1
