# generated using pymatgen
data_LuNiH4
_symmetry_space_group_name_H-M   'P 1'
_cell_length_a   3.51131553
_cell_length_b   4.63325900
_cell_length_c   5.89736372
_cell_angle_alpha   90.00000000
_cell_angle_beta   107.21545123
_cell_angle_gamma   90.00000000
_symmetry_Int_Tables_number   1
_chemical_formula_structural   LuNiH4
_chemical_formula_sum   'Lu2 Ni2 H8'
_cell_volume   91.64484027
_cell_formula_units_Z   2
loop_
 _symmetry_equiv_pos_site_id
 _symmetry_equiv_pos_as_xyz
  1  'x, y, z'
loop_
 _atom_site_type_symbol
 _atom_site_label
 _atom_site_symmetry_multiplicity
 _atom_site_fract_x
 _atom_site_fract_y
 _atom_site_fract_z
 _atom_site_occupancy
  Lu  Lu0  1  0.133897  0.250001  0.267022  1
  Lu  Lu1  1  0.866102  0.750001  0.732977  1
  Ni  Ni2  1  0.598677  0.750001  0.194561  1
  Ni  Ni3  1  0.401322  0.250001  0.805440  1
  H  H4  1  0.500000  0.000000  0.000000  1
  H  H5  1  0.500000  0.500000  0.000000  1
  H  H6  1  0.087755  0.750001  0.173584  1
  H  H7  1  0.695425  0.009032  0.390333  1
  H  H8  1  0.695425  0.490968  0.390333  1
  H  H9  1  0.304576  0.509031  0.609666  1
  H  H10  1  0.304576  0.990968  0.609666  1
  H  H11  1  0.912244  0.250001  0.826417  1
