# generated using pymatgen
data_KMg2H8Rh
_symmetry_space_group_name_H-M   'P 1'
_cell_length_a   4.96662400
_cell_length_b   4.96662400
_cell_length_c   10.90899800
_cell_angle_alpha   90.00000000
_cell_angle_beta   90.00000000
_cell_angle_gamma   90.00000000
_symmetry_Int_Tables_number   1
_chemical_formula_structural   KMg2H8Rh
_chemical_formula_sum   'K2 Mg4 H16 Rh2'
_cell_volume   269.09611499
_cell_formula_units_Z   2
loop_
 _symmetry_equiv_pos_site_id
 _symmetry_equiv_pos_as_xyz
  1  'x, y, z'
loop_
 _atom_site_type_symbol
 _atom_site_label
 _atom_site_symmetry_multiplicity
 _atom_site_fract_x
 _atom_site_fract_y
 _atom_site_fract_z
 _atom_site_occupancy
  K  K0  1  0.500000  0.000000  0.000000  1
  K  K1  1  0.000000  0.500000  0.500000  1
  Mg  Mg2  1  0.500000  0.000000  0.632747  1
  Mg  Mg3  1  0.000000  0.500000  0.132747  1
  Mg  Mg4  1  0.500000  0.000000  0.367253  1
  Mg  Mg5  1  0.000000  0.500000  0.867253  1
  H  H6  1  0.237155  0.237155  0.750000  1
  H  H7  1  0.762845  0.762845  0.750000  1
  H  H8  1  0.762845  0.237155  0.250000  1
  H  H9  1  0.237155  0.762845  0.250000  1
  H  H10  1  0.762845  0.762845  0.250000  1
  H  H11  1  0.237155  0.237155  0.250000  1
  H  H12  1  0.237155  0.762845  0.750000  1
  H  H13  1  0.762845  0.237155  0.750000  1
  H  H14  1  0.500000  0.250281  0.500000  1
  H  H15  1  0.500000  0.749719  0.500000  1
  H  H16  1  0.749719  0.500000  0.000000  1
  H  H17  1  0.250281  0.500000  0.000000  1
  H  H18  1  0.000000  0.000000  0.598030  1
  H  H19  1  0.000000  0.000000  0.098030  1
  H  H20  1  0.000000  0.000000  0.401970  1
  H  H21  1  0.000000  0.000000  0.901970  1
  Rh  Rh22  1  0.000000  0.000000  0.750000  1
  Rh  Rh23  1  0.000000  0.000000  0.250000  1
