# generated using pymatgen
data_CaDy7(Si4Mo3)4
_symmetry_space_group_name_H-M   'P 1'
_cell_length_a   6.77350872
_cell_length_b   6.95897241
_cell_length_c   12.94647309
_cell_angle_alpha   90.04475084
_cell_angle_beta   89.96131569
_cell_angle_gamma   90.06540311
_symmetry_Int_Tables_number   1
_chemical_formula_structural   CaDy7(Si4Mo3)4
_chemical_formula_sum   'Ca1 Dy7 Si16 Mo12'
_cell_volume   610.25278152
_cell_formula_units_Z   1
loop_
 _symmetry_equiv_pos_site_id
 _symmetry_equiv_pos_as_xyz
  1  'x, y, z'
loop_
 _atom_site_type_symbol
 _atom_site_label
 _atom_site_symmetry_multiplicity
 _atom_site_fract_x
 _atom_site_fract_y
 _atom_site_fract_z
 _atom_site_occupancy
  Ca  Ca0  1  0.997192  0.166231  0.091685  1
  Dy  Dy1  1  0.498298  0.332135  0.094476  1
  Dy  Dy2  1  0.997894  0.167744  0.405613  1
  Dy  Dy3  1  0.503248  0.667335  0.594079  1
  Dy  Dy4  1  0.002315  0.833687  0.907003  1
  Dy  Dy5  1  0.502594  0.667114  0.906393  1
  Dy  Dy6  1  0.002904  0.832874  0.594250  1
  Dy  Dy7  1  0.497407  0.332604  0.405360  1
  Si  Si8  1  0.660049  0.043040  0.546633  1
  Si  Si9  1  0.158604  0.457207  0.952528  1
  Si  Si10  1  0.341195  0.957838  0.047380  1
  Si  Si11  1  0.840338  0.543032  0.453368  1
  Si  Si12  1  0.339847  0.956994  0.453188  1
  Si  Si13  1  0.841489  0.541351  0.047579  1
  Si  Si14  1  0.657919  0.043080  0.952994  1
  Si  Si15  1  0.159759  0.456808  0.546572  1
  Si  Si16  1  0.534236  0.365308  0.750105  1
  Si  Si17  1  0.034543  0.135178  0.750668  1
  Si  Si18  1  0.465242  0.633853  0.250292  1
  Si  Si19  1  0.965399  0.866232  0.249939  1
  Si  Si20  1  0.803985  0.629336  0.750316  1
  Si  Si21  1  0.303149  0.870982  0.750157  1
  Si  Si22  1  0.195324  0.370481  0.248997  1
  Si  Si23  1  0.698136  0.128206  0.248865  1
  Mo  Mo24  1  0.829912  0.335857  0.625295  1
  Mo  Mo25  1  0.331265  0.163978  0.874293  1
  Mo  Mo26  1  0.170022  0.666467  0.126211  1
  Mo  Mo27  1  0.669203  0.835803  0.374222  1
  Mo  Mo28  1  0.169938  0.663667  0.375224  1
  Mo  Mo29  1  0.668282  0.832458  0.125247  1
  Mo  Mo30  1  0.828786  0.336975  0.873627  1
  Mo  Mo31  1  0.330498  0.164686  0.625504  1
  Mo  Mo32  1  0.665888  0.999798  0.749683  1
  Mo  Mo33  1  0.166125  0.500235  0.749971  1
  Mo  Mo34  1  0.334860  0.998933  0.251094  1
  Mo  Mo35  1  0.834155  0.502494  0.251187  1
