# generated using pymatgen
data_LaSm3Ag3Au10
_symmetry_space_group_name_H-M   'P 1'
_cell_length_a   8.67183088
_cell_length_b   8.67183016
_cell_length_c   10.32100900
_cell_angle_alpha   89.92784368
_cell_angle_beta   89.92785029
_cell_angle_gamma   108.13317981
_symmetry_Int_Tables_number   1
_chemical_formula_structural   LaSm3Ag3Au10
_chemical_formula_sum   'La2 Sm6 Ag6 Au20'
_cell_volume   737.59802580
_cell_formula_units_Z   2
loop_
 _symmetry_equiv_pos_site_id
 _symmetry_equiv_pos_as_xyz
  1  'x, y, z'
loop_
 _atom_site_type_symbol
 _atom_site_label
 _atom_site_symmetry_multiplicity
 _atom_site_fract_x
 _atom_site_fract_y
 _atom_site_fract_z
 _atom_site_occupancy
  La  La0  1  0.202938  0.202941  0.702708  1
  La  La1  1  0.797062  0.797059  0.297292  1
  Sm  Sm2  1  0.702064  0.297933  0.000010  1
  Sm  Sm3  1  0.297936  0.702067  0.999990  1
  Sm  Sm4  1  0.799404  0.200571  0.499998  1
  Sm  Sm5  1  0.200596  0.799429  0.500002  1
  Sm  Sm6  1  0.297805  0.297810  0.200573  1
  Sm  Sm7  1  0.702195  0.702190  0.799427  1
  Ag  Ag8  1  0.022345  0.522656  0.248143  1
  Ag  Ag9  1  0.977655  0.477344  0.751857  1
  Ag  Ag10  1  0.477333  0.977643  0.751854  1
  Ag  Ag11  1  0.522667  0.022357  0.248146  1
  Ag  Ag12  1  0.000000  0.000000  0.000000  1
  Ag  Ag13  1  0.500000  0.500000  0.500000  1
  Au  Au14  1  0.097625  0.097631  0.404647  1
  Au  Au15  1  0.902375  0.902369  0.595353  1
  Au  Au16  1  0.405323  0.405311  0.905795  1
  Au  Au17  1  0.594677  0.594689  0.094205  1
  Au  Au18  1  0.886678  0.167957  0.209706  1
  Au  Au19  1  0.113322  0.832043  0.790294  1
  Au  Au20  1  0.616122  0.336523  0.709965  1
  Au  Au21  1  0.663487  0.383908  0.290022  1
  Au  Au22  1  0.383878  0.663477  0.290035  1
  Au  Au23  1  0.336513  0.616092  0.709978  1
  Au  Au24  1  0.832046  0.113321  0.790269  1
  Au  Au25  1  0.167954  0.886679  0.209731  1
  Au  Au26  1  0.931126  0.650112  0.013801  1
  Au  Au27  1  0.068874  0.349888  0.986199  1
  Au  Au28  1  0.565214  0.849718  0.517167  1
  Au  Au29  1  0.150267  0.434779  0.482838  1
  Au  Au30  1  0.434786  0.150282  0.482833  1
  Au  Au31  1  0.849733  0.565221  0.517162  1
  Au  Au32  1  0.349892  0.068872  0.986206  1
  Au  Au33  1  0.650108  0.931128  0.013794  1
