# generated using pymatgen
data_Rb6LuTlF12
_symmetry_space_group_name_H-M   'P 1'
_cell_length_a   6.85990598
_cell_length_b   6.61787907
_cell_length_c   11.50017900
_cell_angle_alpha   55.26956120
_cell_angle_beta   89.92437018
_cell_angle_gamma   90.02447731
_symmetry_Int_Tables_number   1
_chemical_formula_structural   Rb6LuTlF12
_chemical_formula_sum   'Rb6 Lu1 Tl1 F12'
_cell_volume   429.07066919
_cell_formula_units_Z   1
loop_
 _symmetry_equiv_pos_site_id
 _symmetry_equiv_pos_as_xyz
  1  'x, y, z'
loop_
 _atom_site_type_symbol
 _atom_site_label
 _atom_site_symmetry_multiplicity
 _atom_site_fract_x
 _atom_site_fract_y
 _atom_site_fract_z
 _atom_site_occupancy
  Rb  Rb0  1  0.500000  0.500000  0.000000  1
  Rb  Rb1  1  0.000000  0.500000  0.500000  1
  Rb  Rb2  1  0.050027  0.734633  0.750246  1
  Rb  Rb3  1  0.949973  0.265367  0.249754  1
  Rb  Rb4  1  0.549430  0.268498  0.743955  1
  Rb  Rb5  1  0.450570  0.731502  0.256045  1
  Lu  Lu6  1  0.500000  0.000000  0.500000  1
  Tl  Tl7  1  0.000000  0.000000  0.000000  1
  F  F8  1  0.756406  0.776202  0.561469  1
  F  F9  1  0.243594  0.223798  0.438531  1
  F  F10  1  0.266951  0.231887  0.932652  1
  F  F11  1  0.733049  0.768113  0.067348  1
  F  F12  1  0.452444  0.886774  0.712932  1
  F  F13  1  0.547556  0.113226  0.287068  1
  F  F14  1  0.947937  0.114079  0.779814  1
  F  F15  1  0.052063  0.885921  0.220186  1
  F  F16  1  0.329133  0.694276  0.543165  1
  F  F17  1  0.670867  0.305724  0.456835  1
  F  F18  1  0.826730  0.320820  0.952572  1
  F  F19  1  0.173270  0.679180  0.047428  1
