# generated using pymatgen
data_LiYHo4(Si3Ru)8
_symmetry_space_group_name_H-M   'P 1'
_cell_length_a   10.11758647
_cell_length_b   10.11753987
_cell_length_c   8.09835203
_cell_angle_alpha   90.00377000
_cell_angle_beta   89.98717746
_cell_angle_gamma   132.73699448
_symmetry_Int_Tables_number   1
_chemical_formula_structural   LiYHo4(Si3Ru)8
_chemical_formula_sum   'Li1 Y1 Ho4 Si24 Ru8'
_cell_volume   608.87260444
_cell_formula_units_Z   1
loop_
 _symmetry_equiv_pos_site_id
 _symmetry_equiv_pos_as_xyz
  1  'x, y, z'
loop_
 _atom_site_type_symbol
 _atom_site_label
 _atom_site_symmetry_multiplicity
 _atom_site_fract_x
 _atom_site_fract_y
 _atom_site_fract_z
 _atom_site_occupancy
  Li  Li0  1  0.499997  0.499994  0.500003  1
  Y  Y1  1  0.501959  0.001949  0.749274  1
  Ho  Ho2  1  0.999998  0.000002  0.000007  1
  Ho  Ho3  1  0.998083  0.498075  0.250717  1
  Ho  Ho4  1  0.498054  0.998060  0.250721  1
  Ho  Ho5  1  0.001959  0.501970  0.749291  1
  Si  Si6  1  0.797116  0.203464  0.499710  1
  Si  Si7  1  0.296262  0.703172  0.000274  1
  Si  Si8  1  0.202892  0.796560  0.499712  1
  Si  Si9  1  0.703753  0.296828  0.000282  1
  Si  Si10  1  0.336785  0.336778  0.827262  1
  Si  Si11  1  0.663201  0.663193  0.172747  1
  Si  Si12  1  0.172159  0.172159  0.336444  1
  Si  Si13  1  0.827828  0.827819  0.663543  1
  Si  Si14  1  0.123315  0.890167  0.728706  1
  Si  Si15  1  0.109741  0.876421  0.271358  1
  Si  Si16  1  0.607333  0.378025  0.234374  1
  Si  Si17  1  0.622063  0.392886  0.765585  1
  Si  Si18  1  0.876400  0.109695  0.271329  1
  Si  Si19  1  0.890542  0.123703  0.728712  1
  Si  Si20  1  0.392530  0.621696  0.765591  1
  Si  Si21  1  0.378058  0.607386  0.234340  1
  Si  Si22  1  0.349618  0.120756  0.507293  1
  Si  Si23  1  0.879393  0.650356  0.492491  1
  Si  Si24  1  0.387760  0.154619  0.006489  1
  Si  Si25  1  0.845411  0.612115  0.993695  1
  Si  Si26  1  0.650345  0.879252  0.492304  1
  Si  Si27  1  0.120618  0.349667  0.507528  1
  Si  Si28  1  0.612236  0.845343  0.993919  1
  Si  Si29  1  0.154616  0.387905  0.006305  1
  Ru  Ru30  1  0.672289  0.328406  0.499604  1
  Ru  Ru31  1  0.170488  0.828795  0.000356  1
  Ru  Ru32  1  0.327692  0.671557  0.499647  1
  Ru  Ru33  1  0.829497  0.171201  0.000395  1
  Ru  Ru34  1  0.124129  0.124098  0.628708  1
  Ru  Ru35  1  0.875908  0.875875  0.371295  1
  Ru  Ru36  1  0.370901  0.370945  0.124062  1
  Ru  Ru37  1  0.629071  0.629109  0.875925  1
