# generated using pymatgen
data_Y3Lu6Zr(In2Rh)4
_symmetry_space_group_name_H-M   'P 1'
_cell_length_a   3.55144600
_cell_length_b   7.99401773
_cell_length_c   18.01472620
_cell_angle_alpha   90.21221386
_cell_angle_beta   90.00000000
_cell_angle_gamma   90.00000000
_symmetry_Int_Tables_number   1
_chemical_formula_structural   Y3Lu6Zr(In2Rh)4
_chemical_formula_sum   'Y3 Lu6 Zr1 In8 Rh4'
_cell_volume   511.44037461
_cell_formula_units_Z   1
loop_
 _symmetry_equiv_pos_site_id
 _symmetry_equiv_pos_as_xyz
  1  'x, y, z'
loop_
 _atom_site_type_symbol
 _atom_site_label
 _atom_site_symmetry_multiplicity
 _atom_site_fract_x
 _atom_site_fract_y
 _atom_site_fract_z
 _atom_site_occupancy
  Y  Y0  1  0.000000  0.997023  0.499083  1
  Y  Y1  1  0.000000  0.753072  0.280985  1
  Y  Y2  1  0.000000  0.501193  0.001427  1
  Lu  Lu3  1  0.000000  0.120217  0.911743  1
  Lu  Lu4  1  0.000000  0.746435  0.781285  1
  Lu  Lu5  1  0.000000  0.617107  0.589470  1
  Lu  Lu6  1  0.000000  0.247067  0.721733  1
  Lu  Lu7  1  0.000000  0.377718  0.412405  1
  Lu  Lu8  1  0.000000  0.258810  0.217346  1
  Zr  Zr9  1  0.000000  0.883848  0.087946  1
  In  In10  1  0.500000  0.802774  0.937247  1
  In  In11  1  0.500000  0.581446  0.150092  1
  In  In12  1  0.500000  0.430221  0.850756  1
  In  In13  1  0.500000  0.076534  0.346090  1
  In  In14  1  0.500000  0.295458  0.567415  1
  In  In15  1  0.500000  0.928276  0.650804  1
  In  In16  1  0.500000  0.696228  0.435009  1
  In  In17  1  0.500000  0.198990  0.063924  1
  Rh  Rh18  1  0.500000  0.523757  0.696891  1
  Rh  Rh19  1  0.500000  0.466277  0.304402  1
  Rh  Rh20  1  0.500000  0.023611  0.804744  1
  Rh  Rh21  1  0.500000  0.973938  0.189205  1
