# generated using pymatgen
data_Tb4Ho11Er5Sn16
_symmetry_space_group_name_H-M   'P 1'
_cell_length_a   8.01637023
_cell_length_b   8.15100134
_cell_length_c   15.41875568
_cell_angle_alpha   90.01480904
_cell_angle_beta   90.04101331
_cell_angle_gamma   89.99118875
_symmetry_Int_Tables_number   1
_chemical_formula_structural   Tb4Ho11Er5Sn16
_chemical_formula_sum   'Tb4 Ho11 Er5 Sn16'
_cell_volume   1007.48346419
_cell_formula_units_Z   1
loop_
 _symmetry_equiv_pos_site_id
 _symmetry_equiv_pos_as_xyz
  1  'x, y, z'
loop_
 _atom_site_type_symbol
 _atom_site_label
 _atom_site_symmetry_multiplicity
 _atom_site_fract_x
 _atom_site_fract_y
 _atom_site_fract_z
 _atom_site_occupancy
  Tb  Tb0  1  0.480646  0.679247  0.096317  1
  Tb  Tb1  1  0.980633  0.820909  0.403506  1
  Tb  Tb2  1  0.519306  0.321139  0.596644  1
  Tb  Tb3  1  0.019384  0.178971  0.903359  1
  Ho  Ho4  1  0.866485  0.662896  0.622781  1
  Ho  Ho5  1  0.633599  0.162550  0.377400  1
  Ho  Ho6  1  0.133594  0.337306  0.122336  1
  Ho  Ho7  1  0.633026  0.162361  0.122682  1
  Ho  Ho8  1  0.133146  0.337569  0.377414  1
  Ho  Ho9  1  0.366932  0.837570  0.622739  1
  Ho  Ho10  1  0.867178  0.662293  0.877551  1
  Ho  Ho11  1  0.520463  0.320627  0.902690  1
  Ho  Ho12  1  0.020558  0.179140  0.597276  1
  Ho  Ho13  1  0.479513  0.679075  0.402801  1
  Ho  Ho14  1  0.979282  0.820705  0.097286  1
  Er  Er15  1  0.366583  0.837465  0.877115  1
  Er  Er16  1  0.198172  0.503615  0.750035  1
  Er  Er17  1  0.697955  0.996486  0.749958  1
  Er  Er18  1  0.802104  0.496443  0.250070  1
  Er  Er19  1  0.302059  0.003346  0.249934  1
  Sn  Sn20  1  0.293807  0.036391  0.041506  1
  Sn  Sn21  1  0.793888  0.463175  0.458193  1
  Sn  Sn22  1  0.706083  0.963005  0.541945  1
  Sn  Sn23  1  0.207463  0.537461  0.957984  1
  Sn  Sn24  1  0.705169  0.961348  0.958640  1
  Sn  Sn25  1  0.205262  0.538895  0.541522  1
  Sn  Sn26  1  0.294946  0.038292  0.458504  1
  Sn  Sn27  1  0.793916  0.461711  0.041480  1
  Sn  Sn28  1  0.563991  0.618721  0.750078  1
  Sn  Sn29  1  0.064191  0.881739  0.750240  1
  Sn  Sn30  1  0.435935  0.381194  0.250238  1
  Sn  Sn31  1  0.935957  0.118829  0.249969  1
  Sn  Sn32  1  0.329854  0.148459  0.750146  1
  Sn  Sn33  1  0.829663  0.351354  0.749548  1
  Sn  Sn34  1  0.669571  0.851028  0.250326  1
  Sn  Sn35  1  0.169685  0.648683  0.249785  1
