# generated using pymatgen
data_Sr(AlI4)2
_symmetry_space_group_name_H-M   'P 1'
_cell_length_a   8.15928400
_cell_length_b   8.80847935
_cell_length_c   14.75216774
_cell_angle_alpha   85.50042208
_cell_angle_beta   90.00000000
_cell_angle_gamma   90.00000000
_symmetry_Int_Tables_number   1
_chemical_formula_structural   Sr(AlI4)2
_chemical_formula_sum   'Sr2 Al4 I16'
_cell_volume   1056.98355731
_cell_formula_units_Z   2
loop_
 _symmetry_equiv_pos_site_id
 _symmetry_equiv_pos_as_xyz
  1  'x, y, z'
loop_
 _atom_site_type_symbol
 _atom_site_label
 _atom_site_symmetry_multiplicity
 _atom_site_fract_x
 _atom_site_fract_y
 _atom_site_fract_z
 _atom_site_occupancy
  Sr  Sr0  1  0.147248  0.500000  0.250000  1
  Sr  Sr1  1  0.852752  0.500000  0.750000  1
  Al  Al2  1  0.259418  0.675913  0.580093  1
  Al  Al3  1  0.740582  0.675913  0.080093  1
  Al  Al4  1  0.740582  0.324087  0.419907  1
  Al  Al5  1  0.259418  0.324087  0.919907  1
  I  I6  1  0.531378  0.744653  0.655655  1
  I  I7  1  0.304335  0.742482  0.408467  1
  I  I8  1  0.821695  0.397089  0.115611  1
  I  I9  1  0.178305  0.602911  0.884389  1
  I  I10  1  0.468622  0.255347  0.344345  1
  I  I11  1  0.304335  0.257518  0.091533  1
  I  I12  1  0.695665  0.257518  0.591533  1
  I  I13  1  0.468622  0.744653  0.155655  1
  I  I14  1  0.178305  0.397089  0.615611  1
  I  I15  1  0.531378  0.255347  0.844345  1
  I  I16  1  0.821695  0.602911  0.384389  1
  I  I17  1  0.978299  0.834010  0.139528  1
  I  I18  1  0.695665  0.742482  0.908467  1
  I  I19  1  0.021701  0.165990  0.860472  1
  I  I20  1  0.978299  0.165990  0.360472  1
  I  I21  1  0.021701  0.834010  0.639528  1
