# generated using pymatgen
data_TbCeFe8Ni4P7
_symmetry_space_group_name_H-M   'P 1'
_cell_length_a   9.05048133
_cell_length_b   9.07759056
_cell_length_c   3.66651800
_cell_angle_alpha   90.00000000
_cell_angle_beta   90.00000000
_cell_angle_gamma   120.26318320
_symmetry_Int_Tables_number   1
_chemical_formula_structural   TbCeFe8Ni4P7
_chemical_formula_sum   'Tb1 Ce1 Fe8 Ni4 P7'
_cell_volume   260.17696757
_cell_formula_units_Z   1
loop_
 _symmetry_equiv_pos_site_id
 _symmetry_equiv_pos_as_xyz
  1  'x, y, z'
loop_
 _atom_site_type_symbol
 _atom_site_label
 _atom_site_symmetry_multiplicity
 _atom_site_fract_x
 _atom_site_fract_y
 _atom_site_fract_z
 _atom_site_occupancy
  Tb  Tb0  1  0.333946  0.664800  0.500000  1
  Ce  Ce1  1  0.998318  0.002892  0.000000  1
  Fe  Fe2  1  0.824199  0.609620  0.000000  1
  Fe  Fe3  1  0.783081  0.178276  0.000000  1
  Fe  Fe4  1  0.394609  0.215133  0.000000  1
  Fe  Fe5  1  0.715685  0.947827  0.500000  1
  Fe  Fe6  1  0.231722  0.282585  0.500000  1
  Fe  Fe7  1  0.883873  0.430186  0.500000  1
  Fe  Fe8  1  0.550714  0.120146  0.500000  1
  Fe  Fe9  1  0.569457  0.452303  0.500000  1
  Ni  Ni10  1  0.097071  0.395062  0.000000  1
  Ni  Ni11  1  0.297644  0.900505  0.000000  1
  Ni  Ni12  1  0.601515  0.698952  0.000000  1
  Ni  Ni13  1  0.054238  0.769433  0.500000  1
  P  P14  1  0.073216  0.628669  0.000000  1
  P  P15  1  0.560047  0.924752  0.000000  1
  P  P16  1  0.364099  0.437414  0.000000  1
  P  P17  1  0.774393  0.730580  0.500000  1
  P  P18  1  0.950343  0.219991  0.500000  1
  P  P19  1  0.272890  0.054556  0.500000  1
  P  P20  1  0.668942  0.336317  0.000000  1
