# generated using pymatgen
data_Nd4Al18Ir5Au
_symmetry_space_group_name_H-M   'P 1'
_cell_length_a   7.64925946
_cell_length_b   7.64926030
_cell_length_c   9.60934586
_cell_angle_alpha   89.96439036
_cell_angle_beta   89.96439189
_cell_angle_gamma   119.55864523
_symmetry_Int_Tables_number   1
_chemical_formula_structural   Nd4Al18Ir5Au
_chemical_formula_sum   'Nd4 Al18 Ir5 Au1'
_cell_volume   489.07707100
_cell_formula_units_Z   1
loop_
 _symmetry_equiv_pos_site_id
 _symmetry_equiv_pos_as_xyz
  1  'x, y, z'
loop_
 _atom_site_type_symbol
 _atom_site_label
 _atom_site_symmetry_multiplicity
 _atom_site_fract_x
 _atom_site_fract_y
 _atom_site_fract_z
 _atom_site_occupancy
  Nd  Nd0  1  0.995504  0.672264  0.250454  1
  Nd  Nd1  1  0.004496  0.327736  0.749546  1
  Nd  Nd2  1  0.672264  0.995504  0.250454  1
  Nd  Nd3  1  0.327736  0.004496  0.749546  1
  Al  Al4  1  0.136213  0.136213  0.257461  1
  Al  Al5  1  0.863787  0.863787  0.742539  1
  Al  Al6  1  0.002995  0.344368  0.076855  1
  Al  Al7  1  0.997005  0.655632  0.923145  1
  Al  Al8  1  0.999039  0.664858  0.571438  1
  Al  Al9  1  0.335142  0.000961  0.428562  1
  Al  Al10  1  0.000961  0.335142  0.428562  1
  Al  Al11  1  0.664858  0.999039  0.571438  1
  Al  Al12  1  0.655632  0.997005  0.923145  1
  Al  Al13  1  0.344368  0.002995  0.076855  1
  Al  Al14  1  0.334448  0.334448  0.549131  1
  Al  Al15  1  0.665552  0.665552  0.450869  1
  Al  Al16  1  0.656907  0.656907  0.055285  1
  Al  Al17  1  0.343093  0.343093  0.944715  1
  Al  Al18  1  0.338996  0.547451  0.251223  1
  Al  Al19  1  0.661004  0.452549  0.748777  1
  Al  Al20  1  0.547451  0.338996  0.251223  1
  Al  Al21  1  0.452549  0.661004  0.748777  1
  Ir  Ir22  1  0.670875  0.329125  0.000000  1
  Ir  Ir23  1  0.329125  0.670875  0.000000  1
  Ir  Ir24  1  0.329099  0.670901  0.500000  1
  Ir  Ir25  1  0.670901  0.329099  0.500000  1
  Ir  Ir26  1  0.000000  0.000000  0.500000  1
  Au  Au27  1  0.000000  0.000000  0.000000  1
