# generated using pymatgen
data_RbTbDyCuSe4
_symmetry_space_group_name_H-M   'P 1'
_cell_length_a   4.14511900
_cell_length_b   7.45391105
_cell_length_c   14.49136800
_cell_angle_alpha   90.00000000
_cell_angle_beta   90.00000000
_cell_angle_gamma   73.85614270
_symmetry_Int_Tables_number   1
_chemical_formula_structural   RbTbDyCuSe4
_chemical_formula_sum   'Rb2 Tb2 Dy2 Cu2 Se8'
_cell_volume   430.08874350
_cell_formula_units_Z   2
loop_
 _symmetry_equiv_pos_site_id
 _symmetry_equiv_pos_as_xyz
  1  'x, y, z'
loop_
 _atom_site_type_symbol
 _atom_site_label
 _atom_site_symmetry_multiplicity
 _atom_site_fract_x
 _atom_site_fract_y
 _atom_site_fract_z
 _atom_site_occupancy
  Rb  Rb0  1  0.889533  0.220936  0.250000  1
  Rb  Rb1  1  0.110487  0.779025  0.750000  1
  Tb  Tb2  1  0.633656  0.732690  0.063574  1
  Tb  Tb3  1  0.633656  0.732690  0.436427  1
  Dy  Dy4  1  0.366059  0.267882  0.563931  1
  Dy  Dy5  1  0.366059  0.267882  0.936069  1
  Cu  Cu6  1  0.163240  0.673520  0.250000  1
  Cu  Cu7  1  0.836915  0.326170  0.750000  1
  Se  Se8  1  0.999419  0.001163  0.999663  1
  Se  Se9  1  0.261916  0.476167  0.108850  1
  Se  Se10  1  0.570921  0.858160  0.250000  1
  Se  Se11  1  0.261916  0.476167  0.391150  1
  Se  Se12  1  0.999419  0.001163  0.500337  1
  Se  Se13  1  0.738920  0.522163  0.608910  1
  Se  Se14  1  0.428971  0.142058  0.750000  1
  Se  Se15  1  0.738920  0.522163  0.891090  1
