# generated using pymatgen
data_Nd3Er5(Sc3Pt4)4
_symmetry_space_group_name_H-M   'P 1'
_cell_length_a   7.41843912
_cell_length_b   7.35583167
_cell_length_c   13.91175471
_cell_angle_alpha   90.14808000
_cell_angle_beta   90.32640160
_cell_angle_gamma   89.95942541
_symmetry_Int_Tables_number   1
_chemical_formula_structural   Nd3Er5(Sc3Pt4)4
_chemical_formula_sum   'Nd3 Er5 Sc12 Pt16'
_cell_volume   759.13257644
_cell_formula_units_Z   1
loop_
 _symmetry_equiv_pos_site_id
 _symmetry_equiv_pos_as_xyz
  1  'x, y, z'
loop_
 _atom_site_type_symbol
 _atom_site_label
 _atom_site_symmetry_multiplicity
 _atom_site_fract_x
 _atom_site_fract_y
 _atom_site_fract_z
 _atom_site_occupancy
  Nd  Nd0  1  0.004070  0.177169  0.096466  1
  Nd  Nd1  1  0.993384  0.823944  0.904088  1
  Nd  Nd2  1  0.494316  0.673593  0.905640  1
  Er  Er3  1  0.993066  0.824547  0.592841  1
  Er  Er4  1  0.504438  0.320878  0.099055  1
  Er  Er5  1  0.007976  0.176071  0.405144  1
  Er  Er6  1  0.508046  0.323083  0.407023  1
  Er  Er7  1  0.492357  0.676535  0.593253  1
  Sc  Sc8  1  0.169052  0.497536  0.745420  1
  Sc  Sc9  1  0.829774  0.502435  0.253811  1
  Sc  Sc10  1  0.331465  0.996414  0.253372  1
  Sc  Sc11  1  0.668649  0.002677  0.745758  1
  Sc  Sc12  1  0.334685  0.161732  0.621471  1
  Sc  Sc13  1  0.665004  0.837108  0.378254  1
  Sc  Sc14  1  0.166329  0.661594  0.377662  1
  Sc  Sc15  1  0.662512  0.837664  0.127131  1
  Sc  Sc16  1  0.835894  0.336820  0.620606  1
  Sc  Sc17  1  0.340253  0.165847  0.874516  1
  Sc  Sc18  1  0.836176  0.338724  0.872206  1
  Sc  Sc19  1  0.164273  0.660587  0.126746  1
  Pt  Pt20  1  0.035024  0.130046  0.746140  1
  Pt  Pt21  1  0.964719  0.871079  0.254089  1
  Pt  Pt22  1  0.468186  0.626053  0.252121  1
  Pt  Pt23  1  0.534432  0.371235  0.744722  1
  Pt  Pt24  1  0.296031  0.857187  0.743514  1
  Pt  Pt25  1  0.700264  0.145387  0.254958  1
  Pt  Pt26  1  0.208440  0.355470  0.255570  1
  Pt  Pt27  1  0.795857  0.643771  0.741974  1
  Pt  Pt28  1  0.176333  0.456385  0.541879  1
  Pt  Pt29  1  0.825911  0.543212  0.457011  1
  Pt  Pt30  1  0.325204  0.957038  0.456921  1
  Pt  Pt31  1  0.820702  0.542520  0.045550  1
  Pt  Pt32  1  0.675422  0.042679  0.542556  1
  Pt  Pt33  1  0.170929  0.451439  0.957883  1
  Pt  Pt34  1  0.670171  0.053638  0.957840  1
  Pt  Pt35  1  0.330658  0.957906  0.046808  1
