# generated using pymatgen
data_HoTlP2O7
_symmetry_space_group_name_H-M   'P 1'
_cell_length_a   5.50796500
_cell_length_b   5.50796417
_cell_length_c   12.36379800
_cell_angle_alpha   90.00000000
_cell_angle_beta   90.00000000
_cell_angle_gamma   116.79164029
_symmetry_Int_Tables_number   1
_chemical_formula_structural   HoTlP2O7
_chemical_formula_sum   'Ho2 Tl2 P4 O14'
_cell_volume   334.82367932
_cell_formula_units_Z   2
loop_
 _symmetry_equiv_pos_site_id
 _symmetry_equiv_pos_as_xyz
  1  'x, y, z'
loop_
 _atom_site_type_symbol
 _atom_site_label
 _atom_site_symmetry_multiplicity
 _atom_site_fract_x
 _atom_site_fract_y
 _atom_site_fract_z
 _atom_site_occupancy
  Ho  Ho0  1  0.000000  0.000000  0.000000  1
  Ho  Ho1  1  0.000000  0.000000  0.500000  1
  Tl  Tl2  1  0.694874  0.305126  0.250000  1
  Tl  Tl3  1  0.305126  0.694874  0.750000  1
  P  P4  1  0.354356  0.645644  0.371815  1
  P  P5  1  0.645644  0.354356  0.628185  1
  P  P6  1  0.354356  0.645644  0.128185  1
  P  P7  1  0.645644  0.354356  0.871815  1
  O  O8  1  0.335143  0.224204  0.620328  1
  O  O9  1  0.776704  0.223296  0.556493  1
  O  O10  1  0.664857  0.775796  0.379672  1
  O  O11  1  0.664857  0.775796  0.120328  1
  O  O12  1  0.223296  0.776704  0.443507  1
  O  O13  1  0.775796  0.664857  0.879672  1
  O  O14  1  0.223296  0.776704  0.056493  1
  O  O15  1  0.776704  0.223296  0.943507  1
  O  O16  1  0.775796  0.664857  0.620328  1
  O  O17  1  0.715375  0.284625  0.750000  1
  O  O18  1  0.224204  0.335143  0.379672  1
  O  O19  1  0.224204  0.335143  0.120328  1
  O  O20  1  0.284625  0.715375  0.250000  1
  O  O21  1  0.335143  0.224204  0.879672  1
