# generated using pymatgen
data_Nd4HoIn3Cl
_symmetry_space_group_name_H-M   'P 1'
_cell_length_a   9.32246000
_cell_length_b   9.32246032
_cell_length_c   6.71979300
_cell_angle_alpha   89.99912727
_cell_angle_beta   89.99912727
_cell_angle_gamma   119.99963691
_symmetry_Int_Tables_number   1
_chemical_formula_structural   Nd4HoIn3Cl
_chemical_formula_sum   'Nd8 Ho2 In6 Cl2'
_cell_volume   505.76548418
_cell_formula_units_Z   2
loop_
 _symmetry_equiv_pos_site_id
 _symmetry_equiv_pos_as_xyz
  1  'x, y, z'
loop_
 _atom_site_type_symbol
 _atom_site_label
 _atom_site_symmetry_multiplicity
 _atom_site_fract_x
 _atom_site_fract_y
 _atom_site_fract_z
 _atom_site_occupancy
  Nd  Nd0  1  0.666653  0.333334  0.999970  1
  Nd  Nd1  1  0.333322  0.666632  0.999951  1
  Nd  Nd2  1  0.742398  0.742442  0.250766  1
  Nd  Nd3  1  0.257576  0.000008  0.250762  1
  Nd  Nd4  1  0.000007  0.257656  0.250739  1
  Nd  Nd5  1  0.257580  0.257558  0.749225  1
  Nd  Nd6  1  0.742350  0.999965  0.749310  1
  Nd  Nd7  1  0.999947  0.742313  0.749296  1
  Ho  Ho8  1  0.666684  0.333347  0.499989  1
  Ho  Ho9  1  0.333313  0.666661  0.499992  1
  In  In10  1  0.603936  0.999989  0.252320  1
  In  In11  1  0.000002  0.603956  0.252293  1
  In  In12  1  0.396120  0.396113  0.252278  1
  In  In13  1  0.396041  0.999982  0.747692  1
  In  In14  1  0.999991  0.396059  0.747708  1
  In  In15  1  0.603889  0.603887  0.747721  1
  Cl  Cl16  1  0.000097  0.000037  0.000001  1
  Cl  Cl17  1  0.000092  0.000061  0.499984  1
