# generated using pymatgen
data_Tm6Th4Sn5Sb3
_symmetry_space_group_name_H-M   'P 1'
_cell_length_a   8.11864100
_cell_length_b   8.10003198
_cell_length_c   15.34453884
_cell_angle_alpha   90.05623608
_cell_angle_beta   90.00000000
_cell_angle_gamma   90.00000000
_symmetry_Int_Tables_number   1
_chemical_formula_structural   Tm6Th4Sn5Sb3
_chemical_formula_sum   'Tm12 Th8 Sn10 Sb6'
_cell_volume   1009.07559529
_cell_formula_units_Z   2
loop_
 _symmetry_equiv_pos_site_id
 _symmetry_equiv_pos_as_xyz
  1  'x, y, z'
loop_
 _atom_site_type_symbol
 _atom_site_label
 _atom_site_symmetry_multiplicity
 _atom_site_fract_x
 _atom_site_fract_y
 _atom_site_fract_z
 _atom_site_occupancy
  Tm  Tm0  1  0.361650  0.838568  0.876495  1
  Tm  Tm1  1  0.861650  0.661432  0.623505  1
  Tm  Tm2  1  0.637221  0.160950  0.376221  1
  Tm  Tm3  1  0.137221  0.339050  0.123779  1
  Tm  Tm4  1  0.638565  0.161987  0.123297  1
  Tm  Tm5  1  0.138565  0.338013  0.376703  1
  Tm  Tm6  1  0.362089  0.838925  0.623554  1
  Tm  Tm7  1  0.862089  0.661075  0.876446  1
  Tm  Tm8  1  0.190609  0.495923  0.749863  1
  Tm  Tm9  1  0.690609  0.004077  0.750137  1
  Tm  Tm10  1  0.809156  0.503471  0.249366  1
  Tm  Tm11  1  0.309156  0.996529  0.250634  1
  Th  Th12  1  0.519982  0.321342  0.905148  1
  Th  Th13  1  0.019982  0.178658  0.594852  1
  Th  Th14  1  0.480523  0.678903  0.404764  1
  Th  Th15  1  0.980523  0.821097  0.095236  1
  Th  Th16  1  0.481555  0.678333  0.094771  1
  Th  Th17  1  0.981555  0.821667  0.405229  1
  Th  Th18  1  0.519181  0.320575  0.595047  1
  Th  Th19  1  0.019181  0.179425  0.904953  1
  Sn  Sn20  1  0.298962  0.040406  0.457254  1
  Sn  Sn21  1  0.798962  0.459594  0.042746  1
  Sn  Sn22  1  0.556910  0.622423  0.749880  1
  Sn  Sn23  1  0.056910  0.877577  0.750120  1
  Sn  Sn24  1  0.442732  0.377926  0.249936  1
  Sn  Sn25  1  0.942732  0.122074  0.250064  1
  Sn  Sn26  1  0.325669  0.143187  0.750105  1
  Sn  Sn27  1  0.825669  0.356813  0.749895  1
  Sn  Sn28  1  0.674639  0.856990  0.250016  1
  Sn  Sn29  1  0.174639  0.643010  0.249984  1
  Sb  Sb30  1  0.298104  0.040810  0.042959  1
  Sb  Sb31  1  0.798104  0.459190  0.457041  1
  Sb  Sb32  1  0.700623  0.959443  0.543023  1
  Sb  Sb33  1  0.200623  0.540557  0.956977  1
  Sb  Sb34  1  0.701829  0.959768  0.956595  1
  Sb  Sb35  1  0.201829  0.540232  0.543405  1
