# generated using pymatgen
data_Zr10AsPb6
_symmetry_space_group_name_H-M   'P 1'
_cell_length_a   5.95436401
_cell_length_b   8.73852073
_cell_length_c   8.73875101
_cell_angle_alpha   120.00010406
_cell_angle_beta   89.99573922
_cell_angle_gamma   90.00500884
_symmetry_Int_Tables_number   1
_chemical_formula_structural   Zr10AsPb6
_chemical_formula_sum   'Zr10 As1 Pb6'
_cell_volume   393.77926233
_cell_formula_units_Z   1
loop_
 _symmetry_equiv_pos_site_id
 _symmetry_equiv_pos_as_xyz
  1  'x, y, z'
loop_
 _atom_site_type_symbol
 _atom_site_label
 _atom_site_symmetry_multiplicity
 _atom_site_fract_x
 _atom_site_fract_y
 _atom_site_fract_z
 _atom_site_occupancy
  Zr  Zr0  1  0.500000  0.333331  0.666671  1
  Zr  Zr1  1  0.499999  0.666664  0.333333  1
  Zr  Zr2  1  0.999997  0.666679  0.333352  1
  Zr  Zr3  1  0.000004  0.333324  0.666647  1
  Zr  Zr4  1  0.763463  0.252164  0.000005  1
  Zr  Zr5  1  0.763410  0.747811  0.747836  1
  Zr  Zr6  1  0.763418  0.999975  0.252169  1
  Zr  Zr7  1  0.236559  0.747842  0.999999  1
  Zr  Zr8  1  0.236578  0.252191  0.252176  1
  Zr  Zr9  1  0.236570  0.000013  0.747819  1
  As  As10  1  0.499998  0.000013  0.000003  1
  Pb  Pb11  1  0.747358  0.608247  0.000018  1
  Pb  Pb12  1  0.747398  0.391747  0.391737  1
  Pb  Pb13  1  0.747419  0.999984  0.608227  1
  Pb  Pb14  1  0.252653  0.391779  0.000019  1
  Pb  Pb15  1  0.252601  0.608262  0.608258  1
  Pb  Pb16  1  0.252575  0.999978  0.391734  1
