# generated using pymatgen
data_CeRe6HgO24
_symmetry_space_group_name_H-M   'P 1'
_cell_length_a   10.28870100
_cell_length_b   10.28870074
_cell_length_c   6.05479700
_cell_angle_alpha   90.00000000
_cell_angle_beta   90.00000000
_cell_angle_gamma   119.99999120
_symmetry_Int_Tables_number   1
_chemical_formula_structural   CeRe6HgO24
_chemical_formula_sum   'Ce1 Re6 Hg1 O24'
_cell_volume   555.07457989
_cell_formula_units_Z   1
loop_
 _symmetry_equiv_pos_site_id
 _symmetry_equiv_pos_as_xyz
  1  'x, y, z'
loop_
 _atom_site_type_symbol
 _atom_site_label
 _atom_site_symmetry_multiplicity
 _atom_site_fract_x
 _atom_site_fract_y
 _atom_site_fract_z
 _atom_site_occupancy
  Ce  Ce0  1  0.666667  0.333333  0.750000  1
  Re  Re1  1  0.083931  0.391260  0.750000  1
  Re  Re2  1  0.391149  0.293358  0.250000  1
  Re  Re3  1  0.608740  0.692670  0.750000  1
  Re  Re4  1  0.902208  0.608851  0.250000  1
  Re  Re5  1  0.307330  0.916069  0.750000  1
  Re  Re6  1  0.706642  0.097792  0.250000  1
  Hg  Hg7  1  0.333333  0.666667  0.250000  1
  O  O8  1  0.493823  0.644220  0.515072  1
  O  O9  1  0.355780  0.849603  0.515072  1
  O  O10  1  0.816622  0.716569  0.250000  1
  O  O11  1  0.117175  0.854733  0.750000  1
  O  O12  1  0.283431  0.100053  0.250000  1
  O  O13  1  0.145267  0.262442  0.750000  1
  O  O14  1  0.510340  0.355078  0.014664  1
  O  O15  1  0.899947  0.183378  0.250000  1
  O  O16  1  0.094699  0.725703  0.250000  1
  O  O17  1  0.150397  0.506177  0.984928  1
  O  O18  1  0.150397  0.506177  0.515072  1
  O  O19  1  0.885229  0.296591  0.750000  1
  O  O20  1  0.274297  0.368996  0.250000  1
  O  O21  1  0.703409  0.588637  0.750000  1
  O  O22  1  0.844738  0.489660  0.485336  1
  O  O23  1  0.411363  0.114771  0.750000  1
  O  O24  1  0.644922  0.155262  0.014664  1
  O  O25  1  0.493823  0.644220  0.984928  1
  O  O26  1  0.355780  0.849603  0.984928  1
  O  O27  1  0.644922  0.155262  0.485336  1
  O  O28  1  0.510340  0.355078  0.485336  1
  O  O29  1  0.844738  0.489660  0.014664  1
  O  O30  1  0.737558  0.882825  0.750000  1
  O  O31  1  0.631004  0.905301  0.250000  1
