# generated using pymatgen
data_Y2Ga2Ru2C
_symmetry_space_group_name_H-M   'P 1'
_cell_length_a   5.92609459
_cell_length_b   5.92609386
_cell_length_c   7.06821532
_cell_angle_alpha   54.52305507
_cell_angle_beta   54.52304878
_cell_angle_gamma   40.45921087
_symmetry_Int_Tables_number   1
_chemical_formula_structural   Y2Ga2Ru2C
_chemical_formula_sum   'Y2 Ga2 Ru2 C1'
_cell_volume   126.56678195
_cell_formula_units_Z   1
loop_
 _symmetry_equiv_pos_site_id
 _symmetry_equiv_pos_as_xyz
  1  'x, y, z'
loop_
 _atom_site_type_symbol
 _atom_site_label
 _atom_site_symmetry_multiplicity
 _atom_site_fract_x
 _atom_site_fract_y
 _atom_site_fract_z
 _atom_site_occupancy
  Y  Y0  1  0.439807  0.439807  0.289507  1
  Y  Y1  1  0.560193  0.560193  0.710493  1
  Ga  Ga2  1  0.848013  0.848013  0.692421  1
  Ga  Ga3  1  0.151987  0.151987  0.307579  1
  Ru  Ru4  1  0.801991  0.801991  0.092190  1
  Ru  Ru5  1  0.198009  0.198009  0.907810  1
  C  C6  1  0.000000  0.000000  0.000000  1
