# generated using pymatgen
data_TbCu2AgPt2
_symmetry_space_group_name_H-M   'P 1'
_cell_length_a   5.05450858
_cell_length_b   5.19712115
_cell_length_c   5.19712032
_cell_angle_alpha   63.77500520
_cell_angle_beta   60.90365920
_cell_angle_gamma   60.90365663
_symmetry_Int_Tables_number   1
_chemical_formula_structural   TbCu2AgPt2
_chemical_formula_sum   'Tb1 Cu2 Ag1 Pt2'
_cell_volume   100.39565298
_cell_formula_units_Z   1
loop_
 _symmetry_equiv_pos_site_id
 _symmetry_equiv_pos_as_xyz
  1  'x, y, z'
loop_
 _atom_site_type_symbol
 _atom_site_label
 _atom_site_symmetry_multiplicity
 _atom_site_fract_x
 _atom_site_fract_y
 _atom_site_fract_z
 _atom_site_occupancy
  Tb  Tb0  1  0.995246  0.004754  0.004754  1
  Cu  Cu1  1  0.128996  0.620054  0.620054  1
  Cu  Cu2  1  0.630897  0.620054  0.620054  1
  Ag  Ag3  1  0.241629  0.258371  0.258371  1
  Pt  Pt4  1  0.626616  0.623291  0.123477  1
  Pt  Pt5  1  0.626616  0.123477  0.623291  1
