# generated using pymatgen
data_CeY3(HgPt2)2
_symmetry_space_group_name_H-M   'P 1'
_cell_length_a   7.79889986
_cell_length_b   7.79889986
_cell_length_c   3.71044100
_cell_angle_alpha   90.00000000
_cell_angle_beta   90.00000000
_cell_angle_gamma   89.13175003
_symmetry_Int_Tables_number   1
_chemical_formula_structural   CeY3(HgPt2)2
_chemical_formula_sum   'Ce1 Y3 Hg2 Pt4'
_cell_volume   225.65364409
_cell_formula_units_Z   1
loop_
 _symmetry_equiv_pos_site_id
 _symmetry_equiv_pos_as_xyz
  1  'x, y, z'
loop_
 _atom_site_type_symbol
 _atom_site_label
 _atom_site_symmetry_multiplicity
 _atom_site_fract_x
 _atom_site_fract_y
 _atom_site_fract_z
 _atom_site_occupancy
  Ce  Ce0  1  0.670592  0.829408  0.499999  1
  Y  Y1  1  0.327938  0.172063  0.499999  1
  Y  Y2  1  0.830373  0.328203  0.499999  1
  Y  Y3  1  0.171798  0.669627  0.499999  1
  Hg  Hg4  1  0.003226  0.001135  0.000000  1
  Hg  Hg5  1  0.498865  0.496774  0.000000  1
  Pt  Pt6  1  0.629796  0.125876  0.000000  1
  Pt  Pt7  1  0.126478  0.373522  0.000000  1
  Pt  Pt8  1  0.866812  0.633189  0.000000  1
  Pt  Pt9  1  0.374124  0.870205  0.000000  1
