# generated using pymatgen
data_Nb6Al2CuAuN2
_symmetry_space_group_name_H-M   'P 1'
_cell_length_a   7.06949693
_cell_length_b   7.06768894
_cell_length_c   7.06794100
_cell_angle_alpha   90.00000000
_cell_angle_beta   90.00000000
_cell_angle_gamma   90.21056958
_symmetry_Int_Tables_number   1
_chemical_formula_structural   Nb6Al2CuAuN2
_chemical_formula_sum   'Nb12 Al4 Cu2 Au2 N4'
_cell_volume   353.14732425
_cell_formula_units_Z   2
loop_
 _symmetry_equiv_pos_site_id
 _symmetry_equiv_pos_as_xyz
  1  'x, y, z'
loop_
 _atom_site_type_symbol
 _atom_site_label
 _atom_site_symmetry_multiplicity
 _atom_site_fract_x
 _atom_site_fract_y
 _atom_site_fract_z
 _atom_site_occupancy
  Nb  Nb0  1  0.787044  0.958419  0.375563  1
  Nb  Nb1  1  0.712956  0.041581  0.875563  1
  Nb  Nb2  1  0.210398  0.456065  0.124806  1
  Nb  Nb3  1  0.289602  0.543935  0.624806  1
  Nb  Nb4  1  0.955447  0.379041  0.788243  1
  Nb  Nb5  1  0.040887  0.872028  0.711717  1
  Nb  Nb6  1  0.459113  0.127972  0.211717  1
  Nb  Nb7  1  0.544553  0.620959  0.288243  1
  Nb  Nb8  1  0.379447  0.785717  0.955474  1
  Nb  Nb9  1  0.872366  0.709685  0.041596  1
  Nb  Nb10  1  0.120553  0.214283  0.455474  1
  Nb  Nb11  1  0.627634  0.290315  0.541596  1
  Al  Al12  1  0.579575  0.430092  0.927771  1
  Al  Al13  1  0.434186  0.921867  0.574264  1
  Al  Al14  1  0.920425  0.569908  0.427771  1
  Al  Al15  1  0.065814  0.078133  0.074264  1
  Cu  Cu16  1  0.821019  0.321925  0.178069  1
  Cu  Cu17  1  0.678981  0.678075  0.678069  1
  Au  Au18  1  0.179373  0.821703  0.319892  1
  Au  Au19  1  0.320627  0.178297  0.819892  1
  N  N20  1  0.878030  0.122129  0.624001  1
  N  N21  1  0.621970  0.877871  0.124001  1
  N  N22  1  0.123819  0.623543  0.878604  1
  N  N23  1  0.376181  0.376457  0.378604  1
