# generated using pymatgen
data_Tb2(CN2)3
_symmetry_space_group_name_H-M   'P 1'
_cell_length_a   7.48111905
_cell_length_b   7.48112018
_cell_length_c   5.26211415
_cell_angle_alpha   83.92228727
_cell_angle_beta   83.92228358
_cell_angle_gamma   29.68073528
_symmetry_Int_Tables_number   1
_chemical_formula_structural   Tb2(CN2)3
_chemical_formula_sum   'Tb2 C3 N6'
_cell_volume   144.95190028
_cell_formula_units_Z   1
loop_
 _symmetry_equiv_pos_site_id
 _symmetry_equiv_pos_as_xyz
  1  'x, y, z'
loop_
 _atom_site_type_symbol
 _atom_site_label
 _atom_site_symmetry_multiplicity
 _atom_site_fract_x
 _atom_site_fract_y
 _atom_site_fract_z
 _atom_site_occupancy
  Tb  Tb0  1  0.865817  0.865817  0.570099  1
  Tb  Tb1  1  0.134183  0.134183  0.429901  1
  C  C2  1  0.328079  0.328079  0.093675  1
  C  C3  1  0.671921  0.671921  0.906325  1
  C  C4  1  0.000000  0.000000  0.000000  1
  N  N5  1  0.988911  0.988911  0.235580  1
  N  N6  1  0.011089  0.011089  0.764420  1
  N  N7  1  0.689737  0.689737  0.668492  1
  N  N8  1  0.310263  0.310263  0.331508  1
  N  N9  1  0.657229  0.657229  0.138687  1
  N  N10  1  0.342771  0.342771  0.861313  1
