# generated using pymatgen
data_La10Co2SnSb3
_symmetry_space_group_name_H-M   'P 1'
_cell_length_a   8.43753400
_cell_length_b   9.15472608
_cell_length_c   12.77759647
_cell_angle_alpha   90.21484705
_cell_angle_beta   90.00000000
_cell_angle_gamma   90.00000000
_symmetry_Int_Tables_number   1
_chemical_formula_structural   La10Co2SnSb3
_chemical_formula_sum   'La20 Co4 Sn2 Sb6'
_cell_volume   986.97693918
_cell_formula_units_Z   2
loop_
 _symmetry_equiv_pos_site_id
 _symmetry_equiv_pos_as_xyz
  1  'x, y, z'
loop_
 _atom_site_type_symbol
 _atom_site_label
 _atom_site_symmetry_multiplicity
 _atom_site_fract_x
 _atom_site_fract_y
 _atom_site_fract_z
 _atom_site_occupancy
  La  La0  1  0.150690  0.750089  0.201206  1
  La  La1  1  0.650690  0.249911  0.298794  1
  La  La2  1  0.850969  0.249948  0.800143  1
  La  La3  1  0.350969  0.750052  0.699857  1
  La  La4  1  0.445557  0.751296  0.994747  1
  La  La5  1  0.945557  0.248704  0.505253  1
  La  La6  1  0.552445  0.248868  0.005052  1
  La  La7  1  0.052445  0.751132  0.494948  1
  La  La8  1  0.623126  0.750427  0.307274  1
  La  La9  1  0.123126  0.249573  0.192726  1
  La  La10  1  0.375989  0.250603  0.693450  1
  La  La11  1  0.875989  0.749397  0.806550  1
  La  La12  1  0.816693  0.965650  0.066859  1
  La  La13  1  0.316693  0.034350  0.433141  1
  La  La14  1  0.182936  0.467612  0.935151  1
  La  La15  1  0.682936  0.532388  0.564849  1
  La  La16  1  0.183798  0.032913  0.934974  1
  La  La17  1  0.683798  0.967087  0.565026  1
  La  La18  1  0.816660  0.533408  0.064026  1
  La  La19  1  0.316660  0.466592  0.435974  1
  Co  Co20  1  0.423959  0.748244  0.492008  1
  Co  Co21  1  0.923959  0.251756  0.007992  1
  Co  Co22  1  0.575368  0.250583  0.510260  1
  Co  Co23  1  0.075368  0.749417  0.989740  1
  Sn  Sn24  1  0.927017  0.994776  0.327347  1
  Sn  Sn25  1  0.427017  0.005224  0.172653  1
  Sb  Sb26  1  0.074517  0.495066  0.673275  1
  Sb  Sb27  1  0.574517  0.504934  0.826725  1
  Sb  Sb28  1  0.074374  0.004988  0.673890  1
  Sb  Sb29  1  0.574374  0.995012  0.826110  1
  Sb  Sb30  1  0.925902  0.505150  0.327178  1
  Sb  Sb31  1  0.425902  0.494850  0.172822  1
