# generated using pymatgen
data_Y3MnZnRu4
_symmetry_space_group_name_H-M   'P 1'
_cell_length_a   5.30438896
_cell_length_b   5.28496997
_cell_length_c   13.20677158
_cell_angle_alpha   91.52558112
_cell_angle_beta   89.12057668
_cell_angle_gamma   118.83710799
_symmetry_Int_Tables_number   1
_chemical_formula_structural   Y3MnZnRu4
_chemical_formula_sum   'Y6 Mn2 Zn2 Ru8'
_cell_volume   324.20534948
_cell_formula_units_Z   2
loop_
 _symmetry_equiv_pos_site_id
 _symmetry_equiv_pos_as_xyz
  1  'x, y, z'
loop_
 _atom_site_type_symbol
 _atom_site_label
 _atom_site_symmetry_multiplicity
 _atom_site_fract_x
 _atom_site_fract_y
 _atom_site_fract_z
 _atom_site_occupancy
  Y  Y0  1  0.334924  0.665471  0.911431  1
  Y  Y1  1  0.987832  0.996017  0.256201  1
  Y  Y2  1  0.667676  0.335366  0.584854  1
  Y  Y3  1  0.332324  0.664634  0.665146  1
  Y  Y4  1  0.012168  0.003983  0.993799  1
  Y  Y5  1  0.665076  0.334529  0.338569  1
  Mn  Mn6  1  0.169849  0.837745  0.458114  1
  Mn  Mn7  1  0.830151  0.162255  0.791886  1
  Zn  Zn8  1  0.500000  0.500000  0.125000  1
  Zn  Zn9  1  0.500000  0.000000  0.125000  1
  Ru  Ru10  1  0.173254  0.341947  0.457080  1
  Ru  Ru11  1  0.826746  0.658053  0.792920  1
  Ru  Ru12  1  0.318423  0.668960  0.290643  1
  Ru  Ru13  1  0.000000  0.000000  0.625000  1
  Ru  Ru14  1  0.681577  0.331040  0.959357  1
  Ru  Ru15  1  0.000000  0.500000  0.125000  1
  Ru  Ru16  1  0.668966  0.835639  0.461076  1
  Ru  Ru17  1  0.331034  0.164361  0.788924  1
