# generated using pymatgen
data_Ce2Al3ZnFe2
_symmetry_space_group_name_H-M   'P 1'
_cell_length_a   5.05212353
_cell_length_b   5.05212391
_cell_length_c   7.28115116
_cell_angle_alpha   90.01686291
_cell_angle_beta   89.98314057
_cell_angle_gamma   129.63743155
_symmetry_Int_Tables_number   1
_chemical_formula_structural   Ce2Al3ZnFe2
_chemical_formula_sum   'Ce2 Al3 Zn1 Fe2'
_cell_volume   143.11765492
_cell_formula_units_Z   1
loop_
 _symmetry_equiv_pos_site_id
 _symmetry_equiv_pos_as_xyz
  1  'x, y, z'
loop_
 _atom_site_type_symbol
 _atom_site_label
 _atom_site_symmetry_multiplicity
 _atom_site_fract_x
 _atom_site_fract_y
 _atom_site_fract_z
 _atom_site_occupancy
  Ce  Ce0  1  0.452543  0.547456  0.249912  1
  Ce  Ce1  1  0.545426  0.454573  0.753544  1
  Al  Al2  1  0.161054  0.838945  0.046823  1
  Al  Al3  1  0.157640  0.842359  0.449449  1
  Al  Al4  1  0.841004  0.158995  0.550113  1
  Zn  Zn5  1  0.844225  0.155774  0.954863  1
  Fe  Fe6  1  0.681979  0.318020  0.254172  1
  Fe  Fe7  1  0.316126  0.683873  0.741122  1
