# generated using pymatgen
data_LaPr9Al4(OsRu)3
_symmetry_space_group_name_H-M   'P 1'
_cell_length_a   8.68135770
_cell_length_b   8.58691853
_cell_length_c   8.60786942
_cell_angle_alpha   108.76528940
_cell_angle_beta   110.18796807
_cell_angle_gamma   109.19545362
_symmetry_Int_Tables_number   1
_chemical_formula_structural   LaPr9Al4(OsRu)3
_chemical_formula_sum   'La1 Pr9 Al4 Os3 Ru3'
_cell_volume   495.51610023
_cell_formula_units_Z   1
loop_
 _symmetry_equiv_pos_site_id
 _symmetry_equiv_pos_as_xyz
  1  'x, y, z'
loop_
 _atom_site_type_symbol
 _atom_site_label
 _atom_site_symmetry_multiplicity
 _atom_site_fract_x
 _atom_site_fract_y
 _atom_site_fract_z
 _atom_site_occupancy
  La  La0  1  0.248441  0.688067  0.439357  1
  Pr  Pr1  1  0.751331  0.818030  0.065718  1
  Pr  Pr2  1  0.435628  0.253429  0.686233  1
  Pr  Pr3  1  0.679942  0.432367  0.249769  1
  Pr  Pr4  1  0.065036  0.750393  0.818284  1
  Pr  Pr5  1  0.819607  0.067713  0.749977  1
  Pr  Pr6  1  0.213949  0.214170  0.215817  1
  Pr  Pr7  1  0.502406  0.000003  0.288342  1
  Pr  Pr8  1  0.286605  0.501929  0.999869  1
  Pr  Pr9  1  0.997048  0.284734  0.497201  1
  Al  Al10  1  0.591192  0.589830  0.588662  1
  Al  Al11  1  0.498883  0.002269  0.912430  1
  Al  Al12  1  0.908456  0.495725  0.998705  1
  Al  Al13  1  0.002385  0.913633  0.502919  1
  Os  Os14  1  0.249982  0.119001  0.868550  1
  Os  Os15  1  0.749647  0.382226  0.632557  1
  Os  Os16  1  0.861835  0.243332  0.113512  1
  Ru  Ru17  1  0.121332  0.857725  0.255195  1
  Ru  Ru18  1  0.638113  0.751975  0.381455  1
  Ru  Ru19  1  0.378182  0.633449  0.735447  1
