# generated using pymatgen
data_Dy7Er9In2(AgRh2)2
_symmetry_space_group_name_H-M   'P 1'
_cell_length_a   9.59735898
_cell_length_b   9.54890241
_cell_length_c   9.56405213
_cell_angle_alpha   59.92222605
_cell_angle_beta   59.70873539
_cell_angle_gamma   59.61655825
_symmetry_Int_Tables_number   1
_chemical_formula_structural   Dy7Er9In2(AgRh2)2
_chemical_formula_sum   'Dy7 Er9 In2 Ag2 Rh4'
_cell_volume   616.23286118
_cell_formula_units_Z   1
loop_
 _symmetry_equiv_pos_site_id
 _symmetry_equiv_pos_as_xyz
  1  'x, y, z'
loop_
 _atom_site_type_symbol
 _atom_site_label
 _atom_site_symmetry_multiplicity
 _atom_site_fract_x
 _atom_site_fract_y
 _atom_site_fract_z
 _atom_site_occupancy
  Dy  Dy0  1  0.187256  0.189188  0.812798  1
  Dy  Dy1  1  0.438581  0.061112  0.061522  1
  Dy  Dy2  1  0.436291  0.060218  0.435631  1
  Dy  Dy3  1  0.066130  0.437415  0.059477  1
  Dy  Dy4  1  0.650978  0.052210  0.646192  1
  Dy  Dy5  1  0.189849  0.810981  0.811995  1
  Dy  Dy6  1  0.066315  0.059712  0.436738  1
  Er  Er7  1  0.808308  0.190620  0.190956  1
  Er  Er8  1  0.811567  0.810915  0.190075  1
  Er  Er9  1  0.649819  0.647067  0.052223  1
  Er  Er10  1  0.651865  0.649580  0.649675  1
  Er  Er11  1  0.062307  0.436336  0.435496  1
  Er  Er12  1  0.050769  0.648533  0.647551  1
  Er  Er13  1  0.811229  0.190159  0.811427  1
  Er  Er14  1  0.436554  0.436398  0.059588  1
  Er  Er15  1  0.188392  0.811208  0.189743  1
  In  In16  1  0.743138  0.421853  0.421299  1
  In  In17  1  0.416764  0.421628  0.420226  1
  Ag  Ag18  1  0.416617  0.748800  0.417916  1
  Ag  Ag19  1  0.416566  0.418386  0.749138  1
  Rh  Rh20  1  0.855931  0.428781  0.857386  1
  Rh  Rh21  1  0.857626  0.856774  0.427559  1
  Rh  Rh22  1  0.429706  0.855286  0.857460  1
  Rh  Rh23  1  0.857439  0.856841  0.857926  1
