# generated using pymatgen
data_Na2HfCr3Se8
_symmetry_space_group_name_H-M   'P 1'
_cell_length_a   6.28354100
_cell_length_b   7.28789400
_cell_length_c   14.93986000
_cell_angle_alpha   90.00000000
_cell_angle_beta   90.00000000
_cell_angle_gamma   90.00000000
_symmetry_Int_Tables_number   1
_chemical_formula_structural   Na2HfCr3Se8
_chemical_formula_sum   'Na4 Hf2 Cr6 Se16'
_cell_volume   684.15267332
_cell_formula_units_Z   2
loop_
 _symmetry_equiv_pos_site_id
 _symmetry_equiv_pos_as_xyz
  1  'x, y, z'
loop_
 _atom_site_type_symbol
 _atom_site_label
 _atom_site_symmetry_multiplicity
 _atom_site_fract_x
 _atom_site_fract_y
 _atom_site_fract_z
 _atom_site_occupancy
  Na  Na0  1  0.336724  0.000000  0.000000  1
  Na  Na1  1  0.627396  0.500000  0.500000  1
  Na  Na2  1  0.016780  0.000000  0.500000  1
  Na  Na3  1  0.969422  0.500000  0.000000  1
  Hf  Hf4  1  0.001931  0.000000  0.249156  1
  Hf  Hf5  1  0.001931  0.000000  0.750844  1
  Cr  Cr6  1  0.000988  0.500000  0.251386  1
  Cr  Cr7  1  0.000988  0.500000  0.748614  1
  Cr  Cr8  1  0.502112  0.248618  0.249859  1
  Cr  Cr9  1  0.502112  0.751382  0.750141  1
  Cr  Cr10  1  0.502112  0.751382  0.249859  1
  Cr  Cr11  1  0.502112  0.248618  0.750141  1
  Se  Se12  1  0.827774  0.260824  0.351756  1
  Se  Se13  1  0.827774  0.739176  0.648244  1
  Se  Se14  1  0.175988  0.738218  0.148905  1
  Se  Se15  1  0.175988  0.261782  0.851095  1
  Se  Se16  1  0.175988  0.261782  0.148905  1
  Se  Se17  1  0.175988  0.738218  0.851095  1
  Se  Se18  1  0.827774  0.739176  0.351756  1
  Se  Se19  1  0.827774  0.260824  0.648244  1
  Se  Se20  1  0.656528  0.000000  0.147932  1
  Se  Se21  1  0.656528  0.000000  0.852068  1
  Se  Se22  1  0.335809  0.500000  0.343319  1
  Se  Se23  1  0.335809  0.500000  0.656681  1
  Se  Se24  1  0.349268  0.000000  0.351590  1
  Se  Se25  1  0.349268  0.000000  0.648410  1
  Se  Se26  1  0.668567  0.500000  0.157201  1
  Se  Se27  1  0.668567  0.500000  0.842799  1
