# generated using pymatgen
data_TbDy2Zr(Al8Pt3)3
_symmetry_space_group_name_H-M   'P 1'
_cell_length_a   7.52069186
_cell_length_b   7.52707159
_cell_length_c   13.10209100
_cell_angle_alpha   84.53841458
_cell_angle_beta   79.01558025
_cell_angle_gamma   59.89768027
_symmetry_Int_Tables_number   1
_chemical_formula_structural   TbDy2Zr(Al8Pt3)3
_chemical_formula_sum   'Tb1 Dy2 Zr1 Al24 Pt9'
_cell_volume   629.90616046
_cell_formula_units_Z   1
loop_
 _symmetry_equiv_pos_site_id
 _symmetry_equiv_pos_as_xyz
  1  'x, y, z'
loop_
 _atom_site_type_symbol
 _atom_site_label
 _atom_site_symmetry_multiplicity
 _atom_site_fract_x
 _atom_site_fract_y
 _atom_site_fract_z
 _atom_site_occupancy
  Tb  Tb0  1  0.266690  0.501317  0.191860  1
  Dy  Dy1  1  0.606453  0.831934  0.191766  1
  Dy  Dy2  1  0.733821  0.498653  0.807747  1
  Zr  Zr3  1  0.393386  0.168100  0.809045  1
  Al  Al4  1  0.681860  0.836687  0.941949  1
  Al  Al5  1  0.316485  0.166338  0.053578  1
  Al  Al6  1  0.146412  0.832832  0.562406  1
  Al  Al7  1  0.853240  0.167120  0.438253  1
  Al  Al8  1  0.479943  0.166818  0.560751  1
  Al  Al9  1  0.519284  0.833848  0.441189  1
  Al  Al10  1  0.217066  0.165314  0.330508  1
  Al  Al11  1  0.779546  0.837086  0.672287  1
  Al  Al12  1  0.436298  0.504282  0.672600  1
  Al  Al13  1  0.562293  0.493638  0.329999  1
  Al  Al14  1  0.111520  0.159778  0.671526  1
  Al  Al15  1  0.889999  0.839818  0.331219  1
  Al  Al16  1  0.353711  0.496307  0.941895  1
  Al  Al17  1  0.647981  0.499999  0.055242  1
  Al  Al18  1  0.018859  0.167830  0.950749  1
  Al  Al19  1  0.984704  0.832910  0.046141  1
  Al  Al20  1  0.186729  0.499282  0.441237  1
  Al  Al21  1  0.813719  0.500390  0.559046  1
  Al  Al22  1  0.734268  0.163809  0.183772  1
  Al  Al23  1  0.265615  0.841861  0.816220  1
  Al  Al24  1  0.066759  0.626029  0.814893  1
  Al  Al25  1  0.939086  0.368158  0.184642  1
  Al  Al26  1  0.850540  0.041133  0.815517  1
  Al  Al27  1  0.144389  0.959036  0.183935  1
  Pt  Pt28  1  0.119756  0.491317  0.639077  1
  Pt  Pt29  1  0.878986  0.508230  0.361740  1
  Pt  Pt30  1  0.657704  0.171798  0.998881  1
  Pt  Pt31  1  0.343710  0.827686  0.999197  1
  Pt  Pt32  1  0.537594  0.166562  0.362117  1
  Pt  Pt33  1  0.463100  0.832655  0.639054  1
  Pt  Pt34  1  0.778537  0.176118  0.637774  1
  Pt  Pt35  1  0.220471  0.824937  0.363237  1
  Pt  Pt36  1  0.999488  0.500393  0.998952  1
