# generated using pymatgen
data_Tm3Ga5Cu6
_symmetry_space_group_name_H-M   'P 1'
_cell_length_a   7.91717311
_cell_length_b   7.91717417
_cell_length_c   7.91717400
_cell_angle_alpha   148.65298488
_cell_angle_beta   113.66526791
_cell_angle_gamma   75.20123832
_symmetry_Int_Tables_number   1
_chemical_formula_structural   Tm3Ga5Cu6
_chemical_formula_sum   'Tm3 Ga5 Cu6'
_cell_volume   232.44509519
_cell_formula_units_Z   1
loop_
 _symmetry_equiv_pos_site_id
 _symmetry_equiv_pos_as_xyz
  1  'x, y, z'
loop_
 _atom_site_type_symbol
 _atom_site_label
 _atom_site_symmetry_multiplicity
 _atom_site_fract_x
 _atom_site_fract_y
 _atom_site_fract_z
 _atom_site_occupancy
  Tm  Tm0  1  0.000000  0.000000  0.000000  1
  Tm  Tm1  1  0.703113  0.703113  0.000000  1
  Tm  Tm2  1  0.296887  0.296887  0.000000  1
  Ga  Ga3  1  0.305533  0.658328  0.647205  1
  Ga  Ga4  1  0.500000  0.000000  0.500000  1
  Ga  Ga5  1  0.694467  0.341672  0.352795  1
  Ga  Ga6  1  0.988878  0.341672  0.647205  1
  Ga  Ga7  1  0.011122  0.658328  0.352795  1
  Cu  Cu8  1  0.325870  0.500000  0.825870  1
  Cu  Cu9  1  0.674130  0.500000  0.174130  1
  Cu  Cu10  1  0.415066  0.132905  0.282159  1
  Cu  Cu11  1  0.850746  0.132905  0.717841  1
  Cu  Cu12  1  0.149254  0.867095  0.282159  1
  Cu  Cu13  1  0.584934  0.867095  0.717841  1
