# generated using pymatgen
data_Hf8Nb2Sn6C
_symmetry_space_group_name_H-M   'P 1'
_cell_length_a   8.38019200
_cell_length_b   8.38019223
_cell_length_c   5.67138900
_cell_angle_alpha   90.00000000
_cell_angle_beta   90.00000000
_cell_angle_gamma   119.99999121
_symmetry_Int_Tables_number   1
_chemical_formula_structural   Hf8Nb2Sn6C
_chemical_formula_sum   'Hf8 Nb2 Sn6 C1'
_cell_volume   344.92768714
_cell_formula_units_Z   1
loop_
 _symmetry_equiv_pos_site_id
 _symmetry_equiv_pos_as_xyz
  1  'x, y, z'
loop_
 _atom_site_type_symbol
 _atom_site_label
 _atom_site_symmetry_multiplicity
 _atom_site_fract_x
 _atom_site_fract_y
 _atom_site_fract_z
 _atom_site_occupancy
  Hf  Hf0  1  0.000000  0.769914  0.260650  1
  Hf  Hf1  1  0.230086  0.230086  0.260650  1
  Hf  Hf2  1  0.769914  0.000000  0.260650  1
  Hf  Hf3  1  0.000000  0.230086  0.739350  1
  Hf  Hf4  1  0.769914  0.769914  0.739350  1
  Hf  Hf5  1  0.230086  0.000000  0.739350  1
  Hf  Hf6  1  0.333333  0.666667  0.000000  1
  Hf  Hf7  1  0.666667  0.333333  0.000000  1
  Nb  Nb8  1  0.666667  0.333333  0.500000  1
  Nb  Nb9  1  0.333333  0.666667  0.500000  1
  Sn  Sn10  1  0.000000  0.400962  0.251281  1
  Sn  Sn11  1  0.599038  0.599038  0.251281  1
  Sn  Sn12  1  0.400962  0.000000  0.251281  1
  Sn  Sn13  1  0.000000  0.599038  0.748719  1
  Sn  Sn14  1  0.400962  0.400962  0.748719  1
  Sn  Sn15  1  0.599038  0.000000  0.748719  1
  C  C16  1  0.000000  0.000000  0.500000  1
