# generated using pymatgen
data_Nd3MgCd2IrAu2
_symmetry_space_group_name_H-M   'P 1'
_cell_length_a   7.86765737
_cell_length_b   7.95845975
_cell_length_c   3.97405100
_cell_angle_alpha   90.00000000
_cell_angle_beta   90.00000000
_cell_angle_gamma   119.74647652
_symmetry_Int_Tables_number   1
_chemical_formula_structural   Nd3MgCd2IrAu2
_chemical_formula_sum   'Nd3 Mg1 Cd2 Ir1 Au2'
_cell_volume   216.04407052
_cell_formula_units_Z   1
loop_
 _symmetry_equiv_pos_site_id
 _symmetry_equiv_pos_as_xyz
  1  'x, y, z'
loop_
 _atom_site_type_symbol
 _atom_site_label
 _atom_site_symmetry_multiplicity
 _atom_site_fract_x
 _atom_site_fract_y
 _atom_site_fract_z
 _atom_site_occupancy
  Nd  Nd0  1  0.585276  0.977333  0.000000  1
  Nd  Nd1  1  0.016992  0.596311  0.000000  1
  Nd  Nd2  1  0.398950  0.428186  0.000000  1
  Mg  Mg3  1  0.253838  0.999059  0.500000  1
  Cd  Cd4  1  0.999300  0.257955  0.500000  1
  Cd  Cd5  1  0.744394  0.741137  0.500000  1
  Ir  Ir6  1  0.331241  0.674979  0.500000  1
  Au  Au7  1  0.654535  0.323662  0.500000  1
  Au  Au8  1  0.015475  0.001377  0.000000  1
