# generated using pymatgen
data_Dy2Er4Lu6Co5Bi
_symmetry_space_group_name_H-M   'P 1'
_cell_length_a   8.20157471
_cell_length_b   8.20157413
_cell_length_c   8.18048727
_cell_angle_alpha   110.81357069
_cell_angle_beta   111.01112926
_cell_angle_gamma   106.73573235
_symmetry_Int_Tables_number   1
_chemical_formula_structural   Dy2Er4Lu6Co5Bi
_chemical_formula_sum   'Dy2 Er4 Lu6 Co5 Bi1'
_cell_volume   422.27092551
_cell_formula_units_Z   1
loop_
 _symmetry_equiv_pos_site_id
 _symmetry_equiv_pos_as_xyz
  1  'x, y, z'
loop_
 _atom_site_type_symbol
 _atom_site_label
 _atom_site_symmetry_multiplicity
 _atom_site_fract_x
 _atom_site_fract_y
 _atom_site_fract_z
 _atom_site_occupancy
  Dy  Dy0  1  0.286206  0.182816  0.469022  1
  Dy  Dy1  1  0.713794  0.817184  0.530978  1
  Er  Er2  1  0.209617  0.406615  0.194252  1
  Er  Er3  1  0.790383  0.593385  0.805748  1
  Er  Er4  1  0.212363  0.015365  0.805748  1
  Er  Er5  1  0.787637  0.984635  0.194252  1
  Lu  Lu6  1  0.285627  0.816776  0.102403  1
  Lu  Lu7  1  0.714373  0.183224  0.897597  1
  Lu  Lu8  1  0.623052  0.311897  0.309047  1
  Lu  Lu9  1  0.376948  0.688103  0.690953  1
  Lu  Lu10  1  0.002851  0.314006  0.690953  1
  Lu  Lu11  1  0.997149  0.685994  0.309047  1
  Co  Co12  1  0.998732  0.374164  0.372896  1
  Co  Co13  1  0.001268  0.625836  0.627104  1
  Co  Co14  1  0.387719  0.887719  0.500000  1
  Co  Co15  1  0.612281  0.112281  0.500000  1
  Co  Co16  1  0.000000  0.000000  0.000000  1
  Bi  Bi17  1  0.500000  0.500000  0.000000  1
