# generated using pymatgen
data_Dy5YMnFeB14
_symmetry_space_group_name_H-M   'P 1'
_cell_length_a   8.04064406
_cell_length_b   8.04064300
_cell_length_c   9.29508000
_cell_angle_alpha   90.00000000
_cell_angle_beta   90.00000000
_cell_angle_gamma   155.32091372
_symmetry_Int_Tables_number   1
_chemical_formula_structural   Dy5YMnFeB14
_chemical_formula_sum   'Dy5 Y1 Mn1 Fe1 B14'
_cell_volume   250.91584173
_cell_formula_units_Z   1
loop_
 _symmetry_equiv_pos_site_id
 _symmetry_equiv_pos_as_xyz
  1  'x, y, z'
loop_
 _atom_site_type_symbol
 _atom_site_label
 _atom_site_symmetry_multiplicity
 _atom_site_fract_x
 _atom_site_fract_y
 _atom_site_fract_z
 _atom_site_occupancy
  Dy  Dy0  1  0.758413  0.241587  0.250000  1
  Dy  Dy1  1  0.895508  0.104492  0.559730  1
  Dy  Dy2  1  0.104495  0.895505  0.438505  1
  Dy  Dy3  1  0.104495  0.895505  0.061495  1
  Dy  Dy4  1  0.895508  0.104492  0.940270  1
  Y  Y5  1  0.242278  0.757722  0.750000  1
  Mn  Mn6  1  0.946447  0.053553  0.250000  1
  Fe  Fe7  1  0.054327  0.945673  0.750000  1
  B  B8  1  0.540066  0.459934  0.250000  1
  B  B9  1  0.460525  0.539475  0.750000  1
  B  B10  1  0.521721  0.478279  0.901525  1
  B  B11  1  0.478205  0.521795  0.098570  1
  B  B12  1  0.478205  0.521795  0.401430  1
  B  B13  1  0.521721  0.478279  0.598475  1
  B  B14  1  0.629746  0.370254  0.846837  1
  B  B15  1  0.369743  0.630257  0.153192  1
  B  B16  1  0.727282  0.272718  0.966605  1
  B  B17  1  0.272275  0.727725  0.032589  1
  B  B18  1  0.272275  0.727725  0.467411  1
  B  B19  1  0.727282  0.272718  0.533395  1
  B  B20  1  0.629746  0.370254  0.653163  1
  B  B21  1  0.369743  0.630257  0.346808  1
