# generated using pymatgen
data_Lu6Al24Fe7Au
_symmetry_space_group_name_H-M   'P 1'
_cell_length_a   8.69865221
_cell_length_b   8.69865292
_cell_length_c   9.33387400
_cell_angle_alpha   90.06273214
_cell_angle_beta   89.93726785
_cell_angle_gamma   119.93645456
_symmetry_Int_Tables_number   1
_chemical_formula_structural   Lu6Al24Fe7Au
_chemical_formula_sum   'Lu6 Al24 Fe7 Au1'
_cell_volume   612.03170770
_cell_formula_units_Z   1
loop_
 _symmetry_equiv_pos_site_id
 _symmetry_equiv_pos_as_xyz
  1  'x, y, z'
loop_
 _atom_site_type_symbol
 _atom_site_label
 _atom_site_symmetry_multiplicity
 _atom_site_fract_x
 _atom_site_fract_y
 _atom_site_fract_z
 _atom_site_occupancy
  Lu  Lu0  1  0.192678  0.388744  0.251629  1
  Lu  Lu1  1  0.807322  0.611256  0.748371  1
  Lu  Lu2  1  0.611256  0.807322  0.251629  1
  Lu  Lu3  1  0.388744  0.192678  0.748371  1
  Lu  Lu4  1  0.195437  0.804563  0.255311  1
  Lu  Lu5  1  0.804563  0.195437  0.744689  1
  Al  Al6  1  0.324936  0.675064  0.016284  1
  Al  Al7  1  0.675064  0.324936  0.983716  1
  Al  Al8  1  0.666202  0.333798  0.516324  1
  Al  Al9  1  0.333798  0.666202  0.483676  1
  Al  Al10  1  0.160888  0.322051  0.574021  1
  Al  Al11  1  0.839112  0.677949  0.425979  1
  Al  Al12  1  0.677949  0.839112  0.574021  1
  Al  Al13  1  0.853661  0.682154  0.078161  1
  Al  Al14  1  0.322051  0.160888  0.425979  1
  Al  Al15  1  0.146339  0.317846  0.921839  1
  Al  Al16  1  0.161900  0.838100  0.575573  1
  Al  Al17  1  0.317846  0.146339  0.078161  1
  Al  Al18  1  0.838100  0.161900  0.424427  1
  Al  Al19  1  0.682154  0.853661  0.921839  1
  Al  Al20  1  0.839575  0.160425  0.077181  1
  Al  Al21  1  0.160425  0.839575  0.922819  1
  Al  Al22  1  0.557821  0.115998  0.249484  1
  Al  Al23  1  0.442179  0.884002  0.750516  1
  Al  Al24  1  0.884002  0.442179  0.249484  1
  Al  Al25  1  0.115998  0.557821  0.750516  1
  Al  Al26  1  0.562259  0.437741  0.261735  1
  Al  Al27  1  0.437741  0.562259  0.738265  1
  Al  Al28  1  0.999727  0.000273  0.250466  1
  Al  Al29  1  0.000273  0.999727  0.749534  1
  Fe  Fe30  1  0.500000  0.000000  0.000000  1
  Fe  Fe31  1  0.000000  0.500000  0.000000  1
  Fe  Fe32  1  0.500000  0.000000  0.500000  1
  Fe  Fe33  1  0.000000  0.500000  0.500000  1
  Fe  Fe34  1  0.500000  0.500000  0.500000  1
  Fe  Fe35  1  0.000000  0.000000  0.000000  1
  Fe  Fe36  1  0.000000  0.000000  0.500000  1
  Au  Au37  1  0.500000  0.500000  0.000000  1
