# generated using pymatgen
data_Tb3Lu7(SiSb)4
_symmetry_space_group_name_H-M   'P 1'
_cell_length_a   8.28800442
_cell_length_b   8.52299555
_cell_length_c   7.74517995
_cell_angle_alpha   89.93430206
_cell_angle_beta   89.74840902
_cell_angle_gamma   125.32656436
_symmetry_Int_Tables_number   1
_chemical_formula_structural   Tb3Lu7(SiSb)4
_chemical_formula_sum   'Tb3 Lu7 Si4 Sb4'
_cell_volume   446.36062142
_cell_formula_units_Z   1
loop_
 _symmetry_equiv_pos_site_id
 _symmetry_equiv_pos_as_xyz
  1  'x, y, z'
loop_
 _atom_site_type_symbol
 _atom_site_label
 _atom_site_symmetry_multiplicity
 _atom_site_fract_x
 _atom_site_fract_y
 _atom_site_fract_z
 _atom_site_occupancy
  Tb  Tb0  1  0.194137  0.452900  0.830400  1
  Tb  Tb1  1  0.695103  0.954236  0.670385  1
  Tb  Tb2  1  0.308994  0.047123  0.329199  1
  Lu  Lu3  1  0.037619  0.281323  0.336118  1
  Lu  Lu4  1  0.964813  0.720178  0.663084  1
  Lu  Lu5  1  0.462799  0.218094  0.835740  1
  Lu  Lu6  1  0.798963  0.546845  0.167295  1
  Lu  Lu7  1  0.536488  0.780232  0.163886  1
  Lu  Lu8  1  0.998892  0.999099  0.000645  1
  Lu  Lu9  1  0.501314  0.500293  0.499706  1
  Si  Si10  1  0.369501  0.369527  0.129901  1
  Si  Si11  1  0.632230  0.630378  0.870517  1
  Si  Si12  1  0.133011  0.131425  0.630544  1
  Si  Si13  1  0.868690  0.866928  0.367296  1
  Sb  Sb14  1  0.779336  0.196308  0.018623  1
  Sb  Sb15  1  0.212593  0.800688  0.987878  1
  Sb  Sb16  1  0.721449  0.309442  0.512779  1
  Sb  Sb17  1  0.284068  0.694983  0.486002  1
