# generated using pymatgen
data_HfZr5CoCl15
_symmetry_space_group_name_H-M   'P 1'
_cell_length_a   8.99482787
_cell_length_b   8.99482786
_cell_length_c   8.99482775
_cell_angle_alpha   109.49455556
_cell_angle_beta   109.49455216
_cell_angle_gamma   109.42456115
_symmetry_Int_Tables_number   1
_chemical_formula_structural   HfZr5CoCl15
_chemical_formula_sum   'Hf1 Zr5 Co1 Cl15'
_cell_volume   560.21724565
_cell_formula_units_Z   1
loop_
 _symmetry_equiv_pos_site_id
 _symmetry_equiv_pos_as_xyz
  1  'x, y, z'
loop_
 _atom_site_type_symbol
 _atom_site_label
 _atom_site_symmetry_multiplicity
 _atom_site_fract_x
 _atom_site_fract_y
 _atom_site_fract_z
 _atom_site_occupancy
  Hf  Hf0  1  0.238038  0.238038  0.000000  1
  Zr  Zr1  1  0.761512  0.761512  0.000000  1
  Zr  Zr2  1  0.762338  0.000051  0.762287  1
  Zr  Zr3  1  0.000051  0.762338  0.762287  1
  Zr  Zr4  1  0.000051  0.237764  0.237713  1
  Zr  Zr5  1  0.237764  0.000051  0.237713  1
  Co  Co6  1  0.998064  0.998064  0.000000  1
  Cl  Cl7  1  0.754159  0.508096  0.753937  1
  Cl  Cl8  1  0.492527  0.492527  0.000000  1
  Cl  Cl9  1  0.000444  0.500444  0.500000  1
  Cl  Cl10  1  0.500444  0.000444  0.500000  1
  Cl  Cl11  1  0.247629  0.005933  0.758304  1
  Cl  Cl12  1  0.005933  0.247629  0.758304  1
  Cl  Cl13  1  0.754159  0.000222  0.246063  1
  Cl  Cl14  1  0.508096  0.754159  0.753937  1
  Cl  Cl15  1  0.000222  0.754159  0.246063  1
  Cl  Cl16  1  0.246272  0.246272  0.491737  1
  Cl  Cl17  1  0.754534  0.246272  0.000000  1
  Cl  Cl18  1  0.489325  0.247629  0.241696  1
  Cl  Cl19  1  0.247629  0.489325  0.241696  1
  Cl  Cl20  1  0.754534  0.754534  0.508263  1
  Cl  Cl21  1  0.246272  0.754534  0.000000  1
