# generated using pymatgen
data_TbYb3(Ir2O7)2
_symmetry_space_group_name_H-M   'P 1'
_cell_length_a   7.22322501
_cell_length_b   7.23001460
_cell_length_c   7.23001500
_cell_angle_alpha   60.00000275
_cell_angle_beta   59.96890402
_cell_angle_gamma   59.96890649
_symmetry_Int_Tables_number   1
_chemical_formula_structural   TbYb3(Ir2O7)2
_chemical_formula_sum   'Tb1 Yb3 Ir4 O14'
_cell_volume   266.86415920
_cell_formula_units_Z   1
loop_
 _symmetry_equiv_pos_site_id
 _symmetry_equiv_pos_as_xyz
  1  'x, y, z'
loop_
 _atom_site_type_symbol
 _atom_site_label
 _atom_site_symmetry_multiplicity
 _atom_site_fract_x
 _atom_site_fract_y
 _atom_site_fract_z
 _atom_site_occupancy
  Tb  Tb0  1  0.125000  0.625000  0.625000  1
  Yb  Yb1  1  0.625000  0.625000  0.125000  1
  Yb  Yb2  1  0.625000  0.625000  0.625000  1
  Yb  Yb3  1  0.625000  0.125000  0.625000  1
  Ir  Ir4  1  0.125000  0.125000  0.125000  1
  Ir  Ir5  1  0.625000  0.125000  0.125000  1
  Ir  Ir6  1  0.125000  0.625000  0.125000  1
  Ir  Ir7  1  0.125000  0.125000  0.625000  1
  O  O8  1  0.048783  0.454349  0.454349  1
  O  O9  1  0.797338  0.797230  0.202716  1
  O  O10  1  0.797338  0.202716  0.202716  1
  O  O11  1  0.452662  0.047284  0.452770  1
  O  O12  1  0.048783  0.454349  0.042519  1
  O  O13  1  0.755514  0.748162  0.748162  1
  O  O14  1  0.048783  0.042519  0.454349  1
  O  O15  1  0.201217  0.795651  0.207481  1
  O  O16  1  0.201217  0.207481  0.795651  1
  O  O17  1  0.494486  0.501838  0.501838  1
  O  O18  1  0.797338  0.202716  0.797230  1
  O  O19  1  0.452662  0.047284  0.047284  1
  O  O20  1  0.452662  0.452770  0.047284  1
  O  O21  1  0.201217  0.795651  0.795651  1
