# generated using pymatgen
data_Sc6Co5Sn6Ru7
_symmetry_space_group_name_H-M   'P 1'
_cell_length_a   4.47733800
_cell_length_b   6.38285717
_cell_length_c   13.38754851
_cell_angle_alpha   90.06970377
_cell_angle_beta   89.99994006
_cell_angle_gamma   90.00042154
_symmetry_Int_Tables_number   1
_chemical_formula_structural   Sc6Co5Sn6Ru7
_chemical_formula_sum   'Sc6 Co5 Sn6 Ru7'
_cell_volume   382.59187530
_cell_formula_units_Z   1
loop_
 _symmetry_equiv_pos_site_id
 _symmetry_equiv_pos_as_xyz
  1  'x, y, z'
loop_
 _atom_site_type_symbol
 _atom_site_label
 _atom_site_symmetry_multiplicity
 _atom_site_fract_x
 _atom_site_fract_y
 _atom_site_fract_z
 _atom_site_occupancy
  Sc  Sc0  1  0.000026  0.999872  0.003744  1
  Sc  Sc1  1  0.499897  0.499482  0.164279  1
  Sc  Sc2  1  0.999888  0.001537  0.329155  1
  Sc  Sc3  1  0.499972  0.499742  0.498248  1
  Sc  Sc4  1  0.000151  0.999369  0.667265  1
  Sc  Sc5  1  0.500104  0.500340  0.837210  1
  Co  Co6  1  0.500046  0.249554  0.004676  1
  Co  Co7  1  0.500021  0.750950  0.005154  1
  Co  Co8  1  0.999901  0.251461  0.164936  1
  Co  Co9  1  0.999921  0.749065  0.164842  1
  Co  Co10  1  0.499913  0.250006  0.326761  1
  Sn  Sn11  1  0.000008  0.500653  0.004643  1
  Sn  Sn12  1  0.499976  0.002769  0.164048  1
  Sn  Sn13  1  0.999951  0.496084  0.328343  1
  Sn  Sn14  1  0.499988  0.000224  0.497733  1
  Sn  Sn15  1  0.000038  0.500584  0.667411  1
  Sn  Sn16  1  0.500047  0.000010  0.838046  1
  Ru  Ru17  1  0.499941  0.749636  0.326453  1
  Ru  Ru18  1  0.999981  0.248515  0.495407  1
  Ru  Ru19  1  0.999977  0.750160  0.495127  1
  Ru  Ru20  1  0.500109  0.250940  0.668220  1
  Ru  Ru21  1  0.500026  0.748764  0.668393  1
  Ru  Ru22  1  0.000065  0.249212  0.839848  1
  Ru  Ru23  1  0.000050  0.751077  0.840058  1
