# generated using pymatgen
data_Li2Sm4Co17P12Ru
_symmetry_space_group_name_H-M   'P 1'
_cell_length_a   3.71790600
_cell_length_b   10.39663273
_cell_length_c   11.91306973
_cell_angle_alpha   90.13669839
_cell_angle_beta   90.00000000
_cell_angle_gamma   90.00000000
_symmetry_Int_Tables_number   1
_chemical_formula_structural   Li2Sm4Co17P12Ru
_chemical_formula_sum   'Li2 Sm4 Co17 P12 Ru1'
_cell_volume   460.48295108
_cell_formula_units_Z   1
loop_
 _symmetry_equiv_pos_site_id
 _symmetry_equiv_pos_as_xyz
  1  'x, y, z'
loop_
 _atom_site_type_symbol
 _atom_site_label
 _atom_site_symmetry_multiplicity
 _atom_site_fract_x
 _atom_site_fract_y
 _atom_site_fract_z
 _atom_site_occupancy
  Li  Li0  1  0.250000  0.701641  0.991550  1
  Li  Li1  1  0.250000  0.798280  0.491028  1
  Sm  Sm2  1  0.250000  0.581199  0.700628  1
  Sm  Sm3  1  0.250000  0.917143  0.203140  1
  Sm  Sm4  1  0.750000  0.417708  0.296713  1
  Sm  Sm5  1  0.750000  0.080539  0.798860  1
  Co  Co6  1  0.750000  0.210166  0.509064  1
  Co  Co7  1  0.250000  0.401848  0.488325  1
  Co  Co8  1  0.250000  0.095659  0.990232  1
  Co  Co9  1  0.750000  0.589054  0.511515  1
  Co  Co10  1  0.750000  0.910198  0.013169  1
  Co  Co11  1  0.250000  0.222569  0.174569  1
  Co  Co12  1  0.250000  0.275925  0.674381  1
  Co  Co13  1  0.750000  0.781643  0.825962  1
  Co  Co14  1  0.750000  0.719495  0.327022  1
  Co  Co15  1  0.250000  0.883009  0.697523  1
  Co  Co16  1  0.250000  0.617644  0.199118  1
  Co  Co17  1  0.750000  0.119617  0.301179  1
  Co  Co18  1  0.750000  0.382598  0.797585  1
  Co  Co19  1  0.250000  0.465130  0.930650  1
  Co  Co20  1  0.250000  0.035602  0.432185  1
  Co  Co21  1  0.750000  0.535472  0.065367  1
  Co  Co22  1  0.750000  0.968742  0.565675  1
  P  P23  1  0.250000  0.423521  0.110664  1
  P  P24  1  0.250000  0.078451  0.610590  1
  P  P25  1  0.750000  0.579866  0.885340  1
  P  P26  1  0.750000  0.922170  0.386146  1
  P  P27  1  0.250000  0.272007  0.865069  1
  P  P28  1  0.250000  0.228237  0.367334  1
  P  P29  1  0.750000  0.725892  0.139187  1
  P  P30  1  0.750000  0.775749  0.638959  1
  P  P31  1  0.250000  0.601840  0.394366  1
  P  P32  1  0.250000  0.896434  0.894705  1
  P  P33  1  0.750000  0.394311  0.604755  1
  P  P34  1  0.750000  0.100500  0.108753  1
  Ru  Ru35  1  0.750000  0.290143  0.008694  1
