# generated using pymatgen
data_Pr2HoTm3(IrO7)2
_symmetry_space_group_name_H-M   'P 1'
_cell_length_a   6.43117608
_cell_length_b   6.43597380
_cell_length_c   7.47691200
_cell_angle_alpha   90.00000000
_cell_angle_beta   90.00000000
_cell_angle_gamma   109.51451349
_symmetry_Int_Tables_number   1
_chemical_formula_structural   Pr2HoTm3(IrO7)2
_chemical_formula_sum   'Pr2 Ho1 Tm3 Ir2 O14'
_cell_volume   291.69871537
_cell_formula_units_Z   1
loop_
 _symmetry_equiv_pos_site_id
 _symmetry_equiv_pos_as_xyz
  1  'x, y, z'
loop_
 _atom_site_type_symbol
 _atom_site_label
 _atom_site_symmetry_multiplicity
 _atom_site_fract_x
 _atom_site_fract_y
 _atom_site_fract_z
 _atom_site_occupancy
  Pr  Pr0  1  0.998628  0.999075  0.999201  1
  Pr  Pr1  1  0.998628  0.999075  0.500799  1
  Ho  Ho2  1  0.060995  0.514907  0.250000  1
  Tm  Tm3  1  0.486709  0.940519  0.750000  1
  Tm  Tm4  1  0.513676  0.058637  0.250000  1
  Tm  Tm5  1  0.939262  0.487011  0.750000  1
  Ir  Ir6  1  0.498853  0.498796  0.999056  1
  Ir  Ir7  1  0.498853  0.498796  0.500944  1
  O  O8  1  0.597445  0.596639  0.750000  1
  O  O9  1  0.411585  0.407982  0.250000  1
  O  O10  1  0.836538  0.125928  0.750000  1
  O  O11  1  0.162710  0.878490  0.250000  1
  O  O12  1  0.125667  0.836773  0.750000  1
  O  O13  1  0.873968  0.161261  0.250000  1
  O  O14  1  0.440523  0.178027  0.965998  1
  O  O15  1  0.557967  0.820910  0.466663  1
  O  O16  1  0.178543  0.438718  0.963845  1
  O  O17  1  0.821208  0.560400  0.467872  1
  O  O18  1  0.440523  0.178027  0.534002  1
  O  O19  1  0.557967  0.820910  0.033337  1
  O  O20  1  0.821208  0.560400  0.032128  1
  O  O21  1  0.178543  0.438718  0.536155  1
