# generated using pymatgen
data_Rb5IrO6
_symmetry_space_group_name_H-M   'P 1'
_cell_length_a   6.72207361
_cell_length_b   6.72207229
_cell_length_c   6.54249405
_cell_angle_alpha   100.25574722
_cell_angle_beta   100.25575298
_cell_angle_gamma   119.67704467
_symmetry_Int_Tables_number   1
_chemical_formula_structural   Rb5IrO6
_chemical_formula_sum   'Rb5 Ir1 O6'
_cell_volume   240.18589405
_cell_formula_units_Z   1
loop_
 _symmetry_equiv_pos_site_id
 _symmetry_equiv_pos_as_xyz
  1  'x, y, z'
loop_
 _atom_site_type_symbol
 _atom_site_label
 _atom_site_symmetry_multiplicity
 _atom_site_fract_x
 _atom_site_fract_y
 _atom_site_fract_z
 _atom_site_occupancy
  Rb  Rb0  1  0.667238  0.332763  0.000000  1
  Rb  Rb1  1  0.332763  0.667238  0.000000  1
  Rb  Rb2  1  0.838538  0.161463  0.500000  1
  Rb  Rb3  1  0.500000  0.500000  0.500000  1
  Rb  Rb4  1  0.161463  0.838538  0.500000  1
  Ir  Ir5  1  0.000000  0.000000  0.000000  1
  O  O6  1  0.824826  0.824826  0.182878  1
  O  O7  1  0.299463  0.062026  0.186623  1
  O  O8  1  0.062026  0.299463  0.186623  1
  O  O9  1  0.937974  0.700537  0.813377  1
  O  O10  1  0.700537  0.937974  0.813377  1
  O  O11  1  0.175174  0.175174  0.817122  1
