# generated using pymatgen
data_Er5(MnTe)2
_symmetry_space_group_name_H-M   'P 1'
_cell_length_a   7.69403947
_cell_length_b   7.69403904
_cell_length_c   15.36210500
_cell_angle_alpha   90.00000000
_cell_angle_beta   90.00000000
_cell_angle_gamma   150.45486462
_symmetry_Int_Tables_number   1
_chemical_formula_structural   Er5(MnTe)2
_chemical_formula_sum   'Er10 Mn4 Te4'
_cell_volume   448.43808432
_cell_formula_units_Z   2
loop_
 _symmetry_equiv_pos_site_id
 _symmetry_equiv_pos_as_xyz
  1  'x, y, z'
loop_
 _atom_site_type_symbol
 _atom_site_label
 _atom_site_symmetry_multiplicity
 _atom_site_fract_x
 _atom_site_fract_y
 _atom_site_fract_z
 _atom_site_occupancy
  Er  Er0  1  0.961445  0.038555  0.113571  1
  Er  Er1  1  0.038555  0.961445  0.886429  1
  Er  Er2  1  0.038555  0.961445  0.613571  1
  Er  Er3  1  0.961445  0.038555  0.386429  1
  Er  Er4  1  0.742321  0.257679  0.633681  1
  Er  Er5  1  0.257679  0.742321  0.366319  1
  Er  Er6  1  0.257679  0.742321  0.133681  1
  Er  Er7  1  0.742321  0.257679  0.866319  1
  Er  Er8  1  0.597706  0.402294  0.250000  1
  Er  Er9  1  0.402294  0.597706  0.750000  1
  Mn  Mn10  1  0.408710  0.591290  0.250000  1
  Mn  Mn11  1  0.591290  0.408710  0.750000  1
  Mn  Mn12  1  0.840321  0.159679  0.250000  1
  Mn  Mn13  1  0.159679  0.840321  0.750000  1
  Te  Te14  1  0.620431  0.379569  0.040221  1
  Te  Te15  1  0.379569  0.620431  0.959779  1
  Te  Te16  1  0.379569  0.620431  0.540221  1
  Te  Te17  1  0.620431  0.379569  0.459779  1
