# generated using pymatgen
data_Li6MgSb5Rh12
_symmetry_space_group_name_H-M   'P 1'
_cell_length_a   4.36383000
_cell_length_b   6.16934300
_cell_length_c   13.14664700
_cell_angle_alpha   90.00000000
_cell_angle_beta   90.00181681
_cell_angle_gamma   90.00000000
_symmetry_Int_Tables_number   1
_chemical_formula_structural   Li6MgSb5Rh12
_chemical_formula_sum   'Li6 Mg1 Sb5 Rh12'
_cell_volume   353.93355800
_cell_formula_units_Z   1
loop_
 _symmetry_equiv_pos_site_id
 _symmetry_equiv_pos_as_xyz
  1  'x, y, z'
loop_
 _atom_site_type_symbol
 _atom_site_label
 _atom_site_symmetry_multiplicity
 _atom_site_fract_x
 _atom_site_fract_y
 _atom_site_fract_z
 _atom_site_occupancy
  Li  Li0  1  0.000000  0.000000  0.000000  1
  Li  Li1  1  0.499654  0.500000  0.163738  1
  Li  Li2  1  0.999651  0.000000  0.332087  1
  Li  Li3  1  0.500000  0.500000  0.500000  1
  Li  Li4  1  0.000347  0.000000  0.667913  1
  Li  Li5  1  0.500346  0.500000  0.836261  1
  Mg  Mg6  1  0.000000  0.500000  0.000000  1
  Sb  Sb7  1  0.499711  0.000000  0.162196  1
  Sb  Sb8  1  0.999711  0.500000  0.330988  1
  Sb  Sb9  1  0.500000  0.000000  0.500000  1
  Sb  Sb10  1  0.000290  0.500000  0.669012  1
  Sb  Sb11  1  0.500287  0.000000  0.837804  1
  Rh  Rh12  1  0.500000  0.251346  0.000000  1
  Rh  Rh13  1  0.500000  0.748656  0.000000  1
  Rh  Rh14  1  0.999677  0.248490  0.169143  1
  Rh  Rh15  1  0.999677  0.751508  0.169143  1
  Rh  Rh16  1  0.499711  0.248295  0.333958  1
  Rh  Rh17  1  0.499711  0.751704  0.333958  1
  Rh  Rh18  1  0.000000  0.251569  0.500000  1
  Rh  Rh19  1  0.000000  0.748432  0.500000  1
  Rh  Rh20  1  0.500289  0.248295  0.666042  1
  Rh  Rh21  1  0.500289  0.751704  0.666042  1
  Rh  Rh22  1  0.000322  0.248490  0.830857  1
  Rh  Rh23  1  0.000322  0.751508  0.830857  1
