# generated using pymatgen
data_Sm2PPt8
_symmetry_space_group_name_H-M   'P 1'
_cell_length_a   9.13691501
_cell_length_b   9.13691360
_cell_length_c   4.31180000
_cell_angle_alpha   90.00000000
_cell_angle_beta   90.00000000
_cell_angle_gamma   145.47314866
_symmetry_Int_Tables_number   1
_chemical_formula_structural   Sm2PPt8
_chemical_formula_sum   'Sm2 P1 Pt8'
_cell_volume   204.02422060
_cell_formula_units_Z   1
loop_
 _symmetry_equiv_pos_site_id
 _symmetry_equiv_pos_as_xyz
  1  'x, y, z'
loop_
 _atom_site_type_symbol
 _atom_site_label
 _atom_site_symmetry_multiplicity
 _atom_site_fract_x
 _atom_site_fract_y
 _atom_site_fract_z
 _atom_site_occupancy
  Sm  Sm0  1  0.621137  0.372930  0.500000  1
  Sm  Sm1  1  0.372930  0.621137  0.500000  1
  P  P2  1  0.224534  0.224534  0.000000  1
  Pt  Pt3  1  0.110275  0.890399  0.000000  1
  Pt  Pt4  1  0.890399  0.110275  0.000000  1
  Pt  Pt5  1  0.488595  0.983152  0.000000  1
  Pt  Pt6  1  0.983152  0.488595  0.000000  1
  Pt  Pt7  1  0.194068  0.791796  0.500000  1
  Pt  Pt8  1  0.791796  0.194068  0.500000  1
  Pt  Pt9  1  0.004406  0.004406  0.500000  1
  Pt  Pt10  1  0.632309  0.632309  0.000000  1
