# generated using pymatgen
data_Dy4Y5Ho7(TlRh)4
_symmetry_space_group_name_H-M   'P 1'
_cell_length_a   9.66469306
_cell_length_b   9.66495030
_cell_length_c   9.67904559
_cell_angle_alpha   59.93060117
_cell_angle_beta   59.93697171
_cell_angle_gamma   59.98911652
_symmetry_Int_Tables_number   1
_chemical_formula_structural   Dy4Y5Ho7(TlRh)4
_chemical_formula_sum   'Dy4 Y5 Ho7 Tl4 Rh4'
_cell_volume   638.60775516
_cell_formula_units_Z   1
loop_
 _symmetry_equiv_pos_site_id
 _symmetry_equiv_pos_as_xyz
  1  'x, y, z'
loop_
 _atom_site_type_symbol
 _atom_site_label
 _atom_site_symmetry_multiplicity
 _atom_site_fract_x
 _atom_site_fract_y
 _atom_site_fract_z
 _atom_site_occupancy
  Dy  Dy0  1  0.147352  0.551497  0.148673  1
  Dy  Dy1  1  0.312195  0.688289  0.687705  1
  Dy  Dy2  1  0.688231  0.311831  0.687823  1
  Dy  Dy3  1  0.551540  0.147269  0.148678  1
  Y  Y4  1  0.311565  0.310981  0.689165  1
  Y  Y5  1  0.937836  0.560945  0.559820  1
  Y  Y6  1  0.559182  0.559426  0.939402  1
  Y  Y7  1  0.561362  0.937697  0.937966  1
  Y  Y8  1  0.937891  0.560951  0.938769  1
  Ho  Ho9  1  0.688770  0.311562  0.312184  1
  Ho  Ho10  1  0.687559  0.687728  0.312537  1
  Ho  Ho11  1  0.311988  0.688704  0.312074  1
  Ho  Ho12  1  0.938431  0.939062  0.559803  1
  Ho  Ho13  1  0.148603  0.148484  0.550096  1
  Ho  Ho14  1  0.560201  0.938697  0.559320  1
  Ho  Ho15  1  0.152113  0.152003  0.152631  1
  Tl  Tl16  1  0.915281  0.915664  0.257055  1
  Tl  Tl17  1  0.257045  0.915921  0.914897  1
  Tl  Tl18  1  0.915831  0.256928  0.915191  1
  Tl  Tl19  1  0.914384  0.914425  0.913612  1
  Rh  Rh20  1  0.357959  0.357257  0.355064  1
  Rh  Rh21  1  0.927473  0.357814  0.359050  1
  Rh  Rh22  1  0.359131  0.359248  0.929111  1
  Rh  Rh23  1  0.358078  0.927618  0.359370  1
