# generated using pymatgen
data_CeSb2O7
_symmetry_space_group_name_H-M   'P 1'
_cell_length_a   7.41187070
_cell_length_b   7.41187026
_cell_length_c   7.41187068
_cell_angle_alpha   120.01264261
_cell_angle_beta   120.08271363
_cell_angle_gamma   89.91744960
_symmetry_Int_Tables_number   1
_chemical_formula_structural   CeSb2O7
_chemical_formula_sum   'Ce2 Sb4 O14'
_cell_volume   287.70982790
_cell_formula_units_Z   2
loop_
 _symmetry_equiv_pos_site_id
 _symmetry_equiv_pos_as_xyz
  1  'x, y, z'
loop_
 _atom_site_type_symbol
 _atom_site_label
 _atom_site_symmetry_multiplicity
 _atom_site_fract_x
 _atom_site_fract_y
 _atom_site_fract_z
 _atom_site_occupancy
  Ce  Ce0  1  0.000000  0.000000  0.000000  1
  Ce  Ce1  1  0.500000  0.000000  0.500000  1
  Sb  Sb2  1  0.500000  0.500000  0.000000  1
  Sb  Sb3  1  0.000000  0.500000  0.500000  1
  Sb  Sb4  1  0.000000  0.500000  0.000000  1
  Sb  Sb5  1  0.000000  0.000000  0.500000  1
  O  O6  1  0.061829  0.411048  0.233616  1
  O  O7  1  0.061829  0.828214  0.650782  1
  O  O8  1  0.337493  0.087493  0.250000  1
  O  O9  1  0.677432  0.828214  0.266384  1
  O  O10  1  0.677432  0.411048  0.849218  1
  O  O11  1  0.682051  0.432051  0.250000  1
  O  O12  1  0.938171  0.588952  0.766384  1
  O  O13  1  0.938171  0.171786  0.349218  1
  O  O14  1  0.662507  0.912507  0.750000  1
  O  O15  1  0.322568  0.171786  0.733616  1
  O  O16  1  0.322568  0.588952  0.150782  1
  O  O17  1  0.317949  0.567949  0.750000  1
  O  O18  1  0.072806  0.822806  0.250000  1
  O  O19  1  0.927194  0.177194  0.750000  1
