# generated using pymatgen
data_CsTcOF6
_symmetry_space_group_name_H-M   'P 1'
_cell_length_a   7.22622300
_cell_length_b   8.17848938
_cell_length_c   10.91427584
_cell_angle_alpha   87.39878360
_cell_angle_beta   90.00000000
_cell_angle_gamma   90.00000000
_symmetry_Int_Tables_number   1
_chemical_formula_structural   CsTcOF6
_chemical_formula_sum   'Cs4 Tc4 O4 F24'
_cell_volume   644.36457249
_cell_formula_units_Z   4
loop_
 _symmetry_equiv_pos_site_id
 _symmetry_equiv_pos_as_xyz
  1  'x, y, z'
loop_
 _atom_site_type_symbol
 _atom_site_label
 _atom_site_symmetry_multiplicity
 _atom_site_fract_x
 _atom_site_fract_y
 _atom_site_fract_z
 _atom_site_occupancy
  Cs  Cs0  1  0.259117  0.218373  0.000393  1
  Cs  Cs1  1  0.740883  0.781627  0.999607  1
  Cs  Cs2  1  0.759117  0.781627  0.499607  1
  Cs  Cs3  1  0.240883  0.218373  0.500393  1
  Tc  Tc4  1  0.220148  0.717060  0.262857  1
  Tc  Tc5  1  0.279852  0.717060  0.762857  1
  Tc  Tc6  1  0.779852  0.282940  0.737143  1
  Tc  Tc7  1  0.720148  0.282940  0.237143  1
  O  O8  1  0.239220  0.578603  0.152878  1
  O  O9  1  0.760780  0.421397  0.847122  1
  O  O10  1  0.260780  0.578603  0.652878  1
  O  O11  1  0.739220  0.421397  0.347122  1
  F  F12  1  0.950962  0.730131  0.245860  1
  F  F13  1  0.450962  0.269869  0.254140  1
  F  F14  1  0.448170  0.828264  0.220499  1
  F  F15  1  0.661420  0.103412  0.352001  1
  F  F16  1  0.549038  0.730131  0.745860  1
  F  F17  1  0.161420  0.896588  0.147999  1
  F  F18  1  0.338580  0.896588  0.647999  1
  F  F19  1  0.914592  0.377598  0.134426  1
  F  F20  1  0.185538  0.872637  0.390988  1
  F  F21  1  0.049038  0.269869  0.754140  1
  F  F22  1  0.891390  0.440731  0.620488  1
  F  F23  1  0.414592  0.622402  0.365574  1
  F  F24  1  0.551830  0.171736  0.779501  1
  F  F25  1  0.838580  0.103412  0.852001  1
  F  F26  1  0.585408  0.377598  0.634426  1
  F  F27  1  0.108610  0.559269  0.379512  1
  F  F28  1  0.685538  0.127363  0.109012  1
  F  F29  1  0.051830  0.828264  0.720499  1
  F  F30  1  0.814462  0.127363  0.609012  1
  F  F31  1  0.391390  0.559269  0.879512  1
  F  F32  1  0.314462  0.872637  0.890988  1
  F  F33  1  0.085408  0.622402  0.865574  1
  F  F34  1  0.608610  0.440731  0.120488  1
  F  F35  1  0.948170  0.171736  0.279501  1
