# generated using pymatgen
data_Ca4Cd2InAu10
_symmetry_space_group_name_H-M   'P 1'
_cell_length_a   8.66076935
_cell_length_b   8.65749122
_cell_length_c   10.22179300
_cell_angle_alpha   89.95752530
_cell_angle_beta   90.11794878
_cell_angle_gamma   108.93573570
_symmetry_Int_Tables_number   1
_chemical_formula_structural   Ca4Cd2InAu10
_chemical_formula_sum   'Ca8 Cd4 In2 Au20'
_cell_volume   724.95688671
_cell_formula_units_Z   2
loop_
 _symmetry_equiv_pos_site_id
 _symmetry_equiv_pos_as_xyz
  1  'x, y, z'
loop_
 _atom_site_type_symbol
 _atom_site_label
 _atom_site_symmetry_multiplicity
 _atom_site_fract_x
 _atom_site_fract_y
 _atom_site_fract_z
 _atom_site_occupancy
  Ca  Ca0  1  0.697653  0.302116  0.000121  1
  Ca  Ca1  1  0.196542  0.801806  0.499496  1
  Ca  Ca2  1  0.803902  0.804400  0.297871  1
  Ca  Ca3  1  0.302259  0.301585  0.200121  1
  Ca  Ca4  1  0.802093  0.197363  0.499894  1
  Ca  Ca5  1  0.301898  0.696946  0.000321  1
  Ca  Ca6  1  0.699099  0.697547  0.800209  1
  Ca  Ca7  1  0.195424  0.197018  0.701970  1
  Cd  Cd8  1  0.522674  0.022249  0.249773  1
  Cd  Cd9  1  0.978628  0.478052  0.750087  1
  Cd  Cd10  1  0.000385  0.000238  0.000830  1
  Cd  Cd11  1  0.021738  0.522100  0.249614  1
  In  In12  1  0.480168  0.980101  0.750797  1
  In  In13  1  0.500157  0.499940  0.499019  1
  Au  Au14  1  0.148646  0.433215  0.487282  1
  Au  Au15  1  0.901378  0.901387  0.596730  1
  Au  Au16  1  0.565954  0.850702  0.514124  1
  Au  Au17  1  0.880756  0.167258  0.207319  1
  Au  Au18  1  0.381727  0.667541  0.291495  1
  Au  Au19  1  0.665081  0.380227  0.292156  1
  Au  Au20  1  0.401640  0.401713  0.902967  1
  Au  Au21  1  0.934177  0.650873  0.013760  1
  Au  Au22  1  0.335375  0.618792  0.708597  1
  Au  Au23  1  0.349294  0.065428  0.985200  1
  Au  Au24  1  0.598290  0.597888  0.097862  1
  Au  Au25  1  0.649877  0.932235  0.013499  1
  Au  Au26  1  0.098049  0.098365  0.402422  1
  Au  Au27  1  0.618370  0.335149  0.708008  1
  Au  Au28  1  0.118023  0.833419  0.791777  1
  Au  Au29  1  0.066261  0.348761  0.985613  1
  Au  Au30  1  0.850574  0.566826  0.513215  1
  Au  Au31  1  0.169877  0.882628  0.207959  1
  Au  Au32  1  0.431163  0.147789  0.487519  1
  Au  Au33  1  0.832870  0.118343  0.792374  1
