# generated using pymatgen
data_U4TaNb5Si8
_symmetry_space_group_name_H-M   'P 1'
_cell_length_a   7.04777405
_cell_length_b   6.89066914
_cell_length_c   7.04818889
_cell_angle_alpha   70.36476420
_cell_angle_beta   89.91660766
_cell_angle_gamma   89.99701492
_symmetry_Int_Tables_number   1
_chemical_formula_structural   U4TaNb5Si8
_chemical_formula_sum   'U4 Ta1 Nb5 Si8'
_cell_volume   322.38334031
_cell_formula_units_Z   1
loop_
 _symmetry_equiv_pos_site_id
 _symmetry_equiv_pos_as_xyz
  1  'x, y, z'
loop_
 _atom_site_type_symbol
 _atom_site_label
 _atom_site_symmetry_multiplicity
 _atom_site_fract_x
 _atom_site_fract_y
 _atom_site_fract_z
 _atom_site_occupancy
  U  U0  1  0.665085  0.438184  0.183058  1
  U  U1  1  0.165107  0.061345  0.817079  1
  U  U2  1  0.334915  0.561816  0.816942  1
  U  U3  1  0.834893  0.938655  0.182921  1
  Ta  Ta4  1  0.000000  0.500000  0.500000  1
  Nb  Nb5  1  0.675444  0.248439  0.749113  1
  Nb  Nb6  1  0.174794  0.252237  0.250439  1
  Nb  Nb7  1  0.500000  0.000000  0.500000  1
  Nb  Nb8  1  0.324556  0.751561  0.250887  1
  Nb  Nb9  1  0.825206  0.747763  0.749561  1
  Si  Si10  1  0.872925  0.130423  0.492631  1
  Si  Si11  1  0.372052  0.370062  0.507458  1
  Si  Si12  1  0.127075  0.869577  0.507369  1
  Si  Si13  1  0.627948  0.629938  0.492542  1
  Si  Si14  1  0.538735  0.866352  0.917899  1
  Si  Si15  1  0.038390  0.633511  0.082929  1
  Si  Si16  1  0.961610  0.366489  0.917071  1
  Si  Si17  1  0.461265  0.133648  0.082101  1
