# generated using pymatgen
data_CaTmZn2CoNi5B2
_symmetry_space_group_name_H-M   'P 1'
_cell_length_a   5.11776100
_cell_length_b   5.11776022
_cell_length_c   6.87583800
_cell_angle_alpha   90.00000000
_cell_angle_beta   90.00000000
_cell_angle_gamma   119.99998566
_symmetry_Int_Tables_number   1
_chemical_formula_structural   CaTmZn2CoNi5B2
_chemical_formula_sum   'Ca1 Tm1 Zn2 Co1 Ni5 B2'
_cell_volume   155.96109108
_cell_formula_units_Z   1
loop_
 _symmetry_equiv_pos_site_id
 _symmetry_equiv_pos_as_xyz
  1  'x, y, z'
loop_
 _atom_site_type_symbol
 _atom_site_label
 _atom_site_symmetry_multiplicity
 _atom_site_fract_x
 _atom_site_fract_y
 _atom_site_fract_z
 _atom_site_occupancy
  Ca  Ca0  1  0.000000  0.000000  0.998361  1
  Tm  Tm1  1  0.000000  0.000000  0.502321  1
  Zn  Zn2  1  0.665454  0.330908  0.999242  1
  Zn  Zn3  1  0.334546  0.669092  0.999242  1
  Co  Co4  1  0.500000  0.000000  0.695551  1
  Ni  Ni5  1  0.000000  0.500000  0.300967  1
  Ni  Ni6  1  0.500000  0.500000  0.300967  1
  Ni  Ni7  1  0.500000  0.500000  0.700018  1
  Ni  Ni8  1  0.000000  0.500000  0.700018  1
  Ni  Ni9  1  0.500000  0.000000  0.299536  1
  B  B10  1  0.664086  0.328172  0.501888  1
  B  B11  1  0.335914  0.671828  0.501888  1
