# generated using pymatgen
data_Np2SN2
_symmetry_space_group_name_H-M   'P 1'
_cell_length_a   3.80243800
_cell_length_b   3.80243945
_cell_length_c   6.50418700
_cell_angle_alpha   90.00000000
_cell_angle_beta   90.00000000
_cell_angle_gamma   120.00000479
_symmetry_Int_Tables_number   1
_chemical_formula_structural   Np2SN2
_chemical_formula_sum   'Np2 S1 N2'
_cell_volume   81.44193398
_cell_formula_units_Z   1
loop_
 _symmetry_equiv_pos_site_id
 _symmetry_equiv_pos_as_xyz
  1  'x, y, z'
loop_
 _atom_site_type_symbol
 _atom_site_label
 _atom_site_symmetry_multiplicity
 _atom_site_fract_x
 _atom_site_fract_y
 _atom_site_fract_z
 _atom_site_occupancy
  Np  Np0  1  0.666667  0.333333  0.715610  1
  Np  Np1  1  0.333333  0.666667  0.284390  1
  S  S2  1  0.000000  0.000000  0.000000  1
  N  N3  1  0.333333  0.666667  0.629289  1
  N  N4  1  0.666667  0.333333  0.370711  1
