# generated using pymatgen
data_LaPr6Nd9(CdPt)4
_symmetry_space_group_name_H-M   'P 1'
_cell_length_a   10.04975117
_cell_length_b   10.04975123
_cell_length_c   10.04975134
_cell_angle_alpha   60.16152765
_cell_angle_beta   60.16152751
_cell_angle_gamma   60.16152647
_symmetry_Int_Tables_number   1
_chemical_formula_structural   LaPr6Nd9(CdPt)4
_chemical_formula_sum   'La1 Pr6 Nd9 Cd4 Pt4'
_cell_volume   720.33894692
_cell_formula_units_Z   1
loop_
 _symmetry_equiv_pos_site_id
 _symmetry_equiv_pos_as_xyz
  1  'x, y, z'
loop_
 _atom_site_type_symbol
 _atom_site_label
 _atom_site_symmetry_multiplicity
 _atom_site_fract_x
 _atom_site_fract_y
 _atom_site_fract_z
 _atom_site_occupancy
  La  La0  1  0.348102  0.348102  0.348102  1
  Pr  Pr1  1  0.938404  0.563834  0.563834  1
  Pr  Pr2  1  0.563091  0.935378  0.935378  1
  Pr  Pr3  1  0.563834  0.938404  0.563834  1
  Pr  Pr4  1  0.935378  0.563091  0.935378  1
  Pr  Pr5  1  0.563834  0.563834  0.938404  1
  Pr  Pr6  1  0.935378  0.935378  0.563091  1
  Nd  Nd7  1  0.350600  0.350600  0.947687  1
  Nd  Nd8  1  0.350600  0.947687  0.350600  1
  Nd  Nd9  1  0.947687  0.350600  0.350600  1
  Nd  Nd10  1  0.810486  0.191192  0.191192  1
  Nd  Nd11  1  0.191537  0.808567  0.808567  1
  Nd  Nd12  1  0.191192  0.810486  0.191192  1
  Nd  Nd13  1  0.808567  0.191537  0.808567  1
  Nd  Nd14  1  0.191192  0.191192  0.810486  1
  Nd  Nd15  1  0.808567  0.808567  0.191537  1
  Cd  Cd16  1  0.580455  0.580455  0.580455  1
  Cd  Cd17  1  0.580891  0.580891  0.258833  1
  Cd  Cd18  1  0.580891  0.258833  0.580891  1
  Cd  Cd19  1  0.258833  0.580891  0.580891  1
  Pt  Pt20  1  0.143367  0.143367  0.143367  1
  Pt  Pt21  1  0.142358  0.142358  0.572400  1
  Pt  Pt22  1  0.142358  0.572400  0.142358  1
  Pt  Pt23  1  0.572400  0.142358  0.142358  1
