# generated using pymatgen
data_Y9ScIn3Ru
_symmetry_space_group_name_H-M   'P 1'
_cell_length_a   9.69234700
_cell_length_b   9.69234662
_cell_length_c   9.70585000
_cell_angle_alpha   90.00000000
_cell_angle_beta   90.00000000
_cell_angle_gamma   120.00000470
_symmetry_Int_Tables_number   1
_chemical_formula_structural   Y9ScIn3Ru
_chemical_formula_sum   'Y18 Sc2 In6 Ru2'
_cell_volume   789.62715951
_cell_formula_units_Z   2
loop_
 _symmetry_equiv_pos_site_id
 _symmetry_equiv_pos_as_xyz
  1  'x, y, z'
loop_
 _atom_site_type_symbol
 _atom_site_label
 _atom_site_symmetry_multiplicity
 _atom_site_fract_x
 _atom_site_fract_y
 _atom_site_fract_z
 _atom_site_occupancy
  Y  Y0  1  0.208226  0.791774  0.439599  1
  Y  Y1  1  0.208226  0.416453  0.439599  1
  Y  Y2  1  0.583547  0.791774  0.439599  1
  Y  Y3  1  0.791774  0.208226  0.560401  1
  Y  Y4  1  0.791774  0.583547  0.560401  1
  Y  Y5  1  0.416453  0.208226  0.560401  1
  Y  Y6  1  0.791774  0.208226  0.939599  1
  Y  Y7  1  0.791774  0.583547  0.939599  1
  Y  Y8  1  0.416453  0.208226  0.939599  1
  Y  Y9  1  0.208226  0.791774  0.060401  1
  Y  Y10  1  0.208226  0.416453  0.060401  1
  Y  Y11  1  0.583547  0.791774  0.060401  1
  Y  Y12  1  0.539783  0.460217  0.250000  1
  Y  Y13  1  0.539783  0.079566  0.250000  1
  Y  Y14  1  0.920434  0.460217  0.250000  1
  Y  Y15  1  0.460217  0.539783  0.750000  1
  Y  Y16  1  0.460217  0.920434  0.750000  1
  Y  Y17  1  0.079566  0.539783  0.750000  1
  Sc  Sc18  1  0.000000  0.000000  0.500000  1
  Sc  Sc19  1  0.000000  0.000000  0.000000  1
  In  In20  1  0.888007  0.111993  0.250000  1
  In  In21  1  0.888007  0.776017  0.250000  1
  In  In22  1  0.223983  0.111993  0.250000  1
  In  In23  1  0.111993  0.888007  0.750000  1
  In  In24  1  0.111993  0.223983  0.750000  1
  In  In25  1  0.776017  0.888007  0.750000  1
  Ru  Ru26  1  0.333333  0.666667  0.250000  1
  Ru  Ru27  1  0.666667  0.333333  0.750000  1
