# generated using pymatgen
data_La(EuB8)3
_symmetry_space_group_name_H-M   'P 1'
_cell_length_a   4.18388400
_cell_length_b   5.91595600
_cell_length_c   11.83871600
_cell_angle_alpha   90.00000000
_cell_angle_beta   90.00000000
_cell_angle_gamma   90.00000000
_symmetry_Int_Tables_number   1
_chemical_formula_structural   La(EuB8)3
_chemical_formula_sum   'La1 Eu3 B24'
_cell_volume   293.02803490
_cell_formula_units_Z   1
loop_
 _symmetry_equiv_pos_site_id
 _symmetry_equiv_pos_as_xyz
  1  'x, y, z'
loop_
 _atom_site_type_symbol
 _atom_site_label
 _atom_site_symmetry_multiplicity
 _atom_site_fract_x
 _atom_site_fract_y
 _atom_site_fract_z
 _atom_site_occupancy
  La  La0  1  0.000000  0.000000  0.000000  1
  Eu  Eu1  1  0.000000  0.500000  0.251039  1
  Eu  Eu2  1  0.000000  0.000000  0.500000  1
  Eu  Eu3  1  0.000000  0.500000  0.748961  1
  B  B4  1  0.201320  0.500000  0.500000  1
  B  B5  1  0.201198  0.000000  0.749877  1
  B  B6  1  0.201004  0.500000  0.000000  1
  B  B7  1  0.201198  0.000000  0.250123  1
  B  B8  1  0.500000  0.649249  0.574590  1
  B  B9  1  0.500000  0.149804  0.824401  1
  B  B10  1  0.500000  0.649198  0.075005  1
  B  B11  1  0.500000  0.149524  0.324751  1
  B  B12  1  0.500000  0.350751  0.574590  1
  B  B13  1  0.500000  0.850196  0.824401  1
  B  B14  1  0.500000  0.350802  0.075005  1
  B  B15  1  0.500000  0.850476  0.324751  1
  B  B16  1  0.500000  0.350751  0.425410  1
  B  B17  1  0.500000  0.850476  0.675249  1
  B  B18  1  0.500000  0.350802  0.924995  1
  B  B19  1  0.500000  0.850196  0.175599  1
  B  B20  1  0.500000  0.649249  0.425410  1
  B  B21  1  0.500000  0.149524  0.675249  1
  B  B22  1  0.500000  0.649198  0.924995  1
  B  B23  1  0.500000  0.149804  0.175599  1
  B  B24  1  0.798680  0.500000  0.500000  1
  B  B25  1  0.798802  0.000000  0.749877  1
  B  B26  1  0.798996  0.500000  0.000000  1
  B  B27  1  0.798802  0.000000  0.250123  1
