# generated using pymatgen
data_Pr8Y12Si15Pt
_symmetry_space_group_name_H-M   'P 1'
_cell_length_a   7.51848562
_cell_length_b   7.81933675
_cell_length_c   14.97750300
_cell_angle_alpha   90.00000000
_cell_angle_beta   90.00000000
_cell_angle_gamma   90.61839811
_symmetry_Int_Tables_number   1
_chemical_formula_structural   Pr8Y12Si15Pt
_chemical_formula_sum   'Pr8 Y12 Si15 Pt1'
_cell_volume   880.46968841
_cell_formula_units_Z   1
loop_
 _symmetry_equiv_pos_site_id
 _symmetry_equiv_pos_as_xyz
  1  'x, y, z'
loop_
 _atom_site_type_symbol
 _atom_site_label
 _atom_site_symmetry_multiplicity
 _atom_site_fract_x
 _atom_site_fract_y
 _atom_site_fract_z
 _atom_site_occupancy
  Pr  Pr0  1  0.021742  0.180864  0.401983  1
  Pr  Pr1  1  0.521074  0.322093  0.401908  1
  Pr  Pr2  1  0.480643  0.674191  0.906714  1
  Pr  Pr3  1  0.480643  0.674191  0.593286  1
  Pr  Pr4  1  0.979544  0.822745  0.595351  1
  Pr  Pr5  1  0.979544  0.822745  0.904649  1
  Pr  Pr6  1  0.521074  0.322093  0.098092  1
  Pr  Pr7  1  0.021742  0.180864  0.098017  1
  Y  Y8  1  0.319480  0.180343  0.622183  1
  Y  Y9  1  0.678760  0.821713  0.376521  1
  Y  Y10  1  0.640303  0.976901  0.750000  1
  Y  Y11  1  0.178452  0.679187  0.376586  1
  Y  Y12  1  0.824438  0.319106  0.877136  1
  Y  Y13  1  0.824438  0.319106  0.622864  1
  Y  Y14  1  0.844990  0.489178  0.250000  1
  Y  Y15  1  0.345273  0.013747  0.250000  1
  Y  Y16  1  0.319480  0.180343  0.877817  1
  Y  Y17  1  0.178452  0.679187  0.123414  1
  Y  Y18  1  0.678760  0.821713  0.123479  1
  Y  Y19  1  0.162545  0.522061  0.750000  1
  Si  Si20  1  0.470517  0.611887  0.250000  1
  Si  Si21  1  0.025349  0.107903  0.750000  1
  Si  Si22  1  0.533260  0.387068  0.750000  1
  Si  Si23  1  0.146188  0.470037  0.538391  1
  Si  Si24  1  0.971945  0.889343  0.250000  1
  Si  Si25  1  0.728643  0.120660  0.250000  1
  Si  Si26  1  0.853505  0.530264  0.039816  1
  Si  Si27  1  0.354978  0.969969  0.039471  1
  Si  Si28  1  0.146188  0.470037  0.961609  1
  Si  Si29  1  0.645184  0.031997  0.538142  1
  Si  Si30  1  0.354978  0.969969  0.460529  1
  Si  Si31  1  0.853505  0.530264  0.460184  1
  Si  Si32  1  0.771724  0.614771  0.750000  1
  Si  Si33  1  0.229111  0.381788  0.250000  1
  Si  Si34  1  0.645184  0.031997  0.961858  1
  Pt  Pt35  1  0.268367  0.879672  0.750000  1
