# generated using pymatgen
data_Tb7YbVPd24
_symmetry_space_group_name_H-M   'P 1'
_cell_length_a   8.36886816
_cell_length_b   8.36886833
_cell_length_c   8.36886800
_cell_angle_alpha   90.01133747
_cell_angle_beta   89.98866253
_cell_angle_gamma   89.98866477
_symmetry_Int_Tables_number   1
_chemical_formula_structural   Tb7YbVPd24
_chemical_formula_sum   'Tb7 Yb1 V1 Pd24'
_cell_volume   586.13837194
_cell_formula_units_Z   1
loop_
 _symmetry_equiv_pos_site_id
 _symmetry_equiv_pos_as_xyz
  1  'x, y, z'
loop_
 _atom_site_type_symbol
 _atom_site_label
 _atom_site_symmetry_multiplicity
 _atom_site_fract_x
 _atom_site_fract_y
 _atom_site_fract_z
 _atom_site_occupancy
  Tb  Tb0  1  0.253137  0.253069  0.253069  1
  Tb  Tb1  1  0.747052  0.746910  0.746910  1
  Tb  Tb2  1  0.746931  0.746863  0.253069  1
  Tb  Tb3  1  0.746931  0.253069  0.746863  1
  Tb  Tb4  1  0.253090  0.252948  0.746910  1
  Tb  Tb5  1  0.253090  0.746910  0.252948  1
  Tb  Tb6  1  0.252841  0.747159  0.747159  1
  Yb  Yb7  1  0.747979  0.252021  0.252021  1
  V  V8  1  0.999536  0.000464  0.000464  1
  Pd  Pd9  1  0.260172  0.500055  0.999747  1
  Pd  Pd10  1  0.739784  0.499864  0.000100  1
  Pd  Pd11  1  0.999900  0.260216  0.499864  1
  Pd  Pd12  1  0.500136  0.260216  0.000100  1
  Pd  Pd13  1  0.000253  0.739828  0.500055  1
  Pd  Pd14  1  0.499945  0.739828  0.999747  1
  Pd  Pd15  1  0.500136  0.000100  0.260216  1
  Pd  Pd16  1  0.260172  0.999747  0.500055  1
  Pd  Pd17  1  0.499945  0.999747  0.739828  1
  Pd  Pd18  1  0.739784  0.000100  0.499864  1
  Pd  Pd19  1  0.999900  0.499864  0.260216  1
  Pd  Pd20  1  0.000253  0.500055  0.739828  1
  Pd  Pd21  1  0.253111  0.500142  0.500142  1
  Pd  Pd22  1  0.747094  0.499680  0.499680  1
  Pd  Pd23  1  0.500320  0.252906  0.499680  1
  Pd  Pd24  1  0.499858  0.746889  0.500142  1
  Pd  Pd25  1  0.500320  0.499680  0.252906  1
  Pd  Pd26  1  0.499858  0.500142  0.746889  1
  Pd  Pd27  1  0.290189  0.000124  0.000124  1
  Pd  Pd28  1  0.709842  0.000658  0.000658  1
  Pd  Pd29  1  0.999342  0.290158  0.000658  1
  Pd  Pd30  1  0.999876  0.709811  0.000124  1
  Pd  Pd31  1  0.999342  0.000658  0.290158  1
  Pd  Pd32  1  0.999876  0.000124  0.709811  1
