# generated using pymatgen
data_Ac3Cd3CuPd2
_symmetry_space_group_name_H-M   'P 1'
_cell_length_a   7.99170800
_cell_length_b   7.99170701
_cell_length_c   4.24279400
_cell_angle_alpha   90.00000000
_cell_angle_beta   90.00000000
_cell_angle_gamma   120.00000411
_symmetry_Int_Tables_number   1
_chemical_formula_structural   Ac3Cd3CuPd2
_chemical_formula_sum   'Ac3 Cd3 Cu1 Pd2'
_cell_volume   234.67224083
_cell_formula_units_Z   1
loop_
 _symmetry_equiv_pos_site_id
 _symmetry_equiv_pos_as_xyz
  1  'x, y, z'
loop_
 _atom_site_type_symbol
 _atom_site_label
 _atom_site_symmetry_multiplicity
 _atom_site_fract_x
 _atom_site_fract_y
 _atom_site_fract_z
 _atom_site_occupancy
  Ac  Ac0  1  0.415212  0.000000  0.500000  1
  Ac  Ac1  1  0.000000  0.415212  0.500000  1
  Ac  Ac2  1  0.584788  0.584788  0.500000  1
  Cd  Cd3  1  0.763901  0.000000  0.000000  1
  Cd  Cd4  1  0.000000  0.763901  0.000000  1
  Cd  Cd5  1  0.236099  0.236099  0.000000  1
  Cu  Cu6  1  0.000000  0.000000  0.500000  1
  Pd  Pd7  1  0.333333  0.666667  0.000000  1
  Pd  Pd8  1  0.666667  0.333333  0.000000  1
