# generated using pymatgen
data_Ti12As4P3
_symmetry_space_group_name_H-M   'P 1'
_cell_length_a   3.47913700
_cell_length_b   9.90597065
_cell_length_c   9.90597200
_cell_angle_alpha   119.99999114
_cell_angle_beta   90.00000000
_cell_angle_gamma   90.00000000
_symmetry_Int_Tables_number   1
_chemical_formula_structural   Ti12As4P3
_chemical_formula_sum   'Ti12 As4 P3'
_cell_volume   295.66256080
_cell_formula_units_Z   1
loop_
 _symmetry_equiv_pos_site_id
 _symmetry_equiv_pos_as_xyz
  1  'x, y, z'
loop_
 _atom_site_type_symbol
 _atom_site_label
 _atom_site_symmetry_multiplicity
 _atom_site_fract_x
 _atom_site_fract_y
 _atom_site_fract_z
 _atom_site_occupancy
  Ti  Ti0  1  0.743880  0.981698  0.729834  1
  Ti  Ti1  1  0.743880  0.270166  0.251866  1
  Ti  Ti2  1  0.743880  0.748134  0.018302  1
  Ti  Ti3  1  0.243535  0.004302  0.211008  1
  Ti  Ti4  1  0.243535  0.788992  0.793293  1
  Ti  Ti5  1  0.243535  0.206707  0.995698  1
  Ti  Ti6  1  0.744024  0.512613  0.137466  1
  Ti  Ti7  1  0.744024  0.862534  0.375147  1
  Ti  Ti8  1  0.744024  0.624853  0.487387  1
  Ti  Ti9  1  0.243954  0.490864  0.878023  1
  Ti  Ti10  1  0.243954  0.121977  0.612843  1
  Ti  Ti11  1  0.243954  0.387157  0.509136  1
  As  As12  1  0.743048  0.000000  0.000000  1
  As  As13  1  0.743959  0.280616  0.839365  1
  As  As14  1  0.743959  0.160635  0.441251  1
  As  As15  1  0.743959  0.558749  0.719384  1
  P  P16  1  0.243966  0.715091  0.171065  1
  P  P17  1  0.243966  0.828935  0.544026  1
  P  P18  1  0.243966  0.455974  0.284909  1
