# generated using pymatgen
data_Y4Ho8Fe4CuBi
_symmetry_space_group_name_H-M   'P 1'
_cell_length_a   8.33929075
_cell_length_b   8.33928611
_cell_length_c   8.33929206
_cell_angle_alpha   110.92550242
_cell_angle_beta   111.00942117
_cell_angle_gamma   106.51851522
_symmetry_Int_Tables_number   1
_chemical_formula_structural   Y4Ho8Fe4CuBi
_chemical_formula_sum   'Y4 Ho8 Fe4 Cu1 Bi1'
_cell_volume   445.55842272
_cell_formula_units_Z   1
loop_
 _symmetry_equiv_pos_site_id
 _symmetry_equiv_pos_as_xyz
  1  'x, y, z'
loop_
 _atom_site_type_symbol
 _atom_site_label
 _atom_site_symmetry_multiplicity
 _atom_site_fract_x
 _atom_site_fract_y
 _atom_site_fract_z
 _atom_site_occupancy
  Y  Y0  1  0.813398  0.711497  0.524896  1
  Y  Y1  1  0.186602  0.288503  0.475104  1
  Y  Y2  1  0.186601  0.711497  0.898098  1
  Y  Y3  1  0.813399  0.288503  0.101902  1
  Ho  Ho4  1  0.688231  0.381188  0.692958  1
  Ho  Ho5  1  0.311769  0.618812  0.307042  1
  Ho  Ho6  1  0.688230  0.995272  0.307042  1
  Ho  Ho7  1  0.311770  0.004728  0.692958  1
  Ho  Ho8  1  0.585254  0.788216  0.797038  1
  Ho  Ho9  1  0.414746  0.211784  0.202962  1
  Ho  Ho10  1  0.991178  0.788216  0.202963  1
  Ho  Ho11  1  0.008822  0.211784  0.797037  1
  Fe  Fe12  1  0.614820  0.000000  0.614820  1
  Fe  Fe13  1  0.385180  0.000000  0.385180  1
  Fe  Fe14  1  0.107896  0.607896  0.499999  1
  Fe  Fe15  1  0.892104  0.392104  0.500001  1
  Cu  Cu16  1  0.000000  0.000000  0.000000  1
  Bi  Bi17  1  0.500000  0.500000  0.000000  1
