# generated using pymatgen
data_Tb2Pr5S8
_symmetry_space_group_name_H-M   'P 1'
_cell_length_a   8.08687400
_cell_length_b   8.12328364
_cell_length_c   8.15716200
_cell_angle_alpha   120.13805604
_cell_angle_beta   90.00000000
_cell_angle_gamma   119.85184266
_symmetry_Int_Tables_number   1
_chemical_formula_structural   Tb2Pr5S8
_chemical_formula_sum   'Tb2 Pr5 S8'
_cell_volume   378.96575715
_cell_formula_units_Z   1
loop_
 _symmetry_equiv_pos_site_id
 _symmetry_equiv_pos_as_xyz
  1  'x, y, z'
loop_
 _atom_site_type_symbol
 _atom_site_label
 _atom_site_symmetry_multiplicity
 _atom_site_fract_x
 _atom_site_fract_y
 _atom_site_fract_z
 _atom_site_occupancy
  Tb  Tb0  1  0.249999  0.499998  0.750000  1
  Tb  Tb1  1  0.750003  0.500005  0.750003  1
  Pr  Pr2  1  0.249999  0.000004  0.249998  1
  Pr  Pr3  1  0.249994  0.499987  0.249994  1
  Pr  Pr4  1  0.750005  0.000004  0.249999  1
  Pr  Pr5  1  0.250000  0.000004  0.750006  1
  Pr  Pr6  1  0.750005  0.000004  0.750006  1
  S  S7  1  0.994152  0.988303  0.994152  1
  S  S8  1  0.505845  0.011690  0.505845  1
  S  S9  1  0.007934  0.015868  0.507936  1
  S  S10  1  0.001869  0.500002  0.513009  1
  S  S11  1  0.498134  0.500002  0.513009  1
  S  S12  1  0.001871  0.500002  0.986994  1
  S  S13  1  0.498132  0.500002  0.986994  1
  S  S14  1  0.492063  0.984125  0.992064  1
