# generated using pymatgen
data_DyHo5(MoO7)2
_symmetry_space_group_name_H-M   'P 1'
_cell_length_a   6.46003892
_cell_length_b   6.46003886
_cell_length_c   7.44207803
_cell_angle_alpha   90.00767870
_cell_angle_beta   89.99231640
_cell_angle_gamma   108.64501251
_symmetry_Int_Tables_number   1
_chemical_formula_structural   DyHo5(MoO7)2
_chemical_formula_sum   'Dy1 Ho5 Mo2 O14'
_cell_volume   294.27389342
_cell_formula_units_Z   1
loop_
 _symmetry_equiv_pos_site_id
 _symmetry_equiv_pos_as_xyz
  1  'x, y, z'
loop_
 _atom_site_type_symbol
 _atom_site_label
 _atom_site_symmetry_multiplicity
 _atom_site_fract_x
 _atom_site_fract_y
 _atom_site_fract_z
 _atom_site_occupancy
  Dy  Dy0  1  0.468010  0.468010  0.000000  1
  Ho  Ho1  1  0.464295  0.999142  0.256754  1
  Ho  Ho2  1  0.535783  0.000909  0.756247  1
  Ho  Ho3  1  0.000909  0.535783  0.243753  1
  Ho  Ho4  1  0.533592  0.533592  0.500000  1
  Ho  Ho5  1  0.999142  0.464295  0.743246  1
  Mo  Mo6  1  0.998668  0.998668  0.000000  1
  Mo  Mo7  1  0.001421  0.001421  0.500000  1
  O  O8  1  0.056802  0.311624  0.461489  1
  O  O9  1  0.075730  0.924275  0.250034  1
  O  O10  1  0.631111  0.369009  0.251133  1
  O  O11  1  0.311624  0.056802  0.538511  1
  O  O12  1  0.916245  0.671780  0.525527  1
  O  O13  1  0.924275  0.075730  0.749966  1
  O  O14  1  0.671780  0.916245  0.474473  1
  O  O15  1  0.362108  0.637817  0.251013  1
  O  O16  1  0.687851  0.942595  0.038442  1
  O  O17  1  0.637817  0.362108  0.748987  1
  O  O18  1  0.083044  0.328189  0.025614  1
  O  O19  1  0.942595  0.687851  0.961558  1
  O  O20  1  0.369009  0.631111  0.748867  1
  O  O21  1  0.328189  0.083044  0.974386  1
