# generated using pymatgen
data_Lu4Al(SiB4)2
_symmetry_space_group_name_H-M   'P 1'
_cell_length_a   7.07092800
_cell_length_b   7.07092800
_cell_length_c   7.43730300
_cell_angle_alpha   90.00000000
_cell_angle_beta   90.00000000
_cell_angle_gamma   90.00000000
_symmetry_Int_Tables_number   1
_chemical_formula_structural   Lu4Al(SiB4)2
_chemical_formula_sum   'Lu8 Al2 Si4 B16'
_cell_volume   371.85044482
_cell_formula_units_Z   2
loop_
 _symmetry_equiv_pos_site_id
 _symmetry_equiv_pos_as_xyz
  1  'x, y, z'
loop_
 _atom_site_type_symbol
 _atom_site_label
 _atom_site_symmetry_multiplicity
 _atom_site_fract_x
 _atom_site_fract_y
 _atom_site_fract_z
 _atom_site_occupancy
  Lu  Lu0  1  0.680191  0.180191  0.233310  1
  Lu  Lu1  1  0.319809  0.819809  0.766690  1
  Lu  Lu2  1  0.319809  0.819809  0.233310  1
  Lu  Lu3  1  0.819809  0.680191  0.233310  1
  Lu  Lu4  1  0.819809  0.680191  0.766690  1
  Lu  Lu5  1  0.680191  0.180191  0.766690  1
  Lu  Lu6  1  0.180191  0.319809  0.766690  1
  Lu  Lu7  1  0.180191  0.319809  0.233310  1
  Al  Al8  1  0.000000  0.000000  0.500000  1
  Al  Al9  1  0.500000  0.500000  0.500000  1
  Si  Si10  1  0.117836  0.617836  0.500000  1
  Si  Si11  1  0.882164  0.382164  0.500000  1
  Si  Si12  1  0.382164  0.117836  0.500000  1
  Si  Si13  1  0.617836  0.882164  0.500000  1
  B  B14  1  0.173734  0.039996  0.000000  1
  B  B15  1  0.826266  0.960004  0.000000  1
  B  B16  1  0.960004  0.173734  0.000000  1
  B  B17  1  0.326266  0.539996  0.000000  1
  B  B18  1  0.039996  0.826266  0.000000  1
  B  B19  1  0.673734  0.460004  0.000000  1
  B  B20  1  0.539996  0.673734  0.000000  1
  B  B21  1  0.460004  0.326266  0.000000  1
  B  B22  1  0.088942  0.588942  0.000000  1
  B  B23  1  0.911058  0.411058  0.000000  1
  B  B24  1  0.411058  0.088942  0.000000  1
  B  B25  1  0.588942  0.911058  0.000000  1
  B  B26  1  0.000000  0.000000  0.175616  1
  B  B27  1  0.000000  0.000000  0.824384  1
  B  B28  1  0.500000  0.500000  0.824384  1
  B  B29  1  0.500000  0.500000  0.175616  1
