# generated using pymatgen
data_Y2Sc(Ga2Ni3)3
_symmetry_space_group_name_H-M   'P 1'
_cell_length_a   4.10763200
_cell_length_b   8.69730787
_cell_length_c   8.69730821
_cell_angle_alpha   59.82175017
_cell_angle_beta   90.00000000
_cell_angle_gamma   90.00000000
_symmetry_Int_Tables_number   1
_chemical_formula_structural   Y2Sc(Ga2Ni3)3
_chemical_formula_sum   'Y2 Sc1 Ga6 Ni9'
_cell_volume   268.60184715
_cell_formula_units_Z   1
loop_
 _symmetry_equiv_pos_site_id
 _symmetry_equiv_pos_as_xyz
  1  'x, y, z'
loop_
 _atom_site_type_symbol
 _atom_site_label
 _atom_site_symmetry_multiplicity
 _atom_site_fract_x
 _atom_site_fract_y
 _atom_site_fract_z
 _atom_site_occupancy
  Y  Y0  1  0.500000  0.333307  0.333349  1
  Y  Y1  1  0.500000  0.666651  0.666693  1
  Sc  Sc2  1  0.000000  0.000030  0.999970  1
  Ga  Ga3  1  0.500000  0.738852  0.261148  1
  Ga  Ga4  1  0.500000  0.260985  0.999869  1
  Ga  Ga5  1  0.500000  0.000131  0.739015  1
  Ga  Ga6  1  0.000000  0.485153  0.514847  1
  Ga  Ga7  1  0.000000  0.514611  0.000013  1
  Ga  Ga8  1  0.000000  0.999987  0.485389  1
  Ni  Ni9  1  0.000000  0.190570  0.172491  1
  Ni  Ni10  1  0.000000  0.172617  0.636703  1
  Ni  Ni11  1  0.000000  0.636704  0.190694  1
  Ni  Ni12  1  0.000000  0.827508  0.809430  1
  Ni  Ni13  1  0.000000  0.363297  0.827383  1
  Ni  Ni14  1  0.000000  0.809306  0.363296  1
  Ni  Ni15  1  0.500000  0.297044  0.702956  1
  Ni  Ni16  1  0.500000  0.703075  0.999927  1
  Ni  Ni17  1  0.500000  0.000073  0.296925  1
