# generated using pymatgen
data_Dy5Ho5(Pb3O)2
_symmetry_space_group_name_H-M   'P 1'
_cell_length_a   9.09138739
_cell_length_b   9.08821488
_cell_length_c   9.09129434
_cell_angle_alpha   125.69627574
_cell_angle_beta   125.70519532
_cell_angle_gamma   80.36820287
_symmetry_Int_Tables_number   1
_chemical_formula_structural   Dy5Ho5(Pb3O)2
_chemical_formula_sum   'Dy5 Ho5 Pb6 O2'
_cell_volume   477.97458297
_cell_formula_units_Z   1
loop_
 _symmetry_equiv_pos_site_id
 _symmetry_equiv_pos_as_xyz
  1  'x, y, z'
loop_
 _atom_site_type_symbol
 _atom_site_label
 _atom_site_symmetry_multiplicity
 _atom_site_fract_x
 _atom_site_fract_y
 _atom_site_fract_z
 _atom_site_occupancy
  Dy  Dy0  1  0.998499  0.199133  0.499932  1
  Dy  Dy1  1  0.800797  0.300895  0.799335  1
  Dy  Dy2  1  0.498545  0.998522  0.799340  1
  Dy  Dy3  1  0.500106  0.500264  0.000196  1
  Dy  Dy4  1  0.000209  0.999961  0.999997  1
  Ho  Ho5  1  0.502211  0.002334  0.202184  1
  Ho  Ho6  1  0.002213  0.799993  0.499907  1
  Ho  Ho7  1  0.199966  0.699933  0.202198  1
  Ho  Ho8  1  0.699680  0.497798  0.499907  1
  Ho  Ho9  1  0.300186  0.502150  0.499906  1
  Pb  Pb10  1  0.852220  0.352215  0.204400  1
  Pb  Pb11  1  0.147986  0.647995  0.795948  1
  Pb  Pb12  1  0.352125  0.147988  0.499972  1
  Pb  Pb13  1  0.750052  0.750064  0.000062  1
  Pb  Pb14  1  0.648045  0.851971  0.499979  1
  Pb  Pb15  1  0.249995  0.250006  0.999948  1
  O  O16  1  0.748400  0.250029  0.498394  1
  O  O17  1  0.248764  0.748750  0.498395  1
