# generated using pymatgen
data_Sr6TcTeO12
_symmetry_space_group_name_H-M   'P 1'
_cell_length_a   6.13690248
_cell_length_b   5.90194437
_cell_length_c   10.30979050
_cell_angle_alpha   54.96340713
_cell_angle_beta   89.99466921
_cell_angle_gamma   89.74275301
_symmetry_Int_Tables_number   1
_chemical_formula_structural   Sr6TcTeO12
_chemical_formula_sum   'Sr6 Tc1 Te1 O12'
_cell_volume   305.74401833
_cell_formula_units_Z   1
loop_
 _symmetry_equiv_pos_site_id
 _symmetry_equiv_pos_as_xyz
  1  'x, y, z'
loop_
 _atom_site_type_symbol
 _atom_site_label
 _atom_site_symmetry_multiplicity
 _atom_site_fract_x
 _atom_site_fract_y
 _atom_site_fract_z
 _atom_site_occupancy
  Sr  Sr0  1  0.500000  0.500000  0.500000  1
  Sr  Sr1  1  0.949021  0.735490  0.247756  1
  Sr  Sr2  1  0.451726  0.272901  0.240654  1
  Sr  Sr3  1  0.000000  0.500000  0.000000  1
  Sr  Sr4  1  0.548274  0.727099  0.759346  1
  Sr  Sr5  1  0.050979  0.264510  0.752244  1
  Tc  Tc6  1  0.500000  0.000000  0.000000  1
  Te  Te7  1  0.000000  0.000000  0.500000  1
  O  O8  1  0.456966  0.121395  0.783548  1
  O  O9  1  0.235894  0.768410  0.060577  1
  O  O10  1  0.179332  0.313182  0.452630  1
  O  O11  1  0.676264  0.688223  0.042956  1
  O  O12  1  0.738395  0.240059  0.430784  1
  O  O13  1  0.951372  0.889532  0.717627  1
  O  O14  1  0.048628  0.110468  0.282373  1
  O  O15  1  0.261605  0.759941  0.569216  1
  O  O16  1  0.323736  0.311777  0.957044  1
  O  O17  1  0.820668  0.686818  0.547370  1
  O  O18  1  0.764106  0.231590  0.939423  1
  O  O19  1  0.543034  0.878605  0.216452  1
