# generated using pymatgen
data_Ta12Al5Ga3(CoC)4
_symmetry_space_group_name_H-M   'P 1'
_cell_length_a   8.20142156
_cell_length_b   8.20472507
_cell_length_c   8.20150801
_cell_angle_alpha   60.01788535
_cell_angle_beta   60.02026897
_cell_angle_gamma   60.01450569
_symmetry_Int_Tables_number   1
_chemical_formula_structural   Ta12Al5Ga3(CoC)4
_chemical_formula_sum   'Ta12 Al5 Ga3 Co4 C4'
_cell_volume   390.39537838
_cell_formula_units_Z   1
loop_
 _symmetry_equiv_pos_site_id
 _symmetry_equiv_pos_as_xyz
  1  'x, y, z'
loop_
 _atom_site_type_symbol
 _atom_site_label
 _atom_site_symmetry_multiplicity
 _atom_site_fract_x
 _atom_site_fract_y
 _atom_site_fract_z
 _atom_site_occupancy
  Ta  Ta0  1  0.560482  0.939375  0.560463  1
  Ta  Ta1  1  0.311150  0.688276  0.689241  1
  Ta  Ta2  1  0.689750  0.310888  0.310552  1
  Ta  Ta3  1  0.310547  0.689541  0.310533  1
  Ta  Ta4  1  0.689245  0.688298  0.311128  1
  Ta  Ta5  1  0.310569  0.310890  0.689750  1
  Ta  Ta6  1  0.561185  0.560734  0.938932  1
  Ta  Ta7  1  0.938913  0.560752  0.561189  1
  Ta  Ta8  1  0.561496  0.939112  0.939154  1
  Ta  Ta9  1  0.939140  0.939112  0.561496  1
  Ta  Ta10  1  0.688858  0.311184  0.688874  1
  Ta  Ta11  1  0.938435  0.562041  0.938447  1
  Al  Al12  1  0.918570  0.918282  0.918603  1
  Al  Al13  1  0.005040  0.331696  0.331618  1
  Al  Al14  1  0.331784  0.004742  0.331757  1
  Al  Al15  1  0.331637  0.331687  0.005043  1
  Al  Al16  1  0.918515  0.244807  0.918544  1
  Ga  Ga17  1  0.916420  0.917401  0.248778  1
  Ga  Ga18  1  0.248774  0.917399  0.916434  1
  Ga  Ga19  1  0.332671  0.332682  0.332647  1
  Co  Co20  1  0.125525  0.127028  0.125527  1
  Co  Co21  1  0.625750  0.124816  0.122477  1
  Co  Co22  1  0.123895  0.624066  0.123901  1
  Co  Co23  1  0.122478  0.124820  0.625746  1
  C  C24  1  0.624982  0.625652  0.624980  1
  C  C25  1  0.125480  0.624885  0.624129  1
  C  C26  1  0.624577  0.124945  0.624575  1
  C  C27  1  0.624130  0.624884  0.125480  1
