# generated using pymatgen
data_FeNi3Bi4(TeO6)4
_symmetry_space_group_name_H-M   'P 1'
_cell_length_a   5.25113507
_cell_length_b   9.09909509
_cell_length_c   9.81530606
_cell_angle_alpha   89.99552202
_cell_angle_beta   90.01506051
_cell_angle_gamma   90.01083428
_symmetry_Int_Tables_number   1
_chemical_formula_structural   FeNi3Bi4(TeO6)4
_chemical_formula_sum   'Fe1 Ni3 Bi4 Te4 O24'
_cell_volume   468.98096449
_cell_formula_units_Z   1
loop_
 _symmetry_equiv_pos_site_id
 _symmetry_equiv_pos_as_xyz
  1  'x, y, z'
loop_
 _atom_site_type_symbol
 _atom_site_label
 _atom_site_symmetry_multiplicity
 _atom_site_fract_x
 _atom_site_fract_y
 _atom_site_fract_z
 _atom_site_occupancy
  Fe  Fe0  1  0.999727  0.666076  0.249788  1
  Ni  Ni1  1  0.499848  0.833229  0.750047  1
  Ni  Ni2  1  0.500007  0.166979  0.250064  1
  Ni  Ni3  1  0.000277  0.333468  0.749992  1
  Bi  Bi4  1  0.002104  0.002440  0.503546  1
  Bi  Bi5  1  0.497879  0.497542  0.504677  1
  Bi  Bi6  1  0.997971  0.002634  0.996435  1
  Bi  Bi7  1  0.502103  0.497478  0.995341  1
  Te  Te8  1  0.500101  0.166034  0.749966  1
  Te  Te9  1  0.999882  0.667189  0.750020  1
  Te  Te10  1  0.000057  0.331063  0.250098  1
  Te  Te11  1  0.499929  0.835758  0.249965  1
  O  O12  1  0.637199  0.005462  0.639636  1
  O  O13  1  0.135303  0.506586  0.638975  1
  O  O14  1  0.672299  0.314636  0.639353  1
  O  O15  1  0.173465  0.815408  0.639173  1
  O  O16  1  0.191472  0.178763  0.639040  1
  O  O17  1  0.690210  0.678893  0.639516  1
  O  O18  1  0.174178  0.184869  0.138623  1
  O  O19  1  0.675326  0.686237  0.140333  1
  O  O20  1  0.132750  0.494966  0.139857  1
  O  O21  1  0.636582  0.994253  0.139091  1
  O  O22  1  0.690858  0.321706  0.139865  1
  O  O23  1  0.190283  0.818614  0.139404  1
  O  O24  1  0.867081  0.495089  0.360046  1
  O  O25  1  0.363778  0.994139  0.361027  1
  O  O26  1  0.825903  0.184755  0.361451  1
  O  O27  1  0.324803  0.685840  0.359166  1
  O  O28  1  0.308963  0.321758  0.360318  1
  O  O29  1  0.809456  0.818258  0.360713  1
  O  O30  1  0.327971  0.314553  0.860624  1
  O  O31  1  0.826471  0.815547  0.860834  1
  O  O32  1  0.362885  0.005551  0.860400  1
  O  O33  1  0.864629  0.506506  0.861056  1
  O  O34  1  0.808656  0.178899  0.860979  1
  O  O35  1  0.309591  0.678823  0.860585  1
