# generated using pymatgen
data_Pb(ClO4)2
_symmetry_space_group_name_H-M   'P 1'
_cell_length_a   9.07930905
_cell_length_b   8.04404280
_cell_length_c   6.83302449
_cell_angle_alpha   74.72412526
_cell_angle_beta   58.72355449
_cell_angle_gamma   46.55232247
_symmetry_Int_Tables_number   1
_chemical_formula_structural   Pb(ClO4)2
_chemical_formula_sum   'Pb2 Cl4 O16'
_cell_volume   306.11457668
_cell_formula_units_Z   2
loop_
 _symmetry_equiv_pos_site_id
 _symmetry_equiv_pos_as_xyz
  1  'x, y, z'
loop_
 _atom_site_type_symbol
 _atom_site_label
 _atom_site_symmetry_multiplicity
 _atom_site_fract_x
 _atom_site_fract_y
 _atom_site_fract_z
 _atom_site_occupancy
  Pb  Pb0  1  0.250000  0.250000  0.250000  1
  Pb  Pb1  1  0.000000  0.000000  0.000000  1
  Cl  Cl2  1  0.949626  0.550374  0.949626  1
  Cl  Cl3  1  0.550374  0.949626  0.550374  1
  Cl  Cl4  1  0.300374  0.699626  0.300374  1
  Cl  Cl5  1  0.699626  0.300374  0.699626  1
  O  O6  1  0.986870  0.351261  0.073403  1
  O  O7  1  0.351261  0.986870  0.588465  1
  O  O8  1  0.073403  0.588465  0.986870  1
  O  O9  1  0.588465  0.073403  0.351261  1
  O  O10  1  0.263130  0.898739  0.176597  1
  O  O11  1  0.898739  0.263130  0.661535  1
  O  O12  1  0.176597  0.661535  0.263130  1
  O  O13  1  0.661535  0.176597  0.898739  1
  O  O14  1  0.049620  0.491074  0.706802  1
  O  O15  1  0.491074  0.049620  0.752503  1
  O  O16  1  0.706802  0.752502  0.049620  1
  O  O17  1  0.752503  0.706802  0.491074  1
  O  O18  1  0.200380  0.758926  0.543198  1
  O  O19  1  0.758926  0.200380  0.497497  1
  O  O20  1  0.543198  0.497498  0.200380  1
  O  O21  1  0.497498  0.543198  0.758926  1
