# generated using pymatgen
data_Yb2B8Ru7
_symmetry_space_group_name_H-M   'P 1'
_cell_length_a   6.43258900
_cell_length_b   6.43258900
_cell_length_c   10.03016800
_cell_angle_alpha   90.00000000
_cell_angle_beta   90.00000000
_cell_angle_gamma   90.00000000
_symmetry_Int_Tables_number   1
_chemical_formula_structural   Yb2B8Ru7
_chemical_formula_sum   'Yb4 B16 Ru14'
_cell_volume   415.03031000
_cell_formula_units_Z   2
loop_
 _symmetry_equiv_pos_site_id
 _symmetry_equiv_pos_as_xyz
  1  'x, y, z'
loop_
 _atom_site_type_symbol
 _atom_site_label
 _atom_site_symmetry_multiplicity
 _atom_site_fract_x
 _atom_site_fract_y
 _atom_site_fract_z
 _atom_site_occupancy
  Yb  Yb0  1  0.734523  0.884784  0.000000  1
  Yb  Yb1  1  0.115216  0.734523  0.500000  1
  Yb  Yb2  1  0.884784  0.265477  0.500000  1
  Yb  Yb3  1  0.265477  0.115216  0.000000  1
  B  B4  1  0.500000  0.000000  0.588772  1
  B  B5  1  0.500000  0.000000  0.411228  1
  B  B6  1  0.899313  0.272294  0.165878  1
  B  B7  1  0.100687  0.727706  0.834122  1
  B  B8  1  0.500000  0.500000  0.340847  1
  B  B9  1  0.500000  0.500000  0.840847  1
  B  B10  1  0.272294  0.100687  0.665878  1
  B  B11  1  0.100687  0.727706  0.165878  1
  B  B12  1  0.272294  0.100687  0.334122  1
  B  B13  1  0.899313  0.272294  0.834122  1
  B  B14  1  0.500000  0.500000  0.659153  1
  B  B15  1  0.500000  0.500000  0.159153  1
  B  B16  1  0.000000  0.500000  0.911228  1
  B  B17  1  0.727706  0.899313  0.665878  1
  B  B18  1  0.727706  0.899313  0.334122  1
  B  B19  1  0.000000  0.500000  0.088772  1
  Ru  Ru20  1  0.204339  0.392245  0.754987  1
  Ru  Ru21  1  0.405678  0.288237  0.500000  1
  Ru  Ru22  1  0.392245  0.795661  0.254987  1
  Ru  Ru23  1  0.204339  0.392245  0.245013  1
  Ru  Ru24  1  0.594322  0.711763  0.500000  1
  Ru  Ru25  1  0.607755  0.204339  0.745013  1
  Ru  Ru26  1  0.288237  0.594322  0.000000  1
  Ru  Ru27  1  0.711763  0.405678  0.000000  1
  Ru  Ru28  1  0.795661  0.607755  0.245013  1
  Ru  Ru29  1  0.795661  0.607755  0.754987  1
  Ru  Ru30  1  0.392245  0.795661  0.745013  1
  Ru  Ru31  1  0.000000  0.000000  0.250000  1
  Ru  Ru32  1  0.607755  0.204339  0.254987  1
  Ru  Ru33  1  0.000000  0.000000  0.750000  1
