# generated using pymatgen
data_Ac2Ho(SnIr)3
_symmetry_space_group_name_H-M   'P 1'
_cell_length_a   7.59638554
_cell_length_b   7.68123146
_cell_length_c   4.27270300
_cell_angle_alpha   90.00000000
_cell_angle_beta   90.00000000
_cell_angle_gamma   120.37016736
_symmetry_Int_Tables_number   1
_chemical_formula_structural   Ac2Ho(SnIr)3
_chemical_formula_sum   'Ac2 Ho1 Sn3 Ir3'
_cell_volume   215.09936672
_cell_formula_units_Z   1
loop_
 _symmetry_equiv_pos_site_id
 _symmetry_equiv_pos_as_xyz
  1  'x, y, z'
loop_
 _atom_site_type_symbol
 _atom_site_label
 _atom_site_symmetry_multiplicity
 _atom_site_fract_x
 _atom_site_fract_y
 _atom_site_fract_z
 _atom_site_occupancy
  Ac  Ac0  1  0.415359  0.417681  0.500000  1
  Ac  Ac1  1  0.584641  0.002322  0.500000  1
  Ho  Ho2  1  0.000000  0.594424  0.500000  1
  Sn  Sn3  1  0.759588  0.751835  0.000000  1
  Sn  Sn4  1  0.240412  0.992247  0.000000  1
  Sn  Sn5  1  0.000000  0.249136  0.000000  1
  Ir  Ir6  1  0.694702  0.351423  0.000000  1
  Ir  Ir7  1  0.305298  0.656722  0.000000  1
  Ir  Ir8  1  0.000000  0.984211  0.500000  1
