# generated using pymatgen
data_LaTb6Dy9(CdNi)4
_symmetry_space_group_name_H-M   'P 1'
_cell_length_a   9.56536544
_cell_length_b   9.56536424
_cell_length_c   9.56536518
_cell_angle_alpha   60.05723528
_cell_angle_beta   60.05723942
_cell_angle_gamma   60.05723481
_symmetry_Int_Tables_number   1
_chemical_formula_structural   LaTb6Dy9(CdNi)4
_chemical_formula_sum   'La1 Tb6 Dy9 Cd4 Ni4'
_cell_volume   619.65883821
_cell_formula_units_Z   1
loop_
 _symmetry_equiv_pos_site_id
 _symmetry_equiv_pos_as_xyz
  1  'x, y, z'
loop_
 _atom_site_type_symbol
 _atom_site_label
 _atom_site_symmetry_multiplicity
 _atom_site_fract_x
 _atom_site_fract_y
 _atom_site_fract_z
 _atom_site_occupancy
  La  La0  1  0.346234  0.346234  0.346234  1
  Tb  Tb1  1  0.936657  0.564382  0.564382  1
  Tb  Tb2  1  0.562888  0.936314  0.936314  1
  Tb  Tb3  1  0.564382  0.936657  0.564382  1
  Tb  Tb4  1  0.936314  0.562888  0.936314  1
  Tb  Tb5  1  0.564382  0.564382  0.936657  1
  Tb  Tb6  1  0.936314  0.936314  0.562888  1
  Dy  Dy7  1  0.348701  0.348701  0.951214  1
  Dy  Dy8  1  0.348701  0.951214  0.348701  1
  Dy  Dy9  1  0.951214  0.348701  0.348701  1
  Dy  Dy10  1  0.814422  0.188480  0.188480  1
  Dy  Dy11  1  0.189378  0.811734  0.811734  1
  Dy  Dy12  1  0.188480  0.814422  0.188480  1
  Dy  Dy13  1  0.811734  0.189378  0.811734  1
  Dy  Dy14  1  0.188480  0.188480  0.814422  1
  Dy  Dy15  1  0.811734  0.811734  0.189378  1
  Cd  Cd16  1  0.580745  0.580745  0.580745  1
  Cd  Cd17  1  0.582879  0.582879  0.255795  1
  Cd  Cd18  1  0.582879  0.255795  0.582879  1
  Cd  Cd19  1  0.255795  0.582879  0.582879  1
  Ni  Ni20  1  0.142903  0.142903  0.142903  1
  Ni  Ni21  1  0.139998  0.139998  0.574784  1
  Ni  Ni22  1  0.139998  0.574784  0.139998  1
  Ni  Ni23  1  0.574784  0.139998  0.139998  1
