# generated using pymatgen
data_Pr3Al12Ir2RuPt
_symmetry_space_group_name_H-M   'P 1'
_cell_length_a   8.93585488
_cell_length_b   8.96312306
_cell_length_c   9.65857000
_cell_angle_alpha   90.00000000
_cell_angle_beta   90.00000000
_cell_angle_gamma   120.10100371
_symmetry_Int_Tables_number   1
_chemical_formula_structural   Pr3Al12Ir2RuPt
_chemical_formula_sum   'Pr6 Al24 Ir4 Ru2 Pt2'
_cell_volume   669.26176325
_cell_formula_units_Z   2
loop_
 _symmetry_equiv_pos_site_id
 _symmetry_equiv_pos_as_xyz
  1  'x, y, z'
loop_
 _atom_site_type_symbol
 _atom_site_label
 _atom_site_symmetry_multiplicity
 _atom_site_fract_x
 _atom_site_fract_y
 _atom_site_fract_z
 _atom_site_occupancy
  Pr  Pr0  1  0.190654  0.379104  0.250000  1
  Pr  Pr1  1  0.809346  0.620896  0.750000  1
  Pr  Pr2  1  0.620299  0.810150  0.250000  1
  Pr  Pr3  1  0.379701  0.189850  0.750000  1
  Pr  Pr4  1  0.190654  0.811550  0.250000  1
  Pr  Pr5  1  0.809346  0.188450  0.750000  1
  Al  Al6  1  0.337102  0.668552  0.026972  1
  Al  Al7  1  0.662898  0.331448  0.973028  1
  Al  Al8  1  0.662898  0.331448  0.526972  1
  Al  Al9  1  0.337102  0.668552  0.473028  1
  Al  Al10  1  0.166214  0.325587  0.575202  1
  Al  Al11  1  0.833786  0.674413  0.424798  1
  Al  Al12  1  0.672066  0.836032  0.574761  1
  Al  Al13  1  0.833786  0.674413  0.075202  1
  Al  Al14  1  0.327934  0.163968  0.425239  1
  Al  Al15  1  0.166214  0.325587  0.924798  1
  Al  Al16  1  0.166214  0.840624  0.575202  1
  Al  Al17  1  0.327934  0.163968  0.074761  1
  Al  Al18  1  0.833786  0.159376  0.424798  1
  Al  Al19  1  0.672066  0.836032  0.925239  1
  Al  Al20  1  0.833786  0.159376  0.075202  1
  Al  Al21  1  0.166214  0.840624  0.924798  1
  Al  Al22  1  0.563283  0.126598  0.250000  1
  Al  Al23  1  0.436717  0.873402  0.750000  1
  Al  Al24  1  0.870075  0.435038  0.250000  1
  Al  Al25  1  0.129925  0.564962  0.750000  1
  Al  Al26  1  0.563283  0.436684  0.250000  1
  Al  Al27  1  0.436717  0.563316  0.750000  1
  Al  Al28  1  0.001873  0.000937  0.250000  1
  Al  Al29  1  0.998127  0.999063  0.750000  1
  Ir  Ir30  1  0.500000  0.000000  0.000000  1
  Ir  Ir31  1  0.500000  0.000000  0.500000  1
  Ir  Ir32  1  0.500000  0.500000  0.000000  1
  Ir  Ir33  1  0.500000  0.500000  0.500000  1
  Ru  Ru34  1  0.000000  0.000000  0.000000  1
  Ru  Ru35  1  0.000000  0.000000  0.500000  1
  Pt  Pt36  1  0.000000  0.500000  0.000000  1
  Pt  Pt37  1  0.000000  0.500000  0.500000  1
