# generated using pymatgen
data_Tb8Ti3Si16W9
_symmetry_space_group_name_H-M   'P 1'
_cell_length_a   6.91795119
_cell_length_b   6.91795119
_cell_length_c   12.85421905
_cell_angle_alpha   89.99220851
_cell_angle_beta   90.00779149
_cell_angle_gamma   89.93329555
_symmetry_Int_Tables_number   1
_chemical_formula_structural   Tb8Ti3Si16W9
_chemical_formula_sum   'Tb8 Ti3 Si16 W9'
_cell_volume   615.17741272
_cell_formula_units_Z   1
loop_
 _symmetry_equiv_pos_site_id
 _symmetry_equiv_pos_as_xyz
  1  'x, y, z'
loop_
 _atom_site_type_symbol
 _atom_site_label
 _atom_site_symmetry_multiplicity
 _atom_site_fract_x
 _atom_site_fract_y
 _atom_site_fract_z
 _atom_site_occupancy
  Tb  Tb0  1  0.338741  0.002126  0.468399  1
  Tb  Tb1  1  0.497078  0.837580  0.719038  1
  Tb  Tb2  1  0.499872  0.162530  0.217530  1
  Tb  Tb3  1  0.837580  0.497078  0.280962  1
  Tb  Tb4  1  0.162530  0.499872  0.782470  1
  Tb  Tb5  1  0.660709  0.998986  0.968634  1
  Tb  Tb6  1  0.002126  0.338741  0.531601  1
  Tb  Tb7  1  0.998986  0.660709  0.031366  1
  Ti  Ti8  1  0.170670  0.831356  0.248625  1
  Ti  Ti9  1  0.831356  0.170670  0.751375  1
  Ti  Ti10  1  0.668996  0.668996  0.500000  1
  Si  Si11  1  0.200598  0.127714  0.683691  1
  Si  Si12  1  0.374626  0.698407  0.933972  1
  Si  Si13  1  0.627558  0.299076  0.434073  1
  Si  Si14  1  0.698407  0.374626  0.066028  1
  Si  Si15  1  0.299076  0.627558  0.565927  1
  Si  Si16  1  0.797340  0.873230  0.184520  1
  Si  Si17  1  0.127714  0.200598  0.316309  1
  Si  Si18  1  0.873230  0.797340  0.815480  1
  Si  Si19  1  0.288431  0.962569  0.062390  1
  Si  Si20  1  0.539702  0.790697  0.313905  1
  Si  Si21  1  0.458901  0.210046  0.814051  1
  Si  Si22  1  0.790697  0.539702  0.686095  1
  Si  Si23  1  0.210046  0.458901  0.185949  1
  Si  Si24  1  0.710000  0.040672  0.563888  1
  Si  Si25  1  0.962569  0.288431  0.937610  1
  Si  Si26  1  0.040672  0.710000  0.436112  1
  W  W27  1  0.331599  0.331599  0.000000  1
  W  W28  1  0.159138  0.003694  0.873957  1
  W  W29  1  0.493983  0.665398  0.124974  1
  W  W30  1  0.505879  0.339410  0.624928  1
  W  W31  1  0.665398  0.493983  0.875026  1
  W  W32  1  0.339410  0.505879  0.375072  1
  W  W33  1  0.839254  0.993435  0.374721  1
  W  W34  1  0.003694  0.159138  0.126043  1
  W  W35  1  0.993435  0.839254  0.625279  1
