# generated using pymatgen
data_Ho5Er5Tm10(CoBi2)4
_symmetry_space_group_name_H-M   'P 1'
_cell_length_a   7.89184809
_cell_length_b   8.85887000
_cell_length_c   12.34911444
_cell_angle_alpha   90.00000000
_cell_angle_beta   89.91352618
_cell_angle_gamma   90.00000000
_symmetry_Int_Tables_number   1
_chemical_formula_structural   Ho5Er5Tm10(CoBi2)4
_chemical_formula_sum   'Ho5 Er5 Tm10 Co4 Bi8'
_cell_volume   863.36088013
_cell_formula_units_Z   1
loop_
 _symmetry_equiv_pos_site_id
 _symmetry_equiv_pos_as_xyz
  1  'x, y, z'
loop_
 _atom_site_type_symbol
 _atom_site_label
 _atom_site_symmetry_multiplicity
 _atom_site_fract_x
 _atom_site_fract_y
 _atom_site_fract_z
 _atom_site_occupancy
  Ho  Ho0  1  0.153787  0.250000  0.799963  1
  Ho  Ho1  1  0.846165  0.750000  0.200057  1
  Ho  Ho2  1  0.118762  0.750000  0.813592  1
  Ho  Ho3  1  0.881256  0.250000  0.186390  1
  Ho  Ho4  1  0.619187  0.250000  0.686439  1
  Er  Er5  1  0.380940  0.750000  0.313688  1
  Er  Er6  1  0.554397  0.750000  0.997350  1
  Er  Er7  1  0.445635  0.250000  0.002670  1
  Er  Er8  1  0.054685  0.250000  0.502602  1
  Er  Er9  1  0.945299  0.750000  0.497414  1
  Tm  Tm10  1  0.653016  0.750000  0.698860  1
  Tm  Tm11  1  0.346984  0.250000  0.301155  1
  Tm  Tm12  1  0.826794  0.463189  0.936072  1
  Tm  Tm13  1  0.173216  0.536842  0.063936  1
  Tm  Tm14  1  0.327007  0.537128  0.563896  1
  Tm  Tm15  1  0.173216  0.963158  0.063936  1
  Tm  Tm16  1  0.672946  0.463025  0.436021  1
  Tm  Tm17  1  0.826794  0.036811  0.936072  1
  Tm  Tm18  1  0.672946  0.036975  0.436021  1
  Tm  Tm19  1  0.327007  0.962872  0.563896  1
  Co  Co20  1  0.936138  0.750000  0.993198  1
  Co  Co21  1  0.063866  0.250000  0.006805  1
  Co  Co22  1  0.436167  0.250000  0.506967  1
  Co  Co23  1  0.563743  0.750000  0.492919  1
  Bi  Bi24  1  0.931864  0.007568  0.673191  1
  Bi  Bi25  1  0.068229  0.992357  0.326810  1
  Bi  Bi26  1  0.432793  0.991622  0.826699  1
  Bi  Bi27  1  0.068229  0.507643  0.326810  1
  Bi  Bi28  1  0.567140  0.008300  0.173341  1
  Bi  Bi29  1  0.931864  0.492432  0.673191  1
  Bi  Bi30  1  0.567140  0.491700  0.173341  1
  Bi  Bi31  1  0.432793  0.508378  0.826699  1
