# generated using pymatgen
data_Er2Al8GaIr3
_symmetry_space_group_name_H-M   'P 1'
_cell_length_a   7.53934983
_cell_length_b   7.54022438
_cell_length_c   9.49176900
_cell_angle_alpha   90.00000000
_cell_angle_beta   90.00000000
_cell_angle_gamma   119.80053703
_symmetry_Int_Tables_number   1
_chemical_formula_structural   Er2Al8GaIr3
_chemical_formula_sum   'Er4 Al16 Ga2 Ir6'
_cell_volume   468.23659224
_cell_formula_units_Z   2
loop_
 _symmetry_equiv_pos_site_id
 _symmetry_equiv_pos_as_xyz
  1  'x, y, z'
loop_
 _atom_site_type_symbol
 _atom_site_label
 _atom_site_symmetry_multiplicity
 _atom_site_fract_x
 _atom_site_fract_y
 _atom_site_fract_z
 _atom_site_occupancy
  Er  Er0  1  0.994015  0.666729  0.750000  1
  Er  Er1  1  0.005985  0.333271  0.250000  1
  Er  Er2  1  0.670267  0.998535  0.750000  1
  Er  Er3  1  0.329733  0.001465  0.250000  1
  Al  Al4  1  0.127080  0.125877  0.750000  1
  Al  Al5  1  0.872920  0.874123  0.250000  1
  Al  Al6  1  0.001400  0.334437  0.573467  1
  Al  Al7  1  0.998600  0.665563  0.426533  1
  Al  Al8  1  0.998600  0.665563  0.073467  1
  Al  Al9  1  0.334205  0.000410  0.926748  1
  Al  Al10  1  0.001400  0.334437  0.926533  1
  Al  Al11  1  0.665795  0.999590  0.073252  1
  Al  Al12  1  0.665795  0.999590  0.426748  1
  Al  Al13  1  0.334205  0.000410  0.573252  1
  Al  Al14  1  0.333547  0.333281  0.054473  1
  Al  Al15  1  0.666453  0.666719  0.945527  1
  Al  Al16  1  0.666453  0.666719  0.554473  1
  Al  Al17  1  0.333547  0.333281  0.445527  1
  Al  Al18  1  0.339440  0.548677  0.750000  1
  Al  Al19  1  0.660560  0.451323  0.250000  1
  Ga  Ga20  1  0.543341  0.338456  0.750000  1
  Ga  Ga21  1  0.456659  0.661544  0.250000  1
  Ir  Ir22  1  0.672140  0.327811  0.498089  1
  Ir  Ir23  1  0.327860  0.672189  0.501911  1
  Ir  Ir24  1  0.327860  0.672189  0.998089  1
  Ir  Ir25  1  0.672140  0.327811  0.001911  1
  Ir  Ir26  1  0.000000  0.000000  0.500000  1
  Ir  Ir27  1  0.000000  0.000000  0.000000  1
