# generated using pymatgen
data_Ba2PrAlSe5
_symmetry_space_group_name_H-M   'P 1'
_cell_length_a   7.45310259
_cell_length_b   8.98974394
_cell_length_c   9.69498460
_cell_angle_alpha   104.00271547
_cell_angle_beta   102.71994457
_cell_angle_gamma   107.88209481
_symmetry_Int_Tables_number   1
_chemical_formula_structural   Ba2PrAlSe5
_chemical_formula_sum   'Ba4 Pr2 Al2 Se10'
_cell_volume   568.50742401
_cell_formula_units_Z   2
loop_
 _symmetry_equiv_pos_site_id
 _symmetry_equiv_pos_as_xyz
  1  'x, y, z'
loop_
 _atom_site_type_symbol
 _atom_site_label
 _atom_site_symmetry_multiplicity
 _atom_site_fract_x
 _atom_site_fract_y
 _atom_site_fract_z
 _atom_site_occupancy
  Ba  Ba0  1  0.632182  0.978121  0.296756  1
  Ba  Ba1  1  0.367818  0.021879  0.703244  1
  Ba  Ba2  1  0.336020  0.507735  0.700813  1
  Ba  Ba3  1  0.663980  0.492265  0.299187  1
  Pr  Pr4  1  0.996371  0.730291  0.996573  1
  Pr  Pr5  1  0.003629  0.269709  0.003427  1
  Al  Al6  1  0.806170  0.871857  0.688059  1
  Al  Al7  1  0.193830  0.128143  0.311941  1
  Se  Se8  1  0.989819  0.692348  0.679306  1
  Se  Se9  1  0.010181  0.307652  0.320694  1
  Se  Se10  1  0.985541  0.143261  0.685311  1
  Se  Se11  1  0.014459  0.856739  0.314689  1
  Se  Se12  1  0.703249  0.902708  0.914098  1
  Se  Se13  1  0.296751  0.097292  0.085902  1
  Se  Se14  1  0.696242  0.407349  0.946684  1
  Se  Se15  1  0.303758  0.592651  0.053316  1
  Se  Se16  1  0.496398  0.742043  0.494529  1
  Se  Se17  1  0.503602  0.257957  0.505471  1
