# generated using pymatgen
data_TbTmSi4(PtAu)2
_symmetry_space_group_name_H-M   'P 1'
_cell_length_a   4.22917700
_cell_length_b   4.22917700
_cell_length_c   10.07919700
_cell_angle_alpha   90.00000000
_cell_angle_beta   90.00000000
_cell_angle_gamma   90.00000000
_symmetry_Int_Tables_number   1
_chemical_formula_structural   TbTmSi4(PtAu)2
_chemical_formula_sum   'Tb1 Tm1 Si4 Pt2 Au2'
_cell_volume   180.27589361
_cell_formula_units_Z   1
loop_
 _symmetry_equiv_pos_site_id
 _symmetry_equiv_pos_as_xyz
  1  'x, y, z'
loop_
 _atom_site_type_symbol
 _atom_site_label
 _atom_site_symmetry_multiplicity
 _atom_site_fract_x
 _atom_site_fract_y
 _atom_site_fract_z
 _atom_site_occupancy
  Tb  Tb0  1  0.500000  0.000000  0.255917  1
  Tm  Tm1  1  0.000000  0.500000  0.744139  1
  Si  Si2  1  0.000000  0.500000  0.146234  1
  Si  Si3  1  0.500000  0.500000  0.500403  1
  Si  Si4  1  0.500000  0.000000  0.853476  1
  Si  Si5  1  0.000000  0.000000  0.500403  1
  Pt  Pt6  1  0.500000  0.000000  0.619702  1
  Pt  Pt7  1  0.000000  0.500000  0.381256  1
  Au  Au8  1  0.000000  0.000000  0.999235  1
  Au  Au9  1  0.500000  0.500000  0.999235  1
