# generated using pymatgen
data_V(TcAs)4
_symmetry_space_group_name_H-M   'P 1'
_cell_length_a   6.94593971
_cell_length_b   6.94593985
_cell_length_c   6.94016198
_cell_angle_alpha   93.08447213
_cell_angle_beta   93.15706633
_cell_angle_gamma   153.02561147
_symmetry_Int_Tables_number   1
_chemical_formula_structural   V(TcAs)4
_chemical_formula_sum   'V1 Tc4 As4'
_cell_volume   147.68317258
_cell_formula_units_Z   1
loop_
 _symmetry_equiv_pos_site_id
 _symmetry_equiv_pos_as_xyz
  1  'x, y, z'
loop_
 _atom_site_type_symbol
 _atom_site_label
 _atom_site_symmetry_multiplicity
 _atom_site_fract_x
 _atom_site_fract_y
 _atom_site_fract_z
 _atom_site_occupancy
  V  V0  1  0.000000  0.000000  0.000000  1
  Tc  Tc1  1  0.386448  0.301724  0.688172  1
  Tc  Tc2  1  0.301768  0.613542  0.915310  1
  Tc  Tc3  1  0.698232  0.386458  0.084690  1
  Tc  Tc4  1  0.613552  0.698276  0.311828  1
  As  As5  1  0.282683  0.063525  0.346208  1
  As  As6  1  0.063513  0.717298  0.780812  1
  As  As7  1  0.936487  0.282702  0.219188  1
  As  As8  1  0.717317  0.936475  0.653792  1
