# generated using pymatgen
data_Sr2MnCo5O12
_symmetry_space_group_name_H-M   'P 1'
_cell_length_a   4.93147246
_cell_length_b   6.09742121
_cell_length_c   8.55949700
_cell_angle_alpha   89.99996241
_cell_angle_beta   89.99998838
_cell_angle_gamma   73.82333325
_symmetry_Int_Tables_number   1
_chemical_formula_structural   Sr2MnCo5O12
_chemical_formula_sum   'Sr2 Mn1 Co5 O12'
_cell_volume   247.18748075
_cell_formula_units_Z   1
loop_
 _symmetry_equiv_pos_site_id
 _symmetry_equiv_pos_as_xyz
  1  'x, y, z'
loop_
 _atom_site_type_symbol
 _atom_site_label
 _atom_site_symmetry_multiplicity
 _atom_site_fract_x
 _atom_site_fract_y
 _atom_site_fract_z
 _atom_site_occupancy
  Sr  Sr0  1  0.000000  0.499999  0.165061  1
  Sr  Sr1  1  0.500001  0.500000  0.661443  1
  Mn  Mn2  1  0.500000  0.000000  0.835438  1
  Co  Co3  1  0.000000  0.000000  0.665907  1
  Co  Co4  1  0.500000  0.000000  0.498669  1
  Co  Co5  1  0.500000  0.000000  0.168121  1
  Co  Co6  1  0.000000  0.000000  0.334657  1
  Co  Co7  1  0.000000  0.000000  0.000428  1
  O  O8  1  0.778720  0.168031  0.169343  1
  O  O9  1  0.275849  0.172916  0.666836  1
  O  O10  1  0.221279  0.831969  0.169344  1
  O  O11  1  0.724151  0.827084  0.666836  1
  O  O12  1  0.273407  0.173259  0.001348  1
  O  O13  1  0.776741  0.168521  0.498342  1
  O  O14  1  0.271361  0.169136  0.333214  1
  O  O15  1  0.772784  0.173894  0.832721  1
  O  O16  1  0.728639  0.830864  0.333214  1
  O  O17  1  0.227216  0.826107  0.832721  1
  O  O18  1  0.726593  0.826740  0.001348  1
  O  O19  1  0.223259  0.831480  0.498342  1
