# generated using pymatgen
data_ZnAg2SnO4
_symmetry_space_group_name_H-M   'P 1'
_cell_length_a   3.21403800
_cell_length_b   5.50896111
_cell_length_c   6.62735887
_cell_angle_alpha   73.58003932
_cell_angle_beta   90.00000000
_cell_angle_gamma   90.00000000
_symmetry_Int_Tables_number   1
_chemical_formula_structural   ZnAg2SnO4
_chemical_formula_sum   'Zn1 Ag2 Sn1 O4'
_cell_volume   112.55827115
_cell_formula_units_Z   1
loop_
 _symmetry_equiv_pos_site_id
 _symmetry_equiv_pos_as_xyz
  1  'x, y, z'
loop_
 _atom_site_type_symbol
 _atom_site_label
 _atom_site_symmetry_multiplicity
 _atom_site_fract_x
 _atom_site_fract_y
 _atom_site_fract_z
 _atom_site_occupancy
  Zn  Zn0  1  0.000000  0.500000  0.500000  1
  Ag  Ag1  1  0.000000  0.000000  0.000000  1
  Ag  Ag2  1  0.500000  0.500000  0.000000  1
  Sn  Sn3  1  0.500000  0.000000  0.500000  1
  O  O4  1  0.500000  0.379574  0.335324  1
  O  O5  1  0.000000  0.897554  0.331004  1
  O  O6  1  0.500000  0.620426  0.664676  1
  O  O7  1  0.000000  0.102446  0.668996  1
