# generated using pymatgen
data_Th5In2Tc3
_symmetry_space_group_name_H-M   'P 1'
_cell_length_a   8.74586195
_cell_length_b   8.74586100
_cell_length_c   8.74586119
_cell_angle_alpha   109.51363538
_cell_angle_beta   109.51364318
_cell_angle_gamma   109.51364086
_symmetry_Int_Tables_number   1
_chemical_formula_structural   Th5In2Tc3
_chemical_formula_sum   'Th10 In4 Tc6'
_cell_volume   514.16430907
_cell_formula_units_Z   2
loop_
 _symmetry_equiv_pos_site_id
 _symmetry_equiv_pos_as_xyz
  1  'x, y, z'
loop_
 _atom_site_type_symbol
 _atom_site_label
 _atom_site_symmetry_multiplicity
 _atom_site_fract_x
 _atom_site_fract_y
 _atom_site_fract_z
 _atom_site_occupancy
  Th  Th0  1  0.471175  0.156990  0.220641  1
  Th  Th1  1  0.156990  0.220641  0.471175  1
  Th  Th2  1  0.220641  0.471175  0.156990  1
  Th  Th3  1  0.407724  0.700039  0.907112  1
  Th  Th4  1  0.700039  0.907112  0.407724  1
  Th  Th5  1  0.907112  0.407724  0.700039  1
  Th  Th6  1  0.657056  0.094087  0.844000  1
  Th  Th7  1  0.094087  0.844000  0.657056  1
  Th  Th8  1  0.844000  0.657056  0.094087  1
  Th  Th9  1  0.614348  0.614348  0.614348  1
  In  In10  1  0.407067  0.310809  0.908090  1
  In  In11  1  0.310809  0.908090  0.407067  1
  In  In12  1  0.908090  0.407067  0.310809  1
  In  In13  1  0.004282  0.004282  0.004282  1
  Tc  Tc14  1  0.015886  0.157955  0.766936  1
  Tc  Tc15  1  0.157955  0.766936  0.015886  1
  Tc  Tc16  1  0.766936  0.015886  0.157955  1
  Tc  Tc17  1  0.658527  0.547813  0.299465  1
  Tc  Tc18  1  0.547813  0.299465  0.658527  1
  Tc  Tc19  1  0.299465  0.658527  0.547813  1
