# generated using pymatgen
data_Ba4Ca2ReTcN8
_symmetry_space_group_name_H-M   'P 1'
_cell_length_a   10.92064481
_cell_length_b   10.55077071
_cell_length_c   8.07587537
_cell_angle_alpha   70.35980188
_cell_angle_beta   65.49472422
_cell_angle_gamma   44.14547100
_symmetry_Int_Tables_number   1
_chemical_formula_structural   Ba4Ca2ReTcN8
_chemical_formula_sum   'Ba8 Ca4 Re2 Tc2 N16'
_cell_volume   588.61991482
_cell_formula_units_Z   2
loop_
 _symmetry_equiv_pos_site_id
 _symmetry_equiv_pos_as_xyz
  1  'x, y, z'
loop_
 _atom_site_type_symbol
 _atom_site_label
 _atom_site_symmetry_multiplicity
 _atom_site_fract_x
 _atom_site_fract_y
 _atom_site_fract_z
 _atom_site_occupancy
  Ba  Ba0  1  0.572132  0.927868  0.927868  1
  Ba  Ba1  1  0.927868  0.572132  0.572132  1
  Ba  Ba2  1  0.322334  0.677666  0.677666  1
  Ba  Ba3  1  0.115096  0.115096  0.884904  1
  Ba  Ba4  1  0.141253  0.141253  0.358747  1
  Ba  Ba5  1  0.358747  0.358747  0.141253  1
  Ba  Ba6  1  0.677666  0.322334  0.322334  1
  Ba  Ba7  1  0.884904  0.884904  0.115096  1
  Ca  Ca8  1  0.336807  0.336807  0.663193  1
  Ca  Ca9  1  0.910232  0.910232  0.589768  1
  Ca  Ca10  1  0.663193  0.663193  0.336807  1
  Ca  Ca11  1  0.589768  0.589768  0.910232  1
  Re  Re12  1  0.756767  0.243233  0.756767  1
  Re  Re13  1  0.243233  0.756767  0.243233  1
  Tc  Tc14  1  0.493659  0.006341  0.493659  1
  Tc  Tc15  1  0.006341  0.493659  0.006341  1
  N  N16  1  0.006369  0.660162  0.828687  1
  N  N17  1  0.703172  0.282100  0.994733  1
  N  N18  1  0.660162  0.006369  0.504783  1
  N  N19  1  0.504783  0.828687  0.660162  1
  N  N20  1  0.240568  0.595325  0.425814  1
  N  N21  1  0.738292  0.425814  0.595325  1
  N  N22  1  0.994733  0.019995  0.703172  1
  N  N23  1  0.543604  0.970779  0.252257  1
  N  N24  1  0.425814  0.738292  0.240568  1
  N  N25  1  0.970779  0.543604  0.233360  1
  N  N26  1  0.282100  0.703172  0.019995  1
  N  N27  1  0.828687  0.504783  0.006369  1
  N  N28  1  0.233360  0.252257  0.970779  1
  N  N29  1  0.595325  0.240568  0.738292  1
  N  N30  1  0.252257  0.233360  0.543604  1
  N  N31  1  0.019995  0.994733  0.282100  1
