# generated using pymatgen
data_Y4ScGa2Sn
_symmetry_space_group_name_H-M   'P 1'
_cell_length_a   7.61789100
_cell_length_b   7.61789100
_cell_length_c   14.44486500
_cell_angle_alpha   90.00000000
_cell_angle_beta   90.00000000
_cell_angle_gamma   90.00000000
_symmetry_Int_Tables_number   1
_chemical_formula_structural   Y4ScGa2Sn
_chemical_formula_sum   'Y16 Sc4 Ga8 Sn4'
_cell_volume   838.26820884
_cell_formula_units_Z   4
loop_
 _symmetry_equiv_pos_site_id
 _symmetry_equiv_pos_as_xyz
  1  'x, y, z'
loop_
 _atom_site_type_symbol
 _atom_site_label
 _atom_site_symmetry_multiplicity
 _atom_site_fract_x
 _atom_site_fract_y
 _atom_site_fract_z
 _atom_site_occupancy
  Y  Y0  1  0.833590  0.831178  0.891254  1
  Y  Y1  1  0.168822  0.166410  0.608746  1
  Y  Y2  1  0.833590  0.168822  0.391254  1
  Y  Y3  1  0.166410  0.831178  0.391254  1
  Y  Y4  1  0.331178  0.333590  0.391254  1
  Y  Y5  1  0.831178  0.166410  0.108746  1
  Y  Y6  1  0.331178  0.666410  0.891254  1
  Y  Y7  1  0.168822  0.833590  0.108746  1
  Y  Y8  1  0.333590  0.668822  0.608746  1
  Y  Y9  1  0.666410  0.668822  0.108746  1
  Y  Y10  1  0.666410  0.331178  0.608746  1
  Y  Y11  1  0.831178  0.833590  0.608746  1
  Y  Y12  1  0.668822  0.333590  0.891254  1
  Y  Y13  1  0.166410  0.168822  0.891254  1
  Y  Y14  1  0.668822  0.666410  0.391254  1
  Y  Y15  1  0.333590  0.331178  0.108746  1
  Sc  Sc16  1  0.500000  0.000000  0.752519  1
  Sc  Sc17  1  0.000000  0.500000  0.247481  1
  Sc  Sc18  1  0.000000  0.500000  0.747481  1
  Sc  Sc19  1  0.500000  0.000000  0.252519  1
  Ga  Ga20  1  0.629287  0.370713  0.250000  1
  Ga  Ga21  1  0.370713  0.629287  0.250000  1
  Ga  Ga22  1  0.129287  0.129287  0.250000  1
  Ga  Ga23  1  0.370713  0.370713  0.750000  1
  Ga  Ga24  1  0.129287  0.870713  0.750000  1
  Ga  Ga25  1  0.870713  0.870713  0.250000  1
  Ga  Ga26  1  0.629287  0.629287  0.750000  1
  Ga  Ga27  1  0.870713  0.129287  0.750000  1
  Sn  Sn28  1  0.000000  0.500000  0.001822  1
  Sn  Sn29  1  0.500000  0.000000  0.998178  1
  Sn  Sn30  1  0.500000  0.000000  0.498178  1
  Sn  Sn31  1  0.000000  0.500000  0.501822  1
