# generated using pymatgen
data_Er(Tm2Zn)4
_symmetry_space_group_name_H-M   'P 1'
_cell_length_a   8.44211171
_cell_length_b   8.44211093
_cell_length_c   8.44136829
_cell_angle_alpha   94.96922321
_cell_angle_beta   95.01986260
_cell_angle_gamma   145.67918003
_symmetry_Int_Tables_number   1
_chemical_formula_structural   Er(Tm2Zn)4
_chemical_formula_sum   'Er1 Tm8 Zn4'
_cell_volume   324.10020685
_cell_formula_units_Z   1
loop_
 _symmetry_equiv_pos_site_id
 _symmetry_equiv_pos_as_xyz
  1  'x, y, z'
loop_
 _atom_site_type_symbol
 _atom_site_label
 _atom_site_symmetry_multiplicity
 _atom_site_fract_x
 _atom_site_fract_y
 _atom_site_fract_z
 _atom_site_occupancy
  Er  Er0  1  0.181971  0.888479  0.070452  1
  Tm  Tm1  1  0.499916  0.500065  0.999984  1
  Tm  Tm2  1  0.111434  0.182009  0.293443  1
  Tm  Tm3  1  0.883757  0.400897  0.284655  1
  Tm  Tm4  1  0.599091  0.883698  0.482791  1
  Tm  Tm5  1  0.400967  0.116420  0.517386  1
  Tm  Tm6  1  0.116335  0.599005  0.715341  1
  Tm  Tm7  1  0.888489  0.818096  0.706586  1
  Tm  Tm8  1  0.818062  0.111446  0.929509  1
  Zn  Zn9  1  0.393127  0.736301  0.129429  1
  Zn  Zn10  1  0.736358  0.606972  0.343333  1
  Zn  Zn11  1  0.263616  0.393062  0.656677  1
  Zn  Zn12  1  0.606868  0.263544  0.870412  1
