# generated using pymatgen
data_Tm8ZnGaPd23
_symmetry_space_group_name_H-M   'P 1'
_cell_length_a   8.38208400
_cell_length_b   8.33711900
_cell_length_c   8.22751000
_cell_angle_alpha   90.00000000
_cell_angle_beta   90.00000000
_cell_angle_gamma   90.00000000
_symmetry_Int_Tables_number   1
_chemical_formula_structural   Tm8ZnGaPd23
_chemical_formula_sum   'Tm8 Zn1 Ga1 Pd23'
_cell_volume   574.95840626
_cell_formula_units_Z   1
loop_
 _symmetry_equiv_pos_site_id
 _symmetry_equiv_pos_as_xyz
  1  'x, y, z'
loop_
 _atom_site_type_symbol
 _atom_site_label
 _atom_site_symmetry_multiplicity
 _atom_site_fract_x
 _atom_site_fract_y
 _atom_site_fract_z
 _atom_site_occupancy
  Tm  Tm0  1  0.261275  0.246039  0.748145  1
  Tm  Tm1  1  0.251620  0.746741  0.252637  1
  Tm  Tm2  1  0.748380  0.253259  0.252637  1
  Tm  Tm3  1  0.738725  0.753961  0.748145  1
  Tm  Tm4  1  0.748380  0.746741  0.252637  1
  Tm  Tm5  1  0.738725  0.246039  0.748145  1
  Tm  Tm6  1  0.261275  0.753961  0.748145  1
  Tm  Tm7  1  0.251620  0.253259  0.252637  1
  Zn  Zn8  1  0.000000  0.500000  0.729797  1
  Ga  Ga9  1  0.000000  0.000000  0.003388  1
  Pd  Pd10  1  0.500000  0.500000  0.747524  1
  Pd  Pd11  1  0.500000  0.253418  0.498202  1
  Pd  Pd12  1  0.252727  0.500000  0.505831  1
  Pd  Pd13  1  0.500000  0.500000  0.253266  1
  Pd  Pd14  1  0.500000  0.746582  0.498202  1
  Pd  Pd15  1  0.747273  0.500000  0.505831  1
  Pd  Pd16  1  0.000000  0.000000  0.710017  1
  Pd  Pd17  1  0.000000  0.294503  0.985625  1
  Pd  Pd18  1  0.288740  0.000000  0.002309  1
  Pd  Pd19  1  0.000000  0.000000  0.296572  1
  Pd  Pd20  1  0.000000  0.705497  0.985625  1
  Pd  Pd21  1  0.711260  0.000000  0.002309  1
  Pd  Pd22  1  0.500000  0.258966  0.002617  1
  Pd  Pd23  1  0.261010  0.000000  0.499450  1
  Pd  Pd24  1  0.000000  0.263821  0.508328  1
  Pd  Pd25  1  0.500000  0.000000  0.741272  1
  Pd  Pd26  1  0.260967  0.500000  0.996407  1
  Pd  Pd27  1  0.000000  0.500000  0.257348  1
  Pd  Pd28  1  0.500000  0.741034  0.002617  1
  Pd  Pd29  1  0.000000  0.736179  0.508328  1
  Pd  Pd30  1  0.500000  0.000000  0.260151  1
  Pd  Pd31  1  0.738990  0.000000  0.499450  1
  Pd  Pd32  1  0.739033  0.500000  0.996407  1
