# generated using pymatgen
data_YTm2Sn3Ir2Rh
_symmetry_space_group_name_H-M   'P 1'
_cell_length_a   7.67495960
_cell_length_b   7.64901362
_cell_length_c   3.69895800
_cell_angle_alpha   90.00000000
_cell_angle_beta   90.00000000
_cell_angle_gamma   119.88823875
_symmetry_Int_Tables_number   1
_chemical_formula_structural   YTm2Sn3Ir2Rh
_chemical_formula_sum   'Y1 Tm2 Sn3 Ir2 Rh1'
_cell_volume   188.26932149
_cell_formula_units_Z   1
loop_
 _symmetry_equiv_pos_site_id
 _symmetry_equiv_pos_as_xyz
  1  'x, y, z'
loop_
 _atom_site_type_symbol
 _atom_site_label
 _atom_site_symmetry_multiplicity
 _atom_site_fract_x
 _atom_site_fract_y
 _atom_site_fract_z
 _atom_site_occupancy
  Y  Y0  1  0.000000  0.403093  0.000000  1
  Tm  Tm1  1  0.596669  0.596741  0.000000  1
  Tm  Tm2  1  0.403331  0.000073  0.000000  1
  Sn  Sn3  1  0.267090  0.265719  0.500000  1
  Sn  Sn4  1  0.000000  0.734771  0.500000  1
  Sn  Sn5  1  0.732910  0.998629  0.500000  1
  Ir  Ir6  1  0.662879  0.332652  0.500000  1
  Ir  Ir7  1  0.337121  0.669773  0.500000  1
  Rh  Rh8  1  0.000000  0.998549  0.000000  1
