# generated using pymatgen
data_Pr(NbSn)6
_symmetry_space_group_name_H-M   'P 1'
_cell_length_a   5.83988302
_cell_length_b   5.83988236
_cell_length_c   9.64481700
_cell_angle_alpha   90.00000000
_cell_angle_beta   90.00000000
_cell_angle_gamma   120.00240260
_symmetry_Int_Tables_number   1
_chemical_formula_structural   Pr(NbSn)6
_chemical_formula_sum   'Pr1 Nb6 Sn6'
_cell_volume   284.85402152
_cell_formula_units_Z   1
loop_
 _symmetry_equiv_pos_site_id
 _symmetry_equiv_pos_as_xyz
  1  'x, y, z'
loop_
 _atom_site_type_symbol
 _atom_site_label
 _atom_site_symmetry_multiplicity
 _atom_site_fract_x
 _atom_site_fract_y
 _atom_site_fract_z
 _atom_site_occupancy
  Pr  Pr0  1  0.000003  0.000004  0.000000  1
  Nb  Nb1  1  0.499986  0.499987  0.250041  1
  Nb  Nb2  1  0.499997  0.999992  0.250047  1
  Nb  Nb3  1  0.999994  0.499997  0.250047  1
  Nb  Nb4  1  0.499997  0.999992  0.749953  1
  Nb  Nb5  1  0.999994  0.499997  0.749953  1
  Nb  Nb6  1  0.499986  0.499987  0.749958  1
  Sn  Sn7  1  0.666719  0.333395  0.000000  1
  Sn  Sn8  1  0.333395  0.666718  0.000000  1
  Sn  Sn9  1  0.999992  0.999992  0.331270  1
  Sn  Sn10  1  0.666717  0.333428  0.500000  1
  Sn  Sn11  1  0.333429  0.666718  0.500000  1
  Sn  Sn12  1  0.999992  0.999992  0.668730  1
