# generated using pymatgen
data_HoTh2In5
_symmetry_space_group_name_H-M   'P 1'
_cell_length_a   6.58323338
_cell_length_b   6.58323366
_cell_length_c   10.33025000
_cell_angle_alpha   90.00000000
_cell_angle_beta   90.00000000
_cell_angle_gamma   102.32922954
_symmetry_Int_Tables_number   1
_chemical_formula_structural   HoTh2In5
_chemical_formula_sum   'Ho2 Th4 In10'
_cell_volume   437.37686655
_cell_formula_units_Z   2
loop_
 _symmetry_equiv_pos_site_id
 _symmetry_equiv_pos_as_xyz
  1  'x, y, z'
loop_
 _atom_site_type_symbol
 _atom_site_label
 _atom_site_symmetry_multiplicity
 _atom_site_fract_x
 _atom_site_fract_y
 _atom_site_fract_z
 _atom_site_occupancy
  Ho  Ho0  1  0.630155  0.630155  0.250000  1
  Ho  Ho1  1  0.369845  0.369845  0.750000  1
  Th  Th2  1  0.206561  0.793439  0.500000  1
  Th  Th3  1  0.206561  0.793439  0.000000  1
  Th  Th4  1  0.793439  0.206561  0.500000  1
  Th  Th5  1  0.793439  0.206561  0.000000  1
  In  In6  1  0.009964  0.009964  0.250000  1
  In  In7  1  0.990036  0.990036  0.750000  1
  In  In8  1  0.310363  0.310363  0.046672  1
  In  In9  1  0.689637  0.689637  0.953328  1
  In  In10  1  0.310363  0.310363  0.453328  1
  In  In11  1  0.689637  0.689637  0.546672  1
  In  In12  1  0.493099  0.068455  0.250000  1
  In  In13  1  0.931545  0.506901  0.750000  1
  In  In14  1  0.506901  0.931545  0.750000  1
  In  In15  1  0.068455  0.493099  0.250000  1
