# generated using pymatgen
data_Th3Ga3RuPt2
_symmetry_space_group_name_H-M   'P 1'
_cell_length_a   7.33643300
_cell_length_b   7.33643258
_cell_length_c   4.07417200
_cell_angle_alpha   90.00000000
_cell_angle_beta   90.00000000
_cell_angle_gamma   120.00001542
_symmetry_Int_Tables_number   1
_chemical_formula_structural   Th3Ga3RuPt2
_chemical_formula_sum   'Th3 Ga3 Ru1 Pt2'
_cell_volume   189.90649157
_cell_formula_units_Z   1
loop_
 _symmetry_equiv_pos_site_id
 _symmetry_equiv_pos_as_xyz
  1  'x, y, z'
loop_
 _atom_site_type_symbol
 _atom_site_label
 _atom_site_symmetry_multiplicity
 _atom_site_fract_x
 _atom_site_fract_y
 _atom_site_fract_z
 _atom_site_occupancy
  Th  Th0  1  0.420273  0.412979  0.500000  1
  Th  Th1  1  0.587021  0.007294  0.500000  1
  Th  Th2  1  0.992706  0.579727  0.500000  1
  Ga  Ga3  1  0.761163  0.755002  0.000000  1
  Ga  Ga4  1  0.244998  0.006161  0.000000  1
  Ga  Ga5  1  0.993839  0.238837  0.000000  1
  Ru  Ru6  1  0.666667  0.333333  0.000000  1
  Pt  Pt7  1  0.333333  0.666667  0.000000  1
  Pt  Pt8  1  0.000000  0.000000  0.500000  1
