# generated using pymatgen
data_Dy8Ta11Si16Au
_symmetry_space_group_name_H-M   'P 1'
_cell_length_a   7.04649952
_cell_length_b   7.04649892
_cell_length_c   12.97098493
_cell_angle_alpha   89.72908147
_cell_angle_beta   90.27092051
_cell_angle_gamma   89.68997530
_symmetry_Int_Tables_number   1
_chemical_formula_structural   Dy8Ta11Si16Au
_chemical_formula_sum   'Dy8 Ta11 Si16 Au1'
_cell_volume   644.02636998
_cell_formula_units_Z   1
loop_
 _symmetry_equiv_pos_site_id
 _symmetry_equiv_pos_as_xyz
  1  'x, y, z'
loop_
 _atom_site_type_symbol
 _atom_site_label
 _atom_site_symmetry_multiplicity
 _atom_site_fract_x
 _atom_site_fract_y
 _atom_site_fract_z
 _atom_site_occupancy
  Dy  Dy0  1  0.997697  0.658381  0.032617  1
  Dy  Dy1  1  0.998910  0.344595  0.531835  1
  Dy  Dy2  1  0.658381  0.997697  0.967383  1
  Dy  Dy3  1  0.159437  0.503542  0.782406  1
  Dy  Dy4  1  0.841798  0.497180  0.284154  1
  Dy  Dy5  1  0.503542  0.159437  0.217594  1
  Dy  Dy6  1  0.497180  0.841798  0.715846  1
  Dy  Dy7  1  0.344595  0.998910  0.468165  1
  Ta  Ta8  1  0.347300  0.502252  0.377315  1
  Ta  Ta9  1  0.849680  0.991844  0.376364  1
  Ta  Ta10  1  0.008096  0.152243  0.126710  1
  Ta  Ta11  1  0.991844  0.849680  0.623636  1
  Ta  Ta12  1  0.502252  0.347300  0.622685  1
  Ta  Ta13  1  0.152243  0.008096  0.873290  1
  Ta  Ta14  1  0.828879  0.173219  0.749787  1
  Ta  Ta15  1  0.173219  0.828879  0.250213  1
  Ta  Ta16  1  0.328815  0.328815  0.000000  1
  Ta  Ta17  1  0.495126  0.650490  0.123955  1
  Ta  Ta18  1  0.650490  0.495126  0.876045  1
  Si  Si19  1  0.059775  0.711045  0.435080  1
  Si  Si20  1  0.954451  0.294780  0.936356  1
  Si  Si21  1  0.711045  0.059775  0.564920  1
  Si  Si22  1  0.206045  0.455663  0.187257  1
  Si  Si23  1  0.794323  0.544486  0.689471  1
  Si  Si24  1  0.455663  0.206045  0.812743  1
  Si  Si25  1  0.544486  0.794323  0.310529  1
  Si  Si26  1  0.294780  0.954451  0.063644  1
  Si  Si27  1  0.798403  0.863796  0.183154  1
  Si  Si28  1  0.281161  0.629017  0.571496  1
  Si  Si29  1  0.705204  0.364761  0.068193  1
  Si  Si30  1  0.629017  0.281161  0.428504  1
  Si  Si31  1  0.364761  0.705204  0.931807  1
  Si  Si32  1  0.135030  0.202689  0.318794  1
  Si  Si33  1  0.202689  0.135030  0.681206  1
  Si  Si34  1  0.863796  0.798403  0.816846  1
  Au  Au35  1  0.669889  0.669889  0.500000  1
