# generated using pymatgen
data_Ce5Sn3Os
_symmetry_space_group_name_H-M   'P 1'
_cell_length_a   6.30623100
_cell_length_b   9.57539990
_cell_length_c   9.57463703
_cell_angle_alpha   120.00263838
_cell_angle_beta   90.00000000
_cell_angle_gamma   90.00000000
_symmetry_Int_Tables_number   1
_chemical_formula_structural   Ce5Sn3Os
_chemical_formula_sum   'Ce10 Sn6 Os2'
_cell_volume   500.68917212
_cell_formula_units_Z   2
loop_
 _symmetry_equiv_pos_site_id
 _symmetry_equiv_pos_as_xyz
  1  'x, y, z'
loop_
 _atom_site_type_symbol
 _atom_site_label
 _atom_site_symmetry_multiplicity
 _atom_site_fract_x
 _atom_site_fract_y
 _atom_site_fract_z
 _atom_site_occupancy
  Ce  Ce0  1  0.749966  0.245140  0.000000  1
  Ce  Ce1  1  0.749987  0.754888  0.754917  1
  Ce  Ce2  1  0.749987  0.999970  0.245083  1
  Ce  Ce3  1  0.249966  0.754860  0.000000  1
  Ce  Ce4  1  0.249987  0.245112  0.245083  1
  Ce  Ce5  1  0.249987  0.000030  0.754917  1
  Ce  Ce6  1  0.500022  0.333307  0.666615  1
  Ce  Ce7  1  0.500022  0.666692  0.333385  1
  Ce  Ce8  1  0.000022  0.666693  0.333385  1
  Ce  Ce9  1  0.000022  0.333308  0.666615  1
  Sn  Sn10  1  0.750062  0.604496  0.000000  1
  Sn  Sn11  1  0.750004  0.395473  0.395472  1
  Sn  Sn12  1  0.750004  0.000002  0.604528  1
  Sn  Sn13  1  0.250062  0.395504  0.000000  1
  Sn  Sn14  1  0.250004  0.604527  0.604528  1
  Sn  Sn15  1  0.250004  0.999998  0.395472  1
  Os  Os16  1  0.499947  0.999996  0.000000  1
  Os  Os17  1  0.999947  0.000004  0.000000  1
