# generated using pymatgen
data_YTm4B4P8Ir19
_symmetry_space_group_name_H-M   'P 1'
_cell_length_a   12.40897462
_cell_length_b   12.37681299
_cell_length_c   3.95451300
_cell_angle_alpha   90.00000000
_cell_angle_beta   90.00000000
_cell_angle_gamma   119.62693104
_symmetry_Int_Tables_number   1
_chemical_formula_structural   YTm4B4P8Ir19
_chemical_formula_sum   'Y1 Tm4 B4 P8 Ir19'
_cell_volume   527.94509474
_cell_formula_units_Z   1
loop_
 _symmetry_equiv_pos_site_id
 _symmetry_equiv_pos_as_xyz
  1  'x, y, z'
loop_
 _atom_site_type_symbol
 _atom_site_label
 _atom_site_symmetry_multiplicity
 _atom_site_fract_x
 _atom_site_fract_y
 _atom_site_fract_z
 _atom_site_occupancy
  Y  Y0  1  0.182746  0.187535  0.000000  1
  Tm  Tm1  1  0.332715  0.666691  0.500000  1
  Tm  Tm2  1  0.675001  0.331150  0.500000  1
  Tm  Tm3  1  0.815168  0.002706  0.000000  1
  Tm  Tm4  1  0.001860  0.816356  0.000000  1
  B  B5  1  0.305220  0.815059  0.000000  1
  B  B6  1  0.178284  0.487352  0.000000  1
  B  B7  1  0.509980  0.692125  0.000000  1
  B  B8  1  0.823344  0.303256  0.000000  1
  P  P9  1  0.486995  0.173871  0.000000  1
  P  P10  1  0.692519  0.513564  0.000000  1
  P  P11  1  0.359149  0.365065  0.500000  1
  P  P12  1  0.640505  0.001098  0.500000  1
  P  P13  1  0.006038  0.640222  0.500000  1
  P  P14  1  0.816426  0.820169  0.500000  1
  P  P15  1  0.180023  0.997908  0.500000  1
  P  P16  1  0.001722  0.185666  0.500000  1
  Ir  Ir17  1  0.199282  0.817847  0.500000  1
  Ir  Ir18  1  0.181755  0.383148  0.500000  1
  Ir  Ir19  1  0.619656  0.804191  0.500000  1
  Ir  Ir20  1  0.821615  0.200764  0.500000  1
  Ir  Ir21  1  0.376609  0.181282  0.500000  1
  Ir  Ir22  1  0.807617  0.624229  0.500000  1
  Ir  Ir23  1  0.135305  0.637548  0.000000  1
  Ir  Ir24  1  0.359982  0.501230  0.000000  1
  Ir  Ir25  1  0.496778  0.858476  0.000000  1
  Ir  Ir26  1  0.643040  0.130080  0.000000  1
  Ir  Ir27  1  0.491338  0.363598  0.000000  1
  Ir  Ir28  1  0.868588  0.497228  0.000000  1
  Ir  Ir29  1  0.539807  0.549281  0.500000  1
  Ir  Ir30  1  0.454089  0.994777  0.500000  1
  Ir  Ir31  1  0.002970  0.455843  0.500000  1
  Ir  Ir32  1  0.701349  0.707027  0.000000  1
  Ir  Ir33  1  0.292807  0.993909  0.000000  1
  Ir  Ir34  1  0.001518  0.299984  0.000000  1
  Ir  Ir35  1  0.998199  0.999768  0.500000  1
