# generated using pymatgen
data_LaY3Er4(CdNi)2
_symmetry_space_group_name_H-M   'P 1'
_cell_length_a   9.60996017
_cell_length_b   9.60996043
_cell_length_c   9.60184100
_cell_angle_alpha   60.02794848
_cell_angle_beta   60.02794760
_cell_angle_gamma   60.25122638
_symmetry_Int_Tables_number   1
_chemical_formula_structural   LaY3Er4(CdNi)2
_chemical_formula_sum   'La2 Y6 Er8 Cd4 Ni4'
_cell_volume   628.46995687
_cell_formula_units_Z   2
loop_
 _symmetry_equiv_pos_site_id
 _symmetry_equiv_pos_as_xyz
  1  'x, y, z'
loop_
 _atom_site_type_symbol
 _atom_site_label
 _atom_site_symmetry_multiplicity
 _atom_site_fract_x
 _atom_site_fract_y
 _atom_site_fract_z
 _atom_site_occupancy
  La  La0  1  0.595994  0.595994  0.601475  1
  La  La1  1  0.595994  0.595994  0.206535  1
  Y  Y2  1  0.187074  0.814839  0.813663  1
  Y  Y3  1  0.814839  0.187074  0.184425  1
  Y  Y4  1  0.814839  0.187074  0.813663  1
  Y  Y5  1  0.187074  0.814839  0.184425  1
  Y  Y6  1  0.815024  0.815024  0.184976  1
  Y  Y7  1  0.188270  0.188270  0.811730  1
  Er  Er8  1  0.600273  0.197015  0.601356  1
  Er  Er9  1  0.197015  0.600273  0.601356  1
  Er  Er10  1  0.065605  0.438185  0.434461  1
  Er  Er11  1  0.438185  0.065605  0.061748  1
  Er  Er12  1  0.438185  0.065605  0.434461  1
  Er  Er13  1  0.065605  0.438185  0.061748  1
  Er  Er14  1  0.435840  0.435840  0.064160  1
  Er  Er15  1  0.063861  0.063861  0.436139  1
  Cd  Cd16  1  0.833368  0.833368  0.827485  1
  Cd  Cd17  1  0.833368  0.833368  0.505777  1
  Cd  Cd18  1  0.834635  0.504993  0.830185  1
  Cd  Cd19  1  0.504993  0.834635  0.830185  1
  Ni  Ni20  1  0.388240  0.388240  0.399669  1
  Ni  Ni21  1  0.388240  0.388240  0.823852  1
  Ni  Ni22  1  0.384566  0.828912  0.393261  1
  Ni  Ni23  1  0.828912  0.384566  0.393261  1
