# generated using pymatgen
data_MgZnGaPd5
_symmetry_space_group_name_H-M   'P 1'
_cell_length_a   4.15247400
_cell_length_b   5.48499200
_cell_length_c   10.69136000
_cell_angle_alpha   90.00000000
_cell_angle_beta   90.00000000
_cell_angle_gamma   90.00000000
_symmetry_Int_Tables_number   1
_chemical_formula_structural   MgZnGaPd5
_chemical_formula_sum   'Mg2 Zn2 Ga2 Pd10'
_cell_volume   243.50948025
_cell_formula_units_Z   2
loop_
 _symmetry_equiv_pos_site_id
 _symmetry_equiv_pos_as_xyz
  1  'x, y, z'
loop_
 _atom_site_type_symbol
 _atom_site_label
 _atom_site_symmetry_multiplicity
 _atom_site_fract_x
 _atom_site_fract_y
 _atom_site_fract_z
 _atom_site_occupancy
  Mg  Mg0  1  0.000000  0.832911  0.640062  1
  Mg  Mg1  1  0.000000  0.332911  0.859938  1
  Zn  Zn2  1  0.000000  0.161757  0.358626  1
  Zn  Zn3  1  0.000000  0.661757  0.141374  1
  Ga  Ga4  1  0.500000  0.509438  0.500605  1
  Ga  Ga5  1  0.500000  0.009438  0.999395  1
  Pd  Pd6  1  0.000000  0.819011  0.897181  1
  Pd  Pd7  1  0.000000  0.683718  0.389167  1
  Pd  Pd8  1  0.000000  0.319011  0.602819  1
  Pd  Pd9  1  0.500000  0.902157  0.232822  1
  Pd  Pd10  1  0.500000  0.402157  0.267178  1
  Pd  Pd11  1  0.500000  0.582407  0.739797  1
  Pd  Pd12  1  0.500000  0.082407  0.760203  1
  Pd  Pd13  1  0.500000  0.508601  0.005968  1
  Pd  Pd14  1  0.500000  0.008601  0.494032  1
  Pd  Pd15  1  0.000000  0.183718  0.110833  1
