# generated using pymatgen
data_CeDy9Ru4
_symmetry_space_group_name_H-M   'P 1'
_cell_length_a   8.61142132
_cell_length_b   8.58911965
_cell_length_c   7.22409746
_cell_angle_alpha   82.98395756
_cell_angle_beta   84.09235517
_cell_angle_gamma   43.50201655
_symmetry_Int_Tables_number   1
_chemical_formula_structural   CeDy9Ru4
_chemical_formula_sum   'Ce1 Dy9 Ru4'
_cell_volume   364.98554869
_cell_formula_units_Z   1
loop_
 _symmetry_equiv_pos_site_id
 _symmetry_equiv_pos_as_xyz
  1  'x, y, z'
loop_
 _atom_site_type_symbol
 _atom_site_label
 _atom_site_symmetry_multiplicity
 _atom_site_fract_x
 _atom_site_fract_y
 _atom_site_fract_z
 _atom_site_occupancy
  Ce  Ce0  1  0.199059  0.990460  0.597984  1
  Dy  Dy1  1  0.018800  0.791644  0.916893  1
  Dy  Dy2  1  0.211646  0.356655  0.312639  1
  Dy  Dy3  1  0.642851  0.792518  0.186447  1
  Dy  Dy4  1  0.797482  0.639929  0.684196  1
  Dy  Dy5  1  0.359595  0.208870  0.814147  1
  Dy  Dy6  1  0.974862  0.209248  0.085135  1
  Dy  Dy7  1  0.792833  0.021622  0.415793  1
  Dy  Dy8  1  0.573860  0.423564  0.751389  1
  Dy  Dy9  1  0.421618  0.579570  0.251743  1
  Ru  Ru10  1  0.174644  0.603075  0.573985  1
  Ru  Ru11  1  0.382149  0.836888  0.901223  1
  Ru  Ru12  1  0.850087  0.369424  0.433397  1
  Ru  Ru13  1  0.600514  0.176534  0.075030  1
