# generated using pymatgen
data_Li4SmTh3Si8
_symmetry_space_group_name_H-M   'P 1'
_cell_length_a   3.85468600
_cell_length_b   7.77496502
_cell_length_c   10.42896234
_cell_angle_alpha   89.81347281
_cell_angle_beta   90.00000000
_cell_angle_gamma   90.00000000
_symmetry_Int_Tables_number   1
_chemical_formula_structural   Li4SmTh3Si8
_chemical_formula_sum   'Li4 Sm1 Th3 Si8'
_cell_volume   312.55485407
_cell_formula_units_Z   1
loop_
 _symmetry_equiv_pos_site_id
 _symmetry_equiv_pos_as_xyz
  1  'x, y, z'
loop_
 _atom_site_type_symbol
 _atom_site_label
 _atom_site_symmetry_multiplicity
 _atom_site_fract_x
 _atom_site_fract_y
 _atom_site_fract_z
 _atom_site_occupancy
  Li  Li0  1  0.250000  0.994914  0.394995  1
  Li  Li1  1  0.750000  0.011221  0.604406  1
  Li  Li2  1  0.250000  0.488374  0.108795  1
  Li  Li3  1  0.750000  0.507976  0.896580  1
  Sm  Sm4  1  0.750000  0.367075  0.362859  1
  Th  Th5  1  0.250000  0.135941  0.862530  1
  Th  Th6  1  0.750000  0.860632  0.135948  1
  Th  Th7  1  0.250000  0.636398  0.636943  1
  Si  Si8  1  0.750000  0.265041  0.068742  1
  Si  Si9  1  0.250000  0.730041  0.930174  1
  Si  Si10  1  0.750000  0.768268  0.430865  1
  Si  Si11  1  0.250000  0.236755  0.567931  1
  Si  Si12  1  0.750000  0.836869  0.817263  1
  Si  Si13  1  0.250000  0.160523  0.181314  1
  Si  Si14  1  0.750000  0.336758  0.683523  1
  Si  Si15  1  0.250000  0.663215  0.317134  1
