# generated using pymatgen
data_Cs2ZnGeO4
_symmetry_space_group_name_H-M   'P 1'
_cell_length_a   7.20204900
_cell_length_b   11.13823105
_cell_length_c   8.29452400
_cell_angle_alpha   90.00014044
_cell_angle_beta   90.00052964
_cell_angle_gamma   78.62799733
_symmetry_Int_Tables_number   1
_chemical_formula_structural   Cs2ZnGeO4
_chemical_formula_sum   'Cs8 Zn4 Ge4 O16'
_cell_volume   652.30803950
_cell_formula_units_Z   4
loop_
 _symmetry_equiv_pos_site_id
 _symmetry_equiv_pos_as_xyz
  1  'x, y, z'
loop_
 _atom_site_type_symbol
 _atom_site_label
 _atom_site_symmetry_multiplicity
 _atom_site_fract_x
 _atom_site_fract_y
 _atom_site_fract_z
 _atom_site_occupancy
  Cs  Cs0  1  0.889994  0.963221  0.272629  1
  Cs  Cs1  1  0.389989  0.463221  0.272626  1
  Cs  Cs2  1  0.110008  0.036778  0.772626  1
  Cs  Cs3  1  0.610007  0.536779  0.772631  1
  Cs  Cs4  1  0.616245  0.205430  0.916507  1
  Cs  Cs5  1  0.116246  0.705430  0.916508  1
  Cs  Cs6  1  0.383753  0.794569  0.416510  1
  Cs  Cs7  1  0.883755  0.294568  0.416508  1
  Zn  Zn8  1  0.809777  0.603305  0.192545  1
  Zn  Zn9  1  0.690219  0.896697  0.692545  1
  Zn  Zn10  1  0.309775  0.103302  0.192554  1
  Zn  Zn11  1  0.190222  0.396698  0.692555  1
  Ge  Ge12  1  0.455521  0.151777  0.482437  1
  Ge  Ge13  1  0.955503  0.651766  0.482455  1
  Ge  Ge14  1  0.544500  0.848236  0.982455  1
  Ge  Ge15  1  0.044479  0.348223  0.982439  1
  O  O16  1  0.528864  0.176174  0.278130  1
  O  O17  1  0.028865  0.676171  0.278136  1
  O  O18  1  0.471141  0.823828  0.778142  1
  O  O19  1  0.971133  0.323827  0.778134  1
  O  O20  1  0.253520  0.084514  0.438888  1
  O  O21  1  0.753496  0.584498  0.438881  1
  O  O22  1  0.746512  0.915503  0.938885  1
  O  O23  1  0.246484  0.415485  0.938888  1
  O  O24  1  0.645813  0.056291  0.586179  1
  O  O25  1  0.145807  0.556292  0.586176  1
  O  O26  1  0.354191  0.943709  0.086178  1
  O  O27  1  0.854188  0.443709  0.086183  1
  O  O28  1  0.407429  0.294640  0.586171  1
  O  O29  1  0.907425  0.794623  0.586160  1
  O  O30  1  0.592573  0.705379  0.086161  1
  O  O31  1  0.092572  0.205360  0.086170  1
