# generated using pymatgen
data_ThU(CCl)2
_symmetry_space_group_name_H-M   'P 1'
_cell_length_a   4.11111003
_cell_length_b   4.11110989
_cell_length_c   9.78309200
_cell_angle_alpha   86.41742354
_cell_angle_beta   86.41742366
_cell_angle_gamma   53.97125652
_symmetry_Int_Tables_number   1
_chemical_formula_structural   ThU(CCl)2
_chemical_formula_sum   'Th1 U1 C2 Cl2'
_cell_volume   133.38998642
_cell_formula_units_Z   1
loop_
 _symmetry_equiv_pos_site_id
 _symmetry_equiv_pos_as_xyz
  1  'x, y, z'
loop_
 _atom_site_type_symbol
 _atom_site_label
 _atom_site_symmetry_multiplicity
 _atom_site_fract_x
 _atom_site_fract_y
 _atom_site_fract_z
 _atom_site_occupancy
  Th  Th0  1  0.855814  0.855814  0.141803  1
  U  U1  1  0.149744  0.149744  0.860902  1
  C  C2  1  0.578635  0.578635  0.031034  1
  C  C3  1  0.422953  0.422953  0.952185  1
  Cl  Cl4  1  0.821124  0.821124  0.681485  1
  Cl  Cl5  1  0.171731  0.171731  0.332591  1
