# generated using pymatgen
data_TmFeCo3P3W
_symmetry_space_group_name_H-M   'P 1'
_cell_length_a   3.68890400
_cell_length_b   10.34702600
_cell_length_c   11.86385400
_cell_angle_alpha   90.00000000
_cell_angle_beta   90.00000000
_cell_angle_gamma   90.00000000
_symmetry_Int_Tables_number   1
_chemical_formula_structural   TmFeCo3P3W
_chemical_formula_sum   'Tm4 Fe4 Co12 P12 W4'
_cell_volume   452.83364525
_cell_formula_units_Z   4
loop_
 _symmetry_equiv_pos_site_id
 _symmetry_equiv_pos_as_xyz
  1  'x, y, z'
loop_
 _atom_site_type_symbol
 _atom_site_label
 _atom_site_symmetry_multiplicity
 _atom_site_fract_x
 _atom_site_fract_y
 _atom_site_fract_z
 _atom_site_occupancy
  Tm  Tm0  1  0.250000  0.581371  0.706279  1
  Tm  Tm1  1  0.250000  0.918629  0.206279  1
  Tm  Tm2  1  0.750000  0.418629  0.293721  1
  Tm  Tm3  1  0.750000  0.081371  0.793721  1
  Fe  Fe4  1  0.250000  0.462921  0.933323  1
  Fe  Fe5  1  0.250000  0.037079  0.433323  1
  Fe  Fe6  1  0.750000  0.537079  0.066677  1
  Fe  Fe7  1  0.750000  0.962921  0.566677  1
  Co  Co8  1  0.250000  0.406470  0.487910  1
  Co  Co9  1  0.250000  0.093530  0.987910  1
  Co  Co10  1  0.750000  0.593530  0.512090  1
  Co  Co11  1  0.750000  0.906470  0.012090  1
  Co  Co12  1  0.250000  0.224345  0.176299  1
  Co  Co13  1  0.250000  0.275655  0.676299  1
  Co  Co14  1  0.750000  0.775655  0.823701  1
  Co  Co15  1  0.750000  0.724345  0.323701  1
  Co  Co16  1  0.250000  0.884814  0.702281  1
  Co  Co17  1  0.250000  0.615186  0.202281  1
  Co  Co18  1  0.750000  0.115186  0.297719  1
  Co  Co19  1  0.750000  0.384814  0.797719  1
  P  P20  1  0.250000  0.423980  0.114941  1
  P  P21  1  0.250000  0.076020  0.614941  1
  P  P22  1  0.750000  0.576020  0.885059  1
  P  P23  1  0.750000  0.923980  0.385059  1
  P  P24  1  0.250000  0.267303  0.863149  1
  P  P25  1  0.250000  0.232697  0.363149  1
  P  P26  1  0.750000  0.732697  0.136851  1
  P  P27  1  0.750000  0.767303  0.636851  1
  P  P28  1  0.250000  0.594570  0.390272  1
  P  P29  1  0.250000  0.905430  0.890272  1
  P  P30  1  0.750000  0.405430  0.609728  1
  P  P31  1  0.750000  0.094570  0.109728  1
  W  W32  1  0.250000  0.706343  0.989906  1
  W  W33  1  0.250000  0.793657  0.489906  1
  W  W34  1  0.750000  0.293657  0.010094  1
  W  W35  1  0.750000  0.206343  0.510094  1
