# generated using pymatgen
data_Ce4NiSn2Rh3
_symmetry_space_group_name_H-M   'P 1'
_cell_length_a   7.59224249
_cell_length_b   7.59224249
_cell_length_c   3.73590800
_cell_angle_alpha   90.00000000
_cell_angle_beta   90.00000000
_cell_angle_gamma   89.95900675
_symmetry_Int_Tables_number   1
_chemical_formula_structural   Ce4NiSn2Rh3
_chemical_formula_sum   'Ce4 Ni1 Sn2 Rh3'
_cell_volume   215.34569912
_cell_formula_units_Z   1
loop_
 _symmetry_equiv_pos_site_id
 _symmetry_equiv_pos_as_xyz
  1  'x, y, z'
loop_
 _atom_site_type_symbol
 _atom_site_label
 _atom_site_symmetry_multiplicity
 _atom_site_fract_x
 _atom_site_fract_y
 _atom_site_fract_z
 _atom_site_occupancy
  Ce  Ce0  1  0.326403  0.173278  0.499999  1
  Ce  Ce1  1  0.823038  0.323037  0.499999  1
  Ce  Ce2  1  0.174785  0.674786  0.499999  1
  Ce  Ce3  1  0.673279  0.826404  0.499999  1
  Ni  Ni4  1  0.631141  0.131140  0.000000  1
  Sn  Sn5  1  0.996494  0.001808  0.000000  1
  Sn  Sn6  1  0.501808  0.496494  0.000000  1
  Rh  Rh7  1  0.135845  0.363856  0.000000  1
  Rh  Rh8  1  0.863855  0.635846  0.000000  1
  Rh  Rh9  1  0.373351  0.873350  0.000000  1
