# generated using pymatgen
data_Tb8ZnGeI12
_symmetry_space_group_name_H-M   'P 1'
_cell_length_a   4.21422300
_cell_length_b   14.12468715
_cell_length_c   14.89190632
_cell_angle_alpha   89.92344854
_cell_angle_beta   90.00000000
_cell_angle_gamma   90.00000000
_symmetry_Int_Tables_number   1
_chemical_formula_structural   Tb8ZnGeI12
_chemical_formula_sum   'Tb8 Zn1 Ge1 I12'
_cell_volume   886.43369987
_cell_formula_units_Z   1
loop_
 _symmetry_equiv_pos_site_id
 _symmetry_equiv_pos_as_xyz
  1  'x, y, z'
loop_
 _atom_site_type_symbol
 _atom_site_label
 _atom_site_symmetry_multiplicity
 _atom_site_fract_x
 _atom_site_fract_y
 _atom_site_fract_z
 _atom_site_occupancy
  Tb  Tb0  1  0.500000  0.114938  0.346345  1
  Tb  Tb1  1  0.500000  0.885062  0.653655  1
  Tb  Tb2  1  0.500000  0.614408  0.153572  1
  Tb  Tb3  1  0.500000  0.385592  0.846428  1
  Tb  Tb4  1  0.000000  0.114436  0.577341  1
  Tb  Tb5  1  0.000000  0.885564  0.422659  1
  Tb  Tb6  1  0.000000  0.612200  0.924398  1
  Tb  Tb7  1  0.000000  0.387800  0.075602  1
  Zn  Zn8  1  0.500000  0.000000  0.500000  1
  Ge  Ge9  1  0.500000  0.500000  0.000000  1
  I  I10  1  0.500000  0.247124  0.163459  1
  I  I11  1  0.500000  0.752876  0.836541  1
  I  I12  1  0.500000  0.745725  0.334340  1
  I  I13  1  0.500000  0.254275  0.665660  1
  I  I14  1  0.000000  0.260771  0.414779  1
  I  I15  1  0.000000  0.739229  0.585221  1
  I  I16  1  0.000000  0.757672  0.084401  1
  I  I17  1  0.000000  0.242328  0.915599  1
  I  I18  1  0.000000  0.998964  0.237707  1
  I  I19  1  0.000000  0.001036  0.762293  1
  I  I20  1  0.000000  0.498433  0.258932  1
  I  I21  1  0.000000  0.501567  0.741068  1
