# generated using pymatgen
data_Dy13Y3MgCd2AgRh4
_symmetry_space_group_name_H-M   'P 1'
_cell_length_a   9.55847171
_cell_length_b   9.58204344
_cell_length_c   9.58152100
_cell_angle_alpha   60.22062226
_cell_angle_beta   60.24329863
_cell_angle_gamma   60.21674016
_symmetry_Int_Tables_number   1
_chemical_formula_structural   Dy13Y3MgCd2AgRh4
_chemical_formula_sum   'Dy13 Y3 Mg1 Cd2 Ag1 Rh4'
_cell_volume   623.72208734
_cell_formula_units_Z   1
loop_
 _symmetry_equiv_pos_site_id
 _symmetry_equiv_pos_as_xyz
  1  'x, y, z'
loop_
 _atom_site_type_symbol
 _atom_site_label
 _atom_site_symmetry_multiplicity
 _atom_site_fract_x
 _atom_site_fract_y
 _atom_site_fract_z
 _atom_site_occupancy
  Dy  Dy0  1  0.599836  0.597673  0.597063  1
  Dy  Dy1  1  0.599418  0.599796  0.204531  1
  Dy  Dy2  1  0.598763  0.205145  0.598447  1
  Dy  Dy3  1  0.194506  0.602148  0.602021  1
  Dy  Dy4  1  0.059098  0.439201  0.439026  1
  Dy  Dy5  1  0.437157  0.061501  0.062492  1
  Dy  Dy6  1  0.437592  0.061222  0.437813  1
  Dy  Dy7  1  0.059908  0.438256  0.060701  1
  Dy  Dy8  1  0.436787  0.437014  0.061935  1
  Dy  Dy9  1  0.059951  0.060213  0.439886  1
  Dy  Dy10  1  0.187868  0.814044  0.813381  1
  Dy  Dy11  1  0.812855  0.190206  0.183585  1
  Dy  Dy12  1  0.813234  0.190057  0.814168  1
  Y  Y13  1  0.186397  0.814004  0.186053  1
  Y  Y14  1  0.814865  0.816683  0.185184  1
  Y  Y15  1  0.184482  0.188169  0.813580  1
  Mg  Mg16  1  0.530425  0.819987  0.823859  1
  Cd  Cd17  1  0.831675  0.831046  0.832385  1
  Cd  Cd18  1  0.831361  0.831907  0.504450  1
  Ag  Ag19  1  0.832353  0.498381  0.835565  1
  Rh  Rh20  1  0.388480  0.393941  0.393981  1
  Rh  Rh21  1  0.390266  0.394964  0.822109  1
  Rh  Rh22  1  0.390311  0.822043  0.395197  1
  Rh  Rh23  1  0.822413  0.392400  0.392588  1
