# generated using pymatgen
data_PrNdVIr3
_symmetry_space_group_name_H-M   'P 1'
_cell_length_a   5.22332682
_cell_length_b   5.22332628
_cell_length_c   5.22332617
_cell_angle_alpha   66.18813552
_cell_angle_beta   66.18815194
_cell_angle_gamma   66.18814522
_symmetry_Int_Tables_number   1
_chemical_formula_structural   PrNdVIr3
_chemical_formula_sum   'Pr1 Nd1 V1 Ir3'
_cell_volume   114.23956915
_cell_formula_units_Z   1
loop_
 _symmetry_equiv_pos_site_id
 _symmetry_equiv_pos_as_xyz
  1  'x, y, z'
loop_
 _atom_site_type_symbol
 _atom_site_label
 _atom_site_symmetry_multiplicity
 _atom_site_fract_x
 _atom_site_fract_y
 _atom_site_fract_z
 _atom_site_occupancy
  Pr  Pr0  1  0.999928  0.999928  0.999928  1
  Nd  Nd1  1  0.250612  0.250612  0.250612  1
  V  V2  1  0.624933  0.624933  0.624933  1
  Ir  Ir3  1  0.624737  0.624737  0.125056  1
  Ir  Ir4  1  0.624737  0.125056  0.624737  1
  Ir  Ir5  1  0.125056  0.624737  0.624737  1
