# generated using pymatgen
data_K3TbV2O8
_symmetry_space_group_name_H-M   'P 1'
_cell_length_a   6.02856500
_cell_length_b   6.02856574
_cell_length_c   7.69937700
_cell_angle_alpha   90.00000000
_cell_angle_beta   90.00000000
_cell_angle_gamma   120.00000145
_symmetry_Int_Tables_number   1
_chemical_formula_structural   K3TbV2O8
_chemical_formula_sum   'K3 Tb1 V2 O8'
_cell_volume   242.33389318
_cell_formula_units_Z   1
loop_
 _symmetry_equiv_pos_site_id
 _symmetry_equiv_pos_as_xyz
  1  'x, y, z'
loop_
 _atom_site_type_symbol
 _atom_site_label
 _atom_site_symmetry_multiplicity
 _atom_site_fract_x
 _atom_site_fract_y
 _atom_site_fract_z
 _atom_site_occupancy
  K  K0  1  0.333333  0.666667  0.690222  1
  K  K1  1  0.666667  0.333333  0.309778  1
  K  K2  1  0.000000  0.000000  0.000000  1
  Tb  Tb3  1  0.000000  0.000000  0.500000  1
  V  V4  1  0.333333  0.666667  0.243067  1
  V  V5  1  0.666667  0.333333  0.756933  1
  O  O6  1  0.333333  0.666667  0.025040  1
  O  O7  1  0.666667  0.333333  0.974960  1
  O  O8  1  0.174421  0.825579  0.322701  1
  O  O9  1  0.825579  0.174421  0.677299  1
  O  O10  1  0.174421  0.348841  0.322701  1
  O  O11  1  0.825579  0.651159  0.677299  1
  O  O12  1  0.651159  0.825579  0.322701  1
  O  O13  1  0.348841  0.174421  0.677299  1
