# generated using pymatgen
data_Hf18FeMo8Se
_symmetry_space_group_name_H-M   'P 1'
_cell_length_a   8.59077200
_cell_length_b   8.68814358
_cell_length_c   8.68814358
_cell_angle_alpha   119.99882755
_cell_angle_beta   90.00000000
_cell_angle_gamma   90.00000000
_symmetry_Int_Tables_number   1
_chemical_formula_structural   Hf18FeMo8Se
_chemical_formula_sum   'Hf18 Fe1 Mo8 Se1'
_cell_volume   561.59332122
_cell_formula_units_Z   1
loop_
 _symmetry_equiv_pos_site_id
 _symmetry_equiv_pos_as_xyz
  1  'x, y, z'
loop_
 _atom_site_type_symbol
 _atom_site_label
 _atom_site_symmetry_multiplicity
 _atom_site_fract_x
 _atom_site_fract_y
 _atom_site_fract_z
 _atom_site_occupancy
  Hf  Hf0  1  0.546383  0.806348  0.612690  1
  Hf  Hf1  1  0.546395  0.806337  0.193663  1
  Hf  Hf2  1  0.546383  0.387310  0.193652  1
  Hf  Hf3  1  0.441983  0.203129  0.406252  1
  Hf  Hf4  1  0.441968  0.203131  0.796869  1
  Hf  Hf5  1  0.441983  0.593748  0.796871  1
  Hf  Hf6  1  0.058017  0.203129  0.406252  1
  Hf  Hf7  1  0.058032  0.203131  0.796869  1
  Hf  Hf8  1  0.058017  0.593748  0.796871  1
  Hf  Hf9  1  0.953617  0.806348  0.612690  1
  Hf  Hf10  1  0.953605  0.806337  0.193663  1
  Hf  Hf11  1  0.953617  0.387310  0.193652  1
  Hf  Hf12  1  0.750000  0.455893  0.911808  1
  Hf  Hf13  1  0.750000  0.455913  0.544087  1
  Hf  Hf14  1  0.750000  0.088192  0.544107  1
  Hf  Hf15  1  0.250000  0.540718  0.081423  1
  Hf  Hf16  1  0.250000  0.540712  0.459288  1
  Hf  Hf17  1  0.250000  0.918577  0.459282  1
  Fe  Fe18  1  0.250000  0.333348  0.666652  1
  Mo  Mo19  1  0.750000  0.111075  0.222173  1
  Mo  Mo20  1  0.750000  0.111076  0.888924  1
  Mo  Mo21  1  0.750000  0.777827  0.888925  1
  Mo  Mo22  1  0.250000  0.888404  0.776794  1
  Mo  Mo23  1  0.250000  0.888398  0.111602  1
  Mo  Mo24  1  0.250000  0.223206  0.111596  1
  Mo  Mo25  1  0.498001  0.000000  0.000000  1
  Mo  Mo26  1  0.001999  0.000000  0.000000  1
  Se  Se27  1  0.750000  0.666653  0.333347  1
