# generated using pymatgen
data_Er2B6MoW
_symmetry_space_group_name_H-M   'P 1'
_cell_length_a   3.15746500
_cell_length_b   5.42443171
_cell_length_c   6.80523311
_cell_angle_alpha   78.20830264
_cell_angle_beta   90.00000000
_cell_angle_gamma   90.00000000
_symmetry_Int_Tables_number   1
_chemical_formula_structural   Er2B6MoW
_chemical_formula_sum   'Er2 B6 Mo1 W1'
_cell_volume   114.09662548
_cell_formula_units_Z   1
loop_
 _symmetry_equiv_pos_site_id
 _symmetry_equiv_pos_as_xyz
  1  'x, y, z'
loop_
 _atom_site_type_symbol
 _atom_site_label
 _atom_site_symmetry_multiplicity
 _atom_site_fract_x
 _atom_site_fract_y
 _atom_site_fract_z
 _atom_site_occupancy
  Er  Er0  1  0.750000  0.823732  0.708905  1
  Er  Er1  1  0.250000  0.176166  0.290692  1
  B  B2  1  0.250000  0.582526  0.475573  1
  B  B3  1  0.750000  0.417476  0.523572  1
  B  B4  1  0.250000  0.587449  0.995591  1
  B  B5  1  0.750000  0.412626  0.005018  1
  B  B6  1  0.250000  0.916578  0.993004  1
  B  B7  1  0.750000  0.083193  0.007510  1
  Mo  Mo8  1  0.250000  0.311225  0.779493  1
  W  W9  1  0.750000  0.689030  0.220642  1
