# generated using pymatgen
data_Tb10Sn3BiIr2
_symmetry_space_group_name_H-M   'P 1'
_cell_length_a   7.92695124
_cell_length_b   9.06966612
_cell_length_c   12.37812061
_cell_angle_alpha   90.04220294
_cell_angle_beta   90.11064703
_cell_angle_gamma   89.95947895
_symmetry_Int_Tables_number   1
_chemical_formula_structural   Tb10Sn3BiIr2
_chemical_formula_sum   'Tb20 Sn6 Bi2 Ir4'
_cell_volume   889.92039708
_cell_formula_units_Z   2
loop_
 _symmetry_equiv_pos_site_id
 _symmetry_equiv_pos_as_xyz
  1  'x, y, z'
loop_
 _atom_site_type_symbol
 _atom_site_label
 _atom_site_symmetry_multiplicity
 _atom_site_fract_x
 _atom_site_fract_y
 _atom_site_fract_z
 _atom_site_occupancy
  Tb  Tb0  1  0.838528  0.746439  0.790248  1
  Tb  Tb1  1  0.161472  0.253561  0.209752  1
  Tb  Tb2  1  0.344624  0.254017  0.711443  1
  Tb  Tb3  1  0.655376  0.745983  0.288557  1
  Tb  Tb4  1  0.376249  0.747003  0.697844  1
  Tb  Tb5  1  0.623751  0.252997  0.302156  1
  Tb  Tb6  1  0.868417  0.253503  0.803580  1
  Tb  Tb7  1  0.131583  0.746497  0.196420  1
  Tb  Tb8  1  0.949864  0.743163  0.502031  1
  Tb  Tb9  1  0.050136  0.256837  0.497969  1
  Tb  Tb10  1  0.451378  0.250517  0.997541  1
  Tb  Tb11  1  0.548622  0.749483  0.002459  1
  Tb  Tb12  1  0.676736  0.038428  0.571876  1
  Tb  Tb13  1  0.323264  0.961572  0.428124  1
  Tb  Tb14  1  0.183806  0.962145  0.934633  1
  Tb  Tb15  1  0.319224  0.538411  0.429921  1
  Tb  Tb16  1  0.816194  0.037855  0.065367  1
  Tb  Tb17  1  0.680776  0.461589  0.570079  1
  Tb  Tb18  1  0.819392  0.462975  0.070463  1
  Tb  Tb19  1  0.180608  0.537025  0.929537  1
  Sn  Sn20  1  0.570508  0.493355  0.829855  1
  Sn  Sn21  1  0.429492  0.506645  0.170145  1
  Sn  Sn22  1  0.070848  0.507221  0.672292  1
  Sn  Sn23  1  0.429544  0.993775  0.171185  1
  Sn  Sn24  1  0.929152  0.492779  0.327708  1
  Sn  Sn25  1  0.570456  0.006225  0.828815  1
  Bi  Bi26  1  0.929298  0.007655  0.328180  1
  Bi  Bi27  1  0.070702  0.992345  0.671820  1
  Ir  Ir28  1  0.571132  0.750189  0.509048  1
  Ir  Ir29  1  0.428868  0.249811  0.490952  1
  Ir  Ir30  1  0.069384  0.249724  0.990535  1
  Ir  Ir31  1  0.930616  0.750276  0.009465  1
