# generated using pymatgen
data_Eu2Ho18Si15Os
_symmetry_space_group_name_H-M   'P 1'
_cell_length_a   7.40606800
_cell_length_b   7.75769843
_cell_length_c   14.60195000
_cell_angle_alpha   89.65348454
_cell_angle_beta   89.99879313
_cell_angle_gamma   89.95347038
_symmetry_Int_Tables_number   1
_chemical_formula_structural   Eu2Ho18Si15Os
_chemical_formula_sum   'Eu2 Ho18 Si15 Os1'
_cell_volume   838.92543089
_cell_formula_units_Z   1
loop_
 _symmetry_equiv_pos_site_id
 _symmetry_equiv_pos_as_xyz
  1  'x, y, z'
loop_
 _atom_site_type_symbol
 _atom_site_label
 _atom_site_symmetry_multiplicity
 _atom_site_fract_x
 _atom_site_fract_y
 _atom_site_fract_z
 _atom_site_occupancy
  Eu  Eu0  1  0.521777  0.571823  0.341782  1
  Eu  Eu1  1  0.022845  0.427030  0.658757  1
  Ho  Ho2  1  0.805736  0.576987  0.877685  1
  Ho  Ho3  1  0.325016  0.433248  0.123339  1
  Ho  Ho4  1  0.183246  0.926889  0.372699  1
  Ho  Ho5  1  0.682732  0.070233  0.626732  1
  Ho  Ho6  1  0.183545  0.927389  0.628734  1
  Ho  Ho7  1  0.682776  0.070131  0.371913  1
  Ho  Ho8  1  0.809140  0.574268  0.123383  1
  Ho  Ho9  1  0.327935  0.437483  0.875387  1
  Ho  Ho10  1  0.644079  0.238846  0.999792  1
  Ho  Ho11  1  0.159049  0.761577  0.000078  1
  Ho  Ho12  1  0.349975  0.266435  0.500121  1
  Ho  Ho13  1  0.849505  0.731241  0.499898  1
  Ho  Ho14  1  0.477489  0.923610  0.848909  1
  Ho  Ho15  1  0.973578  0.065645  0.151462  1
  Ho  Ho16  1  0.475874  0.924353  0.149918  1
  Ho  Ho17  1  0.971444  0.066429  0.850025  1
  Ho  Ho18  1  0.528994  0.565026  0.653028  1
  Ho  Ho19  1  0.027086  0.433442  0.346643  1
  Si  Si20  1  0.018694  0.351150  0.999543  1
  Si  Si21  1  0.476195  0.859059  0.501513  1
  Si  Si22  1  0.979074  0.140131  0.498530  1
  Si  Si23  1  0.652025  0.274877  0.790285  1
  Si  Si24  1  0.145627  0.721654  0.209525  1
  Si  Si25  1  0.351332  0.214060  0.286596  1
  Si  Si26  1  0.849019  0.785071  0.713125  1
  Si  Si27  1  0.361706  0.218625  0.711457  1
  Si  Si28  1  0.858087  0.781098  0.288716  1
  Si  Si29  1  0.649433  0.267163  0.206687  1
  Si  Si30  1  0.141656  0.729036  0.793090  1
  Si  Si31  1  0.768467  0.883644  0.000365  1
  Si  Si32  1  0.258368  0.126178  0.999785  1
  Si  Si33  1  0.235121  0.629300  0.501050  1
  Si  Si34  1  0.735643  0.370548  0.499039  1
  Os  Os35  1  0.517726  0.656321  0.000401  1
