# generated using pymatgen
data_Dy8Al(CuPd7)3
_symmetry_space_group_name_H-M   'P 1'
_cell_length_a   8.27717810
_cell_length_b   8.27717818
_cell_length_c   8.27717900
_cell_angle_alpha   90.08498313
_cell_angle_beta   90.08498313
_cell_angle_gamma   89.91502243
_symmetry_Int_Tables_number   1
_chemical_formula_structural   Dy8Al(CuPd7)3
_chemical_formula_sum   'Dy8 Al1 Cu3 Pd21'
_cell_volume   567.08155308
_cell_formula_units_Z   1
loop_
 _symmetry_equiv_pos_site_id
 _symmetry_equiv_pos_as_xyz
  1  'x, y, z'
loop_
 _atom_site_type_symbol
 _atom_site_label
 _atom_site_symmetry_multiplicity
 _atom_site_fract_x
 _atom_site_fract_y
 _atom_site_fract_z
 _atom_site_occupancy
  Dy  Dy0  1  0.254265  0.254265  0.745735  1
  Dy  Dy1  1  0.251142  0.743769  0.248150  1
  Dy  Dy2  1  0.751850  0.251142  0.256231  1
  Dy  Dy3  1  0.743769  0.751850  0.748858  1
  Dy  Dy4  1  0.749267  0.749267  0.250733  1
  Dy  Dy5  1  0.746165  0.249049  0.743680  1
  Dy  Dy6  1  0.256320  0.746165  0.750951  1
  Dy  Dy7  1  0.249049  0.256320  0.253835  1
  Al  Al8  1  0.992115  0.992115  0.007885  1
  Cu  Cu9  1  0.997856  0.499313  0.732481  1
  Cu  Cu10  1  0.499313  0.267519  0.002144  1
  Cu  Cu11  1  0.267519  0.997856  0.500687  1
  Pd  Pd12  1  0.501480  0.497153  0.747914  1
  Pd  Pd13  1  0.497153  0.252086  0.498520  1
  Pd  Pd14  1  0.252086  0.501480  0.502847  1
  Pd  Pd15  1  0.501609  0.496768  0.251687  1
  Pd  Pd16  1  0.496768  0.748313  0.498391  1
  Pd  Pd17  1  0.748313  0.501609  0.503232  1
  Pd  Pd18  1  0.011772  0.999692  0.714498  1
  Pd  Pd19  1  0.999692  0.285502  0.988228  1
  Pd  Pd20  1  0.285502  0.011772  0.000308  1
  Pd  Pd21  1  0.013220  0.999434  0.299292  1
  Pd  Pd22  1  0.999434  0.700708  0.986780  1
  Pd  Pd23  1  0.700708  0.013220  0.000566  1
  Pd  Pd24  1  0.002234  0.263492  0.506507  1
  Pd  Pd25  1  0.493493  0.002234  0.736508  1
  Pd  Pd26  1  0.263492  0.493493  0.997766  1
  Pd  Pd27  1  0.998282  0.499536  0.255641  1
  Pd  Pd28  1  0.499536  0.744359  0.001718  1
  Pd  Pd29  1  0.002181  0.736582  0.506525  1
  Pd  Pd30  1  0.493475  0.002181  0.263418  1
  Pd  Pd31  1  0.744359  0.998282  0.500464  1
  Pd  Pd32  1  0.736582  0.493475  0.997819  1
