# generated using pymatgen
data_PrGd4SiSe4
_symmetry_space_group_name_H-M   'P 1'
_cell_length_a   7.24968139
_cell_length_b   7.24968089
_cell_length_c   7.24968108
_cell_angle_alpha   99.45834944
_cell_angle_beta   99.45835790
_cell_angle_gamma   132.17045772
_symmetry_Int_Tables_number   1
_chemical_formula_structural   PrGd4SiSe4
_chemical_formula_sum   'Pr1 Gd4 Si1 Se4'
_cell_volume   258.15501814
_cell_formula_units_Z   1
loop_
 _symmetry_equiv_pos_site_id
 _symmetry_equiv_pos_as_xyz
  1  'x, y, z'
loop_
 _atom_site_type_symbol
 _atom_site_label
 _atom_site_symmetry_multiplicity
 _atom_site_fract_x
 _atom_site_fract_y
 _atom_site_fract_z
 _atom_site_occupancy
  Pr  Pr0  1  0.000000  0.000000  0.000000  1
  Gd  Gd1  1  0.401374  0.790411  0.191785  1
  Gd  Gd2  1  0.598626  0.209589  0.808215  1
  Gd  Gd3  1  0.209589  0.401374  0.610962  1
  Gd  Gd4  1  0.790411  0.598626  0.389038  1
  Si  Si5  1  0.500000  0.500000  0.000000  1
  Se  Se6  1  0.099565  0.692059  0.791623  1
  Se  Se7  1  0.692059  0.900435  0.592493  1
  Se  Se8  1  0.307941  0.099565  0.407507  1
  Se  Se9  1  0.900435  0.307941  0.208377  1
