# generated using pymatgen
data_CaNdHoGa8Ag3
_symmetry_space_group_name_H-M   'P 1'
_cell_length_a   4.37173756
_cell_length_b   8.41261634
_cell_length_c   8.41261553
_cell_angle_alpha   70.41987779
_cell_angle_beta   74.93988945
_cell_angle_gamma   74.93988625
_symmetry_Int_Tables_number   1
_chemical_formula_structural   CaNdHoGa8Ag3
_chemical_formula_sum   'Ca1 Nd1 Ho1 Ga8 Ag3'
_cell_volume   276.37251411
_cell_formula_units_Z   1
loop_
 _symmetry_equiv_pos_site_id
 _symmetry_equiv_pos_as_xyz
  1  'x, y, z'
loop_
 _atom_site_type_symbol
 _atom_site_label
 _atom_site_symmetry_multiplicity
 _atom_site_fract_x
 _atom_site_fract_y
 _atom_site_fract_z
 _atom_site_occupancy
  Ca  Ca0  1  0.197806  0.802194  0.802194  1
  Nd  Nd1  1  0.500622  0.499378  0.499378  1
  Ho  Ho2  1  0.799257  0.200743  0.200743  1
  Ga  Ga3  1  0.358410  0.357693  0.925487  1
  Ga  Ga4  1  0.644362  0.635430  0.075847  1
  Ga  Ga5  1  0.358410  0.925487  0.357693  1
  Ga  Ga6  1  0.644362  0.075847  0.635430  1
  Ga  Ga7  1  0.160086  0.469560  0.210267  1
  Ga  Ga8  1  0.838462  0.528659  0.794419  1
  Ga  Ga9  1  0.160086  0.210267  0.469560  1
  Ga  Ga10  1  0.838462  0.794419  0.528659  1
  Ag  Ag11  1  0.499117  0.000883  0.000883  1
  Ag  Ag12  1  0.000280  0.803542  0.195898  1
  Ag  Ag13  1  0.000280  0.195898  0.803542  1
