# generated using pymatgen
data_NdThSi7Rh12
_symmetry_space_group_name_H-M   'P 1'
_cell_length_a   9.80948400
_cell_length_b   9.80948384
_cell_length_c   3.89831300
_cell_angle_alpha   90.00000000
_cell_angle_beta   90.00000000
_cell_angle_gamma   120.00001404
_symmetry_Int_Tables_number   1
_chemical_formula_structural   NdThSi7Rh12
_chemical_formula_sum   'Nd1 Th1 Si7 Rh12'
_cell_volume   324.86251006
_cell_formula_units_Z   1
loop_
 _symmetry_equiv_pos_site_id
 _symmetry_equiv_pos_as_xyz
  1  'x, y, z'
loop_
 _atom_site_type_symbol
 _atom_site_label
 _atom_site_symmetry_multiplicity
 _atom_site_fract_x
 _atom_site_fract_y
 _atom_site_fract_z
 _atom_site_occupancy
  Nd  Nd0  1  0.666667  0.333333  0.249900  1
  Th  Th1  1  0.333333  0.666667  0.749808  1
  Si  Si2  1  0.000000  0.000000  0.497602  1
  Si  Si3  1  0.891780  0.601991  0.751942  1
  Si  Si4  1  0.398009  0.289790  0.751942  1
  Si  Si5  1  0.710210  0.108220  0.751942  1
  Si  Si6  1  0.104480  0.394612  0.248327  1
  Si  Si7  1  0.605388  0.709868  0.248327  1
  Si  Si8  1  0.290132  0.895520  0.248327  1
  Rh  Rh9  1  0.618773  0.557704  0.751477  1
  Rh  Rh10  1  0.442296  0.061070  0.751477  1
  Rh  Rh11  1  0.938930  0.381227  0.751477  1
  Rh  Rh12  1  0.379062  0.444922  0.248518  1
  Rh  Rh13  1  0.555078  0.934139  0.248518  1
  Rh  Rh14  1  0.065861  0.620938  0.248518  1
  Rh  Rh15  1  0.118772  0.857604  0.745746  1
  Rh  Rh16  1  0.142396  0.261168  0.745746  1
  Rh  Rh17  1  0.738832  0.881228  0.745746  1
  Rh  Rh18  1  0.879109  0.140627  0.254886  1
  Rh  Rh19  1  0.859373  0.738482  0.254886  1
  Rh  Rh20  1  0.261518  0.120891  0.254886  1
