# generated using pymatgen
data_K2Cd(AsPd2)3
_symmetry_space_group_name_H-M   'P 1'
_cell_length_a   7.33114230
_cell_length_b   7.33066241
_cell_length_c   7.33114300
_cell_angle_alpha   128.48066128
_cell_angle_beta   120.89805089
_cell_angle_gamma   82.19912607
_symmetry_Int_Tables_number   1
_chemical_formula_structural   K2Cd(AsPd2)3
_chemical_formula_sum   'K2 Cd1 As3 Pd6'
_cell_volume   254.55243334
_cell_formula_units_Z   1
loop_
 _symmetry_equiv_pos_site_id
 _symmetry_equiv_pos_as_xyz
  1  'x, y, z'
loop_
 _atom_site_type_symbol
 _atom_site_label
 _atom_site_symmetry_multiplicity
 _atom_site_fract_x
 _atom_site_fract_y
 _atom_site_fract_z
 _atom_site_occupancy
  K  K0  1  0.008094  0.004394  0.996301  1
  K  K1  1  0.501756  0.004863  0.503109  1
  Cd  Cd2  1  0.334464  0.338633  0.004168  1
  As  As3  1  0.830890  0.326255  0.495365  1
  As  As4  1  0.619886  0.623044  0.003157  1
  As  As5  1  0.204132  0.695188  0.491056  1
  Pd  Pd6  1  0.951291  0.506132  0.967421  1
  Pd  Pd7  1  0.538709  0.506132  0.554840  1
  Pd  Pd8  1  0.958337  0.982164  0.449917  1
  Pd  Pd9  1  0.812133  0.508016  0.299957  1
  Pd  Pd10  1  0.208060  0.508016  0.695883  1
  Pd  Pd11  1  0.532248  0.982164  0.023826  1
