# generated using pymatgen
data_Pr2Ho2TcB12Ru
_symmetry_space_group_name_H-M   'P 1'
_cell_length_a   3.73669500
_cell_length_b   9.23850285
_cell_length_c   11.70177500
_cell_angle_alpha   89.85452574
_cell_angle_beta   90.00000000
_cell_angle_gamma   90.00000000
_symmetry_Int_Tables_number   1
_chemical_formula_structural   Pr2Ho2TcB12Ru
_chemical_formula_sum   'Pr4 Ho4 Tc2 B24 Ru2'
_cell_volume   403.96114221
_cell_formula_units_Z   2
loop_
 _symmetry_equiv_pos_site_id
 _symmetry_equiv_pos_as_xyz
  1  'x, y, z'
loop_
 _atom_site_type_symbol
 _atom_site_label
 _atom_site_symmetry_multiplicity
 _atom_site_fract_x
 _atom_site_fract_y
 _atom_site_fract_z
 _atom_site_occupancy
  Pr  Pr0  1  0.000000  0.324348  0.415579  1
  Pr  Pr1  1  0.000000  0.675652  0.584421  1
  Pr  Pr2  1  0.000000  0.821774  0.086341  1
  Pr  Pr3  1  0.000000  0.178226  0.913659  1
  Ho  Ho4  1  0.000000  0.941965  0.369764  1
  Ho  Ho5  1  0.000000  0.058035  0.630236  1
  Ho  Ho6  1  0.000000  0.443582  0.130791  1
  Ho  Ho7  1  0.000000  0.556418  0.869209  1
  Tc  Tc8  1  0.000000  0.640096  0.318275  1
  Tc  Tc9  1  0.000000  0.359904  0.681725  1
  B  B10  1  0.500000  0.555845  0.429584  1
  B  B11  1  0.500000  0.444155  0.570416  1
  B  B12  1  0.500000  0.056869  0.070718  1
  B  B13  1  0.500000  0.943131  0.929282  1
  B  B14  1  0.500000  0.749813  0.415450  1
  B  B15  1  0.500000  0.250187  0.584550  1
  B  B16  1  0.500000  0.250063  0.084460  1
  B  B17  1  0.500000  0.749937  0.915540  1
  B  B18  1  0.500000  0.790543  0.266019  1
  B  B19  1  0.500000  0.209457  0.733981  1
  B  B20  1  0.500000  0.289858  0.233633  1
  B  B21  1  0.500000  0.710142  0.766367  1
  B  B22  1  0.500000  0.629925  0.185860  1
  B  B23  1  0.500000  0.370075  0.814140  1
  B  B24  1  0.500000  0.129470  0.313477  1
  B  B25  1  0.500000  0.870530  0.686523  1
  B  B26  1  0.500000  0.985604  0.213227  1
  B  B27  1  0.500000  0.014396  0.786773  1
  B  B28  1  0.500000  0.485230  0.286268  1
  B  B29  1  0.500000  0.514770  0.713732  1
  B  B30  1  0.500000  0.598157  0.026551  1
  B  B31  1  0.500000  0.401843  0.973449  1
  B  B32  1  0.500000  0.097519  0.473272  1
  B  B33  1  0.500000  0.902481  0.526728  1
  Ru  Ru34  1  0.000000  0.139550  0.180928  1
  Ru  Ru35  1  0.000000  0.860450  0.819072  1
