# generated using pymatgen
data_Y2HoCI5
_symmetry_space_group_name_H-M   'P 1'
_cell_length_a   7.68312212
_cell_length_b   9.52902924
_cell_length_c   9.60572523
_cell_angle_alpha   106.94385238
_cell_angle_beta   96.49936504
_cell_angle_gamma   104.28058821
_symmetry_Int_Tables_number   1
_chemical_formula_structural   Y2HoCI5
_chemical_formula_sum   'Y4 Ho2 C2 I10'
_cell_volume   638.81991639
_cell_formula_units_Z   2
loop_
 _symmetry_equiv_pos_site_id
 _symmetry_equiv_pos_as_xyz
  1  'x, y, z'
loop_
 _atom_site_type_symbol
 _atom_site_label
 _atom_site_symmetry_multiplicity
 _atom_site_fract_x
 _atom_site_fract_y
 _atom_site_fract_z
 _atom_site_occupancy
  Y  Y0  1  0.896931  0.961939  0.217351  1
  Y  Y1  1  0.028573  0.743711  0.926070  1
  Y  Y2  1  0.971112  0.256329  0.074439  1
  Y  Y3  1  0.627061  0.868524  0.823010  1
  Ho  Ho4  1  0.102106  0.037871  0.783784  1
  Ho  Ho5  1  0.372569  0.131652  0.177050  1
  C  C6  1  0.909850  0.970645  0.957957  1
  C  C7  1  0.093065  0.030462  0.040431  1
  I  I8  1  0.193924  0.738704  0.651031  1
  I  I9  1  0.086926  0.362225  0.821969  1
  I  I10  1  0.456165  0.811663  0.093713  1
  I  I11  1  0.254756  0.084729  0.456898  1
  I  I12  1  0.541580  0.188640  0.907014  1
  I  I13  1  0.804847  0.262452  0.349048  1
  I  I14  1  0.345123  0.450986  0.272285  1
  I  I15  1  0.913051  0.635985  0.177531  1
  I  I16  1  0.655090  0.547496  0.727332  1
  I  I17  1  0.747272  0.915986  0.543087  1
