# generated using pymatgen
data_Ac4InOs
_symmetry_space_group_name_H-M   'P 1'
_cell_length_a   10.55998756
_cell_length_b   10.55839848
_cell_length_c   10.56003456
_cell_angle_alpha   59.72040534
_cell_angle_beta   59.69001397
_cell_angle_gamma   59.70473465
_symmetry_Int_Tables_number   1
_chemical_formula_structural   Ac4InOs
_chemical_formula_sum   'Ac16 In4 Os4'
_cell_volume   826.97499936
_cell_formula_units_Z   4
loop_
 _symmetry_equiv_pos_site_id
 _symmetry_equiv_pos_as_xyz
  1  'x, y, z'
loop_
 _atom_site_type_symbol
 _atom_site_label
 _atom_site_symmetry_multiplicity
 _atom_site_fract_x
 _atom_site_fract_y
 _atom_site_fract_z
 _atom_site_occupancy
  Ac  Ac0  1  0.097273  0.710997  0.097285  1
  Ac  Ac1  1  0.940874  0.941039  0.559513  1
  Ac  Ac2  1  0.940921  0.559484  0.941030  1
  Ac  Ac3  1  0.309759  0.689655  0.309672  1
  Ac  Ac4  1  0.938448  0.561222  0.561204  1
  Ac  Ac5  1  0.309682  0.309524  0.689782  1
  Ac  Ac6  1  0.093898  0.093807  0.093883  1
  Ac  Ac7  1  0.561200  0.561230  0.938544  1
  Ac  Ac8  1  0.097155  0.097298  0.711078  1
  Ac  Ac9  1  0.693688  0.306933  0.693632  1
  Ac  Ac10  1  0.693834  0.693764  0.306847  1
  Ac  Ac11  1  0.689728  0.309566  0.309621  1
  Ac  Ac12  1  0.306835  0.693774  0.693780  1
  Ac  Ac13  1  0.561255  0.938562  0.561251  1
  Ac  Ac14  1  0.711102  0.097264  0.097140  1
  Ac  Ac15  1  0.559609  0.940940  0.940885  1
  In  In16  1  0.327529  0.327562  0.327553  1
  In  In17  1  0.015168  0.327635  0.327630  1
  In  In18  1  0.327648  0.015106  0.327682  1
  In  In19  1  0.327637  0.327675  0.015111  1
  Os  Os20  1  0.888146  0.888195  0.888207  1
  Os  Os21  1  0.887263  0.887383  0.333982  1
  Os  Os22  1  0.333972  0.887395  0.887287  1
  Os  Os23  1  0.887374  0.333990  0.887399  1
