# generated using pymatgen
data_CdAg2Ru4PbO14
_symmetry_space_group_name_H-M   'P 1'
_cell_length_a   7.30916720
_cell_length_b   7.27628579
_cell_length_c   7.27628663
_cell_angle_alpha   59.46183697
_cell_angle_beta   59.54732016
_cell_angle_gamma   59.54732322
_symmetry_Int_Tables_number   1
_chemical_formula_structural   CdAg2Ru4PbO14
_chemical_formula_sum   'Cd1 Ag2 Ru4 Pb1 O14'
_cell_volume   270.64099877
_cell_formula_units_Z   1
loop_
 _symmetry_equiv_pos_site_id
 _symmetry_equiv_pos_as_xyz
  1  'x, y, z'
loop_
 _atom_site_type_symbol
 _atom_site_label
 _atom_site_symmetry_multiplicity
 _atom_site_fract_x
 _atom_site_fract_y
 _atom_site_fract_z
 _atom_site_occupancy
  Cd  Cd0  1  0.625000  0.125000  0.125000  1
  Ag  Ag1  1  0.125000  0.625000  0.125000  1
  Ag  Ag2  1  0.125000  0.125000  0.625000  1
  Ru  Ru3  1  0.625000  0.125000  0.625000  1
  Ru  Ru4  1  0.625000  0.625000  0.125000  1
  Ru  Ru5  1  0.125000  0.625000  0.625000  1
  Ru  Ru6  1  0.625000  0.625000  0.625000  1
  Pb  Pb7  1  0.125000  0.125000  0.125000  1
  O  O8  1  0.690198  0.693878  0.306613  1
  O  O9  1  0.942368  0.558630  0.558630  1
  O  O10  1  0.546648  0.947571  0.947571  1
  O  O11  1  0.945134  0.945449  0.548223  1
  O  O12  1  0.945134  0.548223  0.945449  1
  O  O13  1  0.559802  0.943387  0.556122  1
  O  O14  1  0.304866  0.701777  0.304551  1
  O  O15  1  0.307632  0.691370  0.691370  1
  O  O16  1  0.703352  0.302429  0.302429  1
  O  O17  1  0.690198  0.306613  0.693878  1
  O  O18  1  0.559802  0.556122  0.943387  1
  O  O19  1  0.304866  0.304551  0.701777  1
  O  O20  1  0.253795  0.259972  0.259972  1
  O  O21  1  0.996205  0.990028  0.990028  1
