# generated using pymatgen
data_Pr5Sm5(Sn3Br)2
_symmetry_space_group_name_H-M   'P 1'
_cell_length_a   9.50639900
_cell_length_b   9.51325847
_cell_length_c   6.82639200
_cell_angle_alpha   90.00000000
_cell_angle_beta   90.00000000
_cell_angle_gamma   119.97614748
_symmetry_Int_Tables_number   1
_chemical_formula_structural   Pr5Sm5(Sn3Br)2
_chemical_formula_sum   'Pr5 Sm5 Sn6 Br2'
_cell_volume   534.77552689
_cell_formula_units_Z   1
loop_
 _symmetry_equiv_pos_site_id
 _symmetry_equiv_pos_as_xyz
  1  'x, y, z'
loop_
 _atom_site_type_symbol
 _atom_site_label
 _atom_site_symmetry_multiplicity
 _atom_site_fract_x
 _atom_site_fract_y
 _atom_site_fract_z
 _atom_site_occupancy
  Pr  Pr0  1  0.267103  0.266807  0.750000  1
  Pr  Pr1  1  0.000297  0.733193  0.750000  1
  Pr  Pr2  1  0.733293  0.000000  0.750000  1
  Pr  Pr3  1  0.999716  0.267612  0.250000  1
  Pr  Pr4  1  0.732104  0.732388  0.250000  1
  Sm  Sm5  1  0.333367  0.667375  0.499278  1
  Sm  Sm6  1  0.665994  0.332625  0.499278  1
  Sm  Sm7  1  0.266771  0.000000  0.250000  1
  Sm  Sm8  1  0.333367  0.667375  0.000722  1
  Sm  Sm9  1  0.665994  0.332625  0.000722  1
  Sn  Sn10  1  0.607208  0.000000  0.250000  1
  Sn  Sn11  1  0.999824  0.389326  0.750000  1
  Sn  Sn12  1  0.389190  0.000000  0.750000  1
  Sn  Sn13  1  0.610497  0.610674  0.750000  1
  Sn  Sn14  1  0.002558  0.613806  0.250000  1
  Sn  Sn15  1  0.388752  0.386194  0.250000  1
  Br  Br16  1  0.001983  0.000000  0.001938  1
  Br  Br17  1  0.001983  0.000000  0.498062  1
