# generated using pymatgen
data_TiCr(Cu3S4)2
_symmetry_space_group_name_H-M   'P 1'
_cell_length_a   7.50981300
_cell_length_b   7.50981376
_cell_length_c   12.36601900
_cell_angle_alpha   90.00000000
_cell_angle_beta   90.00000000
_cell_angle_gamma   119.99999225
_symmetry_Int_Tables_number   1
_chemical_formula_structural   TiCr(Cu3S4)2
_chemical_formula_sum   'Ti2 Cr2 Cu12 S16'
_cell_volume   603.97486394
_cell_formula_units_Z   2
loop_
 _symmetry_equiv_pos_site_id
 _symmetry_equiv_pos_as_xyz
  1  'x, y, z'
loop_
 _atom_site_type_symbol
 _atom_site_label
 _atom_site_symmetry_multiplicity
 _atom_site_fract_x
 _atom_site_fract_y
 _atom_site_fract_z
 _atom_site_occupancy
  Ti  Ti0  1  0.000000  0.000000  0.850081  1
  Ti  Ti1  1  0.000000  0.000000  0.350081  1
  Cr  Cr2  1  0.333333  0.666667  0.480748  1
  Cr  Cr3  1  0.666667  0.333333  0.980748  1
  Cu  Cu4  1  0.835653  0.671307  0.103388  1
  Cu  Cu5  1  0.500998  0.499002  0.355609  1
  Cu  Cu6  1  0.001996  0.500998  0.855609  1
  Cu  Cu7  1  0.835653  0.164347  0.103388  1
  Cu  Cu8  1  0.499002  0.500998  0.855609  1
  Cu  Cu9  1  0.164347  0.328693  0.603388  1
  Cu  Cu10  1  0.500998  0.001996  0.355609  1
  Cu  Cu11  1  0.998004  0.499002  0.355609  1
  Cu  Cu12  1  0.164347  0.835653  0.603388  1
  Cu  Cu13  1  0.499002  0.998004  0.855609  1
  Cu  Cu14  1  0.671307  0.835653  0.603388  1
  Cu  Cu15  1  0.328693  0.164347  0.103388  1
  S  S16  1  0.000000  0.000000  0.035917  1
  S  S17  1  0.335471  0.167736  0.290133  1
  S  S18  1  0.832264  0.167736  0.290133  1
  S  S19  1  0.017587  0.508793  0.538951  1
  S  S20  1  0.832264  0.664529  0.290133  1
  S  S21  1  0.666667  0.333333  0.805014  1
  S  S22  1  0.167736  0.335471  0.790133  1
  S  S23  1  0.491207  0.508793  0.538951  1
  S  S24  1  0.000000  0.000000  0.535917  1
  S  S25  1  0.333333  0.666667  0.305014  1
  S  S26  1  0.982413  0.491207  0.038951  1
  S  S27  1  0.491207  0.982413  0.538951  1
  S  S28  1  0.167736  0.832264  0.790133  1
  S  S29  1  0.664529  0.832264  0.790133  1
  S  S30  1  0.508793  0.017587  0.038951  1
  S  S31  1  0.508793  0.491207  0.038951  1
