# generated using pymatgen
data_Ti4(NbTc3)3
_symmetry_space_group_name_H-M   'P 1'
_cell_length_a   6.27622700
_cell_length_b   6.27622700
_cell_length_c   6.28066200
_cell_angle_alpha   90.00000000
_cell_angle_beta   90.00000000
_cell_angle_gamma   90.00000000
_symmetry_Int_Tables_number   1
_chemical_formula_structural   Ti4(NbTc3)3
_chemical_formula_sum   'Ti4 Nb3 Tc9'
_cell_volume   247.40171609
_cell_formula_units_Z   1
loop_
 _symmetry_equiv_pos_site_id
 _symmetry_equiv_pos_as_xyz
  1  'x, y, z'
loop_
 _atom_site_type_symbol
 _atom_site_label
 _atom_site_symmetry_multiplicity
 _atom_site_fract_x
 _atom_site_fract_y
 _atom_site_fract_z
 _atom_site_occupancy
  Ti  Ti0  1  0.500000  0.500000  0.000000  1
  Ti  Ti1  1  0.000000  0.000000  0.000000  1
  Ti  Ti2  1  0.000000  0.500000  0.500000  1
  Ti  Ti3  1  0.500000  0.000000  0.500000  1
  Nb  Nb4  1  0.000000  0.000000  0.500000  1
  Nb  Nb5  1  0.000000  0.500000  0.000000  1
  Nb  Nb6  1  0.500000  0.000000  0.000000  1
  Tc  Tc7  1  0.500000  0.500000  0.500000  1
  Tc  Tc8  1  0.252205  0.252205  0.252256  1
  Tc  Tc9  1  0.747795  0.747795  0.747744  1
  Tc  Tc10  1  0.747795  0.747795  0.252256  1
  Tc  Tc11  1  0.747795  0.252205  0.252256  1
  Tc  Tc12  1  0.747795  0.252205  0.747744  1
  Tc  Tc13  1  0.252205  0.252205  0.747744  1
  Tc  Tc14  1  0.252205  0.747795  0.747744  1
  Tc  Tc15  1  0.252205  0.747795  0.252256  1
