# generated using pymatgen
data_Y5(HgTe)2
_symmetry_space_group_name_H-M   'P 1'
_cell_length_a   8.79136400
_cell_length_b   8.79121923
_cell_length_c   8.13934400
_cell_angle_alpha   90.00374750
_cell_angle_beta   90.00124480
_cell_angle_gamma   124.90805170
_symmetry_Int_Tables_number   1
_chemical_formula_structural   Y5(HgTe)2
_chemical_formula_sum   'Y10 Hg4 Te4'
_cell_volume   515.87736730
_cell_formula_units_Z   2
loop_
 _symmetry_equiv_pos_site_id
 _symmetry_equiv_pos_as_xyz
  1  'x, y, z'
loop_
 _atom_site_type_symbol
 _atom_site_label
 _atom_site_symmetry_multiplicity
 _atom_site_fract_x
 _atom_site_fract_y
 _atom_site_fract_z
 _atom_site_occupancy
  Y  Y0  1  0.000000  0.000000  0.000000  1
  Y  Y1  1  0.500000  0.500000  0.500000  1
  Y  Y2  1  0.794368  0.534427  0.163606  1
  Y  Y3  1  0.465488  0.205548  0.836454  1
  Y  Y4  1  0.965506  0.705560  0.663483  1
  Y  Y5  1  0.294450  0.034580  0.336427  1
  Y  Y6  1  0.205632  0.465573  0.836394  1
  Y  Y7  1  0.534512  0.794452  0.163546  1
  Y  Y8  1  0.034494  0.294440  0.336517  1
  Y  Y9  1  0.705550  0.965420  0.663573  1
  Hg  Hg10  1  0.866209  0.866207  0.368414  1
  Hg  Hg11  1  0.133791  0.133793  0.631586  1
  Hg  Hg12  1  0.633814  0.633644  0.868372  1
  Hg  Hg13  1  0.366186  0.366356  0.131628  1
  Te  Te14  1  0.204063  0.795927  0.000009  1
  Te  Te15  1  0.704019  0.295937  0.499994  1
  Te  Te16  1  0.795937  0.204073  0.999991  1
  Te  Te17  1  0.295981  0.704063  0.500006  1
