# generated using pymatgen
data_Dy4Al11Si7(Os2Rh)2
_symmetry_space_group_name_H-M   'P 1'
_cell_length_a   7.44442496
_cell_length_b   7.43374724
_cell_length_c   9.38764251
_cell_angle_alpha   90.04618034
_cell_angle_beta   90.05298556
_cell_angle_gamma   119.86178466
_symmetry_Int_Tables_number   1
_chemical_formula_structural   Dy4Al11Si7(Os2Rh)2
_chemical_formula_sum   'Dy4 Al11 Si7 Os4 Rh2'
_cell_volume   450.53512240
_cell_formula_units_Z   1
loop_
 _symmetry_equiv_pos_site_id
 _symmetry_equiv_pos_as_xyz
  1  'x, y, z'
loop_
 _atom_site_type_symbol
 _atom_site_label
 _atom_site_symmetry_multiplicity
 _atom_site_fract_x
 _atom_site_fract_y
 _atom_site_fract_z
 _atom_site_occupancy
  Dy  Dy0  1  0.998498  0.663990  0.752276  1
  Dy  Dy1  1  0.996026  0.331732  0.249888  1
  Dy  Dy2  1  0.672129  0.003928  0.751883  1
  Dy  Dy3  1  0.331834  0.996020  0.246633  1
  Al  Al4  1  0.125999  0.127491  0.750852  1
  Al  Al5  1  0.872224  0.873132  0.250670  1
  Al  Al6  1  0.334895  0.005573  0.572700  1
  Al  Al7  1  0.336833  0.336210  0.059184  1
  Al  Al8  1  0.663067  0.663334  0.940209  1
  Al  Al9  1  0.663595  0.663638  0.558680  1
  Al  Al10  1  0.336867  0.334093  0.440261  1
  Al  Al11  1  0.340204  0.549418  0.749915  1
  Al  Al12  1  0.661658  0.453605  0.250042  1
  Al  Al13  1  0.548248  0.340108  0.749400  1
  Al  Al14  1  0.453062  0.659066  0.249033  1
  Si  Si15  1  0.009413  0.336990  0.569757  1
  Si  Si16  1  0.997472  0.668388  0.431995  1
  Si  Si17  1  0.991428  0.663394  0.071168  1
  Si  Si18  1  0.336954  0.008420  0.923947  1
  Si  Si19  1  0.009615  0.337372  0.929271  1
  Si  Si20  1  0.662737  0.991277  0.071461  1
  Si  Si21  1  0.656452  0.991616  0.431749  1
  Os  Os22  1  0.688882  0.326906  0.499674  1
  Os  Os23  1  0.318972  0.671764  0.497726  1
  Os  Os24  1  0.319011  0.681298  0.000292  1
  Os  Os25  1  0.681780  0.319164  0.000163  1
  Rh  Rh26  1  0.992518  0.001626  0.500098  1
  Rh  Rh27  1  0.999627  0.000447  0.001072  1
