# generated using pymatgen
data_PaH5
_symmetry_space_group_name_H-M   'P 1'
_cell_length_a   3.50148677
_cell_length_b   4.01927231
_cell_length_c   4.26762158
_cell_angle_alpha   57.89843393
_cell_angle_beta   90.02570501
_cell_angle_gamma   115.77607315
_symmetry_Int_Tables_number   1
_chemical_formula_structural   PaH5
_chemical_formula_sum   'Pa1 H5'
_cell_volume   43.67069729
_cell_formula_units_Z   1
loop_
 _symmetry_equiv_pos_site_id
 _symmetry_equiv_pos_as_xyz
  1  'x, y, z'
loop_
 _atom_site_type_symbol
 _atom_site_label
 _atom_site_symmetry_multiplicity
 _atom_site_fract_x
 _atom_site_fract_y
 _atom_site_fract_z
 _atom_site_occupancy
  Pa  Pa0  1  0.044134  0.225158  0.340592  1
  H  H1  1  0.380523  0.897172  0.263770  1
  H  H2  1  0.378672  0.894167  0.745898  1
  H  H3  1  0.040300  0.218077  0.844510  1
  H  H4  1  0.710214  0.556512  0.932371  1
  H  H5  1  0.707425  0.552951  0.419142  1
