# generated using pymatgen
data_Nb4Co4Si3Ge
_symmetry_space_group_name_H-M   'P 1'
_cell_length_a   3.68050300
_cell_length_b   6.27805761
_cell_length_c   7.09439807
_cell_angle_alpha   89.77980831
_cell_angle_beta   90.00000000
_cell_angle_gamma   90.00000000
_symmetry_Int_Tables_number   1
_chemical_formula_structural   Nb4Co4Si3Ge
_chemical_formula_sum   'Nb4 Co4 Si3 Ge1'
_cell_volume   163.92485916
_cell_formula_units_Z   1
loop_
 _symmetry_equiv_pos_site_id
 _symmetry_equiv_pos_as_xyz
  1  'x, y, z'
loop_
 _atom_site_type_symbol
 _atom_site_label
 _atom_site_symmetry_multiplicity
 _atom_site_fract_x
 _atom_site_fract_y
 _atom_site_fract_z
 _atom_site_occupancy
  Nb  Nb0  1  0.250000  0.020903  0.820853  1
  Nb  Nb1  1  0.250000  0.518108  0.683143  1
  Nb  Nb2  1  0.750000  0.982435  0.177374  1
  Nb  Nb3  1  0.750000  0.474032  0.318334  1
  Co  Co4  1  0.250000  0.147021  0.437714  1
  Co  Co5  1  0.250000  0.638126  0.057296  1
  Co  Co6  1  0.750000  0.862428  0.570131  1
  Co  Co7  1  0.750000  0.358858  0.936726  1
  Si  Si8  1  0.250000  0.275583  0.116475  1
  Si  Si9  1  0.750000  0.225329  0.618417  1
  Si  Si10  1  0.750000  0.725162  0.883029  1
  Ge  Ge11  1  0.250000  0.772017  0.380510  1
