# generated using pymatgen
data_K3Tl(Si2Au5)4
_symmetry_space_group_name_H-M   'P 1'
_cell_length_a   7.05846400
_cell_length_b   9.10942416
_cell_length_c   10.23659500
_cell_angle_alpha   90.45095912
_cell_angle_beta   90.00000000
_cell_angle_gamma   90.00000000
_symmetry_Int_Tables_number   1
_chemical_formula_structural   K3Tl(Si2Au5)4
_chemical_formula_sum   'K3 Tl1 Si8 Au20'
_cell_volume   658.17775123
_cell_formula_units_Z   1
loop_
 _symmetry_equiv_pos_site_id
 _symmetry_equiv_pos_as_xyz
  1  'x, y, z'
loop_
 _atom_site_type_symbol
 _atom_site_label
 _atom_site_symmetry_multiplicity
 _atom_site_fract_x
 _atom_site_fract_y
 _atom_site_fract_z
 _atom_site_occupancy
  K  K0  1  0.250000  0.748516  0.379858  1
  K  K1  1  0.750000  0.752528  0.880285  1
  K  K2  1  0.750000  0.250068  0.620057  1
  Tl  Tl3  1  0.250000  0.248663  0.119082  1
  Si  Si4  1  0.250000  0.039255  0.640065  1
  Si  Si5  1  0.250000  0.542912  0.855781  1
  Si  Si6  1  0.750000  0.959572  0.361470  1
  Si  Si7  1  0.750000  0.457998  0.142276  1
  Si  Si8  1  0.250000  0.322158  0.456655  1
  Si  Si9  1  0.250000  0.818558  0.043745  1
  Si  Si10  1  0.750000  0.676571  0.541996  1
  Si  Si11  1  0.750000  0.183332  0.955824  1
  Au  Au12  1  0.046426  0.099361  0.392888  1
  Au  Au13  1  0.453035  0.595400  0.106835  1
  Au  Au14  1  0.546389  0.901281  0.604625  1
  Au  Au15  1  0.955076  0.403138  0.893310  1
  Au  Au16  1  0.953611  0.901281  0.604625  1
  Au  Au17  1  0.544924  0.403138  0.893310  1
  Au  Au18  1  0.453574  0.099361  0.392888  1
  Au  Au19  1  0.046965  0.595400  0.106835  1
  Au  Au20  1  0.034627  0.069850  0.867303  1
  Au  Au21  1  0.465284  0.566760  0.634489  1
  Au  Au22  1  0.532537  0.930831  0.136836  1
  Au  Au23  1  0.965478  0.433620  0.366577  1
  Au  Au24  1  0.967463  0.930831  0.136836  1
  Au  Au25  1  0.534522  0.433620  0.366577  1
  Au  Au26  1  0.465373  0.069850  0.867303  1
  Au  Au27  1  0.034716  0.566760  0.634489  1
  Au  Au28  1  0.250000  0.300411  0.695694  1
  Au  Au29  1  0.250000  0.805449  0.803736  1
  Au  Au30  1  0.750000  0.698011  0.302992  1
  Au  Au31  1  0.750000  0.195521  0.194758  1
