# generated using pymatgen
data_Tb2Ho6CoHg3
_symmetry_space_group_name_H-M   'P 1'
_cell_length_a   10.12963500
_cell_length_b   10.12622363
_cell_length_c   7.14178215
_cell_angle_alpha   89.97909033
_cell_angle_beta   90.00000000
_cell_angle_gamma   120.01114141
_symmetry_Int_Tables_number   1
_chemical_formula_structural   Tb2Ho6CoHg3
_chemical_formula_sum   'Tb4 Ho12 Co2 Hg6'
_cell_volume   634.35115440
_cell_formula_units_Z   2
loop_
 _symmetry_equiv_pos_site_id
 _symmetry_equiv_pos_as_xyz
  1  'x, y, z'
loop_
 _atom_site_type_symbol
 _atom_site_label
 _atom_site_symmetry_multiplicity
 _atom_site_fract_x
 _atom_site_fract_y
 _atom_site_fract_z
 _atom_site_occupancy
  Tb  Tb0  1  0.077386  0.538854  0.289677  1
  Tb  Tb1  1  0.461466  0.538854  0.289677  1
  Tb  Tb2  1  0.999891  0.999783  0.771556  1
  Tb  Tb3  1  0.999855  0.999710  0.271272  1
  Ho  Ho4  1  0.825823  0.651648  0.483250  1
  Ho  Ho5  1  0.348573  0.173951  0.482988  1
  Ho  Ho6  1  0.825376  0.173951  0.482988  1
  Ho  Ho7  1  0.174142  0.348282  0.981948  1
  Ho  Ho8  1  0.651321  0.825895  0.982748  1
  Ho  Ho9  1  0.174576  0.825895  0.982748  1
  Ho  Ho10  1  0.666327  0.332652  0.184699  1
  Ho  Ho11  1  0.333541  0.667083  0.685487  1
  Ho  Ho12  1  0.539240  0.078478  0.790257  1
  Ho  Ho13  1  0.921331  0.460757  0.789709  1
  Ho  Ho14  1  0.539426  0.460757  0.789709  1
  Ho  Ho15  1  0.461190  0.922380  0.290069  1
  Co  Co16  1  0.666697  0.333393  0.553862  1
  Co  Co17  1  0.333768  0.667538  0.053568  1
  Hg  Hg18  1  0.832308  0.664618  0.044639  1
  Hg  Hg19  1  0.335306  0.167595  0.044429  1
  Hg  Hg20  1  0.832287  0.167595  0.044429  1
  Hg  Hg21  1  0.167289  0.334578  0.545693  1
  Hg  Hg22  1  0.665050  0.832877  0.545338  1
  Hg  Hg23  1  0.167828  0.832877  0.545338  1
