# generated using pymatgen
data_Ho6IrPd2Au5
_symmetry_space_group_name_H-M   'P 1'
_cell_length_a   8.05809123
_cell_length_b   8.00215907
_cell_length_c   8.05219200
_cell_angle_alpha   114.51587736
_cell_angle_beta   114.81236728
_cell_angle_gamma   114.36475121
_symmetry_Int_Tables_number   1
_chemical_formula_structural   Ho6IrPd2Au5
_chemical_formula_sum   'Ho6 Ir1 Pd2 Au5'
_cell_volume   301.79727600
_cell_formula_units_Z   1
loop_
 _symmetry_equiv_pos_site_id
 _symmetry_equiv_pos_as_xyz
  1  'x, y, z'
loop_
 _atom_site_type_symbol
 _atom_site_label
 _atom_site_symmetry_multiplicity
 _atom_site_fract_x
 _atom_site_fract_y
 _atom_site_fract_z
 _atom_site_occupancy
  Ho  Ho0  1  0.980632  0.610307  0.731926  1
  Ho  Ho1  1  0.721594  0.972699  0.605171  1
  Ho  Ho2  1  0.615773  0.730870  0.978776  1
  Ho  Ho3  1  0.029692  0.389188  0.269853  1
  Ho  Ho4  1  0.267565  0.021685  0.383251  1
  Ho  Ho5  1  0.382254  0.274951  0.025130  1
  Ir  Ir6  1  0.996547  0.996325  0.994635  1
  Pd  Pd7  1  0.501575  0.499918  0.500197  1
  Pd  Pd8  1  0.228367  0.561979  0.067631  1
  Au  Au9  1  0.933123  0.769739  0.438735  1
  Au  Au10  1  0.440048  0.937240  0.774793  1
  Au  Au11  1  0.773846  0.437782  0.931300  1
  Au  Au12  1  0.070260  0.235673  0.568743  1
  Au  Au13  1  0.558725  0.061644  0.229859  1
