# generated using pymatgen
data_Dy2Sc4(WO6)3
_symmetry_space_group_name_H-M   'P 1'
_cell_length_a   8.94278796
_cell_length_b   8.93715605
_cell_length_c   4.98495697
_cell_angle_alpha   90.00020791
_cell_angle_beta   89.93719888
_cell_angle_gamma   119.97930298
_symmetry_Int_Tables_number   1
_chemical_formula_structural   Dy2Sc4(WO6)3
_chemical_formula_sum   'Dy2 Sc4 W3 O18'
_cell_volume   345.10759035
_cell_formula_units_Z   1
loop_
 _symmetry_equiv_pos_site_id
 _symmetry_equiv_pos_as_xyz
  1  'x, y, z'
loop_
 _atom_site_type_symbol
 _atom_site_label
 _atom_site_symmetry_multiplicity
 _atom_site_fract_x
 _atom_site_fract_y
 _atom_site_fract_z
 _atom_site_occupancy
  Dy  Dy0  1  0.626289  0.999139  0.999496  1
  Dy  Dy1  1  0.373710  0.372850  0.000506  1
  Sc  Sc2  1  0.000002  0.633337  0.000003  1
  Sc  Sc3  1  0.294634  0.000426  0.499917  1
  Sc  Sc4  1  0.999998  0.294929  0.500000  1
  Sc  Sc5  1  0.705370  0.705797  0.500070  1
  W  W6  1  0.000001  0.995889  0.999997  1
  W  W7  1  0.671845  0.337897  0.501213  1
  W  W8  1  0.328154  0.666049  0.498791  1
  O  O9  1  0.887603  0.090273  0.224216  1
  O  O10  1  0.206414  0.110991  0.220777  1
  O  O11  1  0.906626  0.785358  0.216026  1
  O  O12  1  0.225675  0.454623  0.287250  1
  O  O13  1  0.222356  0.766676  0.271065  1
  O  O14  1  0.540086  0.769032  0.280525  1
  O  O15  1  0.539512  0.131565  0.283572  1
  O  O16  1  0.876245  0.420556  0.273437  1
  O  O17  1  0.590563  0.465310  0.291885  1
  O  O18  1  0.123754  0.544312  0.726566  1
  O  O19  1  0.460489  0.592052  0.716428  1
  O  O20  1  0.409437  0.874746  0.708113  1
  O  O21  1  0.774323  0.228948  0.712753  1
  O  O22  1  0.459914  0.228946  0.719473  1
  O  O23  1  0.777645  0.544322  0.728934  1
  O  O24  1  0.112396  0.202672  0.775787  1
  O  O25  1  0.093375  0.878735  0.783973  1
  O  O26  1  0.793585  0.904576  0.779222  1
