# generated using pymatgen
data_Hf11Zr8Si16Os
_symmetry_space_group_name_H-M   'P 1'
_cell_length_a   7.06884665
_cell_length_b   7.06884676
_cell_length_c   12.86830737
_cell_angle_alpha   89.75829875
_cell_angle_beta   90.24170205
_cell_angle_gamma   90.07467527
_symmetry_Int_Tables_number   1
_chemical_formula_structural   Hf11Zr8Si16Os
_chemical_formula_sum   'Hf11 Zr8 Si16 Os1'
_cell_volume   642.99924938
_cell_formula_units_Z   1
loop_
 _symmetry_equiv_pos_site_id
 _symmetry_equiv_pos_as_xyz
  1  'x, y, z'
loop_
 _atom_site_type_symbol
 _atom_site_label
 _atom_site_symmetry_multiplicity
 _atom_site_fract_x
 _atom_site_fract_y
 _atom_site_fract_z
 _atom_site_occupancy
  Hf  Hf0  1  0.825119  0.825119  0.500000  1
  Hf  Hf1  1  0.323332  0.675965  0.246891  1
  Hf  Hf2  1  0.675965  0.323332  0.753109  1
  Hf  Hf3  1  0.145464  0.999901  0.373581  1
  Hf  Hf4  1  0.855407  0.002505  0.879786  1
  Hf  Hf5  1  0.501601  0.646648  0.627441  1
  Hf  Hf6  1  0.354974  0.498949  0.873753  1
  Hf  Hf7  1  0.498949  0.354974  0.126247  1
  Hf  Hf8  1  0.646648  0.501601  0.372559  1
  Hf  Hf9  1  0.999901  0.145464  0.626419  1
  Hf  Hf10  1  0.002505  0.855407  0.120214  1
  Zr  Zr11  1  0.996259  0.348196  0.216538  1
  Zr  Zr12  1  0.004133  0.652113  0.719323  1
  Zr  Zr13  1  0.151946  0.497262  0.466055  1
  Zr  Zr14  1  0.501861  0.844558  0.032566  1
  Zr  Zr15  1  0.844558  0.501861  0.967434  1
  Zr  Zr16  1  0.497262  0.151946  0.533945  1
  Zr  Zr17  1  0.348196  0.996259  0.783462  1
  Zr  Zr18  1  0.652113  0.004133  0.280677  1
  Si  Si19  1  0.353904  0.296070  0.320929  1
  Si  Si20  1  0.647903  0.704528  0.822178  1
  Si  Si21  1  0.204891  0.855216  0.572069  1
  Si  Si22  1  0.145042  0.794180  0.926911  1
  Si  Si23  1  0.794180  0.145042  0.073089  1
  Si  Si24  1  0.855216  0.204891  0.427931  1
  Si  Si25  1  0.296070  0.353904  0.679071  1
  Si  Si26  1  0.704528  0.647903  0.177822  1
  Si  Si27  1  0.295503  0.055336  0.181158  1
  Si  Si28  1  0.700302  0.950799  0.687450  1
  Si  Si29  1  0.449542  0.800938  0.435661  1
  Si  Si30  1  0.197653  0.541913  0.061702  1
  Si  Si31  1  0.541913  0.197653  0.938298  1
  Si  Si32  1  0.800938  0.449542  0.564339  1
  Si  Si33  1  0.055336  0.295503  0.818842  1
  Si  Si34  1  0.950799  0.700302  0.312550  1
  Os  Os35  1  0.180090  0.180090  0.000000  1
