# generated using pymatgen
data_Nd(Al3Pd)3
_symmetry_space_group_name_H-M   'P 1'
_cell_length_a   10.49358516
_cell_length_b   10.49358562
_cell_length_c   10.49358308
_cell_angle_alpha   42.19714199
_cell_angle_beta   42.19713956
_cell_angle_gamma   42.19714051
_symmetry_Int_Tables_number   1
_chemical_formula_structural   Nd(Al3Pd)3
_chemical_formula_sum   'Nd2 Al18 Pd6'
_cell_volume   471.75367766
_cell_formula_units_Z   2
loop_
 _symmetry_equiv_pos_site_id
 _symmetry_equiv_pos_as_xyz
  1  'x, y, z'
loop_
 _atom_site_type_symbol
 _atom_site_label
 _atom_site_symmetry_multiplicity
 _atom_site_fract_x
 _atom_site_fract_y
 _atom_site_fract_z
 _atom_site_occupancy
  Nd  Nd0  1  0.166856  0.166856  0.166856  1
  Nd  Nd1  1  0.833144  0.833144  0.833144  1
  Al  Al2  1  0.049447  0.049447  0.049447  1
  Al  Al3  1  0.702179  0.500000  0.297821  1
  Al  Al4  1  0.665357  0.334643  0.000000  1
  Al  Al5  1  0.106377  0.432826  0.759786  1
  Al  Al6  1  0.432826  0.759786  0.106377  1
  Al  Al7  1  0.384024  0.384024  0.384024  1
  Al  Al8  1  0.334643  0.000000  0.665357  1
  Al  Al9  1  0.615976  0.615976  0.615976  1
  Al  Al10  1  0.240214  0.567174  0.893623  1
  Al  Al11  1  0.567174  0.893623  0.240214  1
  Al  Al12  1  0.500000  0.297821  0.702179  1
  Al  Al13  1  0.759786  0.106377  0.432826  1
  Al  Al14  1  0.950553  0.950553  0.950553  1
  Al  Al15  1  0.297821  0.702179  0.500000  1
  Al  Al16  1  0.000000  0.665357  0.334643  1
  Al  Al17  1  0.715768  0.715768  0.715768  1
  Al  Al18  1  0.284232  0.284232  0.284232  1
  Al  Al19  1  0.893623  0.240214  0.567174  1
  Pd  Pd20  1  0.241834  0.922325  0.581993  1
  Pd  Pd21  1  0.922325  0.581993  0.241834  1
  Pd  Pd22  1  0.758166  0.418007  0.077675  1
  Pd  Pd23  1  0.077675  0.758166  0.418007  1
  Pd  Pd24  1  0.418007  0.077675  0.758166  1
  Pd  Pd25  1  0.581993  0.241834  0.922325  1
