# generated using pymatgen
data_NdTmMg4(PaRh2)2
_symmetry_space_group_name_H-M   'P 1'
_cell_length_a   3.82317600
_cell_length_b   7.41440747
_cell_length_c   9.09751300
_cell_angle_alpha   91.31224790
_cell_angle_beta   90.00000000
_cell_angle_gamma   90.00000000
_symmetry_Int_Tables_number   1
_chemical_formula_structural   NdTmMg4(PaRh2)2
_chemical_formula_sum   'Nd1 Tm1 Mg4 Pa2 Rh4'
_cell_volume   257.81578934
_cell_formula_units_Z   1
loop_
 _symmetry_equiv_pos_site_id
 _symmetry_equiv_pos_as_xyz
  1  'x, y, z'
loop_
 _atom_site_type_symbol
 _atom_site_label
 _atom_site_symmetry_multiplicity
 _atom_site_fract_x
 _atom_site_fract_y
 _atom_site_fract_z
 _atom_site_occupancy
  Nd  Nd0  1  0.750000  0.469472  0.178073  1
  Tm  Tm1  1  0.250000  0.529162  0.812438  1
  Mg  Mg2  1  0.750000  0.851197  0.949172  1
  Mg  Mg3  1  0.250000  0.144375  0.046593  1
  Mg  Mg4  1  0.250000  0.640893  0.449539  1
  Mg  Mg5  1  0.750000  0.361874  0.554361  1
  Pa  Pa6  1  0.750000  0.969712  0.314528  1
  Pa  Pa7  1  0.250000  0.031481  0.687575  1
  Rh  Rh8  1  0.750000  0.779021  0.639837  1
  Rh  Rh9  1  0.250000  0.213649  0.366992  1
  Rh  Rh10  1  0.250000  0.777746  0.169419  1
  Rh  Rh11  1  0.750000  0.231418  0.831475  1
