# generated using pymatgen
data_La6Si(GeSe7)2
_symmetry_space_group_name_H-M   'P 1'
_cell_length_a   10.86790300
_cell_length_b   10.86790281
_cell_length_c   6.10839100
_cell_angle_alpha   90.00000000
_cell_angle_beta   90.00000000
_cell_angle_gamma   120.00000971
_symmetry_Int_Tables_number   1
_chemical_formula_structural   La6Si(GeSe7)2
_chemical_formula_sum   'La6 Si1 Ge2 Se14'
_cell_volume   624.81136039
_cell_formula_units_Z   1
loop_
 _symmetry_equiv_pos_site_id
 _symmetry_equiv_pos_as_xyz
  1  'x, y, z'
loop_
 _atom_site_type_symbol
 _atom_site_label
 _atom_site_symmetry_multiplicity
 _atom_site_fract_x
 _atom_site_fract_y
 _atom_site_fract_z
 _atom_site_occupancy
  La  La0  1  0.309554  0.102650  0.755282  1
  La  La1  1  0.793096  0.690446  0.755282  1
  La  La2  1  0.897350  0.206904  0.755282  1
  La  La3  1  0.023781  0.563906  0.251561  1
  La  La4  1  0.540125  0.976219  0.251561  1
  La  La5  1  0.436094  0.459875  0.251561  1
  Si  Si6  1  0.000000  0.000000  0.168289  1
  Ge  Ge7  1  0.333333  0.666667  0.665874  1
  Ge  Ge8  1  0.666667  0.333333  0.514786  1
  Se  Se9  1  0.144590  0.223177  0.020296  1
  Se  Se10  1  0.078586  0.855410  0.020296  1
  Se  Se11  1  0.776823  0.921414  0.020296  1
  Se  Se12  1  0.183454  0.434947  0.510054  1
  Se  Se13  1  0.251493  0.816546  0.510054  1
  Se  Se14  1  0.565053  0.748507  0.510054  1
  Se  Se15  1  0.000000  0.000000  0.539689  1
  Se  Se16  1  0.333333  0.666667  0.051270  1
  Se  Se17  1  0.412476  0.170058  0.272729  1
  Se  Se18  1  0.757582  0.587524  0.272729  1
  Se  Se19  1  0.829942  0.242418  0.272729  1
  Se  Se20  1  0.922477  0.500164  0.762463  1
  Se  Se21  1  0.577688  0.077523  0.762463  1
  Se  Se22  1  0.499836  0.422312  0.762463  1
