# generated using pymatgen
data_Dy2Si5RuPt2
_symmetry_space_group_name_H-M   'P 1'
_cell_length_a   8.15226836
_cell_length_b   8.15226871
_cell_length_c   5.90966801
_cell_angle_alpha   68.67390593
_cell_angle_beta   68.67391207
_cell_angle_gamma   89.14024410
_symmetry_Int_Tables_number   1
_chemical_formula_structural   Dy2Si5RuPt2
_chemical_formula_sum   'Dy4 Si10 Ru2 Pt4'
_cell_volume   337.68218663
_cell_formula_units_Z   2
loop_
 _symmetry_equiv_pos_site_id
 _symmetry_equiv_pos_as_xyz
  1  'x, y, z'
loop_
 _atom_site_type_symbol
 _atom_site_label
 _atom_site_symmetry_multiplicity
 _atom_site_fract_x
 _atom_site_fract_y
 _atom_site_fract_z
 _atom_site_occupancy
  Dy  Dy0  1  0.861533  0.601247  0.768327  1
  Dy  Dy1  1  0.398753  0.138467  0.731673  1
  Dy  Dy2  1  0.138467  0.398753  0.231673  1
  Dy  Dy3  1  0.601247  0.861533  0.268327  1
  Si  Si4  1  0.048227  0.253776  0.849080  1
  Si  Si5  1  0.746224  0.951773  0.650920  1
  Si  Si6  1  0.951773  0.746224  0.150920  1
  Si  Si7  1  0.253776  0.048227  0.349080  1
  Si  Si8  1  0.222162  0.777838  0.750000  1
  Si  Si9  1  0.777838  0.222162  0.250000  1
  Si  Si10  1  0.499864  0.500136  0.750000  1
  Si  Si11  1  0.500136  0.499864  0.250000  1
  Si  Si12  1  0.778262  0.221738  0.750000  1
  Si  Si13  1  0.221738  0.778262  0.250000  1
  Ru  Ru14  1  0.999626  0.000374  0.750000  1
  Ru  Ru15  1  0.000374  0.999626  0.250000  1
  Pt  Pt16  1  0.247330  0.526825  0.612876  1
  Pt  Pt17  1  0.473175  0.752670  0.887124  1
  Pt  Pt18  1  0.752670  0.473175  0.387124  1
  Pt  Pt19  1  0.526825  0.247330  0.112876  1
