# generated using pymatgen
data_Nd2Gd2TeWO12
_symmetry_space_group_name_H-M   'P 1'
_cell_length_a   5.43441700
_cell_length_b   9.34593329
_cell_length_c   10.20741131
_cell_angle_alpha   89.97170242
_cell_angle_beta   90.00000000
_cell_angle_gamma   90.00000000
_symmetry_Int_Tables_number   1
_chemical_formula_structural   Nd2Gd2TeWO12
_chemical_formula_sum   'Nd4 Gd4 Te2 W2 O24'
_cell_volume   518.43128203
_cell_formula_units_Z   2
loop_
 _symmetry_equiv_pos_site_id
 _symmetry_equiv_pos_as_xyz
  1  'x, y, z'
loop_
 _atom_site_type_symbol
 _atom_site_label
 _atom_site_symmetry_multiplicity
 _atom_site_fract_x
 _atom_site_fract_y
 _atom_site_fract_z
 _atom_site_occupancy
  Nd  Nd0  1  0.033074  0.219621  0.862303  1
  Nd  Nd1  1  0.533074  0.280379  0.137697  1
  Nd  Nd2  1  0.964604  0.718883  0.634746  1
  Nd  Nd3  1  0.464604  0.781117  0.365254  1
  Gd  Gd4  1  0.022840  0.102118  0.460882  1
  Gd  Gd5  1  0.522840  0.397882  0.539118  1
  Gd  Gd6  1  0.979547  0.605701  0.042239  1
  Gd  Gd7  1  0.479547  0.894299  0.957761  1
  Te  Te8  1  0.461054  0.506944  0.855305  1
  Te  Te9  1  0.961054  0.993056  0.144695  1
  W  W10  1  0.538780  0.006587  0.646100  1
  W  W11  1  0.038780  0.493413  0.353900  1
  O  O12  1  0.251718  0.418972  0.993724  1
  O  O13  1  0.751718  0.081028  0.006276  1
  O  O14  1  0.747526  0.915861  0.506313  1
  O  O15  1  0.247526  0.584139  0.493687  1
  O  O16  1  0.222113  0.112880  0.065827  1
  O  O17  1  0.722113  0.387120  0.934173  1
  O  O18  1  0.775933  0.609757  0.436964  1
  O  O19  1  0.275933  0.890243  0.563036  1
  O  O20  1  0.311731  0.362291  0.325941  1
  O  O21  1  0.811731  0.137709  0.674059  1
  O  O22  1  0.690405  0.858224  0.173556  1
  O  O23  1  0.190405  0.641776  0.826444  1
  O  O24  1  0.167503  0.949018  0.292652  1
  O  O25  1  0.667503  0.550982  0.707348  1
  O  O26  1  0.832215  0.452148  0.207668  1
  O  O27  1  0.332215  0.047852  0.792332  1
  O  O28  1  0.184211  0.635333  0.239811  1
  O  O29  1  0.684211  0.864667  0.760189  1
  O  O30  1  0.820183  0.136313  0.259154  1
  O  O31  1  0.320183  0.363687  0.740846  1
  O  O32  1  0.088579  0.845809  0.027647  1
  O  O33  1  0.588579  0.654191  0.972353  1
  O  O34  1  0.907984  0.340889  0.466685  1
  O  O35  1  0.407984  0.159111  0.533315  1
