# generated using pymatgen
data_Y20Ir3Pt4Rh5
_symmetry_space_group_name_H-M   'P 1'
_cell_length_a   11.02513666
_cell_length_b   11.02931124
_cell_length_c   6.38109789
_cell_angle_alpha   90.02534525
_cell_angle_beta   89.94667092
_cell_angle_gamma   89.68981170
_symmetry_Int_Tables_number   1
_chemical_formula_structural   Y20Ir3Pt4Rh5
_chemical_formula_sum   'Y20 Ir3 Pt4 Rh5'
_cell_volume   775.92757231
_cell_formula_units_Z   1
loop_
 _symmetry_equiv_pos_site_id
 _symmetry_equiv_pos_as_xyz
  1  'x, y, z'
loop_
 _atom_site_type_symbol
 _atom_site_label
 _atom_site_symmetry_multiplicity
 _atom_site_fract_x
 _atom_site_fract_y
 _atom_site_fract_z
 _atom_site_occupancy
  Y  Y0  1  0.292372  0.092059  0.378680  1
  Y  Y1  1  0.293473  0.909944  0.875014  1
  Y  Y2  1  0.705796  0.087182  0.876159  1
  Y  Y3  1  0.706248  0.908516  0.375774  1
  Y  Y4  1  0.586852  0.789238  0.880478  1
  Y  Y5  1  0.584835  0.207793  0.376658  1
  Y  Y6  1  0.413180  0.790086  0.379798  1
  Y  Y7  1  0.408516  0.208930  0.881351  1
  Y  Y8  1  0.210926  0.411553  0.619528  1
  Y  Y9  1  0.209596  0.586483  0.120086  1
  Y  Y10  1  0.791841  0.414805  0.123757  1
  Y  Y11  1  0.791117  0.589867  0.618471  1
  Y  Y12  1  0.909103  0.706539  0.123589  1
  Y  Y13  1  0.913964  0.293267  0.624822  1
  Y  Y14  1  0.091144  0.705576  0.624138  1
  Y  Y15  1  0.092634  0.292741  0.121754  1
  Y  Y16  1  0.001194  0.000534  0.499830  1
  Y  Y17  1  0.001007  0.001774  0.000158  1
  Y  Y18  1  0.498700  0.500869  0.999906  1
  Y  Y19  1  0.498922  0.501499  0.499990  1
  Ir  Ir20  1  0.655021  0.654025  0.250001  1
  Ir  Ir21  1  0.346206  0.345226  0.249863  1
  Ir  Ir22  1  0.344585  0.655731  0.750490  1
  Pt  Pt23  1  0.844652  0.155174  0.250144  1
  Pt  Pt24  1  0.846055  0.846957  0.750536  1
  Pt  Pt25  1  0.154432  0.845397  0.249904  1
  Pt  Pt26  1  0.655788  0.344607  0.749543  1
  Rh  Rh27  1  0.152449  0.153158  0.749522  1
  Rh  Rh28  1  0.500424  0.000216  0.125538  1
  Rh  Rh29  1  0.499969  0.000643  0.626215  1
  Rh  Rh30  1  0.999600  0.499756  0.873738  1
  Rh  Rh31  1  0.999398  0.499855  0.374564  1
