# generated using pymatgen
data_PrNd3(ZrPt)4
_symmetry_space_group_name_H-M   'P 1'
_cell_length_a   4.70176300
_cell_length_b   7.67421273
_cell_length_c   8.11619756
_cell_angle_alpha   89.89778830
_cell_angle_beta   90.00000000
_cell_angle_gamma   90.00000000
_symmetry_Int_Tables_number   1
_chemical_formula_structural   PrNd3(ZrPt)4
_chemical_formula_sum   'Pr1 Nd3 Zr4 Pt4'
_cell_volume   292.85084842
_cell_formula_units_Z   1
loop_
 _symmetry_equiv_pos_site_id
 _symmetry_equiv_pos_as_xyz
  1  'x, y, z'
loop_
 _atom_site_type_symbol
 _atom_site_label
 _atom_site_symmetry_multiplicity
 _atom_site_fract_x
 _atom_site_fract_y
 _atom_site_fract_z
 _atom_site_occupancy
  Pr  Pr0  1  0.250000  0.025018  0.670379  1
  Nd  Nd1  1  0.250000  0.525625  0.829243  1
  Nd  Nd2  1  0.750000  0.973833  0.328080  1
  Nd  Nd3  1  0.750000  0.474426  0.171859  1
  Zr  Zr4  1  0.250000  0.143272  0.080011  1
  Zr  Zr5  1  0.250000  0.642988  0.420185  1
  Zr  Zr6  1  0.750000  0.856681  0.920802  1
  Zr  Zr7  1  0.750000  0.356988  0.579667  1
  Pt  Pt8  1  0.250000  0.291256  0.404070  1
  Pt  Pt9  1  0.250000  0.790232  0.094522  1
  Pt  Pt10  1  0.750000  0.709039  0.594365  1
  Pt  Pt11  1  0.750000  0.210643  0.906817  1
