# generated using pymatgen
data_Ca6Hf2TcH27
_symmetry_space_group_name_H-M   'P 1'
_cell_length_a   8.86257800
_cell_length_b   8.86257913
_cell_length_c   5.13527500
_cell_angle_alpha   90.00000000
_cell_angle_beta   90.00000000
_cell_angle_gamma   119.99999577
_symmetry_Int_Tables_number   1
_chemical_formula_structural   Ca6Hf2TcH27
_chemical_formula_sum   'Ca6 Hf2 Tc1 H27'
_cell_volume   349.31284204
_cell_formula_units_Z   1
loop_
 _symmetry_equiv_pos_site_id
 _symmetry_equiv_pos_as_xyz
  1  'x, y, z'
loop_
 _atom_site_type_symbol
 _atom_site_label
 _atom_site_symmetry_multiplicity
 _atom_site_fract_x
 _atom_site_fract_y
 _atom_site_fract_z
 _atom_site_occupancy
  Ca  Ca0  1  0.256538  0.998916  0.500000  1
  Ca  Ca1  1  0.001084  0.257622  0.500000  1
  Ca  Ca2  1  0.742378  0.743462  0.500000  1
  Ca  Ca3  1  0.589597  0.930499  0.000000  1
  Ca  Ca4  1  0.069501  0.659098  0.000000  1
  Ca  Ca5  1  0.340902  0.410403  0.000000  1
  Hf  Hf6  1  0.000000  0.000000  0.000000  1
  Hf  Hf7  1  0.333333  0.666667  0.500000  1
  Tc  Tc8  1  0.666667  0.333333  0.500000  1
  H  H9  1  0.839936  0.000931  0.263563  1
  H  H10  1  0.999069  0.839005  0.263563  1
  H  H11  1  0.839936  0.000931  0.736437  1
  H  H12  1  0.999069  0.839005  0.736437  1
  H  H13  1  0.160995  0.160064  0.263563  1
  H  H14  1  0.160995  0.160064  0.736437  1
  H  H15  1  0.218583  0.990483  0.000000  1
  H  H16  1  0.009517  0.228099  0.000000  1
  H  H17  1  0.771901  0.781417  0.000000  1
  H  H18  1  0.172892  0.508959  0.232267  1
  H  H19  1  0.491041  0.663932  0.232267  1
  H  H20  1  0.172892  0.508959  0.767733  1
  H  H21  1  0.533041  0.200397  0.737386  1
  H  H22  1  0.336068  0.827108  0.232267  1
  H  H23  1  0.491041  0.663932  0.767733  1
  H  H24  1  0.667355  0.466959  0.737386  1
  H  H25  1  0.533041  0.200397  0.262614  1
  H  H26  1  0.336068  0.827108  0.767733  1
  H  H27  1  0.667355  0.466959  0.262614  1
  H  H28  1  0.799603  0.332645  0.737386  1
  H  H29  1  0.799603  0.332645  0.262614  1
  H  H30  1  0.314580  0.437543  0.500000  1
  H  H31  1  0.562457  0.877037  0.500000  1
  H  H32  1  0.481858  0.338336  0.500000  1
  H  H33  1  0.122963  0.685420  0.500000  1
  H  H34  1  0.856477  0.518142  0.500000  1
  H  H35  1  0.661664  0.143523  0.500000  1
