# generated using pymatgen
data_Ho2Hf3Ni9As7
_symmetry_space_group_name_H-M   'P 1'
_cell_length_a   3.85154400
_cell_length_b   9.74833136
_cell_length_c   9.74833200
_cell_angle_alpha   120.00000125
_cell_angle_beta   90.00000000
_cell_angle_gamma   90.00000000
_symmetry_Int_Tables_number   1
_chemical_formula_structural   Ho2Hf3Ni9As7
_chemical_formula_sum   'Ho2 Hf3 Ni9 As7'
_cell_volume   316.97578400
_cell_formula_units_Z   1
loop_
 _symmetry_equiv_pos_site_id
 _symmetry_equiv_pos_as_xyz
  1  'x, y, z'
loop_
 _atom_site_type_symbol
 _atom_site_label
 _atom_site_symmetry_multiplicity
 _atom_site_fract_x
 _atom_site_fract_y
 _atom_site_fract_z
 _atom_site_occupancy
  Ho  Ho0  1  0.000000  0.666667  0.333333  1
  Ho  Ho1  1  0.500000  0.333333  0.666667  1
  Hf  Hf2  1  0.500000  0.770101  0.889462  1
  Hf  Hf3  1  0.500000  0.119360  0.229899  1
  Hf  Hf4  1  0.500000  0.110538  0.880640  1
  Ni  Ni5  1  0.000000  0.574785  0.933944  1
  Ni  Ni6  1  0.000000  0.359159  0.425215  1
  Ni  Ni7  1  0.000000  0.066056  0.640841  1
  Ni  Ni8  1  0.000000  0.871571  0.156110  1
  Ni  Ni9  1  0.000000  0.284539  0.128429  1
  Ni  Ni10  1  0.000000  0.843890  0.715461  1
  Ni  Ni11  1  0.500000  0.940055  0.379023  1
  Ni  Ni12  1  0.500000  0.438967  0.059945  1
  Ni  Ni13  1  0.500000  0.620977  0.561033  1
  As  As14  1  0.000000  0.000000  0.000000  1
  As  As15  1  0.500000  0.704821  0.122635  1
  As  As16  1  0.500000  0.417814  0.295179  1
  As  As17  1  0.500000  0.877365  0.582186  1
  As  As18  1  0.000000  0.575723  0.684942  1
  As  As19  1  0.000000  0.109219  0.424277  1
  As  As20  1  0.000000  0.315058  0.890781  1
