# generated using pymatgen
data_La6MgCuSb14
_symmetry_space_group_name_H-M   'P 1'
_cell_length_a   12.65468962
_cell_length_b   12.65469023
_cell_length_c   4.29963426
_cell_angle_alpha   80.19371928
_cell_angle_beta   80.19371517
_cell_angle_gamma   101.01069651
_symmetry_Int_Tables_number   1
_chemical_formula_structural   La6MgCuSb14
_chemical_formula_sum   'La6 Mg1 Cu1 Sb14'
_cell_volume   651.18822921
_cell_formula_units_Z   1
loop_
 _symmetry_equiv_pos_site_id
 _symmetry_equiv_pos_as_xyz
  1  'x, y, z'
loop_
 _atom_site_type_symbol
 _atom_site_label
 _atom_site_symmetry_multiplicity
 _atom_site_fract_x
 _atom_site_fract_y
 _atom_site_fract_z
 _atom_site_occupancy
  La  La0  1  0.328455  0.678082  0.929771  1
  La  La1  1  0.678082  0.328455  0.929771  1
  La  La2  1  0.270882  0.006609  0.794132  1
  La  La3  1  0.727681  0.998020  0.070552  1
  La  La4  1  0.998020  0.727681  0.070552  1
  La  La5  1  0.006609  0.270882  0.794132  1
  Mg  Mg6  1  0.376247  0.376247  0.056586  1
  Cu  Cu7  1  0.266324  0.266324  0.667194  1
  Sb  Sb8  1  0.568404  0.568404  0.864848  1
  Sb  Sb9  1  0.470735  0.252467  0.571150  1
  Sb  Sb10  1  0.553150  0.746145  0.282972  1
  Sb  Sb11  1  0.746145  0.553150  0.282972  1
  Sb  Sb12  1  0.252467  0.470735  0.571150  1
  Sb  Sb13  1  0.513920  0.912976  0.720135  1
  Sb  Sb14  1  0.488084  0.082851  0.147105  1
  Sb  Sb15  1  0.082851  0.488084  0.147105  1
  Sb  Sb16  1  0.912976  0.513920  0.720135  1
  Sb  Sb17  1  0.164734  0.164734  0.269303  1
  Sb  Sb18  1  0.858484  0.858484  0.575247  1
  Sb  Sb19  1  0.201019  0.801819  0.431587  1
  Sb  Sb20  1  0.801819  0.201019  0.431587  1
  Sb  Sb21  1  0.993513  0.993513  0.939313  1
