# generated using pymatgen
data_Cs12TbMgSe8
_symmetry_space_group_name_H-M   'P 1'
_cell_length_a   11.47005100
_cell_length_b   11.47005027
_cell_length_c   8.79060100
_cell_angle_alpha   90.00000000
_cell_angle_beta   90.00000000
_cell_angle_gamma   119.99999921
_symmetry_Int_Tables_number   1
_chemical_formula_structural   Cs12TbMgSe8
_chemical_formula_sum   'Cs12 Tb1 Mg1 Se8'
_cell_volume   1001.56669307
_cell_formula_units_Z   1
loop_
 _symmetry_equiv_pos_site_id
 _symmetry_equiv_pos_as_xyz
  1  'x, y, z'
loop_
 _atom_site_type_symbol
 _atom_site_label
 _atom_site_symmetry_multiplicity
 _atom_site_fract_x
 _atom_site_fract_y
 _atom_site_fract_z
 _atom_site_occupancy
  Cs  Cs0  1  0.138945  0.861055  0.547047  1
  Cs  Cs1  1  0.288638  0.144319  0.043778  1
  Cs  Cs2  1  0.855681  0.711362  0.043778  1
  Cs  Cs3  1  0.138945  0.277891  0.547047  1
  Cs  Cs4  1  0.722109  0.861055  0.547047  1
  Cs  Cs5  1  0.855681  0.144319  0.043778  1
  Cs  Cs6  1  0.536078  0.463922  0.369651  1
  Cs  Cs7  1  0.050176  0.525088  0.857372  1
  Cs  Cs8  1  0.474912  0.949824  0.857372  1
  Cs  Cs9  1  0.536078  0.072156  0.369651  1
  Cs  Cs10  1  0.927844  0.463922  0.369651  1
  Cs  Cs11  1  0.474912  0.525088  0.857372  1
  Tb  Tb12  1  0.333333  0.666667  0.252540  1
  Mg  Mg13  1  0.666667  0.333333  0.754243  1
  Se  Se14  1  0.333333  0.666667  0.565404  1
  Se  Se15  1  0.666667  0.333333  0.059228  1
  Se  Se16  1  0.202247  0.797753  0.152962  1
  Se  Se17  1  0.410062  0.205032  0.658521  1
  Se  Se18  1  0.794968  0.589938  0.658521  1
  Se  Se19  1  0.202247  0.404491  0.152962  1
  Se  Se20  1  0.595509  0.797753  0.152962  1
  Se  Se21  1  0.794968  0.205032  0.658521  1
