# generated using pymatgen
data_Tb5GdMoO12
_symmetry_space_group_name_H-M   'P 1'
_cell_length_a   6.52222845
_cell_length_b   6.52915607
_cell_length_c   6.52618884
_cell_angle_alpha   98.60179278
_cell_angle_beta   98.51440888
_cell_angle_gamma   98.48638365
_symmetry_Int_Tables_number   1
_chemical_formula_structural   Tb5GdMoO12
_chemical_formula_sum   'Tb5 Gd1 Mo1 O12'
_cell_volume   267.63627418
_cell_formula_units_Z   1
loop_
 _symmetry_equiv_pos_site_id
 _symmetry_equiv_pos_as_xyz
  1  'x, y, z'
loop_
 _atom_site_type_symbol
 _atom_site_label
 _atom_site_symmetry_multiplicity
 _atom_site_fract_x
 _atom_site_fract_y
 _atom_site_fract_z
 _atom_site_occupancy
  Tb  Tb0  1  0.855457  0.387664  0.685811  1
  Tb  Tb1  1  0.611672  0.313806  0.143925  1
  Tb  Tb2  1  0.314788  0.144214  0.612217  1
  Tb  Tb3  1  0.686065  0.856410  0.388598  1
  Tb  Tb4  1  0.388680  0.685461  0.855714  1
  Gd  Gd5  1  0.143761  0.611057  0.313510  1
  Mo  Mo6  1  0.999700  0.999534  0.999507  1
  O  O7  1  0.925676  0.033786  0.704128  1
  O  O8  1  0.963920  0.294514  0.072262  1
  O  O9  1  0.590925  0.177204  0.433769  1
  O  O10  1  0.821370  0.565467  0.409921  1
  O  O11  1  0.295359  0.074458  0.966163  1
  O  O12  1  0.565864  0.408543  0.822755  1
  O  O13  1  0.435897  0.591710  0.177018  1
  O  O14  1  0.704646  0.925296  0.033951  1
  O  O15  1  0.177364  0.433566  0.593571  1
  O  O16  1  0.411027  0.823538  0.567475  1
  O  O17  1  0.033684  0.704968  0.924486  1
  O  O18  1  0.074144  0.968805  0.295217  1
