# generated using pymatgen
data_Tb4Ho6CdIn7Pt3Au
_symmetry_space_group_name_H-M   'P 1'
_cell_length_a   3.64968000
_cell_length_b   8.16586693
_cell_length_c   18.29264200
_cell_angle_alpha   89.94379785
_cell_angle_beta   90.00000000
_cell_angle_gamma   90.00000000
_symmetry_Int_Tables_number   1
_chemical_formula_structural   Tb4Ho6CdIn7Pt3Au
_chemical_formula_sum   'Tb4 Ho6 Cd1 In7 Pt3 Au1'
_cell_volume   545.17171089
_cell_formula_units_Z   1
loop_
 _symmetry_equiv_pos_site_id
 _symmetry_equiv_pos_as_xyz
  1  'x, y, z'
loop_
 _atom_site_type_symbol
 _atom_site_label
 _atom_site_symmetry_multiplicity
 _atom_site_fract_x
 _atom_site_fract_y
 _atom_site_fract_z
 _atom_site_occupancy
  Tb  Tb0  1  0.000000  0.256536  0.720263  1
  Tb  Tb1  1  0.000000  0.727942  0.280593  1
  Tb  Tb2  1  0.000000  0.999761  0.999204  1
  Tb  Tb3  1  0.000000  0.499821  0.500386  1
  Ho  Ho4  1  0.000000  0.120568  0.419512  1
  Ho  Ho5  1  0.000000  0.883688  0.586469  1
  Ho  Ho6  1  0.000000  0.384079  0.914047  1
  Ho  Ho7  1  0.000000  0.616352  0.084009  1
  Ho  Ho8  1  0.000000  0.254509  0.217091  1
  Ho  Ho9  1  0.000000  0.756489  0.780077  1
  Cd  Cd10  1  0.500000  0.420528  0.352125  1
  In  In11  1  0.500000  0.577326  0.649243  1
  In  In12  1  0.500000  0.076687  0.851049  1
  In  In13  1  0.500000  0.920936  0.147825  1
  In  In14  1  0.500000  0.292926  0.065284  1
  In  In15  1  0.500000  0.707277  0.932742  1
  In  In16  1  0.500000  0.207485  0.567401  1
  In  In17  1  0.500000  0.792340  0.434359  1
  Pt  Pt18  1  0.500000  0.972730  0.696942  1
  Pt  Pt19  1  0.500000  0.476460  0.803929  1
  Pt  Pt20  1  0.500000  0.525897  0.194964  1
  Au  Au21  1  0.500000  0.029661  0.302487  1
