# generated using pymatgen
data_Li2Zn11
_symmetry_space_group_name_H-M   'P 1'
_cell_length_a   8.49088300
_cell_length_b   8.49088300
_cell_length_c   8.49088300
_cell_angle_alpha   90.00000000
_cell_angle_beta   90.00000000
_cell_angle_gamma   90.00000000
_symmetry_Int_Tables_number   1
_chemical_formula_structural   Li2Zn11
_chemical_formula_sum   'Li6 Zn33'
_cell_volume   612.15100904
_cell_formula_units_Z   3
loop_
 _symmetry_equiv_pos_site_id
 _symmetry_equiv_pos_as_xyz
  1  'x, y, z'
loop_
 _atom_site_type_symbol
 _atom_site_label
 _atom_site_symmetry_multiplicity
 _atom_site_fract_x
 _atom_site_fract_y
 _atom_site_fract_z
 _atom_site_occupancy
  Li  Li0  1  0.302268  0.000000  0.500000  1
  Li  Li1  1  0.500000  0.302268  0.000000  1
  Li  Li2  1  0.000000  0.500000  0.302268  1
  Li  Li3  1  0.500000  0.697732  0.000000  1
  Li  Li4  1  0.000000  0.500000  0.697732  1
  Li  Li5  1  0.697732  0.000000  0.500000  1
  Zn  Zn6  1  0.500000  0.500000  0.500000  1
  Zn  Zn7  1  0.229658  0.000000  0.000000  1
  Zn  Zn8  1  0.000000  0.229658  0.000000  1
  Zn  Zn9  1  0.000000  0.000000  0.229658  1
  Zn  Zn10  1  0.000000  0.770342  0.000000  1
  Zn  Zn11  1  0.000000  0.000000  0.770342  1
  Zn  Zn12  1  0.770342  0.000000  0.000000  1
  Zn  Zn13  1  0.159082  0.500000  0.000000  1
  Zn  Zn14  1  0.000000  0.159082  0.500000  1
  Zn  Zn15  1  0.500000  0.000000  0.159082  1
  Zn  Zn16  1  0.000000  0.840918  0.500000  1
  Zn  Zn17  1  0.500000  0.000000  0.840918  1
  Zn  Zn18  1  0.840918  0.500000  0.000000  1
  Zn  Zn19  1  0.218250  0.218250  0.218250  1
  Zn  Zn20  1  0.781750  0.781750  0.218250  1
  Zn  Zn21  1  0.218250  0.781750  0.781750  1
  Zn  Zn22  1  0.781750  0.218250  0.781750  1
  Zn  Zn23  1  0.781750  0.781750  0.781750  1
  Zn  Zn24  1  0.218250  0.218250  0.781750  1
  Zn  Zn25  1  0.781750  0.218250  0.218250  1
  Zn  Zn26  1  0.218250  0.781750  0.218250  1
  Zn  Zn27  1  0.500000  0.235197  0.342023  1
  Zn  Zn28  1  0.342023  0.500000  0.235197  1
  Zn  Zn29  1  0.235197  0.342023  0.500000  1
  Zn  Zn30  1  0.764803  0.657977  0.500000  1
  Zn  Zn31  1  0.342023  0.500000  0.764803  1
  Zn  Zn32  1  0.764803  0.342023  0.500000  1
  Zn  Zn33  1  0.657977  0.500000  0.235197  1
  Zn  Zn34  1  0.657977  0.500000  0.764803  1
  Zn  Zn35  1  0.235197  0.657977  0.500000  1
  Zn  Zn36  1  0.500000  0.764803  0.657977  1
  Zn  Zn37  1  0.500000  0.235197  0.657977  1
  Zn  Zn38  1  0.500000  0.764803  0.342023  1
