# generated using pymatgen
data_CsSb12Ru3Au
_symmetry_space_group_name_H-M   'P 1'
_cell_length_a   8.27631752
_cell_length_b   8.27271772
_cell_length_c   8.23655857
_cell_angle_alpha   109.36253872
_cell_angle_beta   109.39134015
_cell_angle_gamma   109.57801756
_symmetry_Int_Tables_number   1
_chemical_formula_structural   CsSb12Ru3Au
_chemical_formula_sum   'Cs1 Sb12 Ru3 Au1'
_cell_volume   434.55561214
_cell_formula_units_Z   1
loop_
 _symmetry_equiv_pos_site_id
 _symmetry_equiv_pos_as_xyz
  1  'x, y, z'
loop_
 _atom_site_type_symbol
 _atom_site_label
 _atom_site_symmetry_multiplicity
 _atom_site_fract_x
 _atom_site_fract_y
 _atom_site_fract_z
 _atom_site_occupancy
  Cs  Cs0  1  0.000000  0.000000  0.000000  1
  Sb  Sb1  1  0.163253  0.803467  0.660480  1
  Sb  Sb2  1  0.159720  0.499497  0.339013  1
  Sb  Sb3  1  0.500360  0.659925  0.839323  1
  Sb  Sb4  1  0.340230  0.840676  0.179396  1
  Sb  Sb5  1  0.803742  0.639960  0.142644  1
  Sb  Sb6  1  0.639931  0.836650  0.497220  1
  Sb  Sb7  1  0.196258  0.360040  0.857356  1
  Sb  Sb8  1  0.659770  0.159324  0.820604  1
  Sb  Sb9  1  0.360069  0.163350  0.502780  1
  Sb  Sb10  1  0.499640  0.340075  0.160677  1
  Sb  Sb11  1  0.840280  0.500503  0.660987  1
  Sb  Sb12  1  0.836747  0.196533  0.339520  1
  Ru  Ru13  1  0.500000  0.500000  0.500000  1
  Ru  Ru14  1  0.500000  0.000000  0.000000  1
  Ru  Ru15  1  0.000000  0.500000  0.000000  1
  Au  Au16  1  0.000000  0.000000  0.500000  1
