# generated using pymatgen
data_Ta2SnF12
_symmetry_space_group_name_H-M   'P 1'
_cell_length_a   5.53855569
_cell_length_b   6.06281678
_cell_length_c   9.60931547
_cell_angle_alpha   104.68126067
_cell_angle_beta   90.85684112
_cell_angle_gamma   117.96318640
_symmetry_Int_Tables_number   1
_chemical_formula_structural   Ta2SnF12
_chemical_formula_sum   'Ta2 Sn1 F12'
_cell_volume   272.29490032
_cell_formula_units_Z   1
loop_
 _symmetry_equiv_pos_site_id
 _symmetry_equiv_pos_as_xyz
  1  'x, y, z'
loop_
 _atom_site_type_symbol
 _atom_site_label
 _atom_site_symmetry_multiplicity
 _atom_site_fract_x
 _atom_site_fract_y
 _atom_site_fract_z
 _atom_site_occupancy
  Ta  Ta0  1  0.775464  0.513401  0.271068  1
  Ta  Ta1  1  0.224536  0.486599  0.728932  1
  Sn  Sn2  1  0.000000  0.000000  0.000000  1
  F  F3  1  0.839682  0.272264  0.710818  1
  F  F4  1  0.160318  0.727736  0.289182  1
  F  F5  1  0.203491  0.722268  0.912477  1
  F  F6  1  0.719105  0.719515  0.433725  1
  F  F7  1  0.280895  0.280485  0.566275  1
  F  F8  1  0.798876  0.290214  0.368370  1
  F  F9  1  0.201124  0.709786  0.631630  1
  F  F10  1  0.371862  0.283140  0.206911  1
  F  F11  1  0.628138  0.716860  0.793089  1
  F  F12  1  0.735292  0.709806  0.142394  1
  F  F13  1  0.264708  0.290194  0.857606  1
  F  F14  1  0.796509  0.277732  0.087523  1
