# generated using pymatgen
data_Tb11Yb8YIr12
_symmetry_space_group_name_H-M   'P 1'
_cell_length_a   10.91874560
_cell_length_b   11.00855722
_cell_length_c   6.27847400
_cell_angle_alpha   90.22328041
_cell_angle_beta   89.73407306
_cell_angle_gamma   90.05896354
_symmetry_Int_Tables_number   1
_chemical_formula_structural   Tb11Yb8YIr12
_chemical_formula_sum   'Tb11 Yb8 Y1 Ir12'
_cell_volume   754.65604321
_cell_formula_units_Z   1
loop_
 _symmetry_equiv_pos_site_id
 _symmetry_equiv_pos_as_xyz
  1  'x, y, z'
loop_
 _atom_site_type_symbol
 _atom_site_label
 _atom_site_symmetry_multiplicity
 _atom_site_fract_x
 _atom_site_fract_y
 _atom_site_fract_z
 _atom_site_occupancy
  Tb  Tb0  1  0.590710  0.203168  0.378265  1
  Tb  Tb1  1  0.413496  0.795374  0.380424  1
  Tb  Tb2  1  0.411407  0.206180  0.880307  1
  Tb  Tb3  1  0.209907  0.412482  0.622442  1
  Tb  Tb4  1  0.209702  0.589220  0.124525  1
  Tb  Tb5  1  0.787682  0.413145  0.126505  1
  Tb  Tb6  1  0.787997  0.588330  0.626590  1
  Tb  Tb7  1  0.910807  0.710460  0.128468  1
  Tb  Tb8  1  0.909903  0.290180  0.626208  1
  Tb  Tb9  1  0.087817  0.710982  0.625712  1
  Tb  Tb10  1  0.087629  0.290939  0.125573  1
  Yb  Yb11  1  0.290683  0.910632  0.876554  1
  Yb  Yb12  1  0.711136  0.084213  0.877375  1
  Yb  Yb13  1  0.709456  0.912666  0.376868  1
  Yb  Yb14  1  0.588790  0.793027  0.876140  1
  Yb  Yb15  1  0.998145  0.000216  0.494735  1
  Yb  Yb16  1  0.002213  0.998782  0.995156  1
  Yb  Yb17  1  0.499640  0.503260  0.989994  1
  Yb  Yb18  1  0.500951  0.498274  0.489582  1
  Y  Y19  1  0.293079  0.087857  0.380307  1
  Ir  Ir20  1  0.849976  0.165371  0.247418  1
  Ir  Ir21  1  0.855608  0.833456  0.748003  1
  Ir  Ir22  1  0.150613  0.164551  0.744846  1
  Ir  Ir23  1  0.155479  0.839951  0.255002  1
  Ir  Ir24  1  0.657244  0.346880  0.747263  1
  Ir  Ir25  1  0.659359  0.651518  0.250081  1
  Ir  Ir26  1  0.342300  0.343896  0.245925  1
  Ir  Ir27  1  0.336624  0.647619  0.738166  1
  Ir  Ir28  1  0.496659  0.003573  0.122239  1
  Ir  Ir29  1  0.496687  0.003656  0.626324  1
  Ir  Ir30  1  0.999316  0.500049  0.887727  1
  Ir  Ir31  1  0.998987  0.500096  0.385276  1
