# generated using pymatgen
data_Tb3Er2InBi2
_symmetry_space_group_name_H-M   'P 1'
_cell_length_a   9.08632842
_cell_length_b   9.08632920
_cell_length_c   6.49994100
_cell_angle_alpha   90.00000000
_cell_angle_beta   90.00000000
_cell_angle_gamma   119.70527113
_symmetry_Int_Tables_number   1
_chemical_formula_structural   Tb3Er2InBi2
_chemical_formula_sum   'Tb6 Er4 In2 Bi4'
_cell_volume   466.12146379
_cell_formula_units_Z   2
loop_
 _symmetry_equiv_pos_site_id
 _symmetry_equiv_pos_as_xyz
  1  'x, y, z'
loop_
 _atom_site_type_symbol
 _atom_site_label
 _atom_site_symmetry_multiplicity
 _atom_site_fract_x
 _atom_site_fract_y
 _atom_site_fract_z
 _atom_site_occupancy
  Tb  Tb0  1  0.761335  0.761335  0.750000  1
  Tb  Tb1  1  0.235037  0.997857  0.750000  1
  Tb  Tb2  1  0.997857  0.235037  0.750000  1
  Tb  Tb3  1  0.234975  0.234975  0.250000  1
  Tb  Tb4  1  0.765537  0.008487  0.250000  1
  Tb  Tb5  1  0.008487  0.765537  0.250000  1
  Er  Er6  1  0.668945  0.329102  0.003731  1
  Er  Er7  1  0.329102  0.668945  0.003731  1
  Er  Er8  1  0.329102  0.668945  0.496269  1
  Er  Er9  1  0.668945  0.329102  0.496269  1
  In  In10  1  0.397679  0.002142  0.250000  1
  In  In11  1  0.002142  0.397679  0.250000  1
  Bi  Bi12  1  0.394136  0.394136  0.750000  1
  Bi  Bi13  1  0.601598  0.996906  0.750000  1
  Bi  Bi14  1  0.996906  0.601598  0.750000  1
  Bi  Bi15  1  0.608218  0.608218  0.250000  1
