# generated using pymatgen
data_BaHg2(BrO)2
_symmetry_space_group_name_H-M   'P 1'
_cell_length_a   12.37012500
_cell_length_b   12.37012500
_cell_length_c   4.48499900
_cell_angle_alpha   90.00000000
_cell_angle_beta   90.00000000
_cell_angle_gamma   90.00000000
_symmetry_Int_Tables_number   1
_chemical_formula_structural   BaHg2(BrO)2
_chemical_formula_sum   'Ba4 Hg8 Br8 O8'
_cell_volume   686.29451341
_cell_formula_units_Z   4
loop_
 _symmetry_equiv_pos_site_id
 _symmetry_equiv_pos_as_xyz
  1  'x, y, z'
loop_
 _atom_site_type_symbol
 _atom_site_label
 _atom_site_symmetry_multiplicity
 _atom_site_fract_x
 _atom_site_fract_y
 _atom_site_fract_z
 _atom_site_occupancy
  Ba  Ba0  1  0.640333  0.140333  0.000000  1
  Ba  Ba1  1  0.359667  0.859667  0.000000  1
  Ba  Ba2  1  0.140333  0.359667  0.000000  1
  Ba  Ba3  1  0.859667  0.640333  0.000000  1
  Hg  Hg4  1  0.671456  0.422528  0.500000  1
  Hg  Hg5  1  0.328544  0.577472  0.500000  1
  Hg  Hg6  1  0.171456  0.077472  0.500000  1
  Hg  Hg7  1  0.577472  0.671456  0.500000  1
  Hg  Hg8  1  0.828544  0.922528  0.500000  1
  Hg  Hg9  1  0.077472  0.828544  0.500000  1
  Hg  Hg10  1  0.922528  0.171456  0.500000  1
  Hg  Hg11  1  0.422528  0.328544  0.500000  1
  Br  Br12  1  0.500000  0.000000  0.500000  1
  Br  Br13  1  0.329257  0.170743  0.000000  1
  Br  Br14  1  0.670743  0.829257  0.000000  1
  Br  Br15  1  0.829257  0.329257  0.000000  1
  Br  Br16  1  0.000000  0.000000  0.000000  1
  Br  Br17  1  0.500000  0.500000  0.000000  1
  Br  Br18  1  0.170743  0.670743  0.000000  1
  Br  Br19  1  0.000000  0.500000  0.500000  1
  O  O20  1  0.585216  0.273689  0.500000  1
  O  O21  1  0.414784  0.726311  0.500000  1
  O  O22  1  0.273689  0.414784  0.500000  1
  O  O23  1  0.914784  0.773689  0.500000  1
  O  O24  1  0.226311  0.914784  0.500000  1
  O  O25  1  0.085216  0.226311  0.500000  1
  O  O26  1  0.773689  0.085216  0.500000  1
  O  O27  1  0.726311  0.585216  0.500000  1
