# generated using pymatgen
data_Tm4Bi3Te
_symmetry_space_group_name_H-M   'P 1'
_cell_length_a   7.62551610
_cell_length_b   7.62551694
_cell_length_c   7.62551700
_cell_angle_alpha   131.83297056
_cell_angle_beta   131.83297626
_cell_angle_gamma   70.49295888
_symmetry_Int_Tables_number   1
_chemical_formula_structural   Tm4Bi3Te
_chemical_formula_sum   'Tm4 Bi3 Te1'
_cell_volume   241.20302894
_cell_formula_units_Z   1
loop_
 _symmetry_equiv_pos_site_id
 _symmetry_equiv_pos_as_xyz
  1  'x, y, z'
loop_
 _atom_site_type_symbol
 _atom_site_label
 _atom_site_symmetry_multiplicity
 _atom_site_fract_x
 _atom_site_fract_y
 _atom_site_fract_z
 _atom_site_occupancy
  Tm  Tm0  1  0.249516  0.249516  0.000000  1
  Tm  Tm1  1  0.750484  0.750484  0.000000  1
  Tm  Tm2  1  0.500000  0.000000  0.500000  1
  Tm  Tm3  1  0.000000  0.500000  0.500000  1
  Bi  Bi4  1  0.000000  0.000000  0.000000  1
  Bi  Bi5  1  0.750000  0.250000  0.500000  1
  Bi  Bi6  1  0.250000  0.750000  0.500000  1
  Te  Te7  1  0.500000  0.500000  0.000000  1
