# generated using pymatgen
data_ErZr3(Co5As3)4
_symmetry_space_group_name_H-M   'P 1'
_cell_length_a   3.73178000
_cell_length_b   12.08687615
_cell_length_c   10.58592913
_cell_angle_alpha   90.01789111
_cell_angle_beta   90.00000000
_cell_angle_gamma   90.00000000
_symmetry_Int_Tables_number   1
_chemical_formula_structural   ErZr3(Co5As3)4
_chemical_formula_sum   'Er1 Zr3 Co20 As12'
_cell_volume   477.48426646
_cell_formula_units_Z   1
loop_
 _symmetry_equiv_pos_site_id
 _symmetry_equiv_pos_as_xyz
  1  'x, y, z'
loop_
 _atom_site_type_symbol
 _atom_site_label
 _atom_site_symmetry_multiplicity
 _atom_site_fract_x
 _atom_site_fract_y
 _atom_site_fract_z
 _atom_site_occupancy
  Er  Er0  1  0.750000  0.702474  0.081252  1
  Zr  Zr1  1  0.250000  0.298395  0.921019  1
  Zr  Zr2  1  0.250000  0.798539  0.579120  1
  Zr  Zr3  1  0.750000  0.201744  0.421176  1
  Co  Co4  1  0.750000  0.697728  0.387186  1
  Co  Co5  1  0.250000  0.301771  0.613946  1
  Co  Co6  1  0.250000  0.803207  0.883295  1
  Co  Co7  1  0.750000  0.198330  0.114203  1
  Co  Co8  1  0.750000  0.993197  0.216474  1
  Co  Co9  1  0.250000  0.006763  0.782946  1
  Co  Co10  1  0.250000  0.505714  0.715988  1
  Co  Co11  1  0.750000  0.492905  0.284125  1
  Co  Co12  1  0.750000  0.679213  0.782051  1
  Co  Co13  1  0.250000  0.319729  0.217201  1
  Co  Co14  1  0.250000  0.821385  0.285106  1
  Co  Co15  1  0.750000  0.179679  0.716718  1
  Co  Co16  1  0.750000  0.932648  0.967940  1
  Co  Co17  1  0.250000  0.070995  0.030217  1
  Co  Co18  1  0.250000  0.569103  0.470942  1
  Co  Co19  1  0.750000  0.429956  0.530227  1
  Co  Co20  1  0.750000  0.986919  0.590441  1
  Co  Co21  1  0.250000  0.013696  0.409783  1
  Co  Co22  1  0.250000  0.510203  0.090394  1
  Co  Co23  1  0.750000  0.485128  0.907480  1
  As  As24  1  0.750000  0.615173  0.585599  1
  As  As25  1  0.250000  0.384520  0.414385  1
  As  As26  1  0.250000  0.887094  0.085579  1
  As  As27  1  0.750000  0.116232  0.914268  1
  As  As28  1  0.750000  0.888792  0.401011  1
  As  As29  1  0.250000  0.111189  0.599346  1
  As  As30  1  0.250000  0.610612  0.899702  1
  As  As31  1  0.750000  0.388826  0.099309  1
  As  As32  1  0.750000  0.870550  0.765360  1
  As  As33  1  0.250000  0.129262  0.234378  1
  As  As34  1  0.250000  0.628428  0.268323  1
  As  As35  1  0.750000  0.369900  0.733510  1
