# generated using pymatgen
data_Ho20Bi5Pt4Pb3
_symmetry_space_group_name_H-M   'P 1'
_cell_length_a   8.00230820
_cell_length_b   9.03213327
_cell_length_c   12.35783243
_cell_angle_alpha   90.05514475
_cell_angle_beta   89.99641433
_cell_angle_gamma   90.02534527
_symmetry_Int_Tables_number   1
_chemical_formula_structural   Ho20Bi5Pt4Pb3
_chemical_formula_sum   'Ho20 Bi5 Pt4 Pb3'
_cell_volume   893.19784854
_cell_formula_units_Z   1
loop_
 _symmetry_equiv_pos_site_id
 _symmetry_equiv_pos_as_xyz
  1  'x, y, z'
loop_
 _atom_site_type_symbol
 _atom_site_label
 _atom_site_symmetry_multiplicity
 _atom_site_fract_x
 _atom_site_fract_y
 _atom_site_fract_z
 _atom_site_occupancy
  Ho  Ho0  1  0.163878  0.747469  0.211555  1
  Ho  Ho1  1  0.333980  0.754197  0.711509  1
  Ho  Ho2  1  0.834608  0.246005  0.787856  1
  Ho  Ho3  1  0.666958  0.252309  0.289243  1
  Ho  Ho4  1  0.453441  0.752808  0.998978  1
  Ho  Ho5  1  0.046492  0.750004  0.500097  1
  Ho  Ho6  1  0.548315  0.247007  0.998059  1
  Ho  Ho7  1  0.954355  0.250091  0.499923  1
  Ho  Ho8  1  0.630942  0.748002  0.301514  1
  Ho  Ho9  1  0.872161  0.753838  0.800890  1
  Ho  Ho10  1  0.371291  0.246092  0.699599  1
  Ho  Ho11  1  0.125053  0.251860  0.199621  1
  Ho  Ho12  1  0.823336  0.544756  0.069054  1
  Ho  Ho13  1  0.679036  0.956993  0.569663  1
  Ho  Ho14  1  0.178472  0.044021  0.930427  1
  Ho  Ho15  1  0.319601  0.456217  0.433199  1
  Ho  Ho16  1  0.177933  0.454948  0.933482  1
  Ho  Ho17  1  0.321377  0.044640  0.435048  1
  Ho  Ho18  1  0.820809  0.955197  0.065076  1
  Ho  Ho19  1  0.679458  0.544330  0.565057  1
  Bi  Bi20  1  0.431861  0.489522  0.171478  1
  Bi  Bi21  1  0.068388  0.490274  0.673972  1
  Bi  Bi22  1  0.431579  0.010241  0.174084  1
  Bi  Bi23  1  0.931713  0.989905  0.326577  1
  Bi  Bi24  1  0.567678  0.509801  0.826941  1
  Pt  Pt25  1  0.425439  0.749567  0.488066  1
  Pt  Pt26  1  0.075270  0.750192  0.988512  1
  Pt  Pt27  1  0.574518  0.250188  0.511676  1
  Pt  Pt28  1  0.923805  0.250331  0.011764  1
  Pb  Pb29  1  0.932191  0.509430  0.327912  1
  Pb  Pb30  1  0.568127  0.990531  0.827155  1
  Pb  Pb31  1  0.067935  0.009234  0.672012  1
