# generated using pymatgen
data_Yb2Co10P7W2
_symmetry_space_group_name_H-M   'P 1'
_cell_length_a   9.04075380
_cell_length_b   9.05122407
_cell_length_c   3.66861100
_cell_angle_alpha   90.00000000
_cell_angle_beta   90.00000000
_cell_angle_gamma   119.91226943
_symmetry_Int_Tables_number   1
_chemical_formula_structural   Yb2Co10P7W2
_chemical_formula_sum   'Yb2 Co10 P7 W2'
_cell_volume   260.21211097
_cell_formula_units_Z   1
loop_
 _symmetry_equiv_pos_site_id
 _symmetry_equiv_pos_as_xyz
  1  'x, y, z'
loop_
 _atom_site_type_symbol
 _atom_site_label
 _atom_site_symmetry_multiplicity
 _atom_site_fract_x
 _atom_site_fract_y
 _atom_site_fract_z
 _atom_site_occupancy
  Yb  Yb0  1  0.666730  0.333905  0.500000  1
  Yb  Yb1  1  0.336967  0.667272  0.000000  1
  Co  Co2  1  0.723762  0.879586  0.000000  1
  Co  Co3  1  0.938870  0.370645  0.000000  1
  Co  Co4  1  0.159988  0.281575  0.000000  1
  Co  Co5  1  0.388054  0.439866  0.500000  1
  Co  Co6  1  0.116787  0.837802  0.000000  1
  Co  Co7  1  0.430814  0.058746  0.000000  1
  Co  Co8  1  0.045570  0.613795  0.500000  1
  Co  Co9  1  0.563571  0.947757  0.500000  1
  Co  Co10  1  0.630433  0.569737  0.000000  1
  Co  Co11  1  0.873243  0.779358  0.500000  1
  P  P12  1  0.415651  0.302605  0.000000  1
  P  P13  1  0.288975  0.878304  0.500000  1
  P  P14  1  0.696232  0.112044  0.000000  1
  P  P15  1  0.596737  0.710522  0.500000  1
  P  P16  1  0.886269  0.586869  0.000000  1
  P  P17  1  0.120188  0.414674  0.500000  1
  P  P18  1  0.999361  0.994936  0.000000  1
  W  W19  1  0.218938  0.098919  0.500000  1
  W  W20  1  0.902860  0.121080  0.500000  1
