# generated using pymatgen
data_Ce2Zr2NbSi4
_symmetry_space_group_name_H-M   'P 1'
_cell_length_a   7.30429600
_cell_length_b   7.30429600
_cell_length_c   13.47763300
_cell_angle_alpha   90.00000000
_cell_angle_beta   90.00000000
_cell_angle_gamma   90.00000000
_symmetry_Int_Tables_number   1
_chemical_formula_structural   Ce2Zr2NbSi4
_chemical_formula_sum   'Ce8 Zr8 Nb4 Si16'
_cell_volume   719.06865001
_cell_formula_units_Z   4
loop_
 _symmetry_equiv_pos_site_id
 _symmetry_equiv_pos_as_xyz
  1  'x, y, z'
loop_
 _atom_site_type_symbol
 _atom_site_label
 _atom_site_symmetry_multiplicity
 _atom_site_fract_x
 _atom_site_fract_y
 _atom_site_fract_z
 _atom_site_occupancy
  Ce  Ce0  1  0.996575  0.341518  0.214284  1
  Ce  Ce1  1  0.003425  0.658482  0.714284  1
  Ce  Ce2  1  0.158482  0.496575  0.464284  1
  Ce  Ce3  1  0.503425  0.841518  0.035716  1
  Ce  Ce4  1  0.841518  0.503425  0.964284  1
  Ce  Ce5  1  0.496575  0.158482  0.535716  1
  Ce  Ce6  1  0.341518  0.996575  0.785716  1
  Ce  Ce7  1  0.658482  0.003425  0.285716  1
  Zr  Zr8  1  0.149196  0.995253  0.373420  1
  Zr  Zr9  1  0.850804  0.004747  0.873420  1
  Zr  Zr10  1  0.504747  0.649196  0.623420  1
  Zr  Zr11  1  0.350804  0.495253  0.876580  1
  Zr  Zr12  1  0.495253  0.350804  0.123420  1
  Zr  Zr13  1  0.649196  0.504747  0.376580  1
  Zr  Zr14  1  0.995253  0.149196  0.626580  1
  Zr  Zr15  1  0.004747  0.850804  0.126580  1
  Nb  Nb16  1  0.173541  0.173541  0.000000  1
  Nb  Nb17  1  0.826459  0.826459  0.500000  1
  Nb  Nb18  1  0.326459  0.673541  0.250000  1
  Nb  Nb19  1  0.673541  0.326459  0.750000  1
  Si  Si20  1  0.296576  0.048057  0.183980  1
  Si  Si21  1  0.703424  0.951943  0.683980  1
  Si  Si22  1  0.451943  0.796576  0.433980  1
  Si  Si23  1  0.203424  0.548057  0.066020  1
  Si  Si24  1  0.548057  0.203424  0.933980  1
  Si  Si25  1  0.796576  0.451943  0.566020  1
  Si  Si26  1  0.048057  0.296576  0.816020  1
  Si  Si27  1  0.951943  0.703424  0.316020  1
  Si  Si28  1  0.361586  0.298423  0.313391  1
  Si  Si29  1  0.638414  0.701577  0.813391  1
  Si  Si30  1  0.201577  0.861586  0.563391  1
  Si  Si31  1  0.138414  0.798423  0.936609  1
  Si  Si32  1  0.798423  0.138414  0.063391  1
  Si  Si33  1  0.861586  0.201577  0.436609  1
  Si  Si34  1  0.298423  0.361586  0.686609  1
  Si  Si35  1  0.701577  0.638414  0.186609  1
