# generated using pymatgen
data_Dy4Lu(OsO6)2
_symmetry_space_group_name_H-M   'P 1'
_cell_length_a   6.85203374
_cell_length_b   6.85203350
_cell_length_c   7.44304802
_cell_angle_alpha   73.93675414
_cell_angle_beta   73.93675802
_cell_angle_gamma   48.69897653
_symmetry_Int_Tables_number   1
_chemical_formula_structural   Dy4Lu(OsO6)2
_chemical_formula_sum   'Dy4 Lu1 Os2 O12'
_cell_volume   250.12699711
_cell_formula_units_Z   1
loop_
 _symmetry_equiv_pos_site_id
 _symmetry_equiv_pos_as_xyz
  1  'x, y, z'
loop_
 _atom_site_type_symbol
 _atom_site_label
 _atom_site_symmetry_multiplicity
 _atom_site_fract_x
 _atom_site_fract_y
 _atom_site_fract_z
 _atom_site_occupancy
  Dy  Dy0  1  0.199320  0.199320  0.641684  1
  Dy  Dy1  1  0.186515  0.186515  0.173422  1
  Dy  Dy2  1  0.800680  0.800680  0.358316  1
  Dy  Dy3  1  0.813485  0.813485  0.826578  1
  Lu  Lu4  1  0.500000  0.500000  0.500000  1
  Os  Os5  1  0.718819  0.281181  0.000000  1
  Os  Os6  1  0.281181  0.718819  0.000000  1
  O  O7  1  0.414138  0.919616  0.912918  1
  O  O8  1  0.919616  0.414138  0.912918  1
  O  O9  1  0.898397  0.400820  0.430081  1
  O  O10  1  0.400820  0.898397  0.430081  1
  O  O11  1  0.501820  0.501820  0.205968  1
  O  O12  1  0.998787  0.998787  0.174669  1
  O  O13  1  0.001213  0.001213  0.825331  1
  O  O14  1  0.498180  0.498180  0.794032  1
  O  O15  1  0.080384  0.585862  0.087082  1
  O  O16  1  0.585862  0.080384  0.087082  1
  O  O17  1  0.101603  0.599180  0.569919  1
  O  O18  1  0.599180  0.101603  0.569919  1
