# generated using pymatgen
data_Tm8Sc12Si13Pt3
_symmetry_space_group_name_H-M   'P 1'
_cell_length_a   7.05717010
_cell_length_b   7.39473348
_cell_length_c   13.95077619
_cell_angle_alpha   89.80592509
_cell_angle_beta   89.64238882
_cell_angle_gamma   90.60317049
_symmetry_Int_Tables_number   1
_chemical_formula_structural   Tm8Sc12Si13Pt3
_chemical_formula_sum   'Tm8 Sc12 Si13 Pt3'
_cell_volume   727.97483842
_cell_formula_units_Z   1
loop_
 _symmetry_equiv_pos_site_id
 _symmetry_equiv_pos_as_xyz
  1  'x, y, z'
loop_
 _atom_site_type_symbol
 _atom_site_label
 _atom_site_symmetry_multiplicity
 _atom_site_fract_x
 _atom_site_fract_y
 _atom_site_fract_z
 _atom_site_occupancy
  Tm  Tm0  1  0.009182  0.177459  0.094443  1
  Tm  Tm1  1  0.990203  0.822876  0.906024  1
  Tm  Tm2  1  0.487345  0.680437  0.906137  1
  Tm  Tm3  1  0.990573  0.819508  0.594227  1
  Tm  Tm4  1  0.511970  0.321422  0.094555  1
  Tm  Tm5  1  0.011091  0.178948  0.405665  1
  Tm  Tm6  1  0.507899  0.321871  0.404887  1
  Tm  Tm7  1  0.486979  0.671907  0.595560  1
  Sc  Sc8  1  0.159346  0.503768  0.748552  1
  Sc  Sc9  1  0.841650  0.497413  0.251303  1
  Sc  Sc10  1  0.332333  0.002188  0.250382  1
  Sc  Sc11  1  0.666669  0.995808  0.749104  1
  Sc  Sc12  1  0.331472  0.181118  0.622630  1
  Sc  Sc13  1  0.673610  0.825399  0.374053  1
  Sc  Sc14  1  0.171331  0.668340  0.378125  1
  Sc  Sc15  1  0.674983  0.826752  0.124844  1
  Sc  Sc16  1  0.829599  0.327909  0.624666  1
  Sc  Sc17  1  0.325761  0.173292  0.874994  1
  Sc  Sc18  1  0.831287  0.321806  0.875394  1
  Sc  Sc19  1  0.170807  0.676917  0.124487  1
  Si  Si20  1  0.468752  0.608611  0.248304  1
  Si  Si21  1  0.533690  0.392551  0.753853  1
  Si  Si22  1  0.288418  0.867238  0.750943  1
  Si  Si23  1  0.711703  0.135466  0.249283  1
  Si  Si24  1  0.221379  0.370603  0.247474  1
  Si  Si25  1  0.780262  0.629656  0.753366  1
  Si  Si26  1  0.830584  0.533291  0.460177  1
  Si  Si27  1  0.343926  0.964711  0.459486  1
  Si  Si28  1  0.841979  0.532442  0.038923  1
  Si  Si29  1  0.658275  0.031090  0.539051  1
  Si  Si30  1  0.156562  0.468360  0.960928  1
  Si  Si31  1  0.656930  0.032195  0.960566  1
  Si  Si32  1  0.342839  0.968858  0.040300  1
  Pt  Pt33  1  0.035088  0.112460  0.747778  1
  Pt  Pt34  1  0.967850  0.893394  0.250213  1
  Pt  Pt35  1  0.157672  0.463935  0.539325  1
