# generated using pymatgen
data_TmLu7Sc11Si16Ru
_symmetry_space_group_name_H-M   'P 1'
_cell_length_a   6.94034113
_cell_length_b   7.31319519
_cell_length_c   13.75136828
_cell_angle_alpha   90.02224625
_cell_angle_beta   89.99342892
_cell_angle_gamma   90.09336953
_symmetry_Int_Tables_number   1
_chemical_formula_structural   TmLu7Sc11Si16Ru
_chemical_formula_sum   'Tm1 Lu7 Sc11 Si16 Ru1'
_cell_volume   697.96441920
_cell_formula_units_Z   1
loop_
 _symmetry_equiv_pos_site_id
 _symmetry_equiv_pos_as_xyz
  1  'x, y, z'
loop_
 _atom_site_type_symbol
 _atom_site_label
 _atom_site_symmetry_multiplicity
 _atom_site_fract_x
 _atom_site_fract_y
 _atom_site_fract_z
 _atom_site_occupancy
  Tm  Tm0  1  0.489197  0.674492  0.596033  1
  Lu  Lu1  1  0.012992  0.180523  0.092966  1
  Lu  Lu2  1  0.990953  0.816348  0.902255  1
  Lu  Lu3  1  0.489221  0.674639  0.903764  1
  Lu  Lu4  1  0.990824  0.816439  0.598051  1
  Lu  Lu5  1  0.511684  0.321785  0.093996  1
  Lu  Lu6  1  0.012808  0.180591  0.406784  1
  Lu  Lu7  1  0.511788  0.321817  0.405597  1
  Sc  Sc8  1  0.843713  0.495408  0.249913  1
  Sc  Sc9  1  0.344359  0.005005  0.249865  1
  Sc  Sc10  1  0.654224  0.994364  0.750151  1
  Sc  Sc11  1  0.322770  0.175629  0.627833  1
  Sc  Sc12  1  0.673863  0.825965  0.373438  1
  Sc  Sc13  1  0.174399  0.672570  0.376158  1
  Sc  Sc14  1  0.674028  0.825651  0.126227  1
  Sc  Sc15  1  0.825559  0.329910  0.629581  1
  Sc  Sc16  1  0.323031  0.175571  0.872348  1
  Sc  Sc17  1  0.825264  0.330088  0.870926  1
  Sc  Sc18  1  0.174394  0.672416  0.123824  1
  Si  Si19  1  0.024394  0.103891  0.750273  1
  Si  Si20  1  0.977021  0.889810  0.249934  1
  Si  Si21  1  0.472229  0.610844  0.249862  1
  Si  Si22  1  0.512678  0.399603  0.750266  1
  Si  Si23  1  0.281997  0.856190  0.750309  1
  Si  Si24  1  0.718517  0.134906  0.249859  1
  Si  Si25  1  0.215957  0.366696  0.249886  1
  Si  Si26  1  0.792921  0.633019  0.750310  1
  Si  Si27  1  0.156988  0.466946  0.547961  1
  Si  Si28  1  0.841911  0.535380  0.463908  1
  Si  Si29  1  0.343872  0.966103  0.462708  1
  Si  Si30  1  0.842059  0.535239  0.036099  1
  Si  Si31  1  0.660285  0.035098  0.539161  1
  Si  Si32  1  0.158115  0.467532  0.951769  1
  Si  Si33  1  0.660017  0.034313  0.960635  1
  Si  Si34  1  0.343826  0.965322  0.037018  1
  Ru  Ru35  1  0.152137  0.509896  0.750330  1
