# generated using pymatgen
data_Sc8Ti8Nb3Si16Tc
_symmetry_space_group_name_H-M   'P 1'
_cell_length_a   6.67025717
_cell_length_b   6.82468034
_cell_length_c   13.02914300
_cell_angle_alpha   90.00000000
_cell_angle_beta   90.00000000
_cell_angle_gamma   89.96889742
_symmetry_Int_Tables_number   1
_chemical_formula_structural   Sc8Ti8Nb3Si16Tc
_chemical_formula_sum   'Sc8 Ti8 Nb3 Si16 Tc1'
_cell_volume   593.11742006
_cell_formula_units_Z   1
loop_
 _symmetry_equiv_pos_site_id
 _symmetry_equiv_pos_as_xyz
  1  'x, y, z'
loop_
 _atom_site_type_symbol
 _atom_site_label
 _atom_site_symmetry_multiplicity
 _atom_site_fract_x
 _atom_site_fract_y
 _atom_site_fract_z
 _atom_site_occupancy
  Sc  Sc0  1  0.499063  0.674913  0.595584  1
  Sc  Sc1  1  0.001244  0.825677  0.904443  1
  Sc  Sc2  1  0.498310  0.325680  0.095408  1
  Sc  Sc3  1  0.998354  0.175388  0.404678  1
  Sc  Sc4  1  0.498310  0.325680  0.404592  1
  Sc  Sc5  1  0.998354  0.175388  0.095322  1
  Sc  Sc6  1  0.499063  0.674913  0.904416  1
  Sc  Sc7  1  0.001244  0.825677  0.595557  1
  Ti  Ti8  1  0.664270  0.172478  0.626582  1
  Ti  Ti9  1  0.165690  0.327261  0.873102  1
  Ti  Ti10  1  0.337084  0.825332  0.125917  1
  Ti  Ti11  1  0.836095  0.673961  0.374915  1
  Ti  Ti12  1  0.337084  0.825332  0.374083  1
  Ti  Ti13  1  0.836095  0.673961  0.125085  1
  Ti  Ti14  1  0.664270  0.172478  0.873418  1
  Ti  Ti15  1  0.165690  0.327261  0.626898  1
  Nb  Nb16  1  0.336664  0.007697  0.750000  1
  Nb  Nb17  1  0.163053  0.506540  0.250000  1
  Nb  Nb18  1  0.663338  0.993232  0.250000  1
  Si  Si19  1  0.665299  0.965611  0.460527  1
  Si  Si20  1  0.165693  0.535417  0.038708  1
  Si  Si21  1  0.333795  0.035788  0.960828  1
  Si  Si22  1  0.834140  0.464426  0.542760  1
  Si  Si23  1  0.333795  0.035788  0.539172  1
  Si  Si24  1  0.834140  0.464426  0.957240  1
  Si  Si25  1  0.665299  0.965611  0.039473  1
  Si  Si26  1  0.165693  0.535417  0.461292  1
  Si  Si27  1  0.467184  0.387808  0.750000  1
  Si  Si28  1  0.959524  0.117415  0.750000  1
  Si  Si29  1  0.540067  0.615827  0.250000  1
  Si  Si30  1  0.039820  0.883258  0.250000  1
  Si  Si31  1  0.705769  0.858616  0.750000  1
  Si  Si32  1  0.199747  0.634127  0.750000  1
  Si  Si33  1  0.293907  0.134676  0.250000  1
  Si  Si34  1  0.794370  0.365512  0.250000  1
  Tc  Tc35  1  0.838485  0.491428  0.750000  1
