# generated using pymatgen
data_Dy2Al3(Ga2Ir)3
_symmetry_space_group_name_H-M   'P 1'
_cell_length_a   7.56865786
_cell_length_b   7.56646947
_cell_length_c   9.53679601
_cell_angle_alpha   90.16839358
_cell_angle_beta   89.93177913
_cell_angle_gamma   119.73629081
_symmetry_Int_Tables_number   1
_chemical_formula_structural   Dy2Al3(Ga2Ir)3
_chemical_formula_sum   'Dy4 Al6 Ga12 Ir6'
_cell_volume   474.23250476
_cell_formula_units_Z   2
loop_
 _symmetry_equiv_pos_site_id
 _symmetry_equiv_pos_as_xyz
  1  'x, y, z'
loop_
 _atom_site_type_symbol
 _atom_site_label
 _atom_site_symmetry_multiplicity
 _atom_site_fract_x
 _atom_site_fract_y
 _atom_site_fract_z
 _atom_site_occupancy
  Dy  Dy0  1  0.998560  0.667059  0.251080  1
  Dy  Dy1  1  0.001440  0.332941  0.748920  1
  Dy  Dy2  1  0.671337  0.000320  0.254401  1
  Dy  Dy3  1  0.328663  0.999680  0.745599  1
  Al  Al4  1  0.664371  0.997804  0.928238  1
  Al  Al5  1  0.335629  0.002196  0.071762  1
  Al  Al6  1  0.332634  0.332638  0.553855  1
  Al  Al7  1  0.667366  0.667362  0.446145  1
  Al  Al8  1  0.667875  0.667298  0.055089  1
  Al  Al9  1  0.332125  0.332702  0.944911  1
  Ga  Ga10  1  0.128547  0.125475  0.249367  1
  Ga  Ga11  1  0.871453  0.874525  0.750633  1
  Ga  Ga12  1  0.998671  0.333370  0.077752  1
  Ga  Ga13  1  0.001329  0.666630  0.922248  1
  Ga  Ga14  1  0.998468  0.664776  0.579310  1
  Ga  Ga15  1  0.334972  0.999896  0.418663  1
  Ga  Ga16  1  0.001532  0.335224  0.420690  1
  Ga  Ga17  1  0.665028  0.000104  0.581337  1
  Ga  Ga18  1  0.344234  0.549645  0.249859  1
  Ga  Ga19  1  0.655766  0.450355  0.750141  1
  Ga  Ga20  1  0.547589  0.343061  0.249110  1
  Ga  Ga21  1  0.452411  0.656939  0.750890  1
  Ir  Ir22  1  0.667331  0.325874  0.999185  1
  Ir  Ir23  1  0.332669  0.674126  0.000815  1
  Ir  Ir24  1  0.330378  0.669452  0.500661  1
  Ir  Ir25  1  0.669622  0.330548  0.499339  1
  Ir  Ir26  1  0.000000  0.000000  0.000000  1
  Ir  Ir27  1  0.000000  0.000000  0.500000  1
