# generated using pymatgen
data_Er6Ti2Fe11Co5P12
_symmetry_space_group_name_H-M   'P 1'
_cell_length_a   3.70804600
_cell_length_b   10.64711833
_cell_length_c   12.25257687
_cell_angle_alpha   90.40101542
_cell_angle_beta   90.00000000
_cell_angle_gamma   90.00000000
_symmetry_Int_Tables_number   1
_chemical_formula_structural   Er6Ti2Fe11Co5P12
_chemical_formula_sum   'Er6 Ti2 Fe11 Co5 P12'
_cell_volume   483.71994234
_cell_formula_units_Z   1
loop_
 _symmetry_equiv_pos_site_id
 _symmetry_equiv_pos_as_xyz
  1  'x, y, z'
loop_
 _atom_site_type_symbol
 _atom_site_label
 _atom_site_symmetry_multiplicity
 _atom_site_fract_x
 _atom_site_fract_y
 _atom_site_fract_z
 _atom_site_occupancy
  Er  Er0  1  0.750000  0.252484  0.473634  1
  Er  Er1  1  0.250000  0.746199  0.529932  1
  Er  Er2  1  0.250000  0.925612  0.793516  1
  Er  Er3  1  0.250000  0.572822  0.793227  1
  Er  Er4  1  0.750000  0.077287  0.204303  1
  Er  Er5  1  0.750000  0.428458  0.206742  1
  Ti  Ti6  1  0.250000  0.249634  0.847071  1
  Ti  Ti7  1  0.750000  0.752920  0.154677  1
  Fe  Fe8  1  0.750000  0.251935  0.009116  1
  Fe  Fe9  1  0.250000  0.749541  0.989695  1
  Fe  Fe10  1  0.250000  0.424308  0.001543  1
  Fe  Fe11  1  0.250000  0.078456  0.001011  1
  Fe  Fe12  1  0.750000  0.577988  0.998037  1
  Fe  Fe13  1  0.750000  0.922726  0.997750  1
  Fe  Fe14  1  0.250000  0.450855  0.569273  1
  Fe  Fe15  1  0.250000  0.045615  0.566260  1
  Fe  Fe16  1  0.750000  0.543509  0.431926  1
  Fe  Fe17  1  0.750000  0.952106  0.428755  1
  Fe  Fe18  1  0.250000  0.871253  0.299059  1
  Co  Co19  1  0.250000  0.253116  0.294185  1
  Co  Co20  1  0.750000  0.748213  0.704072  1
  Co  Co21  1  0.250000  0.629944  0.295333  1
  Co  Co22  1  0.750000  0.127969  0.705311  1
  Co  Co23  1  0.750000  0.368507  0.705520  1
  P  P24  1  0.250000  0.251991  0.110121  1
  P  P25  1  0.750000  0.749952  0.888543  1
  P  P26  1  0.250000  0.249112  0.646366  1
  P  P27  1  0.750000  0.739691  0.356571  1
  P  P28  1  0.250000  0.441066  0.385959  1
  P  P29  1  0.250000  0.068121  0.384234  1
  P  P30  1  0.750000  0.555193  0.615026  1
  P  P31  1  0.750000  0.940233  0.615656  1
  P  P32  1  0.250000  0.908613  0.107917  1
  P  P33  1  0.250000  0.594636  0.110607  1
  P  P34  1  0.750000  0.092763  0.890125  1
  P  P35  1  0.750000  0.407174  0.888926  1
