# generated using pymatgen
data_Dy3YPt2
_symmetry_space_group_name_H-M   'P 1'
_cell_length_a   4.76686200
_cell_length_b   7.17756600
_cell_length_c   8.82485900
_cell_angle_alpha   90.00000000
_cell_angle_beta   90.00000000
_cell_angle_gamma   90.00000000
_symmetry_Int_Tables_number   1
_chemical_formula_structural   Dy3YPt2
_chemical_formula_sum   'Dy6 Y2 Pt4'
_cell_volume   301.93784366
_cell_formula_units_Z   2
loop_
 _symmetry_equiv_pos_site_id
 _symmetry_equiv_pos_as_xyz
  1  'x, y, z'
loop_
 _atom_site_type_symbol
 _atom_site_label
 _atom_site_symmetry_multiplicity
 _atom_site_fract_x
 _atom_site_fract_y
 _atom_site_fract_z
 _atom_site_occupancy
  Dy  Dy0  1  0.250000  0.855192  0.920007  1
  Dy  Dy1  1  0.250000  0.355192  0.579993  1
  Dy  Dy2  1  0.750000  0.144690  0.080322  1
  Dy  Dy3  1  0.750000  0.644690  0.419678  1
  Dy  Dy4  1  0.250000  0.989781  0.332225  1
  Dy  Dy5  1  0.250000  0.489781  0.167775  1
  Y  Y6  1  0.750000  0.010162  0.668739  1
  Y  Y7  1  0.750000  0.510162  0.831261  1
  Pt  Pt8  1  0.250000  0.258294  0.907075  1
  Pt  Pt9  1  0.250000  0.758294  0.592925  1
  Pt  Pt10  1  0.750000  0.741881  0.093903  1
  Pt  Pt11  1  0.750000  0.241881  0.406097  1
