# generated using pymatgen
data_Pr6Ho2Er8MgHg3Ir4
_symmetry_space_group_name_H-M   'P 1'
_cell_length_a   9.73623637
_cell_length_b   9.68823881
_cell_length_c   9.70468300
_cell_angle_alpha   59.94384013
_cell_angle_beta   60.10715100
_cell_angle_gamma   60.23427631
_symmetry_Int_Tables_number   1
_chemical_formula_structural   Pr6Ho2Er8MgHg3Ir4
_chemical_formula_sum   'Pr6 Ho2 Er8 Mg1 Hg3 Ir4'
_cell_volume   648.68139157
_cell_formula_units_Z   1
loop_
 _symmetry_equiv_pos_site_id
 _symmetry_equiv_pos_as_xyz
  1  'x, y, z'
loop_
 _atom_site_type_symbol
 _atom_site_label
 _atom_site_symmetry_multiplicity
 _atom_site_fract_x
 _atom_site_fract_y
 _atom_site_fract_z
 _atom_site_occupancy
  Pr  Pr0  1  0.942247  0.557525  0.557767  1
  Pr  Pr1  1  0.555955  0.942460  0.941330  1
  Pr  Pr2  1  0.555955  0.942460  0.560255  1
  Pr  Pr3  1  0.942247  0.557525  0.942461  1
  Pr  Pr4  1  0.557687  0.559112  0.941601  1
  Pr  Pr5  1  0.944047  0.941358  0.557297  1
  Ho  Ho6  1  0.347151  0.346686  0.345830  1
  Ho  Ho7  1  0.347151  0.346686  0.960335  1
  Er  Er8  1  0.348869  0.960830  0.345151  1
  Er  Er9  1  0.950470  0.349526  0.350002  1
  Er  Er10  1  0.810464  0.187566  0.189858  1
  Er  Er11  1  0.182792  0.814146  0.815371  1
  Er  Er12  1  0.182792  0.814146  0.187691  1
  Er  Er13  1  0.810464  0.187566  0.812114  1
  Er  Er14  1  0.184705  0.185595  0.814850  1
  Er  Er15  1  0.809130  0.812381  0.189245  1
  Mg  Mg16  1  0.286699  0.570996  0.571152  1
  Hg  Hg17  1  0.582054  0.583996  0.581755  1
  Hg  Hg18  1  0.582054  0.583996  0.252193  1
  Hg  Hg19  1  0.582759  0.252076  0.582582  1
  Ir  Ir20  1  0.139509  0.141874  0.142231  1
  Ir  Ir21  1  0.139509  0.141874  0.576386  1
  Ir  Ir22  1  0.138042  0.577235  0.142362  1
  Ir  Ir23  1  0.577245  0.142386  0.140185  1
