# generated using pymatgen
data_CaGd2(TmSi2)2
_symmetry_space_group_name_H-M   'P 1'
_cell_length_a   7.65312700
_cell_length_b   7.65312700
_cell_length_c   13.96361300
_cell_angle_alpha   90.00000000
_cell_angle_beta   90.00000000
_cell_angle_gamma   90.00000000
_symmetry_Int_Tables_number   1
_chemical_formula_structural   CaGd2(TmSi2)2
_chemical_formula_sum   'Ca4 Gd8 Tm8 Si16'
_cell_volume   817.85374086
_cell_formula_units_Z   4
loop_
 _symmetry_equiv_pos_site_id
 _symmetry_equiv_pos_as_xyz
  1  'x, y, z'
loop_
 _atom_site_type_symbol
 _atom_site_label
 _atom_site_symmetry_multiplicity
 _atom_site_fract_x
 _atom_site_fract_y
 _atom_site_fract_z
 _atom_site_occupancy
  Ca  Ca0  1  0.684979  0.684979  0.500000  1
  Ca  Ca1  1  0.815021  0.184979  0.750000  1
  Ca  Ca2  1  0.184979  0.815021  0.250000  1
  Ca  Ca3  1  0.315021  0.315021  0.000000  1
  Gd  Gd4  1  0.989981  0.639843  0.039633  1
  Gd  Gd5  1  0.010019  0.360157  0.539633  1
  Gd  Gd6  1  0.639843  0.989981  0.960367  1
  Gd  Gd7  1  0.139843  0.510019  0.789633  1
  Gd  Gd8  1  0.860157  0.489981  0.289633  1
  Gd  Gd9  1  0.510019  0.139843  0.210367  1
  Gd  Gd10  1  0.489981  0.860157  0.710367  1
  Gd  Gd11  1  0.360157  0.010019  0.460367  1
  Tm  Tm12  1  0.365456  0.494053  0.376810  1
  Tm  Tm13  1  0.865456  0.005947  0.373190  1
  Tm  Tm14  1  0.994053  0.134544  0.126810  1
  Tm  Tm15  1  0.005947  0.865456  0.626810  1
  Tm  Tm16  1  0.634544  0.505947  0.876810  1
  Tm  Tm17  1  0.494053  0.365456  0.623190  1
  Tm  Tm18  1  0.505947  0.634544  0.123190  1
  Tm  Tm19  1  0.134544  0.994053  0.873190  1
  Si  Si20  1  0.070382  0.708827  0.441449  1
  Si  Si21  1  0.929618  0.291173  0.941449  1
  Si  Si22  1  0.708827  0.070382  0.558551  1
  Si  Si23  1  0.208828  0.429618  0.191449  1
  Si  Si24  1  0.791173  0.570382  0.691449  1
  Si  Si25  1  0.429618  0.208828  0.808551  1
  Si  Si26  1  0.570382  0.791173  0.308551  1
  Si  Si27  1  0.291173  0.929618  0.058551  1
  Si  Si28  1  0.847970  0.789414  0.815790  1
  Si  Si29  1  0.152030  0.210586  0.315790  1
  Si  Si30  1  0.789414  0.847970  0.184210  1
  Si  Si31  1  0.289414  0.652030  0.565790  1
  Si  Si32  1  0.710586  0.347970  0.065790  1
  Si  Si33  1  0.652030  0.289414  0.434210  1
  Si  Si34  1  0.347970  0.710586  0.934210  1
  Si  Si35  1  0.210586  0.152030  0.684210  1
