# generated using pymatgen
data_RbTi2(CoH6)2
_symmetry_space_group_name_H-M   'P 1'
_cell_length_a   4.33908900
_cell_length_b   4.33909072
_cell_length_c   8.90443600
_cell_angle_alpha   90.00000000
_cell_angle_beta   90.00000000
_cell_angle_gamma   119.99999452
_symmetry_Int_Tables_number   1
_chemical_formula_structural   RbTi2(CoH6)2
_chemical_formula_sum   'Rb1 Ti2 Co2 H12'
_cell_volume   145.18921624
_cell_formula_units_Z   1
loop_
 _symmetry_equiv_pos_site_id
 _symmetry_equiv_pos_as_xyz
  1  'x, y, z'
loop_
 _atom_site_type_symbol
 _atom_site_label
 _atom_site_symmetry_multiplicity
 _atom_site_fract_x
 _atom_site_fract_y
 _atom_site_fract_z
 _atom_site_occupancy
  Rb  Rb0  1  0.000000  0.000000  0.000000  1
  Ti  Ti1  1  0.666667  0.333333  0.381930  1
  Ti  Ti2  1  0.333333  0.666667  0.618070  1
  Co  Co3  1  0.666667  0.333333  0.685840  1
  Co  Co4  1  0.333333  0.666667  0.314160  1
  H  H5  1  0.161963  0.838037  0.412080  1
  H  H6  1  0.676076  0.838037  0.412080  1
  H  H7  1  0.161963  0.323924  0.412080  1
  H  H8  1  0.838037  0.161963  0.587920  1
  H  H9  1  0.323924  0.161963  0.587920  1
  H  H10  1  0.838037  0.676076  0.587920  1
  H  H11  1  0.492715  0.985428  0.786736  1
  H  H12  1  0.492715  0.507285  0.786736  1
  H  H13  1  0.014572  0.507285  0.786736  1
  H  H14  1  0.507285  0.014572  0.213264  1
  H  H15  1  0.507285  0.492715  0.213264  1
  H  H16  1  0.985428  0.492715  0.213264  1
