# generated using pymatgen
data_MgNbZnCo5B2
_symmetry_space_group_name_H-M   'P 1'
_cell_length_a   8.70778969
_cell_length_b   8.70778969
_cell_length_c   2.90456400
_cell_angle_alpha   90.00000000
_cell_angle_beta   90.00000000
_cell_angle_gamma   89.95427018
_symmetry_Int_Tables_number   1
_chemical_formula_structural   MgNbZnCo5B2
_chemical_formula_sum   'Mg2 Nb2 Zn2 Co10 B4'
_cell_volume   220.24024179
_cell_formula_units_Z   2
loop_
 _symmetry_equiv_pos_site_id
 _symmetry_equiv_pos_as_xyz
  1  'x, y, z'
loop_
 _atom_site_type_symbol
 _atom_site_label
 _atom_site_symmetry_multiplicity
 _atom_site_fract_x
 _atom_site_fract_y
 _atom_site_fract_z
 _atom_site_occupancy
  Mg  Mg0  1  0.676756  0.176756  0.000000  1
  Mg  Mg1  1  0.323244  0.823244  0.000000  1
  Nb  Nb2  1  0.177297  0.322703  0.000000  1
  Nb  Nb3  1  0.822703  0.677297  0.000000  1
  Zn  Zn4  1  0.000000  0.000000  0.000000  1
  Zn  Zn5  1  0.500000  0.500000  0.000000  1
  Co  Co6  1  0.500000  0.000000  0.500000  1
  Co  Co7  1  0.000000  0.500000  0.500000  1
  Co  Co8  1  0.221160  0.073922  0.500000  1
  Co  Co9  1  0.778840  0.926078  0.500000  1
  Co  Co10  1  0.062629  0.775450  0.500000  1
  Co  Co11  1  0.724550  0.437371  0.500000  1
  Co  Co12  1  0.937371  0.224550  0.500000  1
  Co  Co13  1  0.275450  0.562629  0.500000  1
  Co  Co14  1  0.573922  0.721160  0.500000  1
  Co  Co15  1  0.426078  0.278840  0.500000  1
  B  B16  1  0.121611  0.621611  0.000000  1
  B  B17  1  0.878389  0.378389  0.000000  1
  B  B18  1  0.621113  0.878887  0.000000  1
  B  B19  1  0.378887  0.121113  0.000000  1
