# generated using pymatgen
data_Dy4LuZr2P12Ir17
_symmetry_space_group_name_H-M   'P 1'
_cell_length_a   12.65361980
_cell_length_b   12.89835131
_cell_length_c   3.98005600
_cell_angle_alpha   90.00000000
_cell_angle_beta   90.00000000
_cell_angle_gamma   119.32708714
_symmetry_Int_Tables_number   1
_chemical_formula_structural   Dy4LuZr2P12Ir17
_chemical_formula_sum   'Dy4 Lu1 Zr2 P12 Ir17'
_cell_volume   566.33560649
_cell_formula_units_Z   1
loop_
 _symmetry_equiv_pos_site_id
 _symmetry_equiv_pos_as_xyz
  1  'x, y, z'
loop_
 _atom_site_type_symbol
 _atom_site_label
 _atom_site_symmetry_multiplicity
 _atom_site_fract_x
 _atom_site_fract_y
 _atom_site_fract_z
 _atom_site_occupancy
  Dy  Dy0  1  0.668812  0.338986  0.500000  1
  Dy  Dy1  1  0.000342  0.815501  0.000000  1
  Dy  Dy2  1  0.184867  0.184120  0.000000  1
  Dy  Dy3  1  0.812990  0.000013  0.000000  1
  Lu  Lu4  1  0.330124  0.660808  0.500000  1
  Zr  Zr5  1  0.997689  0.446962  0.500000  1
  Zr  Zr6  1  0.550693  0.553776  0.500000  1
  P  P7  1  0.005690  0.650538  0.500000  1
  P  P8  1  0.354389  0.348258  0.500000  1
  P  P9  1  0.645457  0.000488  0.500000  1
  P  P10  1  0.514224  0.686792  0.000000  1
  P  P11  1  0.309407  0.823929  0.000000  1
  P  P12  1  0.164661  0.481707  0.000000  1
  P  P13  1  0.484951  0.175018  0.000000  1
  P  P14  1  0.683488  0.519262  0.000000  1
  P  P15  1  0.828670  0.313786  0.000000  1
  P  P16  1  0.999585  0.174241  0.500000  1
  P  P17  1  0.825577  0.826263  0.500000  1
  P  P18  1  0.181522  0.999275  0.500000  1
  Ir  Ir19  1  0.503499  0.863491  0.000000  1
  Ir  Ir20  1  0.129224  0.644144  0.000000  1
  Ir  Ir21  1  0.354622  0.497399  0.000000  1
  Ir  Ir22  1  0.482793  0.355857  0.000000  1
  Ir  Ir23  1  0.859332  0.504737  0.000000  1
  Ir  Ir24  1  0.640207  0.135014  0.000000  1
  Ir  Ir25  1  0.464756  0.999827  0.500000  1
  Ir  Ir26  1  0.997075  0.277623  0.000000  1
  Ir  Ir27  1  0.719024  0.722468  0.000000  1
  Ir  Ir28  1  0.290562  0.999973  0.000000  1
  Ir  Ir29  1  0.623415  0.808340  0.500000  1
  Ir  Ir30  1  0.204099  0.825286  0.500000  1
  Ir  Ir31  1  0.178123  0.366185  0.500000  1
  Ir  Ir32  1  0.378750  0.173977  0.500000  1
  Ir  Ir33  1  0.811783  0.634200  0.500000  1
  Ir  Ir34  1  0.815706  0.191611  0.500000  1
  Ir  Ir35  1  0.003895  0.000145  0.500000  1
