# generated using pymatgen
data_Ho3Lu(Re3Si4)2
_symmetry_space_group_name_H-M   'P 1'
_cell_length_a   6.76343501
_cell_length_b   6.76344121
_cell_length_c   12.70532315
_cell_angle_alpha   90.09256290
_cell_angle_beta   90.00444339
_cell_angle_gamma   90.00108256
_symmetry_Int_Tables_number   1
_chemical_formula_structural   Ho3Lu(Re3Si4)2
_chemical_formula_sum   'Ho6 Lu2 Re12 Si16'
_cell_volume   581.19274929
_cell_formula_units_Z   2
loop_
 _symmetry_equiv_pos_site_id
 _symmetry_equiv_pos_as_xyz
  1  'x, y, z'
loop_
 _atom_site_type_symbol
 _atom_site_label
 _atom_site_symmetry_multiplicity
 _atom_site_fract_x
 _atom_site_fract_y
 _atom_site_fract_z
 _atom_site_occupancy
  Ho  Ho0  1  0.006546  0.661249  0.030913  1
  Ho  Ho1  1  0.993367  0.338940  0.531295  1
  Ho  Ho2  1  0.339093  0.993205  0.469203  1
  Ho  Ho3  1  0.161230  0.493545  0.781258  1
  Ho  Ho4  1  0.838914  0.506727  0.280948  1
  Ho  Ho5  1  0.493420  0.161033  0.218751  1
  Lu  Lu6  1  0.507274  0.840488  0.719408  1
  Lu  Lu7  1  0.659604  0.007010  0.968967  1
  Re  Re8  1  0.665578  0.666634  0.500863  1
  Re  Re9  1  0.166178  0.834049  0.249882  1
  Re  Re10  1  0.334698  0.332895  0.999828  1
  Re  Re11  1  0.020855  0.814590  0.631231  1
  Re  Re12  1  0.979946  0.184591  0.130484  1
  Re  Re13  1  0.814400  0.019399  0.369097  1
  Re  Re14  1  0.314569  0.480345  0.381061  1
  Re  Re15  1  0.684544  0.521283  0.880637  1
  Re  Re16  1  0.480447  0.314278  0.619263  1
  Re  Re17  1  0.520683  0.686637  0.118139  1
  Re  Re18  1  0.186801  0.979143  0.868288  1
  Re  Re19  1  0.832388  0.164908  0.750807  1
  Si  Si20  1  0.021882  0.726382  0.438115  1
  Si  Si21  1  0.615772  0.304790  0.434260  1
  Si  Si22  1  0.384648  0.696276  0.933620  1
  Si  Si23  1  0.196033  0.115504  0.684256  1
  Si  Si24  1  0.305871  0.616491  0.566518  1
  Si  Si25  1  0.694822  0.382929  0.065205  1
  Si  Si26  1  0.804546  0.884392  0.183645  1
  Si  Si27  1  0.115872  0.195082  0.315706  1
  Si  Si28  1  0.977091  0.272481  0.937786  1
  Si  Si29  1  0.725724  0.021322  0.562825  1
  Si  Si30  1  0.226716  0.478345  0.187808  1
  Si  Si31  1  0.772827  0.523139  0.688098  1
  Si  Si32  1  0.478497  0.224091  0.812530  1
  Si  Si33  1  0.521685  0.773556  0.311767  1
  Si  Si34  1  0.275179  0.978134  0.061495  1
  Si  Si35  1  0.882300  0.806136  0.816044  1
