# generated using pymatgen
data_PrSm3SBr6
_symmetry_space_group_name_H-M   'P 1'
_cell_length_a   4.07962300
_cell_length_b   13.35492157
_cell_length_c   14.12432200
_cell_angle_alpha   89.52674286
_cell_angle_beta   90.00000000
_cell_angle_gamma   90.00000000
_symmetry_Int_Tables_number   1
_chemical_formula_structural   PrSm3SBr6
_chemical_formula_sum   'Pr2 Sm6 S2 Br12'
_cell_volume   769.50982313
_cell_formula_units_Z   2
loop_
 _symmetry_equiv_pos_site_id
 _symmetry_equiv_pos_as_xyz
  1  'x, y, z'
loop_
 _atom_site_type_symbol
 _atom_site_label
 _atom_site_symmetry_multiplicity
 _atom_site_fract_x
 _atom_site_fract_y
 _atom_site_fract_z
 _atom_site_occupancy
  Pr  Pr0  1  0.000000  0.116404  0.577376  1
  Pr  Pr1  1  0.000000  0.883596  0.422624  1
  Sm  Sm2  1  0.500000  0.116995  0.343319  1
  Sm  Sm3  1  0.500000  0.883005  0.656681  1
  Sm  Sm4  1  0.500000  0.615717  0.155251  1
  Sm  Sm5  1  0.500000  0.384283  0.844749  1
  Sm  Sm6  1  0.000000  0.613465  0.924573  1
  Sm  Sm7  1  0.000000  0.386535  0.075427  1
  S  S8  1  0.500000  0.000000  0.500000  1
  S  S9  1  0.500000  0.500000  0.000000  1
  Br  Br10  1  0.500000  0.246422  0.161141  1
  Br  Br11  1  0.500000  0.753578  0.838859  1
  Br  Br12  1  0.500000  0.739167  0.335284  1
  Br  Br13  1  0.500000  0.260833  0.664716  1
  Br  Br14  1  0.000000  0.259266  0.408614  1
  Br  Br15  1  0.000000  0.740734  0.591386  1
  Br  Br16  1  0.000000  0.756936  0.085500  1
  Br  Br17  1  0.000000  0.243064  0.914500  1
  Br  Br18  1  0.000000  0.003792  0.238467  1
  Br  Br19  1  0.000000  0.996208  0.761533  1
  Br  Br20  1  0.000000  0.498008  0.257296  1
  Br  Br21  1  0.000000  0.501992  0.742704  1
