# generated using pymatgen
data_Zr4Co4IrOs3
_symmetry_space_group_name_H-M   'P 1'
_cell_length_a   5.08813239
_cell_length_b   5.04376084
_cell_length_c   8.35517100
_cell_angle_alpha   90.00000000
_cell_angle_beta   90.00000000
_cell_angle_gamma   120.40763542
_symmetry_Int_Tables_number   1
_chemical_formula_structural   Zr4Co4IrOs3
_chemical_formula_sum   'Zr4 Co4 Ir1 Os3'
_cell_volume   184.92697114
_cell_formula_units_Z   1
loop_
 _symmetry_equiv_pos_site_id
 _symmetry_equiv_pos_as_xyz
  1  'x, y, z'
loop_
 _atom_site_type_symbol
 _atom_site_label
 _atom_site_symmetry_multiplicity
 _atom_site_fract_x
 _atom_site_fract_y
 _atom_site_fract_z
 _atom_site_occupancy
  Zr  Zr0  1  0.329049  0.664936  0.433351  1
  Zr  Zr1  1  0.661962  0.333179  0.565809  1
  Zr  Zr2  1  0.661962  0.333179  0.934191  1
  Zr  Zr3  1  0.329049  0.664936  0.066649  1
  Co  Co4  1  0.828575  0.661963  0.250000  1
  Co  Co5  1  0.337920  0.170662  0.250000  1
  Co  Co6  1  0.177833  0.832404  0.750000  1
  Co  Co7  1  0.177297  0.342944  0.750000  1
  Ir  Ir8  1  0.824379  0.171105  0.250000  1
  Os  Os9  1  0.006663  0.997136  0.500905  1
  Os  Os10  1  0.006663  0.997136  0.999095  1
  Os  Os11  1  0.658646  0.830420  0.750000  1
