# generated using pymatgen
data_Ta4CrFe5Ge2
_symmetry_space_group_name_H-M   'P 1'
_cell_length_a   4.89789760
_cell_length_b   4.87557071
_cell_length_c   7.97022700
_cell_angle_alpha   90.00000000
_cell_angle_beta   90.00000000
_cell_angle_gamma   119.84932841
_symmetry_Int_Tables_number   1
_chemical_formula_structural   Ta4CrFe5Ge2
_chemical_formula_sum   'Ta4 Cr1 Fe5 Ge2'
_cell_volume   165.07977091
_cell_formula_units_Z   1
loop_
 _symmetry_equiv_pos_site_id
 _symmetry_equiv_pos_as_xyz
  1  'x, y, z'
loop_
 _atom_site_type_symbol
 _atom_site_label
 _atom_site_symmetry_multiplicity
 _atom_site_fract_x
 _atom_site_fract_y
 _atom_site_fract_z
 _atom_site_occupancy
  Ta  Ta0  1  0.338191  0.669096  0.434537  1
  Ta  Ta1  1  0.669192  0.334595  0.565712  1
  Ta  Ta2  1  0.669192  0.334595  0.934288  1
  Ta  Ta3  1  0.338191  0.669096  0.065463  1
  Cr  Cr4  1  0.646034  0.823017  0.750000  1
  Fe  Fe5  1  0.825017  0.172332  0.250000  1
  Fe  Fe6  1  0.825017  0.652686  0.250000  1
  Fe  Fe7  1  0.345551  0.172777  0.250000  1
  Fe  Fe8  1  0.168688  0.826238  0.750000  1
  Fe  Fe9  1  0.168688  0.342448  0.750000  1
  Ge  Ge10  1  0.003119  0.001559  0.499510  1
  Ge  Ge11  1  0.003119  0.001559  0.000490  1
