# generated using pymatgen
data_HoLu7Ti8(NbSi4)4
_symmetry_space_group_name_H-M   'P 1'
_cell_length_a   6.99512902
_cell_length_b   6.99695961
_cell_length_c   12.86669707
_cell_angle_alpha   89.96942293
_cell_angle_beta   89.99768530
_cell_angle_gamma   89.97717071
_symmetry_Int_Tables_number   1
_chemical_formula_structural   HoLu7Ti8(NbSi4)4
_chemical_formula_sum   'Ho1 Lu7 Ti8 Nb4 Si16'
_cell_volume   629.75565438
_cell_formula_units_Z   1
loop_
 _symmetry_equiv_pos_site_id
 _symmetry_equiv_pos_as_xyz
  1  'x, y, z'
loop_
 _atom_site_type_symbol
 _atom_site_label
 _atom_site_symmetry_multiplicity
 _atom_site_fract_x
 _atom_site_fract_y
 _atom_site_fract_z
 _atom_site_occupancy
  Ho  Ho0  1  0.997597  0.659151  0.033122  1
  Lu  Lu1  1  0.341268  0.001142  0.466922  1
  Lu  Lu2  1  0.498835  0.841317  0.716808  1
  Lu  Lu3  1  0.500964  0.158772  0.217227  1
  Lu  Lu4  1  0.841185  0.498731  0.283237  1
  Lu  Lu5  1  0.158892  0.500970  0.782853  1
  Lu  Lu6  1  0.658437  0.999096  0.966668  1
  Lu  Lu7  1  0.001135  0.341292  0.533125  1
  Ti  Ti8  1  0.151624  0.007432  0.874396  1
  Ti  Ti9  1  0.492384  0.651140  0.125078  1
  Ti  Ti10  1  0.507744  0.349005  0.624804  1
  Ti  Ti11  1  0.650936  0.491608  0.874668  1
  Ti  Ti12  1  0.349132  0.507729  0.375357  1
  Ti  Ti13  1  0.848937  0.992617  0.375100  1
  Ti  Ti14  1  0.007772  0.151663  0.125435  1
  Ti  Ti15  1  0.992449  0.849126  0.625015  1
  Nb  Nb16  1  0.327045  0.326477  0.999871  1
  Nb  Nb17  1  0.173203  0.827142  0.250358  1
  Nb  Nb18  1  0.826817  0.172979  0.749688  1
  Nb  Nb19  1  0.673253  0.673225  0.499994  1
  Si  Si20  1  0.204401  0.132000  0.682488  1
  Si  Si21  1  0.369452  0.704534  0.932377  1
  Si  Si22  1  0.632024  0.295742  0.432705  1
  Si  Si23  1  0.703125  0.366951  0.067183  1
  Si  Si24  1  0.295722  0.632065  0.567380  1
  Si  Si25  1  0.794886  0.869305  0.183744  1
  Si  Si26  1  0.132125  0.204303  0.317536  1
  Si  Si27  1  0.868021  0.795939  0.816696  1
  Si  Si28  1  0.294737  0.953831  0.063900  1
  Si  Si29  1  0.546542  0.794047  0.313941  1
  Si  Si30  1  0.453037  0.205992  0.813521  1
  Si  Si31  1  0.793933  0.546934  0.686118  1
  Si  Si32  1  0.206883  0.452529  0.186844  1
  Si  Si33  1  0.705786  0.046911  0.563807  1
  Si  Si34  1  0.952884  0.292436  0.935802  1
  Si  Si35  1  0.046835  0.705869  0.436227  1
