# generated using pymatgen
data_Dy8SnPd17Pt7
_symmetry_space_group_name_H-M   'P 1'
_cell_length_a   8.39772900
_cell_length_b   8.38977300
_cell_length_c   8.37521300
_cell_angle_alpha   90.00000000
_cell_angle_beta   90.00000000
_cell_angle_gamma   90.00000000
_symmetry_Int_Tables_number   1
_chemical_formula_structural   Dy8SnPd17Pt7
_chemical_formula_sum   'Dy8 Sn1 Pd17 Pt7'
_cell_volume   590.07596714
_cell_formula_units_Z   1
loop_
 _symmetry_equiv_pos_site_id
 _symmetry_equiv_pos_as_xyz
  1  'x, y, z'
loop_
 _atom_site_type_symbol
 _atom_site_label
 _atom_site_symmetry_multiplicity
 _atom_site_fract_x
 _atom_site_fract_y
 _atom_site_fract_z
 _atom_site_occupancy
  Dy  Dy0  1  0.252792  0.253888  0.253574  1
  Dy  Dy1  1  0.746281  0.746085  0.746846  1
  Dy  Dy2  1  0.746281  0.746085  0.253154  1
  Dy  Dy3  1  0.747208  0.253888  0.746426  1
  Dy  Dy4  1  0.252792  0.253888  0.746426  1
  Dy  Dy5  1  0.253719  0.746085  0.253154  1
  Dy  Dy6  1  0.253719  0.746085  0.746846  1
  Dy  Dy7  1  0.747208  0.253888  0.253574  1
  Sn  Sn8  1  0.000000  0.000335  0.000000  1
  Pd  Pd9  1  0.500000  0.264426  0.000000  1
  Pd  Pd10  1  0.000000  0.734667  0.500000  1
  Pd  Pd11  1  0.500000  0.735763  0.000000  1
  Pd  Pd12  1  0.500000  0.999819  0.264931  1
  Pd  Pd13  1  0.265505  0.000028  0.500000  1
  Pd  Pd14  1  0.500000  0.999819  0.735069  1
  Pd  Pd15  1  0.734495  0.000028  0.500000  1
  Pd  Pd16  1  0.000000  0.500532  0.264840  1
  Pd  Pd17  1  0.000000  0.500532  0.735160  1
  Pd  Pd18  1  0.500000  0.500084  0.253648  1
  Pd  Pd19  1  0.500000  0.500084  0.746352  1
  Pd  Pd20  1  0.307547  0.999994  0.000000  1
  Pd  Pd21  1  0.692453  0.999994  0.000000  1
  Pd  Pd22  1  0.000000  0.307318  0.000000  1
  Pd  Pd23  1  0.000000  0.693523  0.000000  1
  Pd  Pd24  1  0.000000  0.999615  0.308308  1
  Pd  Pd25  1  0.000000  0.999615  0.691692  1
  Pt  Pt26  1  0.264568  0.499805  0.000000  1
  Pt  Pt27  1  0.735432  0.499805  0.000000  1
  Pt  Pt28  1  0.000000  0.264741  0.500000  1
  Pt  Pt29  1  0.254023  0.499852  0.500000  1
  Pt  Pt30  1  0.745977  0.499852  0.500000  1
  Pt  Pt31  1  0.500000  0.254072  0.500000  1
  Pt  Pt32  1  0.500000  0.745806  0.500000  1
