# generated using pymatgen
data_PrLu7(SiO5)4
_symmetry_space_group_name_H-M   'P 1'
_cell_length_a   6.70718208
_cell_length_b   7.88168337
_cell_length_c   9.60362014
_cell_angle_alpha   90.59402288
_cell_angle_beta   110.69906242
_cell_angle_gamma   114.51970964
_symmetry_Int_Tables_number   1
_chemical_formula_structural   PrLu7(SiO5)4
_chemical_formula_sum   'Pr1 Lu7 Si4 O20'
_cell_volume   424.66453685
_cell_formula_units_Z   1
loop_
 _symmetry_equiv_pos_site_id
 _symmetry_equiv_pos_as_xyz
  1  'x, y, z'
loop_
 _atom_site_type_symbol
 _atom_site_label
 _atom_site_symmetry_multiplicity
 _atom_site_fract_x
 _atom_site_fract_y
 _atom_site_fract_z
 _atom_site_occupancy
  Pr  Pr0  1  0.319827  0.119000  0.035516  1
  Lu  Lu1  1  0.936496  0.445302  0.164478  1
  Lu  Lu2  1  0.815644  0.058650  0.341598  1
  Lu  Lu3  1  0.696445  0.400182  0.471863  1
  Lu  Lu4  1  0.310030  0.605025  0.528171  1
  Lu  Lu5  1  0.180045  0.941228  0.659724  1
  Lu  Lu6  1  0.084000  0.551738  0.836556  1
  Lu  Lu7  1  0.669984  0.893259  0.975988  1
  Si  Si8  1  0.474581  0.564381  0.197736  1
  Si  Si9  1  0.211774  0.938894  0.309911  1
  Si  Si10  1  0.769922  0.053465  0.687378  1
  Si  Si11  1  0.540689  0.443361  0.803666  1
  O  O12  1  0.203422  0.458222  0.063916  1
  O  O13  1  0.730352  0.142736  0.109491  1
  O  O14  1  0.038321  0.943525  0.140370  1
  O  O15  1  0.609120  0.783706  0.181308  1
  O  O16  1  0.619033  0.441994  0.185426  1
  O  O17  1  0.487213  0.089687  0.328598  1
  O  O18  1  0.180961  0.723964  0.323553  1
  O  O19  1  0.455909  0.534550  0.362449  1
  O  O20  1  0.977126  0.362621  0.397954  1
  O  O21  1  0.146944  0.024129  0.434790  1
  O  O22  1  0.841126  0.968749  0.565286  1
  O  O23  1  0.028960  0.634553  0.605537  1
  O  O24  1  0.549077  0.471787  0.636270  1
  O  O25  1  0.824868  0.274560  0.675304  1
  O  O26  1  0.487841  0.911996  0.652876  1
  O  O27  1  0.430155  0.587431  0.834073  1
  O  O28  1  0.368700  0.225036  0.806768  1
  O  O29  1  0.912061  0.030966  0.859083  1
  O  O30  1  0.286962  0.858606  0.891538  1
  O  O31  1  0.812420  0.516697  0.932822  1
