# generated using pymatgen
data_Y8GePd7Pt17
_symmetry_space_group_name_H-M   'P 1'
_cell_length_a   8.33702800
_cell_length_b   8.37032001
_cell_length_c   8.41530302
_cell_angle_alpha   89.99307120
_cell_angle_beta   90.00000000
_cell_angle_gamma   90.00000000
_symmetry_Int_Tables_number   1
_chemical_formula_structural   Y8GePd7Pt17
_chemical_formula_sum   'Y8 Ge1 Pd7 Pt17'
_cell_volume   587.25007072
_cell_formula_units_Z   1
loop_
 _symmetry_equiv_pos_site_id
 _symmetry_equiv_pos_as_xyz
  1  'x, y, z'
loop_
 _atom_site_type_symbol
 _atom_site_label
 _atom_site_symmetry_multiplicity
 _atom_site_fract_x
 _atom_site_fract_y
 _atom_site_fract_z
 _atom_site_occupancy
  Y  Y0  1  0.252412  0.252280  0.252666  1
  Y  Y1  1  0.746987  0.747207  0.746791  1
  Y  Y2  1  0.747338  0.747386  0.253086  1
  Y  Y3  1  0.747387  0.252487  0.747301  1
  Y  Y4  1  0.252613  0.252487  0.747301  1
  Y  Y5  1  0.252662  0.747386  0.253086  1
  Y  Y6  1  0.253013  0.747207  0.746791  1
  Y  Y7  1  0.747588  0.252280  0.252666  1
  Ge  Ge8  1  0.000000  0.003496  0.000097  1
  Pd  Pd9  1  0.000000  0.500289  0.739254  1
  Pd  Pd10  1  0.500000  0.746970  0.500089  1
  Pd  Pd11  1  0.500000  0.499884  0.253932  1
  Pd  Pd12  1  0.500000  0.499895  0.746038  1
  Pd  Pd13  1  0.000000  0.710633  0.999849  1
  Pd  Pd14  1  0.000000  0.998932  0.290487  1
  Pd  Pd15  1  0.000000  0.999037  0.709697  1
  Pt  Pt16  1  0.260733  0.499907  0.000244  1
  Pt  Pt17  1  0.739267  0.499907  0.000244  1
  Pt  Pt18  1  0.000000  0.259500  0.499887  1
  Pt  Pt19  1  0.500000  0.260524  0.999793  1
  Pt  Pt20  1  0.000000  0.739517  0.499903  1
  Pt  Pt21  1  0.500000  0.738126  0.999871  1
  Pt  Pt22  1  0.500000  0.000051  0.261920  1
  Pt  Pt23  1  0.259980  0.000242  0.500173  1
  Pt  Pt24  1  0.500000  0.999918  0.738330  1
  Pt  Pt25  1  0.740020  0.000242  0.500173  1
  Pt  Pt26  1  0.000000  0.500318  0.260889  1
  Pt  Pt27  1  0.252057  0.499480  0.499692  1
  Pt  Pt28  1  0.747943  0.499480  0.499692  1
  Pt  Pt29  1  0.500000  0.252956  0.500083  1
  Pt  Pt30  1  0.292274  0.998723  0.999962  1
  Pt  Pt31  1  0.707726  0.998723  0.999962  1
  Pt  Pt32  1  0.000000  0.294528  0.000048  1
