# generated using pymatgen
data_Zr4CrFeOs6
_symmetry_space_group_name_H-M   'P 1'
_cell_length_a   5.11077000
_cell_length_b   5.11076869
_cell_length_c   8.52720900
_cell_angle_alpha   90.00000000
_cell_angle_beta   90.00000000
_cell_angle_gamma   118.37732571
_symmetry_Int_Tables_number   1
_chemical_formula_structural   Zr4CrFeOs6
_chemical_formula_sum   'Zr4 Cr1 Fe1 Os6'
_cell_volume   195.96637407
_cell_formula_units_Z   1
loop_
 _symmetry_equiv_pos_site_id
 _symmetry_equiv_pos_as_xyz
  1  'x, y, z'
loop_
 _atom_site_type_symbol
 _atom_site_label
 _atom_site_symmetry_multiplicity
 _atom_site_fract_x
 _atom_site_fract_y
 _atom_site_fract_z
 _atom_site_occupancy
  Zr  Zr0  1  0.331862  0.668138  0.436321  1
  Zr  Zr1  1  0.667178  0.332822  0.565702  1
  Zr  Zr2  1  0.667178  0.332822  0.934298  1
  Zr  Zr3  1  0.331862  0.668138  0.063679  1
  Cr  Cr4  1  0.832264  0.167736  0.250000  1
  Fe  Fe5  1  0.168088  0.831912  0.750000  1
  Os  Os6  1  0.997003  0.002997  0.499696  1
  Os  Os7  1  0.997003  0.002997  0.000304  1
  Os  Os8  1  0.830611  0.648999  0.250000  1
  Os  Os9  1  0.351001  0.169389  0.250000  1
  Os  Os10  1  0.172423  0.346476  0.750000  1
  Os  Os11  1  0.653524  0.827577  0.750000  1
