# generated using pymatgen
data_Tb2Th2MgNi4Hg
_symmetry_space_group_name_H-M   'P 1'
_cell_length_a   7.59197862
_cell_length_b   7.56164888
_cell_length_c   3.65443200
_cell_angle_alpha   90.00000000
_cell_angle_beta   90.00000000
_cell_angle_gamma   92.66163930
_symmetry_Int_Tables_number   1
_chemical_formula_structural   Tb2Th2MgNi4Hg
_chemical_formula_sum   'Tb2 Th2 Mg1 Ni4 Hg1'
_cell_volume   209.56685444
_cell_formula_units_Z   1
loop_
 _symmetry_equiv_pos_site_id
 _symmetry_equiv_pos_as_xyz
  1  'x, y, z'
loop_
 _atom_site_type_symbol
 _atom_site_label
 _atom_site_symmetry_multiplicity
 _atom_site_fract_x
 _atom_site_fract_y
 _atom_site_fract_z
 _atom_site_occupancy
  Tb  Tb0  1  0.166493  0.326341  0.500000  1
  Tb  Tb1  1  0.833507  0.673659  0.500000  1
  Th  Th2  1  0.676052  0.170680  0.500000  1
  Th  Th3  1  0.323948  0.829320  0.500000  1
  Mg  Mg4  1  0.500000  0.500000  0.000000  1
  Ni  Ni5  1  0.128474  0.619055  0.000000  1
  Ni  Ni6  1  0.871526  0.380945  0.000000  1
  Ni  Ni7  1  0.616730  0.876664  0.000000  1
  Ni  Ni8  1  0.383270  0.123336  0.000000  1
  Hg  Hg9  1  0.000000  0.000000  0.000000  1
