# generated using pymatgen
data_Ho16ZnIn6Re
_symmetry_space_group_name_H-M   'P 1'
_cell_length_a   10.47427100
_cell_length_b   10.47426972
_cell_length_c   6.91726700
_cell_angle_alpha   90.00000000
_cell_angle_beta   90.00000000
_cell_angle_gamma   120.00000722
_symmetry_Int_Tables_number   1
_chemical_formula_structural   Ho16ZnIn6Re
_chemical_formula_sum   'Ho16 Zn1 In6 Re1'
_cell_volume   657.22291690
_cell_formula_units_Z   1
loop_
 _symmetry_equiv_pos_site_id
 _symmetry_equiv_pos_as_xyz
  1  'x, y, z'
loop_
 _atom_site_type_symbol
 _atom_site_label
 _atom_site_symmetry_multiplicity
 _atom_site_fract_x
 _atom_site_fract_y
 _atom_site_fract_z
 _atom_site_occupancy
  Ho  Ho0  1  0.530971  0.061940  0.514151  1
  Ho  Ho1  1  0.938060  0.469029  0.514151  1
  Ho  Ho2  1  0.530971  0.469029  0.514151  1
  Ho  Ho3  1  0.479242  0.958487  0.019158  1
  Ho  Ho4  1  0.041513  0.520758  0.019158  1
  Ho  Ho5  1  0.479242  0.520758  0.019158  1
  Ho  Ho6  1  0.174131  0.348264  0.726335  1
  Ho  Ho7  1  0.651736  0.825869  0.726335  1
  Ho  Ho8  1  0.174131  0.825869  0.726335  1
  Ho  Ho9  1  0.824815  0.649628  0.228069  1
  Ho  Ho10  1  0.350372  0.175185  0.228069  1
  Ho  Ho11  1  0.824815  0.175185  0.228069  1
  Ho  Ho12  1  0.666667  0.333333  0.881261  1
  Ho  Ho13  1  0.333333  0.666667  0.373247  1
  Ho  Ho14  1  0.000000  0.000000  0.504528  1
  Ho  Ho15  1  0.000000  0.000000  0.998346  1
  Zn  Zn16  1  0.333333  0.666667  0.807639  1
  In  In17  1  0.837663  0.675326  0.755894  1
  In  In18  1  0.324674  0.162337  0.755894  1
  In  In19  1  0.837663  0.162337  0.755894  1
  In  In20  1  0.165525  0.331051  0.253976  1
  In  In21  1  0.668949  0.834475  0.253976  1
  In  In22  1  0.165525  0.834475  0.253976  1
  Re  Re23  1  0.666667  0.333333  0.286432  1
