# generated using pymatgen
data_Hf16ReTc3Ni4
_symmetry_space_group_name_H-M   'P 1'
_cell_length_a   8.64818816
_cell_length_b   8.64818815
_cell_length_c   8.64818854
_cell_angle_alpha   59.97256254
_cell_angle_beta   59.97256090
_cell_angle_gamma   59.97256352
_symmetry_Int_Tables_number   1
_chemical_formula_structural   Hf16ReTc3Ni4
_chemical_formula_sum   'Hf16 Re1 Tc3 Ni4'
_cell_volume   457.07778552
_cell_formula_units_Z   1
loop_
 _symmetry_equiv_pos_site_id
 _symmetry_equiv_pos_as_xyz
  1  'x, y, z'
loop_
 _atom_site_type_symbol
 _atom_site_label
 _atom_site_symmetry_multiplicity
 _atom_site_fract_x
 _atom_site_fract_y
 _atom_site_fract_z
 _atom_site_occupancy
  Hf  Hf0  1  0.686810  0.104571  0.104571  1
  Hf  Hf1  1  0.104571  0.686810  0.104571  1
  Hf  Hf2  1  0.104571  0.104571  0.686810  1
  Hf  Hf3  1  0.104654  0.104654  0.104654  1
  Hf  Hf4  1  0.315955  0.315955  0.683710  1
  Hf  Hf5  1  0.683971  0.683971  0.315780  1
  Hf  Hf6  1  0.315955  0.683710  0.315955  1
  Hf  Hf7  1  0.683971  0.315780  0.683971  1
  Hf  Hf8  1  0.683710  0.315955  0.315955  1
  Hf  Hf9  1  0.315780  0.683971  0.683971  1
  Hf  Hf10  1  0.953017  0.953017  0.546679  1
  Hf  Hf11  1  0.546517  0.546517  0.954196  1
  Hf  Hf12  1  0.953017  0.546679  0.953017  1
  Hf  Hf13  1  0.546517  0.954196  0.546517  1
  Hf  Hf14  1  0.546679  0.953017  0.953017  1
  Hf  Hf15  1  0.954196  0.546517  0.546517  1
  Re  Re16  1  0.333368  0.333368  0.333368  1
  Tc  Tc17  1  0.999019  0.334127  0.334127  1
  Tc  Tc18  1  0.334127  0.999019  0.334127  1
  Tc  Tc19  1  0.334127  0.334127  0.999019  1
  Ni  Ni20  1  0.323306  0.892228  0.892228  1
  Ni  Ni21  1  0.892228  0.323306  0.892228  1
  Ni  Ni22  1  0.892228  0.892228  0.323306  1
  Ni  Ni23  1  0.891705  0.891705  0.891705  1
