# generated using pymatgen
data_Hf3Al3CuNiIr
_symmetry_space_group_name_H-M   'P 1'
_cell_length_a   6.96569100
_cell_length_b   6.96569130
_cell_length_c   3.52769800
_cell_angle_alpha   90.00000000
_cell_angle_beta   90.00000000
_cell_angle_gamma   119.99999381
_symmetry_Int_Tables_number   1
_chemical_formula_structural   Hf3Al3CuNiIr
_chemical_formula_sum   'Hf3 Al3 Cu1 Ni1 Ir1'
_cell_volume   148.23490754
_cell_formula_units_Z   1
loop_
 _symmetry_equiv_pos_site_id
 _symmetry_equiv_pos_as_xyz
  1  'x, y, z'
loop_
 _atom_site_type_symbol
 _atom_site_label
 _atom_site_symmetry_multiplicity
 _atom_site_fract_x
 _atom_site_fract_y
 _atom_site_fract_z
 _atom_site_occupancy
  Hf  Hf0  1  0.402892  0.398964  0.500000  1
  Hf  Hf1  1  0.601036  0.003928  0.500000  1
  Hf  Hf2  1  0.996072  0.597108  0.500000  1
  Al  Al3  1  0.750374  0.754554  0.000000  1
  Al  Al4  1  0.245446  0.995820  0.000000  1
  Al  Al5  1  0.004180  0.249626  0.000000  1
  Cu  Cu6  1  0.333333  0.666667  0.000000  1
  Ni  Ni7  1  0.000000  0.000000  0.500000  1
  Ir  Ir8  1  0.666667  0.333333  0.000000  1
