# generated using pymatgen
data_Dy5Ga3P9Ir19
_symmetry_space_group_name_H-M   'P 1'
_cell_length_a   12.84546800
_cell_length_b   12.84546734
_cell_length_c   3.94759700
_cell_angle_alpha   90.00000000
_cell_angle_beta   90.00000000
_cell_angle_gamma   119.99999141
_symmetry_Int_Tables_number   1
_chemical_formula_structural   Dy5Ga3P9Ir19
_chemical_formula_sum   'Dy5 Ga3 P9 Ir19'
_cell_volume   564.10937876
_cell_formula_units_Z   1
loop_
 _symmetry_equiv_pos_site_id
 _symmetry_equiv_pos_as_xyz
  1  'x, y, z'
loop_
 _atom_site_type_symbol
 _atom_site_label
 _atom_site_symmetry_multiplicity
 _atom_site_fract_x
 _atom_site_fract_y
 _atom_site_fract_z
 _atom_site_occupancy
  Dy  Dy0  1  0.333333  0.666667  0.500000  1
  Dy  Dy1  1  0.666667  0.333333  0.500000  1
  Dy  Dy2  1  0.181795  0.181795  0.000000  1
  Dy  Dy3  1  0.818205  0.000000  0.000000  1
  Dy  Dy4  1  0.000000  0.818205  0.000000  1
  Ga  Ga5  1  0.357404  0.357404  0.500000  1
  Ga  Ga6  1  0.642596  0.000000  0.500000  1
  Ga  Ga7  1  0.000000  0.642596  0.500000  1
  P  P8  1  0.309367  0.826232  0.000000  1
  P  P9  1  0.173768  0.483134  0.000000  1
  P  P10  1  0.516866  0.690633  0.000000  1
  P  P11  1  0.826232  0.309367  0.000000  1
  P  P12  1  0.483134  0.173768  0.000000  1
  P  P13  1  0.690633  0.516866  0.000000  1
  P  P14  1  0.820836  0.820836  0.500000  1
  P  P15  1  0.179164  0.000000  0.500000  1
  P  P16  1  0.000000  0.179164  0.500000  1
  Ir  Ir17  1  0.205338  0.825912  0.500000  1
  Ir  Ir18  1  0.174088  0.379426  0.500000  1
  Ir  Ir19  1  0.620574  0.794662  0.500000  1
  Ir  Ir20  1  0.825912  0.205338  0.500000  1
  Ir  Ir21  1  0.379426  0.174088  0.500000  1
  Ir  Ir22  1  0.794662  0.620574  0.500000  1
  Ir  Ir23  1  0.133045  0.636755  0.000000  1
  Ir  Ir24  1  0.363245  0.496290  0.000000  1
  Ir  Ir25  1  0.503710  0.866955  0.000000  1
  Ir  Ir26  1  0.636755  0.133045  0.000000  1
  Ir  Ir27  1  0.496290  0.363245  0.000000  1
  Ir  Ir28  1  0.866955  0.503710  0.000000  1
  Ir  Ir29  1  0.550063  0.550063  0.500000  1
  Ir  Ir30  1  0.449937  0.000000  0.500000  1
  Ir  Ir31  1  0.000000  0.449937  0.500000  1
  Ir  Ir32  1  0.716592  0.716592  0.000000  1
  Ir  Ir33  1  0.283408  0.000000  0.000000  1
  Ir  Ir34  1  0.000000  0.283408  0.000000  1
  Ir  Ir35  1  0.000000  0.000000  0.500000  1
