# generated using pymatgen
data_Tb4Y4Lu4Co5Bi
_symmetry_space_group_name_H-M   'P 1'
_cell_length_a   8.27718677
_cell_length_b   8.27718679
_cell_length_c   8.27718640
_cell_angle_alpha   110.95397421
_cell_angle_beta   110.52453649
_cell_angle_gamma   106.96417514
_symmetry_Int_Tables_number   1
_chemical_formula_structural   Tb4Y4Lu4Co5Bi
_chemical_formula_sum   'Tb4 Y4 Lu4 Co5 Bi1'
_cell_volume   435.91247322
_cell_formula_units_Z   1
loop_
 _symmetry_equiv_pos_site_id
 _symmetry_equiv_pos_as_xyz
  1  'x, y, z'
loop_
 _atom_site_type_symbol
 _atom_site_label
 _atom_site_symmetry_multiplicity
 _atom_site_fract_x
 _atom_site_fract_y
 _atom_site_fract_z
 _atom_site_occupancy
  Tb  Tb0  1  0.597245  0.792127  0.805119  1
  Tb  Tb1  1  0.402755  0.207873  0.194881  1
  Tb  Tb2  1  0.987008  0.792127  0.194881  1
  Tb  Tb3  1  0.012992  0.207873  0.805119  1
  Y  Y4  1  0.815668  0.710610  0.526279  1
  Y  Y5  1  0.184332  0.289390  0.473721  1
  Y  Y6  1  0.184332  0.710610  0.894943  1
  Y  Y7  1  0.815668  0.289390  0.105057  1
  Lu  Lu8  1  0.686552  0.374144  0.687593  1
  Lu  Lu9  1  0.313448  0.625856  0.312407  1
  Lu  Lu10  1  0.686552  0.998959  0.312407  1
  Lu  Lu11  1  0.313448  0.001041  0.687593  1
  Co  Co12  1  0.622531  0.000000  0.622531  1
  Co  Co13  1  0.377469  0.000000  0.377469  1
  Co  Co14  1  0.112464  0.612464  0.500000  1
  Co  Co15  1  0.887536  0.387536  0.500000  1
  Co  Co16  1  0.000000  0.000000  0.000000  1
  Bi  Bi17  1  0.500000  0.500000  0.000000  1
