# generated using pymatgen
data_Ho8Ge(PdPt7)3
_symmetry_space_group_name_H-M   'P 1'
_cell_length_a   8.33808500
_cell_length_b   8.34535200
_cell_length_c   8.35427500
_cell_angle_alpha   90.00000000
_cell_angle_beta   90.00000000
_cell_angle_gamma   90.00000000
_symmetry_Int_Tables_number   1
_chemical_formula_structural   Ho8Ge(PdPt7)3
_chemical_formula_sum   'Ho8 Ge1 Pd3 Pt21'
_cell_volume   581.32599635
_cell_formula_units_Z   1
loop_
 _symmetry_equiv_pos_site_id
 _symmetry_equiv_pos_as_xyz
  1  'x, y, z'
loop_
 _atom_site_type_symbol
 _atom_site_label
 _atom_site_symmetry_multiplicity
 _atom_site_fract_x
 _atom_site_fract_y
 _atom_site_fract_z
 _atom_site_occupancy
  Ho  Ho0  1  0.253030  0.253270  0.253401  1
  Ho  Ho1  1  0.746734  0.746678  0.746390  1
  Ho  Ho2  1  0.746734  0.746678  0.253610  1
  Ho  Ho3  1  0.746970  0.253270  0.746599  1
  Ho  Ho4  1  0.253030  0.253270  0.746599  1
  Ho  Ho5  1  0.253266  0.746678  0.253610  1
  Ho  Ho6  1  0.253266  0.746678  0.746390  1
  Ho  Ho7  1  0.746970  0.253270  0.253401  1
  Ge  Ge8  1  0.000000  0.000526  0.000000  1
  Pd  Pd9  1  0.000000  0.711442  0.000000  1
  Pd  Pd10  1  0.000000  0.999807  0.289541  1
  Pd  Pd11  1  0.000000  0.999807  0.710459  1
  Pt  Pt12  1  0.259215  0.499882  0.000000  1
  Pt  Pt13  1  0.740785  0.499882  0.000000  1
  Pt  Pt14  1  0.000000  0.258942  0.500000  1
  Pt  Pt15  1  0.500000  0.259275  0.000000  1
  Pt  Pt16  1  0.000000  0.740722  0.500000  1
  Pt  Pt17  1  0.500000  0.740290  0.000000  1
  Pt  Pt18  1  0.500000  0.999974  0.259578  1
  Pt  Pt19  1  0.259072  0.999959  0.500000  1
  Pt  Pt20  1  0.500000  0.999974  0.740422  1
  Pt  Pt21  1  0.740928  0.999959  0.500000  1
  Pt  Pt22  1  0.000000  0.499965  0.259348  1
  Pt  Pt23  1  0.000000  0.499965  0.740652  1
  Pt  Pt24  1  0.252502  0.500054  0.500000  1
  Pt  Pt25  1  0.747498  0.500054  0.500000  1
  Pt  Pt26  1  0.500000  0.252666  0.500000  1
  Pt  Pt27  1  0.500000  0.747429  0.500000  1
  Pt  Pt28  1  0.500000  0.500058  0.252723  1
  Pt  Pt29  1  0.500000  0.500058  0.747277  1
  Pt  Pt30  1  0.288890  0.999644  0.000000  1
  Pt  Pt31  1  0.711110  0.999644  0.000000  1
  Pt  Pt32  1  0.000000  0.290231  0.000000  1
