# generated using pymatgen
data_DyMn2(Ga3Fe2)2
_symmetry_space_group_name_H-M   'P 1'
_cell_length_a   5.03833554
_cell_length_b   6.61487057
_cell_length_c   6.61487028
_cell_angle_alpha   79.90456285
_cell_angle_beta   67.61466343
_cell_angle_gamma   67.61465077
_symmetry_Int_Tables_number   1
_chemical_formula_structural   DyMn2(Ga3Fe2)2
_chemical_formula_sum   'Dy1 Mn2 Ga6 Fe4'
_cell_volume   188.36765084
_cell_formula_units_Z   1
loop_
 _symmetry_equiv_pos_site_id
 _symmetry_equiv_pos_as_xyz
  1  'x, y, z'
loop_
 _atom_site_type_symbol
 _atom_site_label
 _atom_site_symmetry_multiplicity
 _atom_site_fract_x
 _atom_site_fract_y
 _atom_site_fract_z
 _atom_site_occupancy
  Dy  Dy0  1  0.000000  0.000000  0.000000  1
  Mn  Mn1  1  0.500000  0.241409  0.758591  1
  Mn  Mn2  1  0.500000  0.758591  0.241409  1
  Ga  Ga3  1  0.000000  0.668817  0.331183  1
  Ga  Ga4  1  0.000000  0.331183  0.668817  1
  Ga  Ga5  1  0.344029  0.655971  0.655971  1
  Ga  Ga6  1  0.655971  0.344029  0.344029  1
  Ga  Ga7  1  0.315318  0.184682  0.184682  1
  Ga  Ga8  1  0.684682  0.815318  0.815318  1
  Fe  Fe9  1  0.000000  0.500000  0.000000  1
  Fe  Fe10  1  0.500000  0.500000  0.000000  1
  Fe  Fe11  1  0.000000  0.000000  0.500000  1
  Fe  Fe12  1  0.500000  0.000000  0.500000  1
