# generated using pymatgen
data_Tm2Ga2CoRh
_symmetry_space_group_name_H-M   'P 1'
_cell_length_a   4.17941300
_cell_length_b   6.67995800
_cell_length_c   7.69379100
_cell_angle_alpha   90.00000000
_cell_angle_beta   90.00000000
_cell_angle_gamma   90.00000000
_symmetry_Int_Tables_number   1
_chemical_formula_structural   Tm2Ga2CoRh
_chemical_formula_sum   'Tm4 Ga4 Co2 Rh2'
_cell_volume   214.79759070
_cell_formula_units_Z   2
loop_
 _symmetry_equiv_pos_site_id
 _symmetry_equiv_pos_as_xyz
  1  'x, y, z'
loop_
 _atom_site_type_symbol
 _atom_site_label
 _atom_site_symmetry_multiplicity
 _atom_site_fract_x
 _atom_site_fract_y
 _atom_site_fract_z
 _atom_site_occupancy
  Tm  Tm0  1  0.250000  0.973306  0.314547  1
  Tm  Tm1  1  0.750000  0.531565  0.816445  1
  Tm  Tm2  1  0.250000  0.473306  0.185453  1
  Tm  Tm3  1  0.750000  0.031565  0.683555  1
  Ga  Ga4  1  0.750000  0.647445  0.426212  1
  Ga  Ga5  1  0.750000  0.147445  0.073788  1
  Ga  Ga6  1  0.250000  0.343946  0.555235  1
  Ga  Ga7  1  0.250000  0.843946  0.944765  1
  Co  Co8  1  0.750000  0.770020  0.118836  1
  Co  Co9  1  0.750000  0.270020  0.381164  1
  Rh  Rh10  1  0.250000  0.233718  0.883416  1
  Rh  Rh11  1  0.250000  0.733718  0.616584  1
