# generated using pymatgen
data_Tb16ZnIn(AgRh2)2
_symmetry_space_group_name_H-M   'P 1'
_cell_length_a   9.57837671
_cell_length_b   9.59356092
_cell_length_c   9.59356151
_cell_angle_alpha   60.05569067
_cell_angle_beta   60.05207099
_cell_angle_gamma   60.05207513
_symmetry_Int_Tables_number   1
_chemical_formula_structural   Tb16ZnIn(AgRh2)2
_chemical_formula_sum   'Tb16 Zn1 In1 Ag2 Rh4'
_cell_volume   624.10941903
_cell_formula_units_Z   1
loop_
 _symmetry_equiv_pos_site_id
 _symmetry_equiv_pos_as_xyz
  1  'x, y, z'
loop_
 _atom_site_type_symbol
 _atom_site_label
 _atom_site_symmetry_multiplicity
 _atom_site_fract_x
 _atom_site_fract_y
 _atom_site_fract_z
 _atom_site_occupancy
  Tb  Tb0  1  0.810804  0.808906  0.190715  1
  Tb  Tb1  1  0.810804  0.190715  0.808906  1
  Tb  Tb2  1  0.188673  0.189927  0.811695  1
  Tb  Tb3  1  0.647828  0.055448  0.646830  1
  Tb  Tb4  1  0.067041  0.060653  0.436540  1
  Tb  Tb5  1  0.436809  0.435562  0.065364  1
  Tb  Tb6  1  0.649370  0.649644  0.649644  1
  Tb  Tb7  1  0.808825  0.191018  0.191018  1
  Tb  Tb8  1  0.188849  0.811669  0.811669  1
  Tb  Tb9  1  0.057237  0.646423  0.646423  1
  Tb  Tb10  1  0.437402  0.062877  0.062877  1
  Tb  Tb11  1  0.436809  0.065364  0.435562  1
  Tb  Tb12  1  0.067041  0.436540  0.060653  1
  Tb  Tb13  1  0.647828  0.646830  0.055448  1
  Tb  Tb14  1  0.188673  0.811695  0.189927  1
  Tb  Tb15  1  0.069281  0.435441  0.435441  1
  Zn  Zn16  1  0.417053  0.418232  0.418232  1
  In  In17  1  0.737369  0.420902  0.420902  1
  Ag  Ag18  1  0.416845  0.417397  0.745329  1
  Ag  Ag19  1  0.416845  0.745329  0.417397  1
  Rh  Rh20  1  0.856720  0.428068  0.857202  1
  Rh  Rh21  1  0.856823  0.857193  0.857193  1
  Rh  Rh22  1  0.856720  0.857202  0.428068  1
  Rh  Rh23  1  0.428350  0.856965  0.856965  1
