# generated using pymatgen
data_Hf3NbAl2Cu
_symmetry_space_group_name_H-M   'P 1'
_cell_length_a   5.21785518
_cell_length_b   5.29562954
_cell_length_c   5.27690700
_cell_angle_alpha   90.00000000
_cell_angle_beta   90.00000000
_cell_angle_gamma   120.49431838
_symmetry_Int_Tables_number   1
_chemical_formula_structural   Hf3NbAl2Cu
_chemical_formula_sum   'Hf3 Nb1 Al2 Cu1'
_cell_volume   125.64199127
_cell_formula_units_Z   1
loop_
 _symmetry_equiv_pos_site_id
 _symmetry_equiv_pos_as_xyz
  1  'x, y, z'
loop_
 _atom_site_type_symbol
 _atom_site_label
 _atom_site_symmetry_multiplicity
 _atom_site_fract_x
 _atom_site_fract_y
 _atom_site_fract_z
 _atom_site_occupancy
  Hf  Hf0  1  0.000000  0.000000  0.740254  1
  Hf  Hf1  1  0.335813  0.667907  0.495105  1
  Hf  Hf2  1  0.664187  0.332093  0.495105  1
  Nb  Nb3  1  0.000000  0.000000  0.258693  1
  Al  Al4  1  0.500000  0.000000  0.004072  1
  Al  Al5  1  0.500000  0.500000  0.004072  1
  Cu  Cu6  1  0.000000  0.500000  0.002699  1
