# generated using pymatgen
data_LaPr3SiI6
_symmetry_space_group_name_H-M   'P 1'
_cell_length_a   4.39737900
_cell_length_b   14.57424973
_cell_length_c   15.38969784
_cell_angle_alpha   89.80682729
_cell_angle_beta   90.00000000
_cell_angle_gamma   90.00000000
_symmetry_Int_Tables_number   1
_chemical_formula_structural   LaPr3SiI6
_chemical_formula_sum   'La2 Pr6 Si2 I12'
_cell_volume   986.29704005
_cell_formula_units_Z   2
loop_
 _symmetry_equiv_pos_site_id
 _symmetry_equiv_pos_as_xyz
  1  'x, y, z'
loop_
 _atom_site_type_symbol
 _atom_site_label
 _atom_site_symmetry_multiplicity
 _atom_site_fract_x
 _atom_site_fract_y
 _atom_site_fract_z
 _atom_site_occupancy
  La  La0  1  0.500000  0.616701  0.156079  1
  La  La1  1  0.500000  0.383299  0.843921  1
  Pr  Pr2  1  0.500000  0.115137  0.345920  1
  Pr  Pr3  1  0.500000  0.884863  0.654080  1
  Pr  Pr4  1  0.000000  0.112603  0.575294  1
  Pr  Pr5  1  0.000000  0.887397  0.424706  1
  Pr  Pr6  1  0.000000  0.613354  0.924097  1
  Pr  Pr7  1  0.000000  0.386646  0.075903  1
  Si  Si8  1  0.500000  0.000000  0.500000  1
  Si  Si9  1  0.500000  0.500000  0.000000  1
  I  I10  1  0.500000  0.244132  0.161981  1
  I  I11  1  0.500000  0.755868  0.838019  1
  I  I12  1  0.500000  0.744728  0.339075  1
  I  I13  1  0.500000  0.255272  0.660925  1
  I  I14  1  0.000000  0.258106  0.414241  1
  I  I15  1  0.000000  0.741894  0.585759  1
  I  I16  1  0.000000  0.760609  0.083960  1
  I  I17  1  0.000000  0.239391  0.916040  1
  I  I18  1  0.000000  0.998933  0.241017  1
  I  I19  1  0.000000  0.001067  0.758983  1
  I  I20  1  0.000000  0.496361  0.260555  1
  I  I21  1  0.000000  0.503639  0.739445  1
