# generated using pymatgen
data_Zr4Ni9IrPt2
_symmetry_space_group_name_H-M   'P 1'
_cell_length_a   5.41135953
_cell_length_b   5.41136033
_cell_length_c   8.78102256
_cell_angle_alpha   89.62125746
_cell_angle_beta   90.37874452
_cell_angle_gamma   119.37098117
_symmetry_Int_Tables_number   1
_chemical_formula_structural   Zr4Ni9IrPt2
_chemical_formula_sum   'Zr4 Ni9 Ir1 Pt2'
_cell_volume   224.07521517
_cell_formula_units_Z   1
loop_
 _symmetry_equiv_pos_site_id
 _symmetry_equiv_pos_as_xyz
  1  'x, y, z'
loop_
 _atom_site_type_symbol
 _atom_site_label
 _atom_site_symmetry_multiplicity
 _atom_site_fract_x
 _atom_site_fract_y
 _atom_site_fract_z
 _atom_site_occupancy
  Zr  Zr0  1  0.997948  0.002052  0.493706  1
  Zr  Zr1  1  0.998255  0.001745  0.006623  1
  Zr  Zr2  1  0.327195  0.672805  0.253033  1
  Zr  Zr3  1  0.673028  0.326972  0.746625  1
  Ni  Ni4  1  0.503717  0.003220  0.496569  1
  Ni  Ni5  1  0.996780  0.496283  0.496569  1
  Ni  Ni6  1  0.504301  0.003461  0.003770  1
  Ni  Ni7  1  0.996539  0.495699  0.003770  1
  Ni  Ni8  1  0.822897  0.642388  0.250190  1
  Ni  Ni9  1  0.357612  0.177103  0.250190  1
  Ni  Ni10  1  0.819074  0.180926  0.248910  1
  Ni  Ni11  1  0.175172  0.347446  0.749647  1
  Ni  Ni12  1  0.652554  0.824828  0.749647  1
  Ir  Ir13  1  0.499937  0.500063  0.498690  1
  Pt  Pt14  1  0.499855  0.500145  0.000714  1
  Pt  Pt15  1  0.175135  0.824865  0.751350  1
