# generated using pymatgen
data_LiAc2MgPt2
_symmetry_space_group_name_H-M   'P 1'
_cell_length_a   4.30222200
_cell_length_b   7.40983800
_cell_length_c   9.08117800
_cell_angle_alpha   90.00000000
_cell_angle_beta   90.00000000
_cell_angle_gamma   90.00000000
_symmetry_Int_Tables_number   1
_chemical_formula_structural   LiAc2MgPt2
_chemical_formula_sum   'Li2 Ac4 Mg2 Pt4'
_cell_volume   289.49676717
_cell_formula_units_Z   2
loop_
 _symmetry_equiv_pos_site_id
 _symmetry_equiv_pos_as_xyz
  1  'x, y, z'
loop_
 _atom_site_type_symbol
 _atom_site_label
 _atom_site_symmetry_multiplicity
 _atom_site_fract_x
 _atom_site_fract_y
 _atom_site_fract_z
 _atom_site_occupancy
  Li  Li0  1  0.250000  0.125855  0.944962  1
  Li  Li1  1  0.250000  0.625855  0.555038  1
  Ac  Ac2  1  0.250000  0.041769  0.318509  1
  Ac  Ac3  1  0.250000  0.541769  0.181491  1
  Ac  Ac4  1  0.750000  0.952639  0.682788  1
  Ac  Ac5  1  0.750000  0.452639  0.817212  1
  Mg  Mg6  1  0.750000  0.879953  0.053246  1
  Mg  Mg7  1  0.750000  0.379953  0.446754  1
  Pt  Pt8  1  0.250000  0.254372  0.614633  1
  Pt  Pt9  1  0.250000  0.754372  0.885367  1
  Pt  Pt10  1  0.750000  0.745411  0.373465  1
  Pt  Pt11  1  0.750000  0.245411  0.126535  1
