# generated using pymatgen
data_SrAc7(SiN3)4
_symmetry_space_group_name_H-M   'P 1'
_cell_length_a   6.33835294
_cell_length_b   6.33835250
_cell_length_c   12.32315380
_cell_angle_alpha   90.49987781
_cell_angle_beta   89.50012319
_cell_angle_gamma   127.50801664
_symmetry_Int_Tables_number   1
_chemical_formula_structural   SrAc7(SiN3)4
_chemical_formula_sum   'Sr1 Ac7 Si4 N12'
_cell_volume   392.71197950
_cell_formula_units_Z   1
loop_
 _symmetry_equiv_pos_site_id
 _symmetry_equiv_pos_as_xyz
  1  'x, y, z'
loop_
 _atom_site_type_symbol
 _atom_site_label
 _atom_site_symmetry_multiplicity
 _atom_site_fract_x
 _atom_site_fract_y
 _atom_site_fract_z
 _atom_site_occupancy
  Sr  Sr0  1  0.056859  0.943141  0.856909  1
  Ac  Ac1  1  0.943196  0.056804  0.142025  1
  Ac  Ac2  1  0.440582  0.559418  0.360584  1
  Ac  Ac3  1  0.556492  0.443508  0.641631  1
  Ac  Ac4  1  0.640630  0.359370  0.074062  1
  Ac  Ac5  1  0.358805  0.641195  0.922683  1
  Ac  Ac6  1  0.860099  0.139901  0.571952  1
  Ac  Ac7  1  0.139373  0.860627  0.428678  1
  Si  Si8  1  0.740358  0.259642  0.832395  1
  Si  Si9  1  0.259523  0.740477  0.167259  1
  Si  Si10  1  0.758546  0.241454  0.330976  1
  Si  Si11  1  0.240468  0.759532  0.670844  1
  N  N12  1  0.585613  0.414387  0.862275  1
  N  N13  1  0.414451  0.585549  0.135696  1
  N  N14  1  0.913081  0.086919  0.357162  1
  N  N15  1  0.087817  0.912183  0.641136  1
  N  N16  1  0.524293  0.975274  0.751642  1
  N  N17  1  0.978129  0.519883  0.248210  1
  N  N18  1  0.480117  0.021871  0.248210  1
  N  N19  1  0.024726  0.475707  0.751642  1
  N  N20  1  0.833376  0.166624  0.947240  1
  N  N21  1  0.164248  0.835752  0.055152  1
  N  N22  1  0.662617  0.337383  0.444721  1
  N  N23  1  0.336600  0.663400  0.556916  1
