# generated using pymatgen
data_Pr4NdBi3C
_symmetry_space_group_name_H-M   'P 1'
_cell_length_a   9.51413310
_cell_length_b   9.51413392
_cell_length_c   6.77899300
_cell_angle_alpha   90.00000000
_cell_angle_beta   90.00000000
_cell_angle_gamma   119.98347012
_symmetry_Int_Tables_number   1
_chemical_formula_structural   Pr4NdBi3C
_chemical_formula_sum   'Pr8 Nd2 Bi6 C2'
_cell_volume   531.50409464
_cell_formula_units_Z   2
loop_
 _symmetry_equiv_pos_site_id
 _symmetry_equiv_pos_as_xyz
  1  'x, y, z'
loop_
 _atom_site_type_symbol
 _atom_site_label
 _atom_site_symmetry_multiplicity
 _atom_site_fract_x
 _atom_site_fract_y
 _atom_site_fract_z
 _atom_site_occupancy
  Pr  Pr0  1  0.666703  0.333329  0.999969  1
  Pr  Pr1  1  0.333329  0.666703  0.999969  1
  Pr  Pr2  1  0.333329  0.666703  0.500031  1
  Pr  Pr3  1  0.666703  0.333329  0.500031  1
  Pr  Pr4  1  0.787586  0.787586  0.749999  1
  Pr  Pr5  1  0.212308  0.999879  0.750000  1
  Pr  Pr6  1  0.999879  0.212308  0.750000  1
  Pr  Pr7  1  0.212141  0.212141  0.250000  1
  Nd  Nd8  1  0.789615  0.999773  0.250000  1
  Nd  Nd9  1  0.999773  0.789615  0.250000  1
  Bi  Bi10  1  0.401766  0.401766  0.750000  1
  Bi  Bi11  1  0.598188  0.000073  0.750000  1
  Bi  Bi12  1  0.000073  0.598188  0.750000  1
  Bi  Bi13  1  0.599154  0.599154  0.250000  1
  Bi  Bi14  1  0.401526  0.999498  0.250000  1
  Bi  Bi15  1  0.999498  0.401526  0.250000  1
  C  C16  1  0.999214  0.999214  0.001559  1
  C  C17  1  0.999215  0.999215  0.498441  1
