# generated using pymatgen
data_Ce3Dy13(CdRu)4
_symmetry_space_group_name_H-M   'P 1'
_cell_length_a   9.67368169
_cell_length_b   9.67368193
_cell_length_c   9.61550626
_cell_angle_alpha   59.79965859
_cell_angle_beta   59.79965571
_cell_angle_gamma   59.99999617
_symmetry_Int_Tables_number   1
_chemical_formula_structural   Ce3Dy13(CdRu)4
_chemical_formula_sum   'Ce3 Dy13 Cd4 Ru4'
_cell_volume   634.33541685
_cell_formula_units_Z   1
loop_
 _symmetry_equiv_pos_site_id
 _symmetry_equiv_pos_as_xyz
  1  'x, y, z'
loop_
 _atom_site_type_symbol
 _atom_site_label
 _atom_site_symmetry_multiplicity
 _atom_site_fract_x
 _atom_site_fract_y
 _atom_site_fract_z
 _atom_site_occupancy
  Ce  Ce0  1  0.345947  0.966164  0.341943  1
  Ce  Ce1  1  0.966164  0.345947  0.341943  1
  Ce  Ce2  1  0.345947  0.345947  0.341943  1
  Dy  Dy3  1  0.562805  0.562805  0.937421  1
  Dy  Dy4  1  0.936968  0.562805  0.937421  1
  Dy  Dy5  1  0.562805  0.936968  0.937421  1
  Dy  Dy6  1  0.937396  0.937396  0.562447  1
  Dy  Dy7  1  0.562761  0.937396  0.562447  1
  Dy  Dy8  1  0.937396  0.562761  0.562447  1
  Dy  Dy9  1  0.188456  0.188456  0.812575  1
  Dy  Dy10  1  0.810512  0.188456  0.812575  1
  Dy  Dy11  1  0.188455  0.810513  0.812575  1
  Dy  Dy12  1  0.811002  0.811003  0.188740  1
  Dy  Dy13  1  0.189256  0.811002  0.188739  1
  Dy  Dy14  1  0.811002  0.189257  0.188740  1
  Dy  Dy15  1  0.350626  0.350626  0.948122  1
  Cd  Cd16  1  0.580656  0.580656  0.258031  1
  Cd  Cd17  1  0.580703  0.258221  0.580372  1
  Cd  Cd18  1  0.258221  0.580703  0.580372  1
  Cd  Cd19  1  0.580703  0.580703  0.580372  1
  Ru  Ru20  1  0.144760  0.144760  0.565720  1
  Ru  Ru21  1  0.139365  0.568726  0.152544  1
  Ru  Ru22  1  0.568726  0.139365  0.152544  1
  Ru  Ru23  1  0.139365  0.139365  0.152544  1
