# generated using pymatgen
data_Pr14Nd2Cd4Ir3Os
_symmetry_space_group_name_H-M   'P 1'
_cell_length_a   10.05228270
_cell_length_b   10.05228307
_cell_length_c   10.05342138
_cell_angle_alpha   59.73227853
_cell_angle_beta   59.73227498
_cell_angle_gamma   59.71128816
_symmetry_Int_Tables_number   1
_chemical_formula_structural   Pr14Nd2Cd4Ir3Os
_chemical_formula_sum   'Pr14 Nd2 Cd4 Ir3 Os1'
_cell_volume   713.85514132
_cell_formula_units_Z   1
loop_
 _symmetry_equiv_pos_site_id
 _symmetry_equiv_pos_as_xyz
  1  'x, y, z'
loop_
 _atom_site_type_symbol
 _atom_site_label
 _atom_site_symmetry_multiplicity
 _atom_site_fract_x
 _atom_site_fract_y
 _atom_site_fract_z
 _atom_site_occupancy
  Pr  Pr0  1  0.346943  0.957566  0.346776  1
  Pr  Pr1  1  0.957566  0.346943  0.346776  1
  Pr  Pr2  1  0.810692  0.190473  0.190412  1
  Pr  Pr3  1  0.190667  0.808793  0.809009  1
  Pr  Pr4  1  0.190473  0.810692  0.190412  1
  Pr  Pr5  1  0.808793  0.190667  0.809009  1
  Pr  Pr6  1  0.190438  0.190438  0.810880  1
  Pr  Pr7  1  0.808899  0.808899  0.190632  1
  Pr  Pr8  1  0.938800  0.561339  0.561362  1
  Pr  Pr9  1  0.558017  0.940237  0.940224  1
  Pr  Pr10  1  0.561339  0.938800  0.561362  1
  Pr  Pr11  1  0.940237  0.558017  0.940224  1
  Pr  Pr12  1  0.561255  0.561255  0.938912  1
  Pr  Pr13  1  0.940005  0.940005  0.558240  1
  Nd  Nd14  1  0.347637  0.347637  0.347342  1
  Nd  Nd15  1  0.346734  0.346734  0.958021  1
  Cd  Cd16  1  0.579247  0.579247  0.579621  1
  Cd  Cd17  1  0.579433  0.579433  0.260556  1
  Cd  Cd18  1  0.579272  0.260673  0.579624  1
  Cd  Cd19  1  0.260673  0.579272  0.579624  1
  Ir  Ir20  1  0.142563  0.142563  0.576835  1
  Ir  Ir21  1  0.142812  0.576703  0.142025  1
  Ir  Ir22  1  0.576703  0.142812  0.142025  1
  Os  Os23  1  0.140801  0.140801  0.140097  1
