# generated using pymatgen
data_Hf5ZnBiPb2
_symmetry_space_group_name_H-M   'P 1'
_cell_length_a   8.78007819
_cell_length_b   8.78050908
_cell_length_c   5.87857800
_cell_angle_alpha   90.00000000
_cell_angle_beta   90.00000000
_cell_angle_gamma   120.00162931
_symmetry_Int_Tables_number   1
_chemical_formula_structural   Hf5ZnBiPb2
_chemical_formula_sum   'Hf10 Zn2 Bi2 Pb4'
_cell_volume   392.47668808
_cell_formula_units_Z   2
loop_
 _symmetry_equiv_pos_site_id
 _symmetry_equiv_pos_as_xyz
  1  'x, y, z'
loop_
 _atom_site_type_symbol
 _atom_site_label
 _atom_site_symmetry_multiplicity
 _atom_site_fract_x
 _atom_site_fract_y
 _atom_site_fract_z
 _atom_site_occupancy
  Hf  Hf0  1  0.332461  0.666231  0.000000  1
  Hf  Hf1  1  0.666771  0.333385  0.500000  1
  Hf  Hf2  1  0.666771  0.333385  0.000000  1
  Hf  Hf3  1  0.332461  0.666231  0.500000  1
  Hf  Hf4  1  0.264365  0.999860  0.250000  1
  Hf  Hf5  1  0.264365  0.264505  0.750000  1
  Hf  Hf6  1  0.001728  0.735557  0.750000  1
  Hf  Hf7  1  0.001728  0.266171  0.250000  1
  Hf  Hf8  1  0.735237  0.733592  0.250000  1
  Hf  Hf9  1  0.735237  0.001645  0.750000  1
  Zn  Zn10  1  0.000549  0.000275  0.000000  1
  Zn  Zn11  1  0.000549  0.000275  0.500000  1
  Bi  Bi12  1  0.614107  0.000284  0.250000  1
  Bi  Bi13  1  0.614107  0.613825  0.750000  1
  Pb  Pb14  1  0.000089  0.385790  0.750000  1
  Pb  Pb15  1  0.000089  0.614301  0.250000  1
  Pb  Pb16  1  0.384692  0.384622  0.250000  1
  Pb  Pb17  1  0.384692  0.000069  0.750000  1
