# generated using pymatgen
data_Fe2CoNi(BW)4
_symmetry_space_group_name_H-M   'P 1'
_cell_length_a   5.74148294
_cell_length_b   3.26091200
_cell_length_c   6.67022624
_cell_angle_alpha   90.00000000
_cell_angle_beta   89.97263362
_cell_angle_gamma   90.00000000
_symmetry_Int_Tables_number   1
_chemical_formula_structural   Fe2CoNi(BW)4
_chemical_formula_sum   'Fe2 Co1 Ni1 B4 W4'
_cell_volume   124.88310043
_cell_formula_units_Z   1
loop_
 _symmetry_equiv_pos_site_id
 _symmetry_equiv_pos_as_xyz
  1  'x, y, z'
loop_
 _atom_site_type_symbol
 _atom_site_label
 _atom_site_symmetry_multiplicity
 _atom_site_fract_x
 _atom_site_fract_y
 _atom_site_fract_z
 _atom_site_occupancy
  Fe  Fe0  1  0.642922  0.250000  0.058779  1
  Fe  Fe1  1  0.358083  0.750000  0.942391  1
  Co  Co2  1  0.857896  0.750000  0.556812  1
  Ni  Ni3  1  0.144207  0.250000  0.442565  1
  B  B4  1  0.269319  0.250000  0.125071  1
  B  B5  1  0.765431  0.250000  0.373202  1
  B  B6  1  0.730209  0.750000  0.871829  1
  B  B7  1  0.231538  0.750000  0.630790  1
  W  W8  1  0.028781  0.250000  0.828256  1
  W  W9  1  0.527637  0.250000  0.676680  1
  W  W10  1  0.969196  0.750000  0.171547  1
  W  W11  1  0.474783  0.750000  0.322080  1
