# generated using pymatgen
data_Zr2SnRh5
_symmetry_space_group_name_H-M   'P 1'
_cell_length_a   5.66736593
_cell_length_b   5.66736583
_cell_length_c   8.28843100
_cell_angle_alpha   90.00000000
_cell_angle_beta   90.00000000
_cell_angle_gamma   96.66022211
_symmetry_Int_Tables_number   1
_chemical_formula_structural   Zr2SnRh5
_chemical_formula_sum   'Zr4 Sn2 Rh10'
_cell_volume   264.41982816
_cell_formula_units_Z   2
loop_
 _symmetry_equiv_pos_site_id
 _symmetry_equiv_pos_as_xyz
  1  'x, y, z'
loop_
 _atom_site_type_symbol
 _atom_site_label
 _atom_site_symmetry_multiplicity
 _atom_site_fract_x
 _atom_site_fract_y
 _atom_site_fract_z
 _atom_site_occupancy
  Zr  Zr0  1  0.782308  0.217692  0.500000  1
  Zr  Zr1  1  0.217692  0.782308  0.000000  1
  Zr  Zr2  1  0.217692  0.782308  0.500000  1
  Zr  Zr3  1  0.782308  0.217692  0.000000  1
  Sn  Sn4  1  0.502757  0.502757  0.750000  1
  Sn  Sn5  1  0.497243  0.497243  0.250000  1
  Rh  Rh6  1  0.729981  0.729981  0.001665  1
  Rh  Rh7  1  0.729981  0.729981  0.498335  1
  Rh  Rh8  1  0.270019  0.270019  0.998335  1
  Rh  Rh9  1  0.270019  0.270019  0.501665  1
  Rh  Rh10  1  0.500165  0.000536  0.750000  1
  Rh  Rh11  1  0.499835  0.999464  0.250000  1
  Rh  Rh12  1  0.000304  0.000304  0.250000  1
  Rh  Rh13  1  0.999696  0.999696  0.750000  1
  Rh  Rh14  1  0.000536  0.500165  0.750000  1
  Rh  Rh15  1  0.999464  0.499835  0.250000  1
