# generated using pymatgen
data_SmTm4Mn2O12
_symmetry_space_group_name_H-M   'P 1'
_cell_length_a   6.78209390
_cell_length_b   6.78209278
_cell_length_c   7.20475302
_cell_angle_alpha   74.62581759
_cell_angle_beta   74.62581778
_cell_angle_gamma   49.79419838
_symmetry_Int_Tables_number   1
_chemical_formula_structural   SmTm4Mn2O12
_chemical_formula_sum   'Sm1 Tm4 Mn2 O12'
_cell_volume   242.04448592
_cell_formula_units_Z   1
loop_
 _symmetry_equiv_pos_site_id
 _symmetry_equiv_pos_as_xyz
  1  'x, y, z'
loop_
 _atom_site_type_symbol
 _atom_site_label
 _atom_site_symmetry_multiplicity
 _atom_site_fract_x
 _atom_site_fract_y
 _atom_site_fract_z
 _atom_site_occupancy
  Sm  Sm0  1  0.000000  0.000000  0.500000  1
  Tm  Tm1  1  0.305313  0.305313  0.356554  1
  Tm  Tm2  1  0.694687  0.694687  0.643446  1
  Tm  Tm3  1  0.694007  0.694007  0.163302  1
  Tm  Tm4  1  0.305993  0.305993  0.836698  1
  Mn  Mn5  1  0.753223  0.246777  0.000000  1
  Mn  Mn6  1  0.246777  0.753223  0.000000  1
  O  O7  1  0.096047  0.588402  0.578854  1
  O  O8  1  0.999533  0.999533  0.176520  1
  O  O9  1  0.411598  0.903953  0.421146  1
  O  O10  1  0.500235  0.500235  0.184301  1
  O  O11  1  0.099567  0.576097  0.080529  1
  O  O12  1  0.903953  0.411598  0.421146  1
  O  O13  1  0.000467  0.000467  0.823480  1
  O  O14  1  0.588402  0.096046  0.578854  1
  O  O15  1  0.499765  0.499765  0.815699  1
  O  O16  1  0.576097  0.099567  0.080529  1
  O  O17  1  0.423903  0.900433  0.919471  1
  O  O18  1  0.900433  0.423903  0.919471  1
