# generated using pymatgen
data_Tb2Al9Pd2Ru
_symmetry_space_group_name_H-M   'P 1'
_cell_length_a   7.61223511
_cell_length_b   7.61223399
_cell_length_c   9.51305700
_cell_angle_alpha   90.00000000
_cell_angle_beta   90.00000000
_cell_angle_gamma   119.43796002
_symmetry_Int_Tables_number   1
_chemical_formula_structural   Tb2Al9Pd2Ru
_chemical_formula_sum   'Tb4 Al18 Pd4 Ru2'
_cell_volume   480.07259969
_cell_formula_units_Z   2
loop_
 _symmetry_equiv_pos_site_id
 _symmetry_equiv_pos_as_xyz
  1  'x, y, z'
loop_
 _atom_site_type_symbol
 _atom_site_label
 _atom_site_symmetry_multiplicity
 _atom_site_fract_x
 _atom_site_fract_y
 _atom_site_fract_z
 _atom_site_occupancy
  Tb  Tb0  1  0.994836  0.669386  0.250000  1
  Tb  Tb1  1  0.005164  0.330614  0.750000  1
  Tb  Tb2  1  0.669386  0.994837  0.250000  1
  Tb  Tb3  1  0.330614  0.005163  0.750000  1
  Al  Al4  1  0.124615  0.124615  0.250000  1
  Al  Al5  1  0.875385  0.875385  0.750000  1
  Al  Al6  1  0.000580  0.329360  0.075783  1
  Al  Al7  1  0.999420  0.670640  0.924217  1
  Al  Al8  1  0.999420  0.670640  0.575783  1
  Al  Al9  1  0.329360  0.000580  0.424217  1
  Al  Al10  1  0.000580  0.329360  0.424217  1
  Al  Al11  1  0.670640  0.999420  0.575783  1
  Al  Al12  1  0.670640  0.999420  0.924217  1
  Al  Al13  1  0.329360  0.000580  0.075783  1
  Al  Al14  1  0.328303  0.328303  0.554446  1
  Al  Al15  1  0.671697  0.671697  0.445554  1
  Al  Al16  1  0.671697  0.671697  0.054446  1
  Al  Al17  1  0.328303  0.328303  0.945554  1
  Al  Al18  1  0.341635  0.546546  0.250000  1
  Al  Al19  1  0.658365  0.453454  0.750000  1
  Al  Al20  1  0.546546  0.341635  0.250000  1
  Al  Al21  1  0.453454  0.658365  0.750000  1
  Pd  Pd22  1  0.672047  0.327953  0.000000  1
  Pd  Pd23  1  0.327953  0.672047  0.000000  1
  Pd  Pd24  1  0.327953  0.672047  0.500000  1
  Pd  Pd25  1  0.672047  0.327953  0.500000  1
  Ru  Ru26  1  0.000000  0.000000  0.000000  1
  Ru  Ru27  1  0.000000  0.000000  0.500000  1
