# generated using pymatgen
data_Nb12Ga9Cu3N4
_symmetry_space_group_name_H-M   'P 1'
_cell_length_a   8.25962523
_cell_length_b   8.26365069
_cell_length_c   8.26365000
_cell_angle_alpha   59.99999475
_cell_angle_beta   59.98387151
_cell_angle_gamma   59.98386919
_symmetry_Int_Tables_number   1
_chemical_formula_structural   Nb12Ga9Cu3N4
_chemical_formula_sum   'Nb12 Ga9 Cu3 N4'
_cell_volume   398.73399943
_cell_formula_units_Z   1
loop_
 _symmetry_equiv_pos_site_id
 _symmetry_equiv_pos_as_xyz
  1  'x, y, z'
loop_
 _atom_site_type_symbol
 _atom_site_label
 _atom_site_symmetry_multiplicity
 _atom_site_fract_x
 _atom_site_fract_y
 _atom_site_fract_z
 _atom_site_occupancy
  Nb  Nb0  1  0.816387  0.811966  0.185824  1
  Nb  Nb1  1  0.186897  0.194983  0.809060  1
  Nb  Nb2  1  0.816387  0.185824  0.811966  1
  Nb  Nb3  1  0.186897  0.809060  0.194983  1
  Nb  Nb4  1  0.186897  0.809060  0.809060  1
  Nb  Nb5  1  0.816387  0.185824  0.185824  1
  Nb  Nb6  1  0.433613  0.438034  0.064176  1
  Nb  Nb7  1  0.063103  0.055017  0.440940  1
  Nb  Nb8  1  0.433613  0.064176  0.438034  1
  Nb  Nb9  1  0.063103  0.440940  0.055017  1
  Nb  Nb10  1  0.063103  0.440940  0.440940  1
  Nb  Nb11  1  0.433613  0.064176  0.064176  1
  Ga  Ga12  1  0.125000  0.625000  0.625000  1
  Ga  Ga13  1  0.762996  0.412335  0.412335  1
  Ga  Ga14  1  0.426894  0.757741  0.407683  1
  Ga  Ga15  1  0.426894  0.407683  0.757741  1
  Ga  Ga16  1  0.426894  0.407683  0.407683  1
  Ga  Ga17  1  0.487004  0.837665  0.837665  1
  Ga  Ga18  1  0.823106  0.492259  0.842317  1
  Ga  Ga19  1  0.823106  0.842317  0.492259  1
  Ga  Ga20  1  0.823106  0.842317  0.842317  1
  Cu  Cu21  1  0.625000  0.125000  0.625000  1
  Cu  Cu22  1  0.625000  0.625000  0.125000  1
  Cu  Cu23  1  0.625000  0.625000  0.625000  1
  N  N24  1  0.625000  0.125000  0.125000  1
  N  N25  1  0.125000  0.625000  0.125000  1
  N  N26  1  0.125000  0.125000  0.625000  1
  N  N27  1  0.125000  0.125000  0.125000  1
