# generated using pymatgen
data_Nb6Zn6S
_symmetry_space_group_name_H-M   'P 1'
_cell_length_a   8.35155630
_cell_length_b   8.35155672
_cell_length_c   8.35155500
_cell_angle_alpha   60.00000286
_cell_angle_beta   60.00000118
_cell_angle_gamma   60.00000704
_symmetry_Int_Tables_number   1
_chemical_formula_structural   Nb6Zn6S
_chemical_formula_sum   'Nb12 Zn12 S2'
_cell_volume   411.89567542
_cell_formula_units_Z   2
loop_
 _symmetry_equiv_pos_site_id
 _symmetry_equiv_pos_as_xyz
  1  'x, y, z'
loop_
 _atom_site_type_symbol
 _atom_site_label
 _atom_site_symmetry_multiplicity
 _atom_site_fract_x
 _atom_site_fract_y
 _atom_site_fract_z
 _atom_site_occupancy
  Nb  Nb0  1  0.203766  0.796234  0.203766  1
  Nb  Nb1  1  0.453766  0.046234  0.453766  1
  Nb  Nb2  1  0.453766  0.046234  0.046234  1
  Nb  Nb3  1  0.453766  0.453766  0.046234  1
  Nb  Nb4  1  0.203766  0.796234  0.796234  1
  Nb  Nb5  1  0.046234  0.453766  0.046234  1
  Nb  Nb6  1  0.796234  0.796234  0.203766  1
  Nb  Nb7  1  0.046234  0.453766  0.453766  1
  Nb  Nb8  1  0.203766  0.203766  0.796234  1
  Nb  Nb9  1  0.796234  0.203766  0.203766  1
  Nb  Nb10  1  0.796234  0.203766  0.796234  1
  Nb  Nb11  1  0.046234  0.046234  0.453766  1
  Zn  Zn12  1  0.834299  0.497106  0.834299  1
  Zn  Zn13  1  0.415701  0.415701  0.752894  1
  Zn  Zn14  1  0.752894  0.415701  0.415701  1
  Zn  Zn15  1  0.415701  0.415701  0.415701  1
  Zn  Zn16  1  0.834299  0.834299  0.497106  1
  Zn  Zn17  1  0.415701  0.752894  0.415701  1
  Zn  Zn18  1  0.834299  0.834299  0.834299  1
  Zn  Zn19  1  0.497106  0.834299  0.834299  1
  Zn  Zn20  1  0.625000  0.125000  0.625000  1
  Zn  Zn21  1  0.625000  0.625000  0.125000  1
  Zn  Zn22  1  0.125000  0.625000  0.625000  1
  Zn  Zn23  1  0.625000  0.625000  0.625000  1
  S  S24  1  0.000000  0.000000  0.000000  1
  S  S25  1  0.250000  0.250000  0.250000  1
