# generated using pymatgen
data_LiDy19(IrPt)6
_symmetry_space_group_name_H-M   'P 1'
_cell_length_a   10.97649903
_cell_length_b   10.97116402
_cell_length_c   6.32047102
_cell_angle_alpha   90.00466210
_cell_angle_beta   89.99271384
_cell_angle_gamma   89.99457018
_symmetry_Int_Tables_number   1
_chemical_formula_structural   LiDy19(IrPt)6
_chemical_formula_sum   'Li1 Dy19 Ir6 Pt6'
_cell_volume   761.14252878
_cell_formula_units_Z   1
loop_
 _symmetry_equiv_pos_site_id
 _symmetry_equiv_pos_as_xyz
  1  'x, y, z'
loop_
 _atom_site_type_symbol
 _atom_site_label
 _atom_site_symmetry_multiplicity
 _atom_site_fract_x
 _atom_site_fract_y
 _atom_site_fract_z
 _atom_site_occupancy
  Li  Li0  1  0.000105  0.999661  0.500009  1
  Dy  Dy1  1  0.285873  0.085051  0.377320  1
  Dy  Dy2  1  0.295810  0.908420  0.877150  1
  Dy  Dy3  1  0.704065  0.088068  0.876810  1
  Dy  Dy4  1  0.714639  0.918542  0.376591  1
  Dy  Dy5  1  0.586507  0.793263  0.876232  1
  Dy  Dy6  1  0.580533  0.206722  0.374449  1
  Dy  Dy7  1  0.413840  0.793902  0.378938  1
  Dy  Dy8  1  0.408429  0.206114  0.881476  1
  Dy  Dy9  1  0.208160  0.417442  0.622452  1
  Dy  Dy10  1  0.208281  0.588655  0.120114  1
  Dy  Dy11  1  0.795684  0.410189  0.121968  1
  Dy  Dy12  1  0.795746  0.584371  0.624167  1
  Dy  Dy13  1  0.912814  0.704290  0.122942  1
  Dy  Dy14  1  0.919124  0.285303  0.622620  1
  Dy  Dy15  1  0.085685  0.714242  0.623412  1
  Dy  Dy16  1  0.092525  0.296011  0.123109  1
  Dy  Dy17  1  0.000001  0.000232  0.999994  1
  Dy  Dy18  1  0.496974  0.499291  0.999966  1
  Dy  Dy19  1  0.496950  0.500644  0.499984  1
  Ir  Ir20  1  0.345900  0.344345  0.253166  1
  Ir  Ir21  1  0.345206  0.654943  0.746974  1
  Ir  Ir22  1  0.500467  0.999678  0.125181  1
  Ir  Ir23  1  0.500569  0.000071  0.621013  1
  Ir  Ir24  1  0.999328  0.499976  0.874905  1
  Ir  Ir25  1  0.999222  0.499661  0.378968  1
  Pt  Pt26  1  0.846364  0.155067  0.245765  1
  Pt  Pt27  1  0.844511  0.846944  0.754848  1
  Pt  Pt28  1  0.154038  0.152489  0.753864  1
  Pt  Pt29  1  0.151966  0.845560  0.245491  1
  Pt  Pt30  1  0.655819  0.345722  0.747220  1
  Pt  Pt31  1  0.654863  0.655129  0.252905  1
