# generated using pymatgen
data_Tb3ErPd2(PbAu)2
_symmetry_space_group_name_H-M   'P 1'
_cell_length_a   8.07505888
_cell_length_b   8.03799560
_cell_length_c   3.65430500
_cell_angle_alpha   90.00000000
_cell_angle_beta   90.00000000
_cell_angle_gamma   90.32670508
_symmetry_Int_Tables_number   1
_chemical_formula_structural   Tb3ErPd2(PbAu)2
_chemical_formula_sum   'Tb3 Er1 Pd2 Pb2 Au2'
_cell_volume   237.18717039
_cell_formula_units_Z   1
loop_
 _symmetry_equiv_pos_site_id
 _symmetry_equiv_pos_as_xyz
  1  'x, y, z'
loop_
 _atom_site_type_symbol
 _atom_site_label
 _atom_site_symmetry_multiplicity
 _atom_site_fract_x
 _atom_site_fract_y
 _atom_site_fract_z
 _atom_site_occupancy
  Tb  Tb0  1  0.159591  0.328620  0.500000  1
  Tb  Tb1  1  0.823487  0.668481  0.500000  1
  Tb  Tb2  1  0.340831  0.829375  0.500000  1
  Er  Er3  1  0.675909  0.167926  0.500000  1
  Pd  Pd4  1  0.628039  0.877172  0.000000  1
  Pd  Pd5  1  0.871000  0.373292  0.000000  1
  Pb  Pb6  1  0.992893  0.001986  0.000000  1
  Pb  Pb7  1  0.506367  0.501023  0.000000  1
  Au  Au8  1  0.379870  0.126828  0.000000  1
  Au  Au9  1  0.122013  0.625296  0.000000  1
