# generated using pymatgen
data_ThCuF36
_symmetry_space_group_name_H-M   'P 1'
_cell_length_a   6.31745102
_cell_length_b   10.88393485
_cell_length_c   10.80179681
_cell_angle_alpha   91.93893588
_cell_angle_beta   100.01915972
_cell_angle_gamma   74.73519291
_symmetry_Int_Tables_number   1
_chemical_formula_structural   ThCuF36
_chemical_formula_sum   'Th1 Cu1 F36'
_cell_volume   705.53106665
_cell_formula_units_Z   1
loop_
 _symmetry_equiv_pos_site_id
 _symmetry_equiv_pos_as_xyz
  1  'x, y, z'
loop_
 _atom_site_type_symbol
 _atom_site_label
 _atom_site_symmetry_multiplicity
 _atom_site_fract_x
 _atom_site_fract_y
 _atom_site_fract_z
 _atom_site_occupancy
  Th  Th0  1  0.760356  0.827464  0.870685  1
  Cu  Cu1  1  0.294999  0.229200  0.168345  1
  F  F2  1  0.326478  0.404245  0.904844  1
  F  F3  1  0.622284  0.627371  0.120863  1
  F  F4  1  0.326126  0.274618  0.584859  1
  F  F5  1  0.673160  0.748894  0.429694  1
  F  F6  1  0.879747  0.222745  0.809142  1
  F  F7  1  0.163252  0.761271  0.187659  1
  F  F8  1  0.689411  0.832810  0.054436  1
  F  F9  1  0.282240  0.143618  0.023103  1
  F  F10  1  0.796799  0.606930  0.861480  1
  F  F11  1  0.158243  0.373059  0.089163  1
  F  F12  1  0.441134  0.443301  0.816347  1
  F  F13  1  0.582940  0.511426  0.157869  1
  F  F14  1  0.729443  0.697574  0.695273  1
  F  F15  1  0.314947  0.308139  0.310854  1
  F  F16  1  0.747846  0.973358  0.550435  1
  F  F17  1  0.231052  0.007423  0.460993  1
  F  F18  1  0.293835  0.176625  0.658328  1
  F  F19  1  0.688104  0.812759  0.319552  1
  F  F20  1  0.805876  0.089497  0.585006  1
  F  F21  1  0.170508  0.921265  0.367305  1
  F  F22  1  0.825546  0.005341  0.852880  1
  F  F23  1  0.250060  0.992267  0.119503  1
  F  F24  1  0.900965  0.349315  0.797165  1
  F  F25  1  0.109839  0.644336  0.205224  1
  F  F26  1  0.158294  0.750231  0.905890  1
  F  F27  1  0.834386  0.250824  0.099450  1
  F  F28  1  0.401195  0.941127  0.759762  1
  F  F29  1  0.427336  0.078762  0.248829  1
  F  F30  1  0.113658  0.754228  0.580219  1
  F  F31  1  0.904986  0.242903  0.415697  1
  F  F32  1  0.201631  0.634337  0.644517  1
  F  F33  1  0.822547  0.364597  0.354521  1
  F  F34  1  0.283963  0.845155  0.832825  1
  F  F35  1  0.750385  0.155099  0.146768  1
  F  F36  1  0.535253  0.445861  0.546054  1
  F  F37  1  0.501176  0.552024  0.464467  1
