# generated using pymatgen
data_Ca2ErUO6
_symmetry_space_group_name_H-M   'P 1'
_cell_length_a   6.77903355
_cell_length_b   6.77488105
_cell_length_c   6.74515221
_cell_angle_alpha   91.39878939
_cell_angle_beta   91.27115733
_cell_angle_gamma   91.28834159
_symmetry_Int_Tables_number   1
_chemical_formula_structural   Ca2ErUO6
_chemical_formula_sum   'Ca4 Er2 U2 O12'
_cell_volume   309.53488590
_cell_formula_units_Z   2
loop_
 _symmetry_equiv_pos_site_id
 _symmetry_equiv_pos_as_xyz
  1  'x, y, z'
loop_
 _atom_site_type_symbol
 _atom_site_label
 _atom_site_symmetry_multiplicity
 _atom_site_fract_x
 _atom_site_fract_y
 _atom_site_fract_z
 _atom_site_occupancy
  Ca  Ca0  1  0.552439  0.249471  0.059318  1
  Ca  Ca1  1  0.251975  0.058872  0.556252  1
  Ca  Ca2  1  0.061984  0.554875  0.249749  1
  Ca  Ca3  1  0.446094  0.749605  0.941003  1
  Er  Er4  1  0.937404  0.441934  0.748263  1
  Er  Er5  1  0.749429  0.938346  0.441441  1
  U  U6  1  0.997089  0.997381  0.997661  1
  U  U7  1  0.499281  0.498931  0.500505  1
  O  O8  1  0.291837  0.061495  0.921297  1
  O  O9  1  0.056114  0.922530  0.302760  1
  O  O10  1  0.924514  0.302293  0.052483  1
  O  O11  1  0.701201  0.933901  0.096177  1
  O  O12  1  0.920201  0.088048  0.689848  1
  O  O13  1  0.068958  0.692042  0.922673  1
  O  O14  1  0.194019  0.409648  0.549892  1
  O  O15  1  0.410644  0.539109  0.203212  1
  O  O16  1  0.475664  0.806736  0.586222  1
  O  O17  1  0.603642  0.459617  0.797702  1
  O  O18  1  0.808136  0.599675  0.471871  1
  O  O19  1  0.549373  0.195489  0.411671  1
