# generated using pymatgen
data_YPa(ZnIr)2
_symmetry_space_group_name_H-M   'P 1'
_cell_length_a   3.84565500
_cell_length_b   7.19129749
_cell_length_c   8.40232202
_cell_angle_alpha   91.05704542
_cell_angle_beta   90.00000000
_cell_angle_gamma   90.00000000
_symmetry_Int_Tables_number   1
_chemical_formula_structural   YPa(ZnIr)2
_chemical_formula_sum   'Y2 Pa2 Zn4 Ir4'
_cell_volume   232.32876537
_cell_formula_units_Z   2
loop_
 _symmetry_equiv_pos_site_id
 _symmetry_equiv_pos_as_xyz
  1  'x, y, z'
loop_
 _atom_site_type_symbol
 _atom_site_label
 _atom_site_symmetry_multiplicity
 _atom_site_fract_x
 _atom_site_fract_y
 _atom_site_fract_z
 _atom_site_occupancy
  Y  Y0  1  0.750000  0.942108  0.685973  1
  Y  Y1  1  0.250000  0.057892  0.314027  1
  Pa  Pa2  1  0.250000  0.553314  0.189926  1
  Pa  Pa3  1  0.750000  0.446686  0.810074  1
  Zn  Zn4  1  0.250000  0.630317  0.559666  1
  Zn  Zn5  1  0.750000  0.369683  0.440334  1
  Zn  Zn6  1  0.750000  0.882796  0.061658  1
  Zn  Zn7  1  0.250000  0.117204  0.938342  1
  Ir  Ir8  1  0.250000  0.719357  0.879592  1
  Ir  Ir9  1  0.750000  0.280643  0.120408  1
  Ir  Ir10  1  0.750000  0.749051  0.359385  1
  Ir  Ir11  1  0.250000  0.250949  0.640615  1
