# generated using pymatgen
data_ReTc3(IrOs)2
_symmetry_space_group_name_H-M   'P 1'
_cell_length_a   5.53488183
_cell_length_b   5.53488275
_cell_length_c   4.37447900
_cell_angle_alpha   90.00000000
_cell_angle_beta   90.00000000
_cell_angle_gamma   119.86510095
_symmetry_Int_Tables_number   1
_chemical_formula_structural   ReTc3(IrOs)2
_chemical_formula_sum   'Re1 Tc3 Ir2 Os2'
_cell_volume   116.21508216
_cell_formula_units_Z   1
loop_
 _symmetry_equiv_pos_site_id
 _symmetry_equiv_pos_as_xyz
  1  'x, y, z'
loop_
 _atom_site_type_symbol
 _atom_site_label
 _atom_site_symmetry_multiplicity
 _atom_site_fract_x
 _atom_site_fract_y
 _atom_site_fract_z
 _atom_site_occupancy
  Re  Re0  1  0.836227  0.163773  0.750000  1
  Tc  Tc1  1  0.160828  0.839172  0.250000  1
  Tc  Tc2  1  0.676644  0.835021  0.250000  1
  Tc  Tc3  1  0.164979  0.323356  0.250000  1
  Ir  Ir4  1  0.665823  0.334177  0.250000  1
  Ir  Ir5  1  0.331591  0.668409  0.750000  1
  Os  Os6  1  0.324930  0.161022  0.750000  1
  Os  Os7  1  0.838978  0.675070  0.750000  1
