# generated using pymatgen
data_Y3Mg2ZnIrPd2
_symmetry_space_group_name_H-M   'P 1'
_cell_length_a   7.38237977
_cell_length_b   7.44328528
_cell_length_c   3.96186600
_cell_angle_alpha   90.00000000
_cell_angle_beta   90.00000000
_cell_angle_gamma   119.91527329
_symmetry_Int_Tables_number   1
_chemical_formula_structural   Y3Mg2ZnIrPd2
_chemical_formula_sum   'Y3 Mg2 Zn1 Ir1 Pd2'
_cell_volume   188.69553044
_cell_formula_units_Z   1
loop_
 _symmetry_equiv_pos_site_id
 _symmetry_equiv_pos_as_xyz
  1  'x, y, z'
loop_
 _atom_site_type_symbol
 _atom_site_label
 _atom_site_symmetry_multiplicity
 _atom_site_fract_x
 _atom_site_fract_y
 _atom_site_fract_z
 _atom_site_occupancy
  Y  Y0  1  0.593091  0.596860  0.000000  1
  Y  Y1  1  0.393512  0.977105  0.000000  1
  Y  Y2  1  0.011549  0.434182  0.000000  1
  Mg  Mg3  1  0.245032  0.248474  0.500000  1
  Mg  Mg4  1  0.755818  0.004398  0.500000  1
  Zn  Zn5  1  0.001555  0.748543  0.500000  1
  Ir  Ir6  1  0.336064  0.666479  0.500000  1
  Pd  Pd7  1  0.999561  0.992731  0.000000  1
  Pd  Pd8  1  0.663819  0.331229  0.500000  1
