# generated using pymatgen
data_Er12Zn9Ga3C4
_symmetry_space_group_name_H-M   'P 1'
_cell_length_a   9.10682456
_cell_length_b   9.09436355
_cell_length_c   9.07891174
_cell_angle_alpha   59.81728362
_cell_angle_beta   59.89824210
_cell_angle_gamma   59.95466187
_symmetry_Int_Tables_number   1
_chemical_formula_structural   Er12Zn9Ga3C4
_chemical_formula_sum   'Er12 Zn9 Ga3 C4'
_cell_volume   530.36176688
_cell_formula_units_Z   1
loop_
 _symmetry_equiv_pos_site_id
 _symmetry_equiv_pos_as_xyz
  1  'x, y, z'
loop_
 _atom_site_type_symbol
 _atom_site_label
 _atom_site_symmetry_multiplicity
 _atom_site_fract_x
 _atom_site_fract_y
 _atom_site_fract_z
 _atom_site_occupancy
  Er  Er0  1  0.445688  0.446576  0.053868  1
  Er  Er1  1  0.053867  0.446576  0.053868  1
  Er  Er2  1  0.446223  0.053860  0.053693  1
  Er  Er3  1  0.054287  0.053949  0.446382  1
  Er  Er4  1  0.445382  0.053949  0.446382  1
  Er  Er5  1  0.054586  0.445443  0.445386  1
  Er  Er6  1  0.803529  0.803671  0.196161  1
  Er  Er7  1  0.196639  0.803671  0.196161  1
  Er  Er8  1  0.803758  0.196180  0.196304  1
  Er  Er9  1  0.196076  0.195798  0.804141  1
  Er  Er10  1  0.803985  0.195798  0.804141  1
  Er  Er11  1  0.195924  0.804087  0.804066  1
  Zn  Zn12  1  0.515631  0.829285  0.826374  1
  Zn  Zn13  1  0.828708  0.829285  0.826374  1
  Zn  Zn14  1  0.422799  0.422523  0.731881  1
  Zn  Zn15  1  0.421190  0.733039  0.424582  1
  Zn  Zn16  1  0.733352  0.421044  0.424176  1
  Zn  Zn17  1  0.421429  0.421044  0.424176  1
  Zn  Zn18  1  0.624476  0.125590  0.625457  1
  Zn  Zn19  1  0.126958  0.624822  0.624664  1
  Zn  Zn20  1  0.623555  0.624822  0.624664  1
  Ga  Ga21  1  0.827975  0.828916  0.515132  1
  Ga  Ga22  1  0.829586  0.514380  0.826446  1
  Ga  Ga23  1  0.624017  0.625713  0.126252  1
  C  C24  1  0.125082  0.125133  0.624704  1
  C  C25  1  0.125174  0.624858  0.124794  1
  C  C26  1  0.625087  0.124993  0.124885  1
  C  C27  1  0.125036  0.124993  0.124885  1
