# generated using pymatgen
data_Rb5Tl(SiSe3)2
_symmetry_space_group_name_H-M   'P 1'
_cell_length_a   8.08845097
_cell_length_b   8.28846257
_cell_length_c   8.90383400
_cell_angle_alpha   74.83290708
_cell_angle_beta   75.44333499
_cell_angle_gamma   109.51498373
_symmetry_Int_Tables_number   1
_chemical_formula_structural   Rb5Tl(SiSe3)2
_chemical_formula_sum   'Rb5 Tl1 Si2 Se6'
_cell_volume   503.98296774
_cell_formula_units_Z   1
loop_
 _symmetry_equiv_pos_site_id
 _symmetry_equiv_pos_as_xyz
  1  'x, y, z'
loop_
 _atom_site_type_symbol
 _atom_site_label
 _atom_site_symmetry_multiplicity
 _atom_site_fract_x
 _atom_site_fract_y
 _atom_site_fract_z
 _atom_site_occupancy
  Rb  Rb0  1  0.226224  0.213503  0.309650  1
  Rb  Rb1  1  0.000000  0.500000  0.000000  1
  Rb  Rb2  1  0.668908  0.329006  0.505795  1
  Rb  Rb3  1  0.331092  0.670994  0.494205  1
  Rb  Rb4  1  0.773776  0.786497  0.690350  1
  Tl  Tl5  1  0.500000  0.000000  0.000000  1
  Si  Si6  1  0.108530  0.104887  0.859394  1
  Si  Si7  1  0.891470  0.895113  0.140606  1
  Se  Se8  1  0.647291  0.658071  0.130833  1
  Se  Se9  1  0.352709  0.341929  0.869167  1
  Se  Se10  1  0.765644  0.050278  0.282006  1
  Se  Se11  1  0.947716  0.227908  0.718425  1
  Se  Se12  1  0.234356  0.949722  0.717994  1
  Se  Se13  1  0.052284  0.772092  0.281575  1
