# generated using pymatgen
data_Tm2Ni12AsP6
_symmetry_space_group_name_H-M   'P 1'
_cell_length_a   9.10658000
_cell_length_b   9.10657946
_cell_length_c   3.64682800
_cell_angle_alpha   90.00000000
_cell_angle_beta   90.00000000
_cell_angle_gamma   119.99999566
_symmetry_Int_Tables_number   1
_chemical_formula_structural   Tm2Ni12AsP6
_chemical_formula_sum   'Tm2 Ni12 As1 P6'
_cell_volume   261.91267726
_cell_formula_units_Z   1
loop_
 _symmetry_equiv_pos_site_id
 _symmetry_equiv_pos_as_xyz
  1  'x, y, z'
loop_
 _atom_site_type_symbol
 _atom_site_label
 _atom_site_symmetry_multiplicity
 _atom_site_fract_x
 _atom_site_fract_y
 _atom_site_fract_z
 _atom_site_occupancy
  Tm  Tm0  1  0.666667  0.333333  0.500000  1
  Tm  Tm1  1  0.333333  0.666667  0.000000  1
  Ni  Ni2  1  0.437834  0.063362  0.000000  1
  Ni  Ni3  1  0.625529  0.562166  0.000000  1
  Ni  Ni4  1  0.936638  0.374471  0.000000  1
  Ni  Ni5  1  0.157777  0.285809  0.000000  1
  Ni  Ni6  1  0.128032  0.842223  0.000000  1
  Ni  Ni7  1  0.714191  0.871968  0.000000  1
  Ni  Ni8  1  0.382837  0.434876  0.500000  1
  Ni  Ni9  1  0.052039  0.617163  0.500000  1
  Ni  Ni10  1  0.565124  0.947961  0.500000  1
  Ni  Ni11  1  0.243790  0.107226  0.500000  1
  Ni  Ni12  1  0.863437  0.756210  0.500000  1
  Ni  Ni13  1  0.892774  0.136563  0.500000  1
  As  As14  1  0.000000  0.000000  0.000000  1
  P  P15  1  0.407868  0.293370  0.000000  1
  P  P16  1  0.885503  0.592132  0.000000  1
  P  P17  1  0.706630  0.114497  0.000000  1
  P  P18  1  0.113482  0.409362  0.500000  1
  P  P19  1  0.295880  0.886518  0.500000  1
  P  P20  1  0.590638  0.704120  0.500000  1
