# generated using pymatgen
data_Y3Er7(TlBi2)2
_symmetry_space_group_name_H-M   'P 1'
_cell_length_a   8.97002800
_cell_length_b   8.97002734
_cell_length_c   6.45688300
_cell_angle_alpha   90.00008942
_cell_angle_beta   90.00008942
_cell_angle_gamma   119.83497727
_symmetry_Int_Tables_number   1
_chemical_formula_structural   Y3Er7(TlBi2)2
_chemical_formula_sum   'Y3 Er7 Tl2 Bi4'
_cell_volume   450.67232935
_cell_formula_units_Z   1
loop_
 _symmetry_equiv_pos_site_id
 _symmetry_equiv_pos_as_xyz
  1  'x, y, z'
loop_
 _atom_site_type_symbol
 _atom_site_label
 _atom_site_symmetry_multiplicity
 _atom_site_fract_x
 _atom_site_fract_y
 _atom_site_fract_z
 _atom_site_occupancy
  Y  Y0  1  0.759819  0.759819  0.250077  1
  Y  Y1  1  0.235616  0.998007  0.249888  1
  Y  Y2  1  0.998007  0.235616  0.249888  1
  Er  Er3  1  0.669093  0.329368  0.503594  1
  Er  Er4  1  0.329368  0.669093  0.503594  1
  Er  Er5  1  0.329403  0.669090  0.996429  1
  Er  Er6  1  0.669090  0.329403  0.996429  1
  Er  Er7  1  0.235299  0.235299  0.750052  1
  Er  Er8  1  0.765064  0.008112  0.749964  1
  Er  Er9  1  0.008112  0.765064  0.749964  1
  Tl  Tl10  1  0.395758  0.002417  0.750143  1
  Tl  Tl11  1  0.002417  0.395758  0.750143  1
  Bi  Bi12  1  0.394382  0.394382  0.249980  1
  Bi  Bi13  1  0.602536  0.997239  0.249967  1
  Bi  Bi14  1  0.997239  0.602536  0.249967  1
  Bi  Bi15  1  0.608797  0.608797  0.749921  1
