# generated using pymatgen
data_Pr10CoRuAu4
_symmetry_space_group_name_H-M   'P 1'
_cell_length_a   8.74384690
_cell_length_b   8.55088200
_cell_length_c   12.19818706
_cell_angle_alpha   90.00000000
_cell_angle_beta   89.60620316
_cell_angle_gamma   90.00000000
_symmetry_Int_Tables_number   1
_chemical_formula_structural   Pr10CoRuAu4
_chemical_formula_sum   'Pr20 Co2 Ru2 Au8'
_cell_volume   912.00766641
_cell_formula_units_Z   2
loop_
 _symmetry_equiv_pos_site_id
 _symmetry_equiv_pos_as_xyz
  1  'x, y, z'
loop_
 _atom_site_type_symbol
 _atom_site_label
 _atom_site_symmetry_multiplicity
 _atom_site_fract_x
 _atom_site_fract_y
 _atom_site_fract_z
 _atom_site_occupancy
  Pr  Pr0  1  0.844898  0.750000  0.789525  1
  Pr  Pr1  1  0.155102  0.250000  0.210475  1
  Pr  Pr2  1  0.342392  0.250000  0.714217  1
  Pr  Pr3  1  0.657608  0.750000  0.285783  1
  Pr  Pr4  1  0.384397  0.750000  0.702353  1
  Pr  Pr5  1  0.615603  0.250000  0.297647  1
  Pr  Pr6  1  0.886991  0.250000  0.800589  1
  Pr  Pr7  1  0.113009  0.750000  0.199411  1
  Pr  Pr8  1  0.950531  0.750000  0.494042  1
  Pr  Pr9  1  0.049469  0.250000  0.505958  1
  Pr  Pr10  1  0.455884  0.250000  0.005763  1
  Pr  Pr11  1  0.544116  0.750000  0.994237  1
  Pr  Pr12  1  0.677337  0.039656  0.576772  1
  Pr  Pr13  1  0.322663  0.960344  0.423228  1
  Pr  Pr14  1  0.173122  0.966072  0.928423  1
  Pr  Pr15  1  0.322663  0.539656  0.423228  1
  Pr  Pr16  1  0.826878  0.033928  0.071577  1
  Pr  Pr17  1  0.677337  0.460344  0.576772  1
  Pr  Pr18  1  0.826878  0.466072  0.071577  1
  Pr  Pr19  1  0.173122  0.533928  0.928423  1
  Co  Co20  1  0.059913  0.250000  0.990972  1
  Co  Co21  1  0.940087  0.750000  0.009028  1
  Ru  Ru22  1  0.565947  0.750000  0.508431  1
  Ru  Ru23  1  0.434053  0.250000  0.491569  1
  Au  Au24  1  0.578123  0.477172  0.828510  1
  Au  Au25  1  0.421877  0.522828  0.171490  1
  Au  Au26  1  0.077548  0.523653  0.672592  1
  Au  Au27  1  0.421877  0.977172  0.171490  1
  Au  Au28  1  0.922452  0.476347  0.327408  1
  Au  Au29  1  0.578123  0.022828  0.828510  1
  Au  Au30  1  0.922452  0.023653  0.327408  1
  Au  Au31  1  0.077548  0.976347  0.672592  1
