# generated using pymatgen
data_Na8U2Cu2O11
_symmetry_space_group_name_H-M   'P 1'
_cell_length_a   11.29159390
_cell_length_b   5.70361852
_cell_length_c   5.97465781
_cell_angle_alpha   101.16287545
_cell_angle_beta   101.74622234
_cell_angle_gamma   117.47881987
_symmetry_Int_Tables_number   1
_chemical_formula_structural   Na8U2Cu2O11
_chemical_formula_sum   'Na8 U2 Cu2 O11'
_cell_volume   315.38229769
_cell_formula_units_Z   1
loop_
 _symmetry_equiv_pos_site_id
 _symmetry_equiv_pos_as_xyz
  1  'x, y, z'
loop_
 _atom_site_type_symbol
 _atom_site_label
 _atom_site_symmetry_multiplicity
 _atom_site_fract_x
 _atom_site_fract_y
 _atom_site_fract_z
 _atom_site_occupancy
  Na  Na0  1  0.753919  0.510250  0.992260  1
  Na  Na1  1  0.167867  0.642592  0.500405  1
  Na  Na2  1  0.994657  0.012735  0.497264  1
  Na  Na3  1  0.832247  0.336482  0.496322  1
  Na  Na4  1  0.688326  0.676201  0.505865  1
  Na  Na5  1  0.495119  0.049462  0.508458  1
  Na  Na6  1  0.316098  0.281096  0.538680  1
  Na  Na7  1  0.244064  0.483227  0.005668  1
  U  U8  1  0.087415  0.830667  0.008782  1
  U  U9  1  0.585468  0.843639  0.963709  1
  Cu  Cu10  1  0.933155  0.207707  0.994165  1
  Cu  Cu11  1  0.410278  0.146244  0.014265  1
  O  O12  1  0.968920  0.587543  0.204492  1
  O  O13  1  0.268312  0.882026  0.245437  1
  O  O14  1  0.121099  0.197682  0.238220  1
  O  O15  1  0.589838  0.196158  0.193352  1
  O  O16  1  0.748669  0.895485  0.224560  1
  O  O17  1  0.559571  0.491898  0.746102  1
  O  O18  1  0.393584  0.737480  0.752307  1
  O  O19  1  0.692642  0.063546  0.760228  1
  O  O20  1  0.048664  0.464520  0.766610  1
  O  O21  1  0.906664  0.792278  0.774975  1
  O  O22  1  0.232309  0.079524  0.827096  1
