# generated using pymatgen
data_Er2GaSi3(AsRh4)3
_symmetry_space_group_name_H-M   'P 1'
_cell_length_a   9.87236500
_cell_length_b   9.87236485
_cell_length_c   3.89750700
_cell_angle_alpha   90.00000000
_cell_angle_beta   90.00000000
_cell_angle_gamma   119.99999715
_symmetry_Int_Tables_number   1
_chemical_formula_structural   Er2GaSi3(AsRh4)3
_chemical_formula_sum   'Er2 Ga1 Si3 As3 Rh12'
_cell_volume   328.97276778
_cell_formula_units_Z   1
loop_
 _symmetry_equiv_pos_site_id
 _symmetry_equiv_pos_as_xyz
  1  'x, y, z'
loop_
 _atom_site_type_symbol
 _atom_site_label
 _atom_site_symmetry_multiplicity
 _atom_site_fract_x
 _atom_site_fract_y
 _atom_site_fract_z
 _atom_site_occupancy
  Er  Er0  1  0.666667  0.333333  0.752368  1
  Er  Er1  1  0.333333  0.666667  0.249522  1
  Ga  Ga2  1  0.000000  0.000000  0.585401  1
  Si  Si3  1  0.287611  0.885607  0.750705  1
  Si  Si4  1  0.114393  0.402004  0.750705  1
  Si  Si5  1  0.597996  0.712389  0.750705  1
  As  As6  1  0.711040  0.115205  0.250293  1
  As  As7  1  0.884795  0.595835  0.250293  1
  As  As8  1  0.404165  0.288960  0.250293  1
  Rh  Rh9  1  0.073507  0.621344  0.751205  1
  Rh  Rh10  1  0.378656  0.452163  0.751205  1
  Rh  Rh11  1  0.547837  0.926493  0.751205  1
  Rh  Rh12  1  0.945609  0.387298  0.250057  1
  Rh  Rh13  1  0.612702  0.558310  0.250057  1
  Rh  Rh14  1  0.441690  0.054391  0.250057  1
  Rh  Rh15  1  0.278212  0.122261  0.750763  1
  Rh  Rh16  1  0.877739  0.155952  0.750763  1
  Rh  Rh17  1  0.844048  0.721788  0.750763  1
  Rh  Rh18  1  0.733608  0.878473  0.252421  1
  Rh  Rh19  1  0.121527  0.855135  0.252421  1
  Rh  Rh20  1  0.144865  0.266392  0.252421  1
