# generated using pymatgen
data_CaHgRu2O7
_symmetry_space_group_name_H-M   'P 1'
_cell_length_a   7.29670490
_cell_length_b   7.41832526
_cell_length_c   7.29670497
_cell_angle_alpha   59.44707212
_cell_angle_beta   59.10559217
_cell_angle_gamma   59.44707454
_symmetry_Int_Tables_number   1
_chemical_formula_structural   CaHgRu2O7
_chemical_formula_sum   'Ca2 Hg2 Ru4 O14'
_cell_volume   275.03708959
_cell_formula_units_Z   2
loop_
 _symmetry_equiv_pos_site_id
 _symmetry_equiv_pos_as_xyz
  1  'x, y, z'
loop_
 _atom_site_type_symbol
 _atom_site_label
 _atom_site_symmetry_multiplicity
 _atom_site_fract_x
 _atom_site_fract_y
 _atom_site_fract_z
 _atom_site_occupancy
  Ca  Ca0  1  0.625000  0.125000  0.625000  1
  Ca  Ca1  1  0.625000  0.625000  0.625000  1
  Hg  Hg2  1  0.625000  0.625000  0.125000  1
  Hg  Hg3  1  0.125000  0.625000  0.625000  1
  Ru  Ru4  1  0.625000  0.125000  0.125000  1
  Ru  Ru5  1  0.125000  0.625000  0.125000  1
  Ru  Ru6  1  0.125000  0.125000  0.625000  1
  Ru  Ru7  1  0.125000  0.125000  0.125000  1
  O  O8  1  0.196668  0.188282  0.806100  1
  O  O9  1  0.187650  0.812350  0.187650  1
  O  O10  1  0.443900  0.061718  0.053332  1
  O  O11  1  0.196668  0.808950  0.806100  1
  O  O12  1  0.053332  0.441050  0.443900  1
  O  O13  1  0.806100  0.808950  0.196668  1
  O  O14  1  0.443900  0.441050  0.053332  1
  O  O15  1  0.487520  0.512480  0.487520  1
  O  O16  1  0.053332  0.061718  0.443900  1
  O  O17  1  0.449352  0.050648  0.449352  1
  O  O18  1  0.062350  0.437650  0.062350  1
  O  O19  1  0.762480  0.737520  0.762480  1
  O  O20  1  0.800648  0.199352  0.800648  1
  O  O21  1  0.806100  0.188282  0.196668  1
