# generated using pymatgen
data_HoThGaRu2
_symmetry_space_group_name_H-M   'P 1'
_cell_length_a   5.58065611
_cell_length_b   5.58065743
_cell_length_c   5.58065712
_cell_angle_alpha   137.33482345
_cell_angle_beta   114.64685203
_cell_angle_gamma   81.23682707
_symmetry_Int_Tables_number   1
_chemical_formula_structural   HoThGaRu2
_chemical_formula_sum   'Ho1 Th1 Ga1 Ru2'
_cell_volume   103.64388494
_cell_formula_units_Z   1
loop_
 _symmetry_equiv_pos_site_id
 _symmetry_equiv_pos_as_xyz
  1  'x, y, z'
loop_
 _atom_site_type_symbol
 _atom_site_label
 _atom_site_symmetry_multiplicity
 _atom_site_fract_x
 _atom_site_fract_y
 _atom_site_fract_z
 _atom_site_occupancy
  Ho  Ho0  1  0.295169  0.795169  0.500000  1
  Th  Th1  1  0.701131  0.201131  0.500000  1
  Ga  Ga2  1  0.005415  0.005415  0.000000  1
  Ru  Ru3  1  0.260499  0.499143  0.761356  1
  Ru  Ru4  1  0.737786  0.499143  0.238644  1
