# generated using pymatgen
data_LiNiAs3Rh4
_symmetry_space_group_name_H-M   'P 1'
_cell_length_a   3.82113000
_cell_length_b   11.12923500
_cell_length_c   12.88206400
_cell_angle_alpha   90.00000000
_cell_angle_beta   90.00000000
_cell_angle_gamma   90.00000000
_symmetry_Int_Tables_number   1
_chemical_formula_structural   LiNiAs3Rh4
_chemical_formula_sum   'Li4 Ni4 As12 Rh16'
_cell_volume   547.82592230
_cell_formula_units_Z   4
loop_
 _symmetry_equiv_pos_site_id
 _symmetry_equiv_pos_as_xyz
  1  'x, y, z'
loop_
 _atom_site_type_symbol
 _atom_site_label
 _atom_site_symmetry_multiplicity
 _atom_site_fract_x
 _atom_site_fract_y
 _atom_site_fract_z
 _atom_site_occupancy
  Li  Li0  1  0.250000  0.583208  0.708531  1
  Li  Li1  1  0.250000  0.916792  0.208531  1
  Li  Li2  1  0.750000  0.416792  0.291469  1
  Li  Li3  1  0.750000  0.083208  0.791469  1
  Ni  Ni4  1  0.250000  0.464608  0.935193  1
  Ni  Ni5  1  0.250000  0.035392  0.435193  1
  Ni  Ni6  1  0.750000  0.535392  0.064807  1
  Ni  Ni7  1  0.750000  0.964608  0.564807  1
  As  As8  1  0.250000  0.416807  0.110791  1
  As  As9  1  0.250000  0.083193  0.610791  1
  As  As10  1  0.750000  0.583193  0.889209  1
  As  As11  1  0.750000  0.916807  0.389209  1
  As  As12  1  0.250000  0.266952  0.871739  1
  As  As13  1  0.250000  0.233048  0.371739  1
  As  As14  1  0.750000  0.733048  0.128261  1
  As  As15  1  0.750000  0.766952  0.628261  1
  As  As16  1  0.250000  0.596746  0.387461  1
  As  As17  1  0.250000  0.903254  0.887461  1
  As  As18  1  0.750000  0.403254  0.612539  1
  As  As19  1  0.750000  0.096746  0.112539  1
  Rh  Rh20  1  0.250000  0.709689  0.985038  1
  Rh  Rh21  1  0.250000  0.790311  0.485038  1
  Rh  Rh22  1  0.750000  0.290311  0.014962  1
  Rh  Rh23  1  0.750000  0.209689  0.514962  1
  Rh  Rh24  1  0.250000  0.407154  0.482562  1
  Rh  Rh25  1  0.250000  0.092846  0.982562  1
  Rh  Rh26  1  0.750000  0.592846  0.517438  1
  Rh  Rh27  1  0.750000  0.907154  0.017438  1
  Rh  Rh28  1  0.250000  0.221965  0.180997  1
  Rh  Rh29  1  0.250000  0.278035  0.680997  1
  Rh  Rh30  1  0.750000  0.778035  0.819003  1
  Rh  Rh31  1  0.750000  0.721965  0.319003  1
  Rh  Rh32  1  0.250000  0.890498  0.697325  1
  Rh  Rh33  1  0.250000  0.609502  0.197325  1
  Rh  Rh34  1  0.750000  0.109502  0.302675  1
  Rh  Rh35  1  0.750000  0.390498  0.802675  1
