# generated using pymatgen
data_Y3Er17(Cd3Ir)2
_symmetry_space_group_name_H-M   'P 1'
_cell_length_a   9.55780800
_cell_length_b   9.55780877
_cell_length_c   9.75123000
_cell_angle_alpha   90.00000000
_cell_angle_beta   90.00000000
_cell_angle_gamma   119.99999041
_symmetry_Int_Tables_number   1
_chemical_formula_structural   Y3Er17(Cd3Ir)2
_chemical_formula_sum   'Y3 Er17 Cd6 Ir2'
_cell_volume   771.44809855
_cell_formula_units_Z   1
loop_
 _symmetry_equiv_pos_site_id
 _symmetry_equiv_pos_as_xyz
  1  'x, y, z'
loop_
 _atom_site_type_symbol
 _atom_site_label
 _atom_site_symmetry_multiplicity
 _atom_site_fract_x
 _atom_site_fract_y
 _atom_site_fract_z
 _atom_site_occupancy
  Y  Y0  1  0.458971  0.541029  0.750000  1
  Y  Y1  1  0.458971  0.917942  0.750000  1
  Y  Y2  1  0.082058  0.541029  0.750000  1
  Er  Er3  1  0.000000  0.000000  0.499744  1
  Er  Er4  1  0.000000  0.000000  0.000256  1
  Er  Er5  1  0.541578  0.458422  0.250000  1
  Er  Er6  1  0.541578  0.083156  0.250000  1
  Er  Er7  1  0.916844  0.458422  0.250000  1
  Er  Er8  1  0.208997  0.791003  0.439674  1
  Er  Er9  1  0.208997  0.417994  0.439674  1
  Er  Er10  1  0.582006  0.791003  0.439674  1
  Er  Er11  1  0.790488  0.209512  0.558530  1
  Er  Er12  1  0.790488  0.580976  0.558530  1
  Er  Er13  1  0.419024  0.209512  0.558530  1
  Er  Er14  1  0.790488  0.209512  0.941470  1
  Er  Er15  1  0.790488  0.580976  0.941470  1
  Er  Er16  1  0.419024  0.209512  0.941470  1
  Er  Er17  1  0.208997  0.791003  0.060326  1
  Er  Er18  1  0.208997  0.417994  0.060326  1
  Er  Er19  1  0.582006  0.791003  0.060326  1
  Cd  Cd20  1  0.885098  0.114902  0.250000  1
  Cd  Cd21  1  0.885098  0.770197  0.250000  1
  Cd  Cd22  1  0.229803  0.114902  0.250000  1
  Cd  Cd23  1  0.113817  0.886183  0.750000  1
  Cd  Cd24  1  0.113817  0.227634  0.750000  1
  Cd  Cd25  1  0.772366  0.886183  0.750000  1
  Ir  Ir26  1  0.333333  0.666667  0.250000  1
  Ir  Ir27  1  0.666667  0.333333  0.750000  1
