# generated using pymatgen
data_O8F5
_symmetry_space_group_name_H-M   'P 1'
_cell_length_a   3.93376814
_cell_length_b   6.68623217
_cell_length_c   9.81961113
_cell_angle_alpha   87.39910239
_cell_angle_beta   93.80348013
_cell_angle_gamma   114.31611415
_symmetry_Int_Tables_number   1
_chemical_formula_structural   O8F5
_chemical_formula_sum   'O8 F5'
_cell_volume   234.79918409
_cell_formula_units_Z   1
loop_
 _symmetry_equiv_pos_site_id
 _symmetry_equiv_pos_as_xyz
  1  'x, y, z'
loop_
 _atom_site_type_symbol
 _atom_site_label
 _atom_site_symmetry_multiplicity
 _atom_site_fract_x
 _atom_site_fract_y
 _atom_site_fract_z
 _atom_site_occupancy
  O  O0  1  0.068721  0.251322  0.836917  1
  O  O1  1  0.117171  0.738869  0.832755  1
  O  O2  1  0.000798  0.236608  0.370835  1
  O  O3  1  0.171242  0.752277  0.711864  1
  O  O4  1  0.091008  0.658139  0.216806  1
  O  O5  1  0.020052  0.331530  0.474992  1
  O  O6  1  0.018073  0.172651  0.951173  1
  O  O7  1  0.986459  0.775258  0.141219  1
  F  F8  1  0.119878  0.034748  0.400254  1
  F  F9  1  0.728563  0.245197  0.032141  1
  F  F10  1  0.445868  0.000710  0.670339  1
  F  F11  1  0.447748  0.695114  0.922183  1
  F  F12  1  0.439311  0.523087  0.503454  1
