# generated using pymatgen
data_Eu3Al12CoOs3
_symmetry_space_group_name_H-M   'P 1'
_cell_length_a   8.84327000
_cell_length_b   8.84326996
_cell_length_c   9.57730800
_cell_angle_alpha   90.00000000
_cell_angle_beta   90.00000000
_cell_angle_gamma   119.99999268
_symmetry_Int_Tables_number   1
_chemical_formula_structural   Eu3Al12CoOs3
_chemical_formula_sum   'Eu6 Al24 Co2 Os6'
_cell_volume   648.63426300
_cell_formula_units_Z   2
loop_
 _symmetry_equiv_pos_site_id
 _symmetry_equiv_pos_as_xyz
  1  'x, y, z'
loop_
 _atom_site_type_symbol
 _atom_site_label
 _atom_site_symmetry_multiplicity
 _atom_site_fract_x
 _atom_site_fract_y
 _atom_site_fract_z
 _atom_site_occupancy
  Eu  Eu0  1  0.194180  0.388362  0.250000  1
  Eu  Eu1  1  0.805820  0.611638  0.750000  1
  Eu  Eu2  1  0.611638  0.805820  0.250000  1
  Eu  Eu3  1  0.388362  0.194180  0.750000  1
  Eu  Eu4  1  0.194180  0.805820  0.250000  1
  Eu  Eu5  1  0.805820  0.194180  0.750000  1
  Al  Al6  1  0.333333  0.666667  0.999776  1
  Al  Al7  1  0.666667  0.333333  0.000224  1
  Al  Al8  1  0.666667  0.333333  0.499776  1
  Al  Al9  1  0.333333  0.666667  0.500224  1
  Al  Al10  1  0.158353  0.316705  0.575142  1
  Al  Al11  1  0.841647  0.683295  0.424858  1
  Al  Al12  1  0.683295  0.841647  0.575142  1
  Al  Al13  1  0.841647  0.683295  0.075142  1
  Al  Al14  1  0.316705  0.158353  0.424858  1
  Al  Al15  1  0.158353  0.316705  0.924858  1
  Al  Al16  1  0.158353  0.841647  0.575142  1
  Al  Al17  1  0.316705  0.158353  0.075142  1
  Al  Al18  1  0.841647  0.158353  0.424858  1
  Al  Al19  1  0.683295  0.841647  0.924858  1
  Al  Al20  1  0.841647  0.158353  0.075142  1
  Al  Al21  1  0.158353  0.841647  0.924858  1
  Al  Al22  1  0.561101  0.122201  0.250000  1
  Al  Al23  1  0.438899  0.877799  0.750000  1
  Al  Al24  1  0.877799  0.438899  0.250000  1
  Al  Al25  1  0.122201  0.561101  0.750000  1
  Al  Al26  1  0.561101  0.438899  0.250000  1
  Al  Al27  1  0.438899  0.561101  0.750000  1
  Al  Al28  1  0.000000  0.000000  0.250000  1
  Al  Al29  1  0.000000  0.000000  0.750000  1
  Co  Co30  1  0.000000  0.000000  0.000000  1
  Co  Co31  1  0.000000  0.000000  0.500000  1
  Os  Os32  1  0.500000  0.000000  0.000000  1
  Os  Os33  1  0.000000  0.500000  0.000000  1
  Os  Os34  1  0.500000  0.000000  0.500000  1
  Os  Os35  1  0.500000  0.500000  0.000000  1
  Os  Os36  1  0.000000  0.500000  0.500000  1
  Os  Os37  1  0.500000  0.500000  0.500000  1
