# generated using pymatgen
data_Yb4Pr16Ir11Ru
_symmetry_space_group_name_H-M   'P 1'
_cell_length_a   11.25934700
_cell_length_b   11.25934700
_cell_length_c   6.53359600
_cell_angle_alpha   90.00000000
_cell_angle_beta   90.00000000
_cell_angle_gamma   90.00000000
_symmetry_Int_Tables_number   1
_chemical_formula_structural   Yb4Pr16Ir11Ru
_chemical_formula_sum   'Yb4 Pr16 Ir11 Ru1'
_cell_volume   828.28287881
_cell_formula_units_Z   1
loop_
 _symmetry_equiv_pos_site_id
 _symmetry_equiv_pos_as_xyz
  1  'x, y, z'
loop_
 _atom_site_type_symbol
 _atom_site_label
 _atom_site_symmetry_multiplicity
 _atom_site_fract_x
 _atom_site_fract_y
 _atom_site_fract_z
 _atom_site_occupancy
  Yb  Yb0  1  0.000000  0.000000  0.499884  1
  Yb  Yb1  1  0.000000  0.000000  0.999682  1
  Yb  Yb2  1  0.500000  0.500000  0.999682  1
  Yb  Yb3  1  0.500000  0.500000  0.499884  1
  Pr  Pr4  1  0.289219  0.088033  0.382800  1
  Pr  Pr5  1  0.289401  0.912147  0.884919  1
  Pr  Pr6  1  0.710599  0.087853  0.884919  1
  Pr  Pr7  1  0.710781  0.911967  0.382800  1
  Pr  Pr8  1  0.587853  0.789401  0.884919  1
  Pr  Pr9  1  0.588033  0.210781  0.382800  1
  Pr  Pr10  1  0.411967  0.789219  0.382800  1
  Pr  Pr11  1  0.412147  0.210599  0.884919  1
  Pr  Pr12  1  0.212229  0.411161  0.616511  1
  Pr  Pr13  1  0.212062  0.588588  0.116004  1
  Pr  Pr14  1  0.787938  0.411412  0.116004  1
  Pr  Pr15  1  0.787771  0.588839  0.616511  1
  Pr  Pr16  1  0.911412  0.712062  0.116004  1
  Pr  Pr17  1  0.911161  0.287771  0.616511  1
  Pr  Pr18  1  0.088839  0.712229  0.616511  1
  Pr  Pr19  1  0.088588  0.287938  0.116004  1
  Ir  Ir20  1  0.845659  0.154771  0.250292  1
  Ir  Ir21  1  0.845748  0.845274  0.749640  1
  Ir  Ir22  1  0.154252  0.154726  0.749640  1
  Ir  Ir23  1  0.154341  0.845229  0.250292  1
  Ir  Ir24  1  0.654726  0.345748  0.749640  1
  Ir  Ir25  1  0.654771  0.654341  0.250292  1
  Ir  Ir26  1  0.345229  0.345659  0.250292  1
  Ir  Ir27  1  0.345274  0.654252  0.749640  1
  Ir  Ir28  1  0.500000  0.000000  0.615389  1
  Ir  Ir29  1  0.000000  0.500000  0.885658  1
  Ir  Ir30  1  0.000000  0.500000  0.386198  1
  Ru  Ru31  1  0.500000  0.000000  0.112957  1
