# generated using pymatgen
data_YbTh(SeO4)3
_symmetry_space_group_name_H-M   'P 1'
_cell_length_a   9.48773700
_cell_length_b   9.48770867
_cell_length_c   6.33256400
_cell_angle_alpha   90.00000000
_cell_angle_beta   90.00000000
_cell_angle_gamma   120.00008133
_symmetry_Int_Tables_number   1
_chemical_formula_structural   YbTh(SeO4)3
_chemical_formula_sum   'Yb2 Th2 Se6 O24'
_cell_volume   493.66670993
_cell_formula_units_Z   2
loop_
 _symmetry_equiv_pos_site_id
 _symmetry_equiv_pos_as_xyz
  1  'x, y, z'
loop_
 _atom_site_type_symbol
 _atom_site_label
 _atom_site_symmetry_multiplicity
 _atom_site_fract_x
 _atom_site_fract_y
 _atom_site_fract_z
 _atom_site_occupancy
  Yb  Yb0  1  0.000000  0.000000  0.000000  1
  Yb  Yb1  1  0.000000  0.000000  0.500001  1
  Th  Th2  1  0.333333  0.666666  0.250000  1
  Th  Th3  1  0.666667  0.333334  0.749999  1
  Se  Se4  1  0.708507  0.099733  0.250000  1
  Se  Se5  1  0.391226  0.291493  0.250000  1
  Se  Se6  1  0.900268  0.608774  0.250000  1
  Se  Se7  1  0.099732  0.391227  0.749999  1
  Se  Se8  1  0.608773  0.708507  0.749999  1
  Se  Se9  1  0.291493  0.900267  0.749999  1
  O  O10  1  0.786464  0.542451  0.033398  1
  O  O11  1  0.755990  0.213539  0.033397  1
  O  O12  1  0.457547  0.244009  0.033396  1
  O  O13  1  0.831228  0.018193  0.250000  1
  O  O14  1  0.186965  0.168773  0.250000  1
  O  O15  1  0.444882  0.487282  0.250000  1
  O  O16  1  0.042400  0.555118  0.250000  1
  O  O17  1  0.981807  0.813034  0.250000  1
  O  O18  1  0.512718  0.957599  0.250000  1
  O  O19  1  0.457547  0.244009  0.466603  1
  O  O20  1  0.755990  0.213539  0.466602  1
  O  O21  1  0.786464  0.542451  0.466602  1
  O  O22  1  0.213537  0.457548  0.533399  1
  O  O23  1  0.244010  0.786461  0.533398  1
  O  O24  1  0.542452  0.755990  0.533397  1
  O  O25  1  0.487282  0.042401  0.749999  1
  O  O26  1  0.018194  0.186965  0.749999  1
  O  O27  1  0.957600  0.444883  0.749999  1
  O  O28  1  0.555118  0.512718  0.749999  1
  O  O29  1  0.813035  0.831227  0.749999  1
  O  O30  1  0.168771  0.981806  0.749999  1
  O  O31  1  0.542452  0.755990  0.966604  1
  O  O32  1  0.244010  0.786461  0.966602  1
  O  O33  1  0.213537  0.457548  0.966602  1
