# generated using pymatgen
data_Cs6ErLu3Br18
_symmetry_space_group_name_H-M   'P 1'
_cell_length_a   10.41993897
_cell_length_b   10.41994032
_cell_length_c   10.41993990
_cell_angle_alpha   83.21627529
_cell_angle_beta   83.21627870
_cell_angle_gamma   83.21627212
_symmetry_Int_Tables_number   1
_chemical_formula_structural   Cs6ErLu3Br18
_chemical_formula_sum   'Cs6 Er1 Lu3 Br18'
_cell_volume   1109.31846464
_cell_formula_units_Z   1
loop_
 _symmetry_equiv_pos_site_id
 _symmetry_equiv_pos_as_xyz
  1  'x, y, z'
loop_
 _atom_site_type_symbol
 _atom_site_label
 _atom_site_symmetry_multiplicity
 _atom_site_fract_x
 _atom_site_fract_y
 _atom_site_fract_z
 _atom_site_occupancy
  Cs  Cs0  1  0.589658  0.910342  0.249908  1
  Cs  Cs1  1  0.249908  0.589658  0.910342  1
  Cs  Cs2  1  0.910342  0.249908  0.589658  1
  Cs  Cs3  1  0.750007  0.410324  0.089730  1
  Cs  Cs4  1  0.089730  0.750007  0.410324  1
  Cs  Cs5  1  0.410324  0.089730  0.750007  1
  Er  Er6  1  0.653731  0.653731  0.653731  1
  Lu  Lu7  1  0.846227  0.846227  0.846227  1
  Lu  Lu8  1  0.346034  0.346034  0.346034  1
  Lu  Lu9  1  0.153946  0.153946  0.153946  1
  Br  Br10  1  0.096839  0.403172  0.249998  1
  Br  Br11  1  0.249998  0.096839  0.403172  1
  Br  Br12  1  0.403172  0.249998  0.096839  1
  Br  Br13  1  0.750625  0.904609  0.596648  1
  Br  Br14  1  0.596648  0.750625  0.904609  1
  Br  Br15  1  0.904609  0.596648  0.750625  1
  Br  Br16  1  0.236421  0.414721  0.576360  1
  Br  Br17  1  0.576360  0.236421  0.414721  1
  Br  Br18  1  0.414721  0.576360  0.236421  1
  Br  Br19  1  0.076352  0.914717  0.736438  1
  Br  Br20  1  0.736438  0.076352  0.914717  1
  Br  Br21  1  0.914717  0.736438  0.076352  1
  Br  Br22  1  0.764730  0.584628  0.421333  1
  Br  Br23  1  0.421333  0.764730  0.584628  1
  Br  Br24  1  0.584628  0.421333  0.764730  1
  Br  Br25  1  0.923631  0.085292  0.263579  1
  Br  Br26  1  0.263579  0.923631  0.085292  1
  Br  Br27  1  0.085292  0.263579  0.923631  1
