# generated using pymatgen
data_SrEu6YSb6
_symmetry_space_group_name_H-M   'P 1'
_cell_length_a   8.46030780
_cell_length_b   8.34891204
_cell_length_c   8.43873500
_cell_angle_alpha   70.80578946
_cell_angle_beta   70.19732289
_cell_angle_gamma   109.42982929
_symmetry_Int_Tables_number   1
_chemical_formula_structural   SrEu6YSb6
_chemical_formula_sum   'Sr1 Eu6 Y1 Sb6'
_cell_volume   458.76700105
_cell_formula_units_Z   1
loop_
 _symmetry_equiv_pos_site_id
 _symmetry_equiv_pos_as_xyz
  1  'x, y, z'
loop_
 _atom_site_type_symbol
 _atom_site_label
 _atom_site_symmetry_multiplicity
 _atom_site_fract_x
 _atom_site_fract_y
 _atom_site_fract_z
 _atom_site_occupancy
  Sr  Sr0  1  0.856284  0.002445  0.997829  1
  Eu  Eu1  1  0.999721  0.357172  0.498936  1
  Eu  Eu2  1  0.498555  0.499016  0.146826  1
  Eu  Eu3  1  0.645643  0.145482  0.355636  1
  Eu  Eu4  1  0.361964  0.001199  0.995660  1
  Eu  Eu5  1  0.495133  0.496863  0.642221  1
  Eu  Eu6  1  0.142039  0.638963  0.862823  1
  Y  Y7  1  0.999923  0.859287  0.500597  1
  Sb  Sb8  1  0.631606  0.872049  0.741308  1
  Sb  Sb9  1  0.877112  0.627134  0.258011  1
  Sb  Sb10  1  0.247365  0.117401  0.618941  1
  Sb  Sb11  1  0.754739  0.389307  0.866175  1
  Sb  Sb12  1  0.363458  0.751492  0.380395  1
  Sb  Sb13  1  0.126457  0.242189  0.134639  1
