# generated using pymatgen
data_Pr2Al9RePt2
_symmetry_space_group_name_H-M   'P 1'
_cell_length_a   7.67320449
_cell_length_b   7.67320245
_cell_length_c   9.68004600
_cell_angle_alpha   90.00000000
_cell_angle_beta   90.00000000
_cell_angle_gamma   118.86857527
_symmetry_Int_Tables_number   1
_chemical_formula_structural   Pr2Al9RePt2
_chemical_formula_sum   'Pr4 Al18 Re2 Pt4'
_cell_volume   499.11521538
_cell_formula_units_Z   2
loop_
 _symmetry_equiv_pos_site_id
 _symmetry_equiv_pos_as_xyz
  1  'x, y, z'
loop_
 _atom_site_type_symbol
 _atom_site_label
 _atom_site_symmetry_multiplicity
 _atom_site_fract_x
 _atom_site_fract_y
 _atom_site_fract_z
 _atom_site_occupancy
  Pr  Pr0  1  0.993679  0.676067  0.250000  1
  Pr  Pr1  1  0.006321  0.323933  0.750000  1
  Pr  Pr2  1  0.676067  0.993679  0.250000  1
  Pr  Pr3  1  0.323933  0.006321  0.750000  1
  Al  Al4  1  0.130952  0.130952  0.250000  1
  Al  Al5  1  0.869048  0.869048  0.750000  1
  Al  Al6  1  0.003492  0.333097  0.073423  1
  Al  Al7  1  0.996508  0.666903  0.926577  1
  Al  Al8  1  0.996508  0.666903  0.573423  1
  Al  Al9  1  0.333097  0.003492  0.426577  1
  Al  Al10  1  0.003492  0.333097  0.426577  1
  Al  Al11  1  0.666903  0.996508  0.573423  1
  Al  Al12  1  0.666903  0.996508  0.926577  1
  Al  Al13  1  0.333097  0.003492  0.073423  1
  Al  Al14  1  0.330579  0.330579  0.545567  1
  Al  Al15  1  0.669421  0.669421  0.454433  1
  Al  Al16  1  0.669421  0.669421  0.045567  1
  Al  Al17  1  0.330579  0.330579  0.954433  1
  Al  Al18  1  0.341755  0.546107  0.250000  1
  Al  Al19  1  0.658245  0.453893  0.750000  1
  Al  Al20  1  0.546107  0.341755  0.250000  1
  Al  Al21  1  0.453893  0.658245  0.750000  1
  Re  Re22  1  0.000000  0.000000  0.000000  1
  Re  Re23  1  0.000000  0.000000  0.500000  1
  Pt  Pt24  1  0.670638  0.329362  0.000000  1
  Pt  Pt25  1  0.329362  0.670638  0.000000  1
  Pt  Pt26  1  0.329362  0.670638  0.500000  1
  Pt  Pt27  1  0.670638  0.329362  0.500000  1
