# generated using pymatgen
data_Cu3PdO4
_symmetry_space_group_name_H-M   'P 1'
_cell_length_a   4.21453828
_cell_length_b   4.23111626
_cell_length_c   5.20875100
_cell_angle_alpha   90.00000000
_cell_angle_beta   90.00000000
_cell_angle_gamma   88.18808893
_symmetry_Int_Tables_number   1
_chemical_formula_structural   Cu3PdO4
_chemical_formula_sum   'Cu3 Pd1 O4'
_cell_volume   92.83705619
_cell_formula_units_Z   1
loop_
 _symmetry_equiv_pos_site_id
 _symmetry_equiv_pos_as_xyz
  1  'x, y, z'
loop_
 _atom_site_type_symbol
 _atom_site_label
 _atom_site_symmetry_multiplicity
 _atom_site_fract_x
 _atom_site_fract_y
 _atom_site_fract_z
 _atom_site_occupancy
  Cu  Cu0  1  0.000000  0.500000  0.000000  1
  Cu  Cu1  1  0.000000  0.000000  0.500000  1
  Cu  Cu2  1  0.500000  0.500000  0.500000  1
  Pd  Pd3  1  0.500000  0.000000  0.000000  1
  O  O4  1  0.757971  0.257311  0.255529  1
  O  O5  1  0.242029  0.742689  0.255529  1
  O  O6  1  0.242029  0.742689  0.744471  1
  O  O7  1  0.757971  0.257311  0.744471  1
