# generated using pymatgen
data_Y4Ga18Ni2PdRu3
_symmetry_space_group_name_H-M   'P 1'
_cell_length_a   7.53896403
_cell_length_b   7.53919726
_cell_length_c   9.54407134
_cell_angle_alpha   90.06726530
_cell_angle_beta   90.06615672
_cell_angle_gamma   119.89302121
_symmetry_Int_Tables_number   1
_chemical_formula_structural   Y4Ga18Ni2PdRu3
_chemical_formula_sum   'Y4 Ga18 Ni2 Pd1 Ru3'
_cell_volume   470.29143485
_cell_formula_units_Z   1
loop_
 _symmetry_equiv_pos_site_id
 _symmetry_equiv_pos_as_xyz
  1  'x, y, z'
loop_
 _atom_site_type_symbol
 _atom_site_label
 _atom_site_symmetry_multiplicity
 _atom_site_fract_x
 _atom_site_fract_y
 _atom_site_fract_z
 _atom_site_occupancy
  Y  Y0  1  0.998928  0.670484  0.248641  1
  Y  Y1  1  0.005405  0.333311  0.750840  1
  Y  Y2  1  0.666682  0.994592  0.249117  1
  Y  Y3  1  0.329534  0.001075  0.751368  1
  Ga  Ga4  1  0.126134  0.125098  0.242164  1
  Ga  Ga5  1  0.874894  0.873894  0.757840  1
  Ga  Ga6  1  0.994682  0.331279  0.074927  1
  Ga  Ga7  1  0.995608  0.665269  0.925421  1
  Ga  Ga8  1  0.996647  0.660792  0.578919  1
  Ga  Ga9  1  0.339251  0.003363  0.421049  1
  Ga  Ga10  1  0.003147  0.338639  0.419507  1
  Ga  Ga11  1  0.661363  0.996839  0.580526  1
  Ga  Ga12  1  0.668631  0.005284  0.925054  1
  Ga  Ga13  1  0.334764  0.004368  0.074604  1
  Ga  Ga14  1  0.341877  0.340255  0.563899  1
  Ga  Ga15  1  0.659780  0.658109  0.436080  1
  Ga  Ga16  1  0.667222  0.667341  0.060125  1
  Ga  Ga17  1  0.332620  0.332762  0.939914  1
  Ga  Ga18  1  0.335767  0.546883  0.248152  1
  Ga  Ga19  1  0.664851  0.448973  0.753589  1
  Ga  Ga20  1  0.551130  0.335179  0.246431  1
  Ga  Ga21  1  0.453156  0.664291  0.751836  1
  Ni  Ni22  1  0.669700  0.330218  0.999995  1
  Ni  Ni23  1  0.000720  0.999320  0.000078  1
  Pd  Pd24  1  0.999698  0.000331  0.499964  1
  Ru  Ru25  1  0.326871  0.673041  0.999976  1
  Ru  Ru26  1  0.327291  0.672733  0.499979  1
  Ru  Ru27  1  0.673649  0.326280  0.500004  1
