# generated using pymatgen
data_SrNp(PPd)2
_symmetry_space_group_name_H-M   'P 1'
_cell_length_a   4.13578900
_cell_length_b   8.27140640
_cell_length_c   7.29672500
_cell_angle_alpha   90.13335814
_cell_angle_beta   90.00000000
_cell_angle_gamma   90.00000000
_symmetry_Int_Tables_number   1
_chemical_formula_structural   SrNp(PPd)2
_chemical_formula_sum   'Sr2 Np2 P4 Pd4'
_cell_volume   249.61146893
_cell_formula_units_Z   2
loop_
 _symmetry_equiv_pos_site_id
 _symmetry_equiv_pos_as_xyz
  1  'x, y, z'
loop_
 _atom_site_type_symbol
 _atom_site_label
 _atom_site_symmetry_multiplicity
 _atom_site_fract_x
 _atom_site_fract_y
 _atom_site_fract_z
 _atom_site_occupancy
  Sr  Sr0  1  0.250000  0.499924  0.250388  1
  Sr  Sr1  1  0.750000  0.500076  0.749612  1
  Np  Np2  1  0.750000  0.000051  0.750216  1
  Np  Np3  1  0.250000  0.999949  0.249784  1
  P  P4  1  0.250000  0.783734  0.914898  1
  P  P5  1  0.750000  0.216266  0.085102  1
  P  P6  1  0.750000  0.784232  0.414776  1
  P  P7  1  0.250000  0.215768  0.585224  1
  Pd  Pd8  1  0.250000  0.759968  0.583189  1
  Pd  Pd9  1  0.750000  0.240032  0.416811  1
  Pd  Pd10  1  0.750000  0.759521  0.083107  1
  Pd  Pd11  1  0.250000  0.240479  0.916893  1
