# generated using pymatgen
data_Li4CeNi9As6P
_symmetry_space_group_name_H-M   'P 1'
_cell_length_a   9.44549727
_cell_length_b   9.42665768
_cell_length_c   3.81862000
_cell_angle_alpha   90.00000000
_cell_angle_beta   90.00000000
_cell_angle_gamma   119.90573508
_symmetry_Int_Tables_number   1
_chemical_formula_structural   Li4CeNi9As6P
_chemical_formula_sum   'Li4 Ce1 Ni9 As6 P1'
_cell_volume   294.73477514
_cell_formula_units_Z   1
loop_
 _symmetry_equiv_pos_site_id
 _symmetry_equiv_pos_as_xyz
  1  'x, y, z'
loop_
 _atom_site_type_symbol
 _atom_site_label
 _atom_site_symmetry_multiplicity
 _atom_site_fract_x
 _atom_site_fract_y
 _atom_site_fract_z
 _atom_site_occupancy
  Li  Li0  1  0.771126  0.550019  0.500000  1
  Li  Li1  1  0.452918  0.229296  0.500000  1
  Li  Li2  1  0.771051  0.222735  0.500000  1
  Li  Li3  1  0.000345  0.000695  0.500000  1
  Ce  Ce4  1  0.337019  0.665663  0.000000  1
  Ni  Ni5  1  0.284070  0.384131  0.500000  1
  Ni  Ni6  1  0.622326  0.888029  0.500000  1
  Ni  Ni7  1  0.099061  0.726447  0.500000  1
  Ni  Ni8  1  0.499555  0.457793  0.000000  1
  Ni  Ni9  1  0.550631  0.046112  0.000000  1
  Ni  Ni10  1  0.953756  0.503442  0.000000  1
  Ni  Ni11  1  0.710017  0.754169  0.000000  1
  Ni  Ni12  1  0.239823  0.958116  0.000000  1
  Ni  Ni13  1  0.042609  0.281036  0.000000  1
  As  As14  1  0.964042  0.757428  0.000000  1
  As  As15  1  0.245323  0.211338  0.000000  1
  As  As16  1  0.790902  0.031403  0.000000  1
  As  As17  1  0.666748  0.334230  0.000000  1
  As  As18  1  0.381722  0.927566  0.500000  1
  As  As19  1  0.071767  0.453282  0.500000  1
  P  P20  1  0.545191  0.617070  0.500000  1
