# generated using pymatgen
data_Hf5Nb5Si8
_symmetry_space_group_name_H-M   'P 1'
_cell_length_a   6.89647489
_cell_length_b   6.90172889
_cell_length_c   12.75427000
_cell_angle_alpha   90.00000000
_cell_angle_beta   90.00000000
_cell_angle_gamma   89.94179983
_symmetry_Int_Tables_number   1
_chemical_formula_structural   Hf5Nb5Si8
_chemical_formula_sum   'Hf10 Nb10 Si16'
_cell_volume   607.07232837
_cell_formula_units_Z   2
loop_
 _symmetry_equiv_pos_site_id
 _symmetry_equiv_pos_as_xyz
  1  'x, y, z'
loop_
 _atom_site_type_symbol
 _atom_site_label
 _atom_site_symmetry_multiplicity
 _atom_site_fract_x
 _atom_site_fract_y
 _atom_site_fract_z
 _atom_site_occupancy
  Hf  Hf0  1  0.650152  0.501418  0.373480  1
  Hf  Hf1  1  0.349849  0.498582  0.873480  1
  Hf  Hf2  1  0.000174  0.342918  0.218565  1
  Hf  Hf3  1  0.999827  0.657081  0.718565  1
  Hf  Hf4  1  0.500756  0.157445  0.531480  1
  Hf  Hf5  1  0.499244  0.842556  0.031480  1
  Hf  Hf6  1  0.657348  0.999291  0.281715  1
  Hf  Hf7  1  0.342651  0.000710  0.781714  1
  Hf  Hf8  1  0.841761  0.498595  0.968900  1
  Hf  Hf9  1  0.158240  0.501405  0.468900  1
  Nb  Nb10  1  0.169717  0.171831  0.000484  1
  Nb  Nb11  1  0.830281  0.828167  0.500484  1
  Nb  Nb12  1  0.671718  0.328568  0.749442  1
  Nb  Nb13  1  0.328281  0.671431  0.249443  1
  Nb  Nb14  1  0.997874  0.148456  0.623974  1
  Nb  Nb15  1  0.002127  0.851545  0.123974  1
  Nb  Nb16  1  0.494342  0.348491  0.126158  1
  Nb  Nb17  1  0.505658  0.651510  0.626157  1
  Nb  Nb18  1  0.848150  0.004226  0.876363  1
  Nb  Nb19  1  0.151851  0.995775  0.376362  1
  Si  Si20  1  0.293027  0.362208  0.675519  1
  Si  Si21  1  0.706972  0.637792  0.175519  1
  Si  Si22  1  0.792257  0.138608  0.073004  1
  Si  Si23  1  0.207742  0.861392  0.573003  1
  Si  Si24  1  0.642392  0.709235  0.822573  1
  Si  Si25  1  0.357608  0.290764  0.322573  1
  Si  Si26  1  0.863201  0.202153  0.428118  1
  Si  Si27  1  0.136799  0.797846  0.928118  1
  Si  Si28  1  0.043679  0.297644  0.812831  1
  Si  Si29  1  0.956319  0.702355  0.312830  1
  Si  Si30  1  0.547317  0.199147  0.936753  1
  Si  Si31  1  0.452683  0.800854  0.436753  1
  Si  Si32  1  0.701012  0.955195  0.686350  1
  Si  Si33  1  0.298987  0.044803  0.186350  1
  Si  Si34  1  0.801294  0.452784  0.564296  1
  Si  Si35  1  0.198707  0.547216  0.064297  1
