# generated using pymatgen
data_NaScNb6(Co4P3)4
_symmetry_space_group_name_H-M   'P 1'
_cell_length_a   11.95234600
_cell_length_b   11.95234663
_cell_length_c   3.60607100
_cell_angle_alpha   90.00000000
_cell_angle_beta   90.00000000
_cell_angle_gamma   119.99999825
_symmetry_Int_Tables_number   1
_chemical_formula_structural   NaScNb6(Co4P3)4
_chemical_formula_sum   'Na1 Sc1 Nb6 Co16 P12'
_cell_volume   446.14008847
_cell_formula_units_Z   1
loop_
 _symmetry_equiv_pos_site_id
 _symmetry_equiv_pos_as_xyz
  1  'x, y, z'
loop_
 _atom_site_type_symbol
 _atom_site_label
 _atom_site_symmetry_multiplicity
 _atom_site_fract_x
 _atom_site_fract_y
 _atom_site_fract_z
 _atom_site_occupancy
  Na  Na0  1  0.666667  0.333333  0.000000  1
  Sc  Sc1  1  0.333333  0.666667  0.000000  1
  Nb  Nb2  1  0.821034  0.000443  0.500000  1
  Nb  Nb3  1  0.999557  0.820590  0.500000  1
  Nb  Nb4  1  0.179410  0.178966  0.500000  1
  Nb  Nb5  1  0.445355  0.999894  0.000000  1
  Nb  Nb6  1  0.000106  0.445461  0.000000  1
  Nb  Nb7  1  0.554539  0.554645  0.000000  1
  Co  Co8  1  0.273926  0.999067  0.500000  1
  Co  Co9  1  0.000933  0.274859  0.500000  1
  Co  Co10  1  0.725141  0.726074  0.500000  1
  Co  Co11  1  0.632782  0.809452  0.000000  1
  Co  Co12  1  0.190548  0.823330  0.000000  1
  Co  Co13  1  0.176670  0.367218  0.000000  1
  Co  Co14  1  0.364576  0.172926  0.000000  1
  Co  Co15  1  0.808350  0.635424  0.000000  1
  Co  Co16  1  0.827074  0.191650  0.000000  1
  Co  Co17  1  0.518342  0.870201  0.500000  1
  Co  Co18  1  0.129799  0.648140  0.500000  1
  Co  Co19  1  0.351860  0.481658  0.500000  1
  Co  Co20  1  0.473420  0.350800  0.500000  1
  Co  Co21  1  0.877380  0.526580  0.500000  1
  Co  Co22  1  0.649200  0.122620  0.500000  1
  Co  Co23  1  0.000000  0.000000  0.000000  1
  P  P24  1  0.172312  0.998928  0.000000  1
  P  P25  1  0.001072  0.173383  0.000000  1
  P  P26  1  0.826617  0.827688  0.000000  1
  P  P27  1  0.517352  0.687574  0.500000  1
  P  P28  1  0.312426  0.829778  0.500000  1
  P  P29  1  0.170222  0.482648  0.500000  1
  P  P30  1  0.482220  0.170356  0.500000  1
  P  P31  1  0.688135  0.517780  0.500000  1
  P  P32  1  0.829644  0.311865  0.500000  1
  P  P33  1  0.649244  0.001040  0.000000  1
  P  P34  1  0.998960  0.648204  0.000000  1
  P  P35  1  0.351796  0.350756  0.000000  1
