# generated using pymatgen
data_Er3Lu5Au4
_symmetry_space_group_name_H-M   'P 1'
_cell_length_a   4.83417400
_cell_length_b   7.02163143
_cell_length_c   8.80976032
_cell_angle_alpha   89.88661928
_cell_angle_beta   90.00000000
_cell_angle_gamma   90.00000000
_symmetry_Int_Tables_number   1
_chemical_formula_structural   Er3Lu5Au4
_chemical_formula_sum   'Er3 Lu5 Au4'
_cell_volume   299.03605202
_cell_formula_units_Z   1
loop_
 _symmetry_equiv_pos_site_id
 _symmetry_equiv_pos_as_xyz
  1  'x, y, z'
loop_
 _atom_site_type_symbol
 _atom_site_label
 _atom_site_symmetry_multiplicity
 _atom_site_fract_x
 _atom_site_fract_y
 _atom_site_fract_z
 _atom_site_occupancy
  Er  Er0  1  0.250000  0.982932  0.321016  1
  Er  Er1  1  0.750000  0.517102  0.821522  1
  Er  Er2  1  0.750000  0.017199  0.678604  1
  Lu  Lu3  1  0.250000  0.849792  0.924231  1
  Lu  Lu4  1  0.250000  0.350284  0.575825  1
  Lu  Lu5  1  0.750000  0.150531  0.076433  1
  Lu  Lu6  1  0.750000  0.649716  0.422996  1
  Lu  Lu7  1  0.250000  0.482754  0.178320  1
  Au  Au8  1  0.250000  0.255076  0.897479  1
  Au  Au9  1  0.250000  0.754688  0.603480  1
  Au  Au10  1  0.750000  0.744293  0.103745  1
  Au  Au11  1  0.750000  0.245633  0.396349  1
