# generated using pymatgen
data_Sc24FeCo3Tc4
_symmetry_space_group_name_H-M   'P 1'
_cell_length_a   5.87986468
_cell_length_b   8.58691300
_cell_length_c   13.10912271
_cell_angle_alpha   90.00000000
_cell_angle_beta   90.08637182
_cell_angle_gamma   90.00000000
_symmetry_Int_Tables_number   1
_chemical_formula_structural   Sc24FeCo3Tc4
_chemical_formula_sum   'Sc24 Fe1 Co3 Tc4'
_cell_volume   661.87736475
_cell_formula_units_Z   1
loop_
 _symmetry_equiv_pos_site_id
 _symmetry_equiv_pos_as_xyz
  1  'x, y, z'
loop_
 _atom_site_type_symbol
 _atom_site_label
 _atom_site_symmetry_multiplicity
 _atom_site_fract_x
 _atom_site_fract_y
 _atom_site_fract_z
 _atom_site_occupancy
  Sc  Sc0  1  0.527580  0.750000  0.350993  1
  Sc  Sc1  1  0.028280  0.250000  0.148840  1
  Sc  Sc2  1  0.472631  0.250000  0.648478  1
  Sc  Sc3  1  0.973109  0.750000  0.850798  1
  Sc  Sc4  1  0.789445  0.750000  0.112156  1
  Sc  Sc5  1  0.288262  0.250000  0.387458  1
  Sc  Sc6  1  0.211482  0.250000  0.887547  1
  Sc  Sc7  1  0.711180  0.750000  0.613014  1
  Sc  Sc8  1  0.409848  0.936336  0.784560  1
  Sc  Sc9  1  0.909304  0.063693  0.714965  1
  Sc  Sc10  1  0.587217  0.438643  0.215147  1
  Sc  Sc11  1  0.090572  0.564867  0.285010  1
  Sc  Sc12  1  0.587217  0.061357  0.215147  1
  Sc  Sc13  1  0.090572  0.935133  0.285010  1
  Sc  Sc14  1  0.409848  0.563664  0.784560  1
  Sc  Sc15  1  0.909304  0.436307  0.714965  1
  Sc  Sc16  1  0.245618  0.940081  0.537604  1
  Sc  Sc17  1  0.744790  0.059432  0.962707  1
  Sc  Sc18  1  0.754949  0.440439  0.462628  1
  Sc  Sc19  1  0.254860  0.561425  0.037571  1
  Sc  Sc20  1  0.754949  0.059561  0.462628  1
  Sc  Sc21  1  0.254860  0.938575  0.037571  1
  Sc  Sc22  1  0.245618  0.559919  0.537604  1
  Sc  Sc23  1  0.744790  0.440568  0.962707  1
  Fe  Fe24  1  0.369154  0.750000  0.180007  1
  Co  Co25  1  0.868544  0.250000  0.321033  1
  Co  Co26  1  0.631614  0.250000  0.821235  1
  Co  Co27  1  0.131697  0.750000  0.678998  1
  Tc  Tc28  1  0.932056  0.750000  0.439638  1
  Tc  Tc29  1  0.433600  0.250000  0.060959  1
  Tc  Tc30  1  0.067642  0.250000  0.561529  1
  Tc  Tc31  1  0.569406  0.750000  0.936934  1
