# generated using pymatgen
data_PaMn6GaGe5
_symmetry_space_group_name_H-M   'P 1'
_cell_length_a   5.19006901
_cell_length_b   5.19007552
_cell_length_c   8.23794700
_cell_angle_alpha   90.00000000
_cell_angle_beta   90.00000000
_cell_angle_gamma   120.00197052
_symmetry_Int_Tables_number   1
_chemical_formula_structural   PaMn6GaGe5
_chemical_formula_sum   'Pa1 Mn6 Ga1 Ge5'
_cell_volume   192.17098280
_cell_formula_units_Z   1
loop_
 _symmetry_equiv_pos_site_id
 _symmetry_equiv_pos_as_xyz
  1  'x, y, z'
loop_
 _atom_site_type_symbol
 _atom_site_label
 _atom_site_symmetry_multiplicity
 _atom_site_fract_x
 _atom_site_fract_y
 _atom_site_fract_z
 _atom_site_occupancy
  Pa  Pa0  1  0.999982  0.000002  0.000000  1
  Mn  Mn1  1  0.000900  0.500454  0.246341  1
  Mn  Mn2  1  0.499529  0.999083  0.246335  1
  Mn  Mn3  1  0.499531  0.500456  0.246335  1
  Mn  Mn4  1  0.000900  0.500454  0.753659  1
  Mn  Mn5  1  0.499529  0.999083  0.753665  1
  Mn  Mn6  1  0.499531  0.500456  0.753665  1
  Ga  Ga7  1  0.666641  0.333322  0.500000  1
  Ge  Ge8  1  0.333305  0.666675  0.000000  1
  Ge  Ge9  1  0.666662  0.333329  0.000000  1
  Ge  Ge10  1  0.999989  0.000002  0.347427  1
  Ge  Ge11  1  0.999989  0.000002  0.652573  1
  Ge  Ge12  1  0.333314  0.666681  0.500000  1
