# generated using pymatgen
data_Tb3Ho5Re3B24Ru
_symmetry_space_group_name_H-M   'P 1'
_cell_length_a   3.67627300
_cell_length_b   9.16250651
_cell_length_c   11.55175400
_cell_angle_alpha   90.10189671
_cell_angle_beta   90.00000000
_cell_angle_gamma   90.00000000
_symmetry_Int_Tables_number   1
_chemical_formula_structural   Tb3Ho5Re3B24Ru
_chemical_formula_sum   'Tb3 Ho5 Re3 B24 Ru1'
_cell_volume   389.10722581
_cell_formula_units_Z   1
loop_
 _symmetry_equiv_pos_site_id
 _symmetry_equiv_pos_as_xyz
  1  'x, y, z'
loop_
 _atom_site_type_symbol
 _atom_site_label
 _atom_site_symmetry_multiplicity
 _atom_site_fract_x
 _atom_site_fract_y
 _atom_site_fract_z
 _atom_site_occupancy
  Tb  Tb0  1  0.000000  0.321947  0.414177  1
  Tb  Tb1  1  0.000000  0.677289  0.587611  1
  Tb  Tb2  1  0.000000  0.824668  0.084309  1
  Ho  Ho3  1  0.000000  0.176659  0.913789  1
  Ho  Ho4  1  0.000000  0.941867  0.369522  1
  Ho  Ho5  1  0.000000  0.056437  0.629512  1
  Ho  Ho6  1  0.000000  0.443012  0.130393  1
  Ho  Ho7  1  0.000000  0.556772  0.870966  1
  Re  Re8  1  0.000000  0.361582  0.678781  1
  Re  Re9  1  0.000000  0.138640  0.179597  1
  Re  Re10  1  0.000000  0.861731  0.820656  1
  B  B11  1  0.500000  0.554179  0.432330  1
  B  B12  1  0.500000  0.446776  0.567196  1
  B  B13  1  0.500000  0.053588  0.066745  1
  B  B14  1  0.500000  0.947225  0.932628  1
  B  B15  1  0.500000  0.748668  0.418090  1
  B  B16  1  0.500000  0.250448  0.581607  1
  B  B17  1  0.500000  0.249540  0.081180  1
  B  B18  1  0.500000  0.751258  0.918397  1
  B  B19  1  0.500000  0.790797  0.265619  1
  B  B20  1  0.500000  0.207829  0.734522  1
  B  B21  1  0.500000  0.291728  0.234601  1
  B  B22  1  0.500000  0.708019  0.765996  1
  B  B23  1  0.500000  0.631181  0.185861  1
  B  B24  1  0.500000  0.369267  0.814360  1
  B  B25  1  0.500000  0.130777  0.314755  1
  B  B26  1  0.500000  0.869157  0.685719  1
  B  B27  1  0.500000  0.982772  0.211907  1
  B  B28  1  0.500000  0.017878  0.787742  1
  B  B29  1  0.500000  0.483837  0.287991  1
  B  B30  1  0.500000  0.517786  0.712331  1
  B  B31  1  0.500000  0.601267  0.028697  1
  B  B32  1  0.500000  0.398614  0.972207  1
  B  B33  1  0.500000  0.099848  0.471653  1
  B  B34  1  0.500000  0.898312  0.527921  1
  Ru  Ru35  1  0.000000  0.638648  0.320637  1
