# generated using pymatgen
data_Tb5Y3(OsI4)2
_symmetry_space_group_name_H-M   'P 1'
_cell_length_a   11.43654715
_cell_length_b   11.42875287
_cell_length_c   6.20960601
_cell_angle_alpha   90.02269765
_cell_angle_beta   90.02227900
_cell_angle_gamma   88.41236071
_symmetry_Int_Tables_number   1
_chemical_formula_structural   Tb5Y3(OsI4)2
_chemical_formula_sum   'Tb5 Y3 Os2 I8'
_cell_volume   811.31778605
_cell_formula_units_Z   1
loop_
 _symmetry_equiv_pos_site_id
 _symmetry_equiv_pos_as_xyz
  1  'x, y, z'
loop_
 _atom_site_type_symbol
 _atom_site_label
 _atom_site_symmetry_multiplicity
 _atom_site_fract_x
 _atom_site_fract_y
 _atom_site_fract_z
 _atom_site_occupancy
  Tb  Tb0  1  0.802082  0.084104  0.999161  1
  Tb  Tb1  1  0.083992  0.801981  0.499154  1
  Tb  Tb2  1  0.078781  0.195370  0.000356  1
  Tb  Tb3  1  0.195371  0.078790  0.500371  1
  Tb  Tb4  1  0.921490  0.804523  0.999651  1
  Y  Y5  1  0.915775  0.198050  0.500902  1
  Y  Y6  1  0.198043  0.915847  0.000899  1
  Y  Y7  1  0.804442  0.921367  0.499594  1
  Os  Os8  1  0.999923  0.000105  0.249844  1
  Os  Os9  1  0.000182  0.999841  0.750191  1
  I  I10  1  0.645068  0.152293  0.510278  1
  I  I11  1  0.858220  0.648633  0.505594  1
  I  I12  1  0.351503  0.141442  0.994397  1
  I  I13  1  0.141424  0.351500  0.494399  1
  I  I14  1  0.648457  0.858353  0.005646  1
  I  I15  1  0.355130  0.847633  0.489642  1
  I  I16  1  0.152486  0.645042  0.010284  1
  I  I17  1  0.847630  0.355125  0.989636  1
