# generated using pymatgen
data_CaIn2Cu2Ni7
_symmetry_space_group_name_H-M   'P 1'
_cell_length_a   4.90219300
_cell_length_b   8.23002000
_cell_length_c   8.27548700
_cell_angle_alpha   90.00000000
_cell_angle_beta   90.00000000
_cell_angle_gamma   90.00000000
_symmetry_Int_Tables_number   1
_chemical_formula_structural   CaIn2Cu2Ni7
_chemical_formula_sum   'Ca2 In4 Cu4 Ni14'
_cell_volume   333.87573483
_cell_formula_units_Z   2
loop_
 _symmetry_equiv_pos_site_id
 _symmetry_equiv_pos_as_xyz
  1  'x, y, z'
loop_
 _atom_site_type_symbol
 _atom_site_label
 _atom_site_symmetry_multiplicity
 _atom_site_fract_x
 _atom_site_fract_y
 _atom_site_fract_z
 _atom_site_occupancy
  Ca  Ca0  1  0.000000  0.500000  0.500000  1
  Ca  Ca1  1  0.000000  0.000000  0.000000  1
  In  In2  1  0.000000  0.622925  0.128141  1
  In  In3  1  0.000000  0.377075  0.871859  1
  In  In4  1  0.000000  0.877075  0.628141  1
  In  In5  1  0.000000  0.122925  0.371859  1
  Cu  Cu6  1  0.500000  0.703585  0.564053  1
  Cu  Cu7  1  0.500000  0.296415  0.435947  1
  Cu  Cu8  1  0.500000  0.796415  0.064053  1
  Cu  Cu9  1  0.500000  0.203585  0.935947  1
  Ni  Ni10  1  0.752999  0.175229  0.675339  1
  Ni  Ni11  1  0.752999  0.824771  0.324661  1
  Ni  Ni12  1  0.752999  0.324771  0.175339  1
  Ni  Ni13  1  0.752999  0.675229  0.824661  1
  Ni  Ni14  1  0.247001  0.824771  0.324661  1
  Ni  Ni15  1  0.247001  0.175229  0.675339  1
  Ni  Ni16  1  0.247001  0.675229  0.824661  1
  Ni  Ni17  1  0.247001  0.324771  0.175339  1
  Ni  Ni18  1  0.500000  0.566236  0.288742  1
  Ni  Ni19  1  0.500000  0.433764  0.711258  1
  Ni  Ni20  1  0.500000  0.066236  0.211258  1
  Ni  Ni21  1  0.500000  0.933764  0.788742  1
  Ni  Ni22  1  0.500000  0.000000  0.500000  1
  Ni  Ni23  1  0.500000  0.500000  0.000000  1
