# generated using pymatgen
data_Tb10AlGaCo10
_symmetry_space_group_name_H-M   'P 1'
_cell_length_a   5.52815532
_cell_length_b   5.52815502
_cell_length_c   20.64086276
_cell_angle_alpha   89.94481230
_cell_angle_beta   90.05518830
_cell_angle_gamma   137.45551644
_symmetry_Int_Tables_number   1
_chemical_formula_structural   Tb10AlGaCo10
_chemical_formula_sum   'Tb10 Al1 Ga1 Co10'
_cell_volume   426.51969553
_cell_formula_units_Z   1
loop_
 _symmetry_equiv_pos_site_id
 _symmetry_equiv_pos_as_xyz
  1  'x, y, z'
loop_
 _atom_site_type_symbol
 _atom_site_label
 _atom_site_symmetry_multiplicity
 _atom_site_fract_x
 _atom_site_fract_y
 _atom_site_fract_z
 _atom_site_occupancy
  Tb  Tb0  1  0.288131  0.711869  0.250097  1
  Tb  Tb1  1  0.291076  0.708924  0.066144  1
  Tb  Tb2  1  0.997091  0.002909  0.842544  1
  Tb  Tb3  1  0.711869  0.288131  0.749903  1
  Tb  Tb4  1  0.709100  0.290900  0.565985  1
  Tb  Tb5  1  0.002999  0.997001  0.342938  1
  Tb  Tb6  1  0.997001  0.002999  0.657062  1
  Tb  Tb7  1  0.708924  0.291076  0.933856  1
  Tb  Tb8  1  0.002909  0.997091  0.157456  1
  Tb  Tb9  1  0.290900  0.709100  0.434015  1
  Al  Al10  1  0.000000  0.000000  0.000000  1
  Ga  Ga11  1  0.000000  0.000000  0.500000  1
  Co  Co12  1  0.295083  0.704917  0.654054  1
  Co  Co13  1  0.581104  0.418896  0.441630  1
  Co  Co14  1  0.413439  0.586561  0.749972  1
  Co  Co15  1  0.419379  0.580621  0.941801  1
  Co  Co16  1  0.586561  0.413439  0.250028  1
  Co  Co17  1  0.418896  0.581104  0.558370  1
  Co  Co18  1  0.704917  0.295083  0.345946  1
  Co  Co19  1  0.704773  0.295227  0.154121  1
  Co  Co20  1  0.580621  0.419379  0.058199  1
  Co  Co21  1  0.295227  0.704773  0.845879  1
