# generated using pymatgen
data_Nd8Zn(Si4Pt)3
_symmetry_space_group_name_H-M   'P 1'
_cell_length_a   8.22876400
_cell_length_b   8.22876429
_cell_length_c   8.57990500
_cell_angle_alpha   90.00000000
_cell_angle_beta   90.00000000
_cell_angle_gamma   119.99999884
_symmetry_Int_Tables_number   1
_chemical_formula_structural   Nd8Zn(Si4Pt)3
_chemical_formula_sum   'Nd8 Zn1 Si12 Pt3'
_cell_volume   503.13246944
_cell_formula_units_Z   1
loop_
 _symmetry_equiv_pos_site_id
 _symmetry_equiv_pos_as_xyz
  1  'x, y, z'
loop_
 _atom_site_type_symbol
 _atom_site_label
 _atom_site_symmetry_multiplicity
 _atom_site_fract_x
 _atom_site_fract_y
 _atom_site_fract_z
 _atom_site_occupancy
  Nd  Nd0  1  0.000000  0.000000  0.749507  1
  Nd  Nd1  1  0.000000  0.000000  0.250554  1
  Nd  Nd2  1  0.500053  0.499947  0.748977  1
  Nd  Nd3  1  0.500053  0.000106  0.748977  1
  Nd  Nd4  1  0.999894  0.499947  0.748977  1
  Nd  Nd5  1  0.500799  0.499201  0.250975  1
  Nd  Nd6  1  0.998402  0.499201  0.250975  1
  Nd  Nd7  1  0.500799  0.001598  0.250975  1
  Zn  Zn8  1  0.333333  0.666667  0.001471  1
  Si  Si9  1  0.832772  0.167228  0.999569  1
  Si  Si10  1  0.832772  0.665544  0.999569  1
  Si  Si11  1  0.334456  0.167228  0.999569  1
  Si  Si12  1  0.833848  0.166152  0.500556  1
  Si  Si13  1  0.833848  0.667697  0.500556  1
  Si  Si14  1  0.332303  0.166152  0.500556  1
  Si  Si15  1  0.166079  0.833921  0.499469  1
  Si  Si16  1  0.667841  0.833921  0.499469  1
  Si  Si17  1  0.166079  0.332159  0.499469  1
  Si  Si18  1  0.165094  0.834906  0.000360  1
  Si  Si19  1  0.669812  0.834906  0.000360  1
  Si  Si20  1  0.165094  0.330188  0.000360  1
  Pt  Pt21  1  0.666667  0.333333  0.998911  1
  Pt  Pt22  1  0.666667  0.333333  0.500828  1
  Pt  Pt23  1  0.333333  0.666667  0.499010  1
