# generated using pymatgen
data_ScUMnB6
_symmetry_space_group_name_H-M   'P 1'
_cell_length_a   3.47933600
_cell_length_b   8.90313200
_cell_length_c   11.24148800
_cell_angle_alpha   90.00000000
_cell_angle_beta   90.00000000
_cell_angle_gamma   90.00000000
_symmetry_Int_Tables_number   1
_chemical_formula_structural   ScUMnB6
_chemical_formula_sum   'Sc4 U4 Mn4 B24'
_cell_volume   348.22743528
_cell_formula_units_Z   4
loop_
 _symmetry_equiv_pos_site_id
 _symmetry_equiv_pos_as_xyz
  1  'x, y, z'
loop_
 _atom_site_type_symbol
 _atom_site_label
 _atom_site_symmetry_multiplicity
 _atom_site_fract_x
 _atom_site_fract_y
 _atom_site_fract_z
 _atom_site_occupancy
  Sc  Sc0  1  0.000000  0.444482  0.127665  1
  Sc  Sc1  1  0.000000  0.555518  0.872335  1
  Sc  Sc2  1  0.000000  0.944482  0.372335  1
  Sc  Sc3  1  0.000000  0.055518  0.627665  1
  U  U4  1  0.000000  0.822996  0.085673  1
  U  U5  1  0.000000  0.177004  0.914327  1
  U  U6  1  0.000000  0.322996  0.414327  1
  U  U7  1  0.000000  0.677004  0.585673  1
  Mn  Mn8  1  0.000000  0.140408  0.180233  1
  Mn  Mn9  1  0.000000  0.859592  0.819767  1
  Mn  Mn10  1  0.000000  0.640408  0.319767  1
  Mn  Mn11  1  0.000000  0.359592  0.680233  1
  B  B12  1  0.500000  0.054087  0.067453  1
  B  B13  1  0.500000  0.945913  0.932547  1
  B  B14  1  0.500000  0.554087  0.432547  1
  B  B15  1  0.500000  0.445913  0.567453  1
  B  B16  1  0.500000  0.251285  0.081472  1
  B  B17  1  0.500000  0.748715  0.918528  1
  B  B18  1  0.500000  0.751285  0.418528  1
  B  B19  1  0.500000  0.248715  0.581472  1
  B  B20  1  0.500000  0.293808  0.234676  1
  B  B21  1  0.500000  0.706192  0.765324  1
  B  B22  1  0.500000  0.793808  0.265324  1
  B  B23  1  0.500000  0.206192  0.734676  1
  B  B24  1  0.500000  0.131110  0.316396  1
  B  B25  1  0.500000  0.868890  0.683604  1
  B  B26  1  0.500000  0.631110  0.183604  1
  B  B27  1  0.500000  0.368890  0.816396  1
  B  B28  1  0.500000  0.483088  0.286392  1
  B  B29  1  0.500000  0.516912  0.713608  1
  B  B30  1  0.500000  0.983088  0.213608  1
  B  B31  1  0.500000  0.016912  0.786392  1
  B  B32  1  0.500000  0.101933  0.472356  1
  B  B33  1  0.500000  0.898067  0.527644  1
  B  B34  1  0.500000  0.601933  0.027644  1
  B  B35  1  0.500000  0.398067  0.972356  1
