# generated using pymatgen
data_Y6Er3LuBi6
_symmetry_space_group_name_H-M   'P 1'
_cell_length_a   8.23424900
_cell_length_b   9.49754100
_cell_length_c   12.04686800
_cell_angle_alpha   89.99956277
_cell_angle_beta   90.00000000
_cell_angle_gamma   90.00000000
_symmetry_Int_Tables_number   1
_chemical_formula_structural   Y6Er3LuBi6
_chemical_formula_sum   'Y12 Er6 Lu2 Bi12'
_cell_volume   942.12672721
_cell_formula_units_Z   2
loop_
 _symmetry_equiv_pos_site_id
 _symmetry_equiv_pos_as_xyz
  1  'x, y, z'
loop_
 _atom_site_type_symbol
 _atom_site_label
 _atom_site_symmetry_multiplicity
 _atom_site_fract_x
 _atom_site_fract_y
 _atom_site_fract_z
 _atom_site_occupancy
  Y  Y0  1  0.186364  0.749870  0.718641  1
  Y  Y1  1  0.686364  0.750130  0.781359  1
  Y  Y2  1  0.813521  0.249868  0.281277  1
  Y  Y3  1  0.313521  0.250132  0.218723  1
  Y  Y4  1  0.693584  0.563051  0.059883  1
  Y  Y5  1  0.193584  0.936949  0.440117  1
  Y  Y6  1  0.306588  0.062817  0.940167  1
  Y  Y7  1  0.806588  0.437183  0.559833  1
  Y  Y8  1  0.354384  0.750116  0.215693  1
  Y  Y9  1  0.854384  0.749884  0.284307  1
  Y  Y10  1  0.645570  0.250148  0.784608  1
  Y  Y11  1  0.145570  0.249852  0.715392  1
  Er  Er12  1  0.974309  0.250183  0.011338  1
  Er  Er13  1  0.474309  0.249817  0.488662  1
  Er  Er14  1  0.306804  0.435267  0.940168  1
  Er  Er15  1  0.806804  0.064733  0.559832  1
  Er  Er16  1  0.693427  0.934926  0.059919  1
  Er  Er17  1  0.193427  0.565074  0.440081  1
  Lu  Lu18  1  0.025054  0.750176  0.989106  1
  Lu  Lu19  1  0.525054  0.749824  0.510894  1
  Bi  Bi20  1  0.434561  0.003155  0.672522  1
  Bi  Bi21  1  0.934561  0.496845  0.827478  1
  Bi  Bi22  1  0.566143  0.504233  0.327481  1
  Bi  Bi23  1  0.066143  0.995767  0.172519  1
  Bi  Bi24  1  0.566763  0.995617  0.327607  1
  Bi  Bi25  1  0.066763  0.504383  0.172393  1
  Bi  Bi26  1  0.433985  0.496705  0.672410  1
  Bi  Bi27  1  0.933985  0.003295  0.827590  1
  Bi  Bi28  1  0.407034  0.748637  0.958153  1
  Bi  Bi29  1  0.907034  0.751363  0.541847  1
  Bi  Bi30  1  0.591907  0.248553  0.041968  1
  Bi  Bi31  1  0.091907  0.251447  0.458032  1
