# generated using pymatgen
data_Nd4GeB4Rh9
_symmetry_space_group_name_H-M   'P 1'
_cell_length_a   5.57838100
_cell_length_b   5.57838239
_cell_length_c   20.73810100
_cell_angle_alpha   90.00000000
_cell_angle_beta   90.00000000
_cell_angle_gamma   119.99723404
_symmetry_Int_Tables_number   1
_chemical_formula_structural   Nd4GeB4Rh9
_chemical_formula_sum   'Nd8 Ge2 B8 Rh18'
_cell_volume   558.89236242
_cell_formula_units_Z   2
loop_
 _symmetry_equiv_pos_site_id
 _symmetry_equiv_pos_as_xyz
  1  'x, y, z'
loop_
 _atom_site_type_symbol
 _atom_site_label
 _atom_site_symmetry_multiplicity
 _atom_site_fract_x
 _atom_site_fract_y
 _atom_site_fract_z
 _atom_site_occupancy
  Nd  Nd0  1  0.666669  0.333331  0.523974  1
  Nd  Nd1  1  0.333331  0.666669  0.476026  1
  Nd  Nd2  1  0.333331  0.666669  0.023974  1
  Nd  Nd3  1  0.666669  0.333331  0.976026  1
  Nd  Nd4  1  0.666629  0.333371  0.673960  1
  Nd  Nd5  1  0.333371  0.666629  0.326040  1
  Nd  Nd6  1  0.333371  0.666629  0.173960  1
  Nd  Nd7  1  0.666629  0.333371  0.826040  1
  Ge  Ge8  1  0.000000  0.000000  0.500000  1
  Ge  Ge9  1  0.000000  0.000000  0.000000  1
  B  B10  1  0.999973  0.000027  0.675144  1
  B  B11  1  0.000027  0.999973  0.324856  1
  B  B12  1  0.000027  0.999973  0.175144  1
  B  B13  1  0.999973  0.000027  0.824856  1
  B  B14  1  0.666696  0.333304  0.326763  1
  B  B15  1  0.333304  0.666696  0.673237  1
  B  B16  1  0.333304  0.666696  0.826763  1
  B  B17  1  0.666696  0.333304  0.173237  1
  Rh  Rh18  1  0.167145  0.334374  0.750000  1
  Rh  Rh19  1  0.167147  0.832853  0.750000  1
  Rh  Rh20  1  0.665626  0.832855  0.750000  1
  Rh  Rh21  1  0.832855  0.665626  0.250000  1
  Rh  Rh22  1  0.832853  0.167147  0.250000  1
  Rh  Rh23  1  0.334374  0.167145  0.250000  1
  Rh  Rh24  1  0.165347  0.330782  0.605301  1
  Rh  Rh25  1  0.165347  0.834653  0.605301  1
  Rh  Rh26  1  0.669218  0.834653  0.605301  1
  Rh  Rh27  1  0.834653  0.669218  0.394699  1
  Rh  Rh28  1  0.834653  0.165347  0.394699  1
  Rh  Rh29  1  0.330782  0.165347  0.394699  1
  Rh  Rh30  1  0.834653  0.669218  0.105301  1
  Rh  Rh31  1  0.834653  0.165347  0.105301  1
  Rh  Rh32  1  0.330782  0.165347  0.105301  1
  Rh  Rh33  1  0.165347  0.330782  0.894699  1
  Rh  Rh34  1  0.165347  0.834653  0.894699  1
  Rh  Rh35  1  0.669218  0.834653  0.894699  1
