# generated using pymatgen
data_Pu3Th5H24
_symmetry_space_group_name_H-M   'P 1'
_cell_length_a   6.80550400
_cell_length_b   6.81795900
_cell_length_c   6.81795900
_cell_angle_alpha   90.00000000
_cell_angle_beta   90.00000000
_cell_angle_gamma   90.00000000
_symmetry_Int_Tables_number   1
_chemical_formula_structural   Pu3Th5H24
_chemical_formula_sum   'Pu3 Th5 H24'
_cell_volume   316.35089254
_cell_formula_units_Z   1
loop_
 _symmetry_equiv_pos_site_id
 _symmetry_equiv_pos_as_xyz
  1  'x, y, z'
loop_
 _atom_site_type_symbol
 _atom_site_label
 _atom_site_symmetry_multiplicity
 _atom_site_fract_x
 _atom_site_fract_y
 _atom_site_fract_z
 _atom_site_occupancy
  Pu  Pu0  1  0.002171  0.000000  0.000000  1
  Pu  Pu1  1  0.497829  0.500000  0.500000  1
  Pu  Pu2  1  0.250000  0.000000  0.500000  1
  Th  Th3  1  0.750000  0.000000  0.500000  1
  Th  Th4  1  0.000097  0.500000  0.250743  1
  Th  Th5  1  0.000097  0.500000  0.749257  1
  Th  Th6  1  0.499903  0.750743  0.000000  1
  Th  Th7  1  0.499903  0.249257  0.000000  1
  H  H8  1  0.003541  0.152152  0.302413  1
  H  H9  1  0.496459  0.197587  0.652152  1
  H  H10  1  0.496459  0.802413  0.347848  1
  H  H11  1  0.799947  0.652955  0.500000  1
  H  H12  1  0.199936  0.655632  0.500000  1
  H  H13  1  0.347192  0.500000  0.801437  1
  H  H14  1  0.653132  0.500000  0.799917  1
  H  H15  1  0.300064  0.000000  0.155632  1
  H  H16  1  0.152808  0.301437  0.000000  1
  H  H17  1  0.846868  0.700083  0.000000  1
  H  H18  1  0.300064  0.000000  0.844368  1
  H  H19  1  0.846868  0.299917  0.000000  1
  H  H20  1  0.700053  0.000000  0.152955  1
  H  H21  1  0.700053  0.000000  0.847045  1
  H  H22  1  0.152808  0.698563  0.000000  1
  H  H23  1  0.003541  0.847848  0.697587  1
  H  H24  1  0.003541  0.152152  0.697587  1
  H  H25  1  0.003541  0.847848  0.302413  1
  H  H26  1  0.653132  0.500000  0.200083  1
  H  H27  1  0.347192  0.500000  0.198563  1
  H  H28  1  0.799947  0.347045  0.500000  1
  H  H29  1  0.199936  0.344368  0.500000  1
  H  H30  1  0.496459  0.802413  0.652152  1
  H  H31  1  0.496459  0.197587  0.347848  1
