# generated using pymatgen
data_Y2Th2Ga4Ir3Rh
_symmetry_space_group_name_H-M   'P 1'
_cell_length_a   4.37241400
_cell_length_b   6.92170450
_cell_length_c   7.94064622
_cell_angle_alpha   89.78266385
_cell_angle_beta   90.00000000
_cell_angle_gamma   90.00000000
_symmetry_Int_Tables_number   1
_chemical_formula_structural   Y2Th2Ga4Ir3Rh
_chemical_formula_sum   'Y2 Th2 Ga4 Ir3 Rh1'
_cell_volume   240.31841656
_cell_formula_units_Z   1
loop_
 _symmetry_equiv_pos_site_id
 _symmetry_equiv_pos_as_xyz
  1  'x, y, z'
loop_
 _atom_site_type_symbol
 _atom_site_label
 _atom_site_symmetry_multiplicity
 _atom_site_fract_x
 _atom_site_fract_y
 _atom_site_fract_z
 _atom_site_occupancy
  Y  Y0  1  0.750000  0.034624  0.693145  1
  Y  Y1  1  0.750000  0.531687  0.808097  1
  Th  Th2  1  0.250000  0.968646  0.319710  1
  Th  Th3  1  0.250000  0.469498  0.181417  1
  Ga  Ga4  1  0.250000  0.352874  0.575350  1
  Ga  Ga5  1  0.250000  0.852294  0.925007  1
  Ga  Ga6  1  0.750000  0.645790  0.441562  1
  Ga  Ga7  1  0.750000  0.146403  0.059384  1
  Ir  Ir8  1  0.250000  0.237269  0.889461  1
  Ir  Ir9  1  0.750000  0.761087  0.118422  1
  Ir  Ir10  1  0.750000  0.260666  0.381100  1
  Rh  Rh11  1  0.250000  0.739162  0.607346  1
