# generated using pymatgen
data_Tb16Sc4(Ir3Ru)3
_symmetry_space_group_name_H-M   'P 1'
_cell_length_a   10.76033700
_cell_length_b   10.76033700
_cell_length_c   6.33530800
_cell_angle_alpha   90.00000000
_cell_angle_beta   90.00000000
_cell_angle_gamma   90.00000000
_symmetry_Int_Tables_number   1
_chemical_formula_structural   Tb16Sc4(Ir3Ru)3
_chemical_formula_sum   'Tb16 Sc4 Ir9 Ru3'
_cell_volume   733.53270139
_cell_formula_units_Z   1
loop_
 _symmetry_equiv_pos_site_id
 _symmetry_equiv_pos_as_xyz
  1  'x, y, z'
loop_
 _atom_site_type_symbol
 _atom_site_label
 _atom_site_symmetry_multiplicity
 _atom_site_fract_x
 _atom_site_fract_y
 _atom_site_fract_z
 _atom_site_occupancy
  Tb  Tb0  1  0.289853  0.085309  0.377843  1
  Tb  Tb1  1  0.289893  0.914847  0.878173  1
  Tb  Tb2  1  0.710107  0.085153  0.878173  1
  Tb  Tb3  1  0.710147  0.914691  0.377843  1
  Tb  Tb4  1  0.585153  0.789893  0.878173  1
  Tb  Tb5  1  0.585309  0.210147  0.377843  1
  Tb  Tb6  1  0.414691  0.789853  0.377843  1
  Tb  Tb7  1  0.414847  0.210107  0.878173  1
  Tb  Tb8  1  0.211543  0.414278  0.623422  1
  Tb  Tb9  1  0.211438  0.585724  0.120856  1
  Tb  Tb10  1  0.788562  0.414276  0.120856  1
  Tb  Tb11  1  0.788457  0.585722  0.623422  1
  Tb  Tb12  1  0.914276  0.711438  0.120856  1
  Tb  Tb13  1  0.914278  0.288457  0.623422  1
  Tb  Tb14  1  0.085722  0.711543  0.623422  1
  Tb  Tb15  1  0.085724  0.288562  0.120856  1
  Sc  Sc16  1  0.000000  0.000000  0.499853  1
  Sc  Sc17  1  0.000000  0.000000  0.999617  1
  Sc  Sc18  1  0.500000  0.500000  0.999617  1
  Sc  Sc19  1  0.500000  0.500000  0.499853  1
  Ir  Ir20  1  0.853999  0.146185  0.250039  1
  Ir  Ir21  1  0.853695  0.853802  0.749683  1
  Ir  Ir22  1  0.146305  0.146198  0.749683  1
  Ir  Ir23  1  0.146001  0.853815  0.250039  1
  Ir  Ir24  1  0.646198  0.353695  0.749683  1
  Ir  Ir25  1  0.646185  0.646001  0.250039  1
  Ir  Ir26  1  0.353815  0.353999  0.250039  1
  Ir  Ir27  1  0.353802  0.646305  0.749683  1
  Ir  Ir28  1  0.000000  0.500000  0.377806  1
  Ru  Ru29  1  0.500000  0.000000  0.123004  1
  Ru  Ru30  1  0.500000  0.000000  0.622619  1
  Ru  Ru31  1  0.000000  0.500000  0.877567  1
