# generated using pymatgen
data_Li8Er3Lu5Sn7Sb
_symmetry_space_group_name_H-M   'P 1'
_cell_length_a   9.32781900
_cell_length_b   9.32781906
_cell_length_c   7.08298600
_cell_angle_alpha   90.00000000
_cell_angle_beta   90.00000000
_cell_angle_gamma   120.00000332
_symmetry_Int_Tables_number   1
_chemical_formula_structural   Li8Er3Lu5Sn7Sb
_chemical_formula_sum   'Li8 Er3 Lu5 Sn7 Sb1'
_cell_volume   533.71231520
_cell_formula_units_Z   1
loop_
 _symmetry_equiv_pos_site_id
 _symmetry_equiv_pos_as_xyz
  1  'x, y, z'
loop_
 _atom_site_type_symbol
 _atom_site_label
 _atom_site_symmetry_multiplicity
 _atom_site_fract_x
 _atom_site_fract_y
 _atom_site_fract_z
 _atom_site_occupancy
  Li  Li0  1  0.166053  0.332107  0.212068  1
  Li  Li1  1  0.166053  0.833947  0.212068  1
  Li  Li2  1  0.667893  0.833947  0.212068  1
  Li  Li3  1  0.666667  0.333333  0.312663  1
  Li  Li4  1  0.833641  0.667281  0.718502  1
  Li  Li5  1  0.332719  0.166359  0.718502  1
  Li  Li6  1  0.833641  0.166359  0.718502  1
  Li  Li7  1  0.333333  0.666667  0.822535  1
  Er  Er8  1  0.491278  0.982554  0.508373  1
  Er  Er9  1  0.017446  0.508722  0.508373  1
  Er  Er10  1  0.491278  0.508722  0.508373  1
  Lu  Lu11  1  0.000000  0.000000  0.000105  1
  Lu  Lu12  1  0.511309  0.022618  0.005042  1
  Lu  Lu13  1  0.511309  0.488691  0.005042  1
  Lu  Lu14  1  0.977382  0.488691  0.005042  1
  Lu  Lu15  1  0.000000  0.000000  0.500727  1
  Sn  Sn16  1  0.833535  0.667072  0.266993  1
  Sn  Sn17  1  0.332928  0.166465  0.266993  1
  Sn  Sn18  1  0.833535  0.166465  0.266993  1
  Sn  Sn19  1  0.666667  0.333333  0.741686  1
  Sn  Sn20  1  0.166957  0.333914  0.769034  1
  Sn  Sn21  1  0.166957  0.833043  0.769034  1
  Sn  Sn22  1  0.666086  0.833043  0.769034  1
  Sb  Sb23  1  0.333333  0.666667  0.240229  1
