# generated using pymatgen
data_Gd8Tm12Sn13Au3
_symmetry_space_group_name_H-M   'P 1'
_cell_length_a   7.74586300
_cell_length_b   8.33122262
_cell_length_c   15.38326200
_cell_angle_alpha   90.00000000
_cell_angle_beta   90.00000000
_cell_angle_gamma   89.84981476
_symmetry_Int_Tables_number   1
_chemical_formula_structural   Gd8Tm12Sn13Au3
_chemical_formula_sum   'Gd8 Tm12 Sn13 Au3'
_cell_volume   992.71708377
_cell_formula_units_Z   1
loop_
 _symmetry_equiv_pos_site_id
 _symmetry_equiv_pos_as_xyz
  1  'x, y, z'
loop_
 _atom_site_type_symbol
 _atom_site_label
 _atom_site_symmetry_multiplicity
 _atom_site_fract_x
 _atom_site_fract_y
 _atom_site_fract_z
 _atom_site_occupancy
  Gd  Gd0  1  0.507623  0.314377  0.905955  1
  Gd  Gd1  1  0.007243  0.186541  0.593411  1
  Gd  Gd2  1  0.493889  0.685499  0.410641  1
  Gd  Gd3  1  0.992653  0.817169  0.093301  1
  Gd  Gd4  1  0.493889  0.685499  0.089359  1
  Gd  Gd5  1  0.992653  0.817169  0.406699  1
  Gd  Gd6  1  0.507623  0.314377  0.594045  1
  Gd  Gd7  1  0.007243  0.186541  0.906589  1
  Tm  Tm8  1  0.343745  0.829590  0.868325  1
  Tm  Tm9  1  0.839997  0.668517  0.631141  1
  Tm  Tm10  1  0.644591  0.173057  0.374023  1
  Tm  Tm11  1  0.169550  0.335289  0.125654  1
  Tm  Tm12  1  0.644591  0.173057  0.125977  1
  Tm  Tm13  1  0.169550  0.335289  0.374346  1
  Tm  Tm14  1  0.343745  0.829590  0.631675  1
  Tm  Tm15  1  0.839997  0.668517  0.868859  1
  Tm  Tm16  1  0.192345  0.497788  0.750000  1
  Tm  Tm17  1  0.693972  0.002302  0.750000  1
  Tm  Tm18  1  0.804713  0.498734  0.250000  1
  Tm  Tm19  1  0.316618  0.997084  0.250000  1
  Sn  Sn20  1  0.310697  0.036000  0.036985  1
  Sn  Sn21  1  0.816620  0.462227  0.459892  1
  Sn  Sn22  1  0.690843  0.963824  0.541263  1
  Sn  Sn23  1  0.186928  0.537647  0.957834  1
  Sn  Sn24  1  0.690843  0.963824  0.958737  1
  Sn  Sn25  1  0.186928  0.537647  0.542166  1
  Sn  Sn26  1  0.310697  0.036000  0.463015  1
  Sn  Sn27  1  0.816620  0.462227  0.040108  1
  Sn  Sn28  1  0.952165  0.121530  0.250000  1
  Sn  Sn29  1  0.301839  0.135845  0.750000  1
  Sn  Sn30  1  0.802011  0.362064  0.750000  1
  Sn  Sn31  1  0.687884  0.856852  0.250000  1
  Sn  Sn32  1  0.198756  0.639182  0.250000  1
  Au  Au33  1  0.544500  0.623040  0.750000  1
  Au  Au34  1  0.044575  0.874027  0.750000  1
  Au  Au35  1  0.451868  0.372073  0.250000  1
