# generated using pymatgen
data_TbDyAlZnPt2
_symmetry_space_group_name_H-M   'P 1'
_cell_length_a   4.38321400
_cell_length_b   6.85368526
_cell_length_c   7.90005193
_cell_angle_alpha   90.21943499
_cell_angle_beta   90.00000000
_cell_angle_gamma   90.00000000
_symmetry_Int_Tables_number   1
_chemical_formula_structural   TbDyAlZnPt2
_chemical_formula_sum   'Tb2 Dy2 Al2 Zn2 Pt4'
_cell_volume   237.32505604
_cell_formula_units_Z   2
loop_
 _symmetry_equiv_pos_site_id
 _symmetry_equiv_pos_as_xyz
  1  'x, y, z'
loop_
 _atom_site_type_symbol
 _atom_site_label
 _atom_site_symmetry_multiplicity
 _atom_site_fract_x
 _atom_site_fract_y
 _atom_site_fract_z
 _atom_site_occupancy
  Tb  Tb0  1  0.250000  0.468476  0.181119  1
  Tb  Tb1  1  0.750000  0.531524  0.818881  1
  Dy  Dy2  1  0.750000  0.028254  0.687941  1
  Dy  Dy3  1  0.250000  0.971746  0.312059  1
  Al  Al4  1  0.750000  0.645677  0.439358  1
  Al  Al5  1  0.250000  0.354323  0.560642  1
  Zn  Zn6  1  0.250000  0.852058  0.933072  1
  Zn  Zn7  1  0.750000  0.147942  0.066928  1
  Pt  Pt8  1  0.250000  0.729196  0.606879  1
  Pt  Pt9  1  0.750000  0.270804  0.393121  1
  Pt  Pt10  1  0.750000  0.761694  0.125581  1
  Pt  Pt11  1  0.250000  0.238306  0.874419  1
