# generated using pymatgen
data_NaNpSnBr6
_symmetry_space_group_name_H-M   'P 1'
_cell_length_a   8.01078052
_cell_length_b   8.01076835
_cell_length_c   8.01075100
_cell_angle_alpha   56.63607509
_cell_angle_beta   56.63607247
_cell_angle_gamma   56.63620343
_symmetry_Int_Tables_number   1
_chemical_formula_structural   NaNpSnBr6
_chemical_formula_sum   'Na1 Np1 Sn1 Br6'
_cell_volume   335.25788002
_cell_formula_units_Z   1
loop_
 _symmetry_equiv_pos_site_id
 _symmetry_equiv_pos_as_xyz
  1  'x, y, z'
loop_
 _atom_site_type_symbol
 _atom_site_label
 _atom_site_symmetry_multiplicity
 _atom_site_fract_x
 _atom_site_fract_y
 _atom_site_fract_z
 _atom_site_occupancy
  Na  Na0  1  0.669849  0.670005  0.669863  1
  Np  Np1  1  0.000009  0.999575  0.999898  1
  Sn  Sn2  1  0.331111  0.330845  0.331007  1
  Br  Br3  1  0.242901  0.602559  0.916687  1
  Br  Br4  1  0.601968  0.917686  0.243027  1
  Br  Br5  1  0.917983  0.242286  0.601642  1
  Br  Br6  1  0.752397  0.395312  0.089519  1
  Br  Br7  1  0.395686  0.088548  0.752342  1
  Br  Br8  1  0.088098  0.753184  0.396014  1
