# generated using pymatgen
data_Ce8Cu3Si12W
_symmetry_space_group_name_H-M   'P 1'
_cell_length_a   8.19279700
_cell_length_b   8.19279820
_cell_length_c   8.28382600
_cell_angle_alpha   90.00000000
_cell_angle_beta   90.00000000
_cell_angle_gamma   119.99999113
_symmetry_Int_Tables_number   1
_chemical_formula_structural   Ce8Cu3Si12W
_chemical_formula_sum   'Ce8 Cu3 Si12 W1'
_cell_volume   481.53303881
_cell_formula_units_Z   1
loop_
 _symmetry_equiv_pos_site_id
 _symmetry_equiv_pos_as_xyz
  1  'x, y, z'
loop_
 _atom_site_type_symbol
 _atom_site_label
 _atom_site_symmetry_multiplicity
 _atom_site_fract_x
 _atom_site_fract_y
 _atom_site_fract_z
 _atom_site_occupancy
  Ce  Ce0  1  0.000000  0.000000  0.251877  1
  Ce  Ce1  1  0.000000  0.000000  0.748013  1
  Ce  Ce2  1  0.496004  0.503996  0.242703  1
  Ce  Ce3  1  0.496004  0.992007  0.242703  1
  Ce  Ce4  1  0.007993  0.503996  0.242703  1
  Ce  Ce5  1  0.495476  0.504524  0.757331  1
  Ce  Ce6  1  0.495476  0.990950  0.757331  1
  Ce  Ce7  1  0.009050  0.504524  0.757331  1
  Cu  Cu8  1  0.333333  0.666667  0.499094  1
  Cu  Cu9  1  0.666667  0.333333  0.502432  1
  Cu  Cu10  1  0.666667  0.333333  0.998324  1
  Si  Si11  1  0.168064  0.831936  0.499778  1
  Si  Si12  1  0.168064  0.336129  0.499778  1
  Si  Si13  1  0.663871  0.831936  0.499778  1
  Si  Si14  1  0.831511  0.168489  0.500275  1
  Si  Si15  1  0.831511  0.663021  0.500275  1
  Si  Si16  1  0.336979  0.168489  0.500275  1
  Si  Si17  1  0.831605  0.168395  0.999566  1
  Si  Si18  1  0.831605  0.663210  0.999566  1
  Si  Si19  1  0.336790  0.168395  0.999566  1
  Si  Si20  1  0.161634  0.838366  0.000436  1
  Si  Si21  1  0.161634  0.323269  0.000436  1
  Si  Si22  1  0.676731  0.838366  0.000436  1
  W  W23  1  0.333333  0.666667  0.999995  1
