# generated using pymatgen
data_Li3FeH7
_symmetry_space_group_name_H-M   'P 1'
_cell_length_a   4.80206082
_cell_length_b   4.68805180
_cell_length_c   7.11026795
_cell_angle_alpha   43.87041667
_cell_angle_beta   64.44792450
_cell_angle_gamma   61.33633194
_symmetry_Int_Tables_number   1
_chemical_formula_structural   Li3FeH7
_chemical_formula_sum   'Li3 Fe1 H7'
_cell_volume   96.36984430
_cell_formula_units_Z   1
loop_
 _symmetry_equiv_pos_site_id
 _symmetry_equiv_pos_as_xyz
  1  'x, y, z'
loop_
 _atom_site_type_symbol
 _atom_site_label
 _atom_site_symmetry_multiplicity
 _atom_site_fract_x
 _atom_site_fract_y
 _atom_site_fract_z
 _atom_site_occupancy
  Li  Li0  1  0.347057  0.530990  0.425155  1
  Li  Li1  1  0.734795  0.911556  0.356680  1
  Li  Li2  1  0.013094  0.744022  0.861545  1
  Fe  Fe3  1  0.053679  0.263145  0.354249  1
  H  H4  1  0.814505  0.973900  0.570997  1
  H  H5  1  0.983523  0.331840  0.560333  1
  H  H6  1  0.298111  0.825641  0.544156  1
  H  H7  1  0.083695  0.714435  0.140817  1
  H  H8  1  0.745920  0.584953  0.221612  1
  H  H9  1  0.117063  0.149694  0.175262  1
  H  H10  1  0.371805  0.375902  0.188660  1
