# generated using pymatgen
data_ScCd3As(PN2)6
_symmetry_space_group_name_H-M   'P 1'
_cell_length_a   7.41439457
_cell_length_b   7.43708884
_cell_length_c   7.43709037
_cell_angle_alpha   109.53295146
_cell_angle_beta   109.40942460
_cell_angle_gamma   109.40941373
_symmetry_Int_Tables_number   1
_chemical_formula_structural   ScCd3As(PN2)6
_chemical_formula_sum   'Sc1 Cd3 As1 P6 N12'
_cell_volume   315.92973559
_cell_formula_units_Z   1
loop_
 _symmetry_equiv_pos_site_id
 _symmetry_equiv_pos_as_xyz
  1  'x, y, z'
loop_
 _atom_site_type_symbol
 _atom_site_label
 _atom_site_symmetry_multiplicity
 _atom_site_fract_x
 _atom_site_fract_y
 _atom_site_fract_z
 _atom_site_occupancy
  Sc  Sc0  1  0.617790  0.000000  0.000000  1
  Cd  Cd1  1  0.002782  0.000000  0.673041  1
  Cd  Cd2  1  0.002782  0.673041  0.000000  1
  Cd  Cd3  1  0.329742  0.326959  0.326959  1
  As  As4  1  0.968483  0.000000  0.000000  1
  P  P5  1  0.252866  0.748562  0.499012  1
  P  P6  1  0.753854  0.249550  0.500988  1
  P  P7  1  0.753854  0.500988  0.249550  1
  P  P8  1  0.252866  0.499012  0.748562  1
  P  P9  1  0.504304  0.750450  0.251438  1
  P  P10  1  0.504304  0.251438  0.750450  1
  N  N11  1  0.708704  0.284900  0.284900  1
  N  N12  1  0.293013  0.714364  0.289845  1
  N  N13  1  0.310763  0.590943  0.590943  1
  N  N14  1  0.578649  0.575481  0.285636  1
  N  N15  1  0.423803  0.715100  0.000000  1
  N  N16  1  0.003168  0.710155  0.424519  1
  N  N17  1  0.578649  0.285636  0.575481  1
  N  N18  1  0.719820  0.000000  0.409057  1
  N  N19  1  0.423803  0.000000  0.715100  1
  N  N20  1  0.719820  0.409057  0.000000  1
  N  N21  1  0.293013  0.289845  0.714364  1
  N  N22  1  0.003168  0.424519  0.710155  1
