# generated using pymatgen
data_Tb3PrZr4F28
_symmetry_space_group_name_H-M   'P 1'
_cell_length_a   5.81534043
_cell_length_b   9.21401858
_cell_length_c   12.38048493
_cell_angle_alpha   62.26777899
_cell_angle_beta   89.96470737
_cell_angle_gamma   90.02035458
_symmetry_Int_Tables_number   1
_chemical_formula_structural   Tb3PrZr4F28
_chemical_formula_sum   'Tb3 Pr1 Zr4 F28'
_cell_volume   587.17798625
_cell_formula_units_Z   1
loop_
 _symmetry_equiv_pos_site_id
 _symmetry_equiv_pos_as_xyz
  1  'x, y, z'
loop_
 _atom_site_type_symbol
 _atom_site_label
 _atom_site_symmetry_multiplicity
 _atom_site_fract_x
 _atom_site_fract_y
 _atom_site_fract_z
 _atom_site_occupancy
  Tb  Tb0  1  0.743494  0.817250  0.266255  1
  Tb  Tb1  1  0.243447  0.185313  0.233749  1
  Tb  Tb2  1  0.257417  0.189610  0.733138  1
  Pr  Pr3  1  0.756777  0.816095  0.766606  1
  Zr  Zr4  1  0.743832  0.278145  0.452582  1
  Zr  Zr5  1  0.244742  0.725417  0.049664  1
  Zr  Zr6  1  0.254691  0.725845  0.540120  1
  Zr  Zr7  1  0.755131  0.269481  0.957394  1
  F  F8  1  0.460048  0.709103  0.926108  1
  F  F9  1  0.965283  0.288492  0.576534  1
  F  F10  1  0.532435  0.285731  0.078693  1
  F  F11  1  0.031686  0.711334  0.418850  1
  F  F12  1  0.457285  0.282324  0.548745  1
  F  F13  1  0.957702  0.715019  0.957755  1
  F  F14  1  0.545535  0.719022  0.448170  1
  F  F15  1  0.042274  0.278280  0.051668  1
  F  F16  1  0.768664  0.517686  0.860890  1
  F  F17  1  0.266934  0.476033  0.638762  1
  F  F18  1  0.235295  0.474923  0.143503  1
  F  F19  1  0.733278  0.526956  0.356914  1
  F  F20  1  0.759461  0.021240  0.059792  1
  F  F21  1  0.259122  0.974754  0.439703  1
  F  F22  1  0.239839  0.973113  0.943148  1
  F  F23  1  0.739626  0.029373  0.553064  1
  F  F24  1  0.986362  0.731282  0.643712  1
  F  F25  1  0.486410  0.265367  0.852375  1
  F  F26  1  0.010985  0.265576  0.349392  1
  F  F27  1  0.513706  0.735084  0.152083  1
  F  F28  1  0.032959  0.747036  0.174373  1
  F  F29  1  0.531189  0.254354  0.328203  1
  F  F30  1  0.966757  0.250788  0.830573  1
  F  F31  1  0.458183  0.743257  0.668664  1
  F  F32  1  0.432182  0.975610  0.235741  1
  F  F33  1  0.933337  0.025783  0.264363  1
  F  F34  1  0.569229  0.037071  0.765637  1
  F  F35  1  0.084704  0.978252  0.733073  1
