# generated using pymatgen
data_Tb3YPd3RhPb2
_symmetry_space_group_name_H-M   'P 1'
_cell_length_a   7.89430105
_cell_length_b   7.89430112
_cell_length_c   3.65557000
_cell_angle_alpha   90.00000000
_cell_angle_beta   90.00000000
_cell_angle_gamma   90.05910085
_symmetry_Int_Tables_number   1
_chemical_formula_structural   Tb3YPd3RhPb2
_chemical_formula_sum   'Tb3 Y1 Pd3 Rh1 Pb2'
_cell_volume   227.81496348
_cell_formula_units_Z   1
loop_
 _symmetry_equiv_pos_site_id
 _symmetry_equiv_pos_as_xyz
  1  'x, y, z'
loop_
 _atom_site_type_symbol
 _atom_site_label
 _atom_site_symmetry_multiplicity
 _atom_site_fract_x
 _atom_site_fract_y
 _atom_site_fract_z
 _atom_site_occupancy
  Tb  Tb0  1  0.679394  0.179394  0.500000  1
  Tb  Tb1  1  0.160563  0.326859  0.500000  1
  Tb  Tb2  1  0.826859  0.660563  0.500000  1
  Y  Y3  1  0.329814  0.829814  0.500000  1
  Pd  Pd4  1  0.375239  0.126817  0.000000  1
  Pd  Pd5  1  0.626817  0.875239  0.000000  1
  Pd  Pd6  1  0.128269  0.628269  0.000000  1
  Rh  Rh7  1  0.874512  0.374512  0.000000  1
  Pb  Pb8  1  0.999105  0.999429  0.000000  1
  Pb  Pb9  1  0.499429  0.499105  0.000000  1
