# generated using pymatgen
data_LiSe23
_symmetry_space_group_name_H-M   'P 1'
_cell_length_a   5.68511510
_cell_length_b   10.28509539
_cell_length_c   16.15558500
_cell_angle_alpha   89.10824159
_cell_angle_beta   87.08539489
_cell_angle_gamma   90.44174592
_symmetry_Int_Tables_number   1
_chemical_formula_structural   LiSe23
_chemical_formula_sum   'Li1 Se23'
_cell_volume   943.27815527
_cell_formula_units_Z   1
loop_
 _symmetry_equiv_pos_site_id
 _symmetry_equiv_pos_as_xyz
  1  'x, y, z'
loop_
 _atom_site_type_symbol
 _atom_site_label
 _atom_site_symmetry_multiplicity
 _atom_site_fract_x
 _atom_site_fract_y
 _atom_site_fract_z
 _atom_site_occupancy
  Li  Li0  1  0.483352  0.427819  0.467959  1
  Se  Se1  1  0.513824  0.803814  0.374167  1
  Se  Se2  1  0.036921  0.314028  0.118969  1
  Se  Se3  1  0.772855  0.229796  0.449719  1
  Se  Se4  1  0.283881  0.781639  0.498304  1
  Se  Se5  1  0.232040  0.261188  0.991233  1
  Se  Se6  1  0.762675  0.715784  0.013914  1
  Se  Se7  1  0.088069  0.412083  0.389315  1
  Se  Se8  1  0.680295  0.587904  0.352973  1
  Se  Se9  1  0.813102  0.129571  0.165208  1
  Se  Se10  1  0.254230  0.860830  0.131776  1
  Se  Se11  1  0.734852  0.619647  0.632374  1
  Se  Se12  1  0.332146  0.329224  0.619106  1
  Se  Se13  1  0.196857  0.851773  0.848304  1
  Se  Se14  1  0.753883  0.124824  0.861091  1
  Se  Se15  1  0.023690  0.670600  0.119531  1
  Se  Se16  1  0.530047  0.816261  0.609723  1
  Se  Se17  1  0.626985  0.171489  0.585317  1
  Se  Se18  1  0.963644  0.667319  0.886541  1
  Se  Se19  1  0.985041  0.312635  0.882325  1
  Se  Se20  1  0.402967  0.454580  0.285083  1
  Se  Se21  1  0.068035  0.990397  0.235179  1
  Se  Se22  1  0.491308  0.475589  0.714561  1
  Se  Se23  1  0.969295  0.991205  0.767327  1
