# generated using pymatgen
data_Dy3YCS3
_symmetry_space_group_name_H-M   'P 1'
_cell_length_a   6.71319230
_cell_length_b   6.71319313
_cell_length_c   6.71664787
_cell_angle_alpha   79.89078946
_cell_angle_beta   79.89078671
_cell_angle_gamma   32.72722897
_symmetry_Int_Tables_number   1
_chemical_formula_structural   Dy3YCS3
_chemical_formula_sum   'Dy3 Y1 C1 S3'
_cell_volume   160.88955724
_cell_formula_units_Z   1
loop_
 _symmetry_equiv_pos_site_id
 _symmetry_equiv_pos_as_xyz
  1  'x, y, z'
loop_
 _atom_site_type_symbol
 _atom_site_label
 _atom_site_symmetry_multiplicity
 _atom_site_fract_x
 _atom_site_fract_y
 _atom_site_fract_z
 _atom_site_occupancy
  Dy  Dy0  1  0.234284  0.234284  0.231431  1
  Dy  Dy1  1  0.509378  0.509378  0.467120  1
  Dy  Dy2  1  0.740524  0.740524  0.782389  1
  Y  Y3  1  0.015425  0.015425  0.018309  1
  C  C4  1  0.625754  0.625754  0.125764  1
  S  S5  1  0.868551  0.868551  0.378445  1
  S  S6  1  0.125274  0.125274  0.624441  1
  S  S7  1  0.380809  0.380809  0.872101  1
