# generated using pymatgen
data_Pa2Fe9P6W
_symmetry_space_group_name_H-M   'P 1'
_cell_length_a   3.71083000
_cell_length_b   10.41071100
_cell_length_c   11.86672100
_cell_angle_alpha   90.00000000
_cell_angle_beta   90.00000000
_cell_angle_gamma   90.00000000
_symmetry_Int_Tables_number   1
_chemical_formula_structural   Pa2Fe9P6W
_chemical_formula_sum   'Pa4 Fe18 P12 W2'
_cell_volume   458.43965960
_cell_formula_units_Z   2
loop_
 _symmetry_equiv_pos_site_id
 _symmetry_equiv_pos_as_xyz
  1  'x, y, z'
loop_
 _atom_site_type_symbol
 _atom_site_label
 _atom_site_symmetry_multiplicity
 _atom_site_fract_x
 _atom_site_fract_y
 _atom_site_fract_z
 _atom_site_occupancy
  Pa  Pa0  1  0.250000  0.576312  0.699975  1
  Pa  Pa1  1  0.250000  0.923688  0.199975  1
  Pa  Pa2  1  0.750000  0.421483  0.295360  1
  Pa  Pa3  1  0.750000  0.078517  0.795360  1
  Fe  Fe4  1  0.750000  0.295241  0.007306  1
  Fe  Fe5  1  0.750000  0.204759  0.507306  1
  Fe  Fe6  1  0.250000  0.399787  0.483338  1
  Fe  Fe7  1  0.250000  0.100213  0.983338  1
  Fe  Fe8  1  0.750000  0.592603  0.520509  1
  Fe  Fe9  1  0.750000  0.907397  0.020509  1
  Fe  Fe10  1  0.250000  0.224912  0.170673  1
  Fe  Fe11  1  0.250000  0.275088  0.670673  1
  Fe  Fe12  1  0.750000  0.777750  0.829211  1
  Fe  Fe13  1  0.750000  0.722250  0.329211  1
  Fe  Fe14  1  0.250000  0.889381  0.704322  1
  Fe  Fe15  1  0.250000  0.610619  0.204322  1
  Fe  Fe16  1  0.750000  0.117085  0.297292  1
  Fe  Fe17  1  0.750000  0.382915  0.797292  1
  Fe  Fe18  1  0.250000  0.461159  0.932235  1
  Fe  Fe19  1  0.250000  0.038841  0.432235  1
  Fe  Fe20  1  0.750000  0.529928  0.066212  1
  Fe  Fe21  1  0.750000  0.970072  0.566212  1
  P  P22  1  0.250000  0.419842  0.110307  1
  P  P23  1  0.250000  0.080158  0.610307  1
  P  P24  1  0.750000  0.575809  0.886123  1
  P  P25  1  0.750000  0.924191  0.386123  1
  P  P26  1  0.250000  0.271860  0.861116  1
  P  P27  1  0.250000  0.228140  0.361116  1
  P  P28  1  0.750000  0.722709  0.142604  1
  P  P29  1  0.750000  0.777291  0.642604  1
  P  P30  1  0.250000  0.597585  0.395512  1
  P  P31  1  0.250000  0.902415  0.895512  1
  P  P32  1  0.750000  0.388939  0.604087  1
  P  P33  1  0.750000  0.111061  0.104087  1
  W  W34  1  0.250000  0.701300  0.993821  1
  W  W35  1  0.250000  0.798700  0.493821  1
