# generated using pymatgen
data_Tb3Y7Si5P
_symmetry_space_group_name_H-M   'P 1'
_cell_length_a   8.44261400
_cell_length_b   8.44770441
_cell_length_c   6.34102901
_cell_angle_alpha   90.00537097
_cell_angle_beta   89.99739585
_cell_angle_gamma   119.97986531
_symmetry_Int_Tables_number   1
_chemical_formula_structural   Tb3Y7Si5P
_chemical_formula_sum   'Tb3 Y7 Si5 P1'
_cell_volume   391.73654735
_cell_formula_units_Z   1
loop_
 _symmetry_equiv_pos_site_id
 _symmetry_equiv_pos_as_xyz
  1  'x, y, z'
loop_
 _atom_site_type_symbol
 _atom_site_label
 _atom_site_symmetry_multiplicity
 _atom_site_fract_x
 _atom_site_fract_y
 _atom_site_fract_z
 _atom_site_occupancy
  Tb  Tb0  1  0.333712  0.667507  0.500478  1
  Tb  Tb1  1  0.666193  0.332481  0.999486  1
  Tb  Tb2  1  0.666206  0.332490  0.500506  1
  Y  Y3  1  0.001000  0.756396  0.750018  1
  Y  Y4  1  0.000953  0.244683  0.249987  1
  Y  Y5  1  0.756250  0.755336  0.249984  1
  Y  Y6  1  0.754446  0.999984  0.750018  1
  Y  Y7  1  0.244594  0.243618  0.750012  1
  Y  Y8  1  0.244484  0.999982  0.249989  1
  Y  Y9  1  0.333696  0.667488  0.999544  1
  Si  Si10  1  0.393789  0.393196  0.249956  1
  Si  Si11  1  0.000723  0.606880  0.249940  1
  Si  Si12  1  0.000218  0.393290  0.750051  1
  Si  Si13  1  0.606870  0.606808  0.750048  1
  Si  Si14  1  0.607665  0.999925  0.249944  1
  P  P15  1  0.389198  0.999935  0.750039  1
