# generated using pymatgen
data_YTm2GaSn3Ir2
_symmetry_space_group_name_H-M   'P 1'
_cell_length_a   7.42528400
_cell_length_b   7.39937568
_cell_length_c   4.09654200
_cell_angle_alpha   90.00000000
_cell_angle_beta   90.00000000
_cell_angle_gamma   120.05641466
_symmetry_Int_Tables_number   1
_chemical_formula_structural   YTm2GaSn3Ir2
_chemical_formula_sum   'Y1 Tm2 Ga1 Sn3 Ir2'
_cell_volume   194.80900384
_cell_formula_units_Z   1
loop_
 _symmetry_equiv_pos_site_id
 _symmetry_equiv_pos_as_xyz
  1  'x, y, z'
loop_
 _atom_site_type_symbol
 _atom_site_label
 _atom_site_symmetry_multiplicity
 _atom_site_fract_x
 _atom_site_fract_y
 _atom_site_fract_z
 _atom_site_occupancy
  Y  Y0  1  0.987761  0.398039  0.500000  1
  Tm  Tm1  1  0.604927  0.589488  0.500000  1
  Tm  Tm2  1  0.410331  0.015724  0.500000  1
  Ga  Ga3  1  0.335001  0.667936  0.000000  1
  Sn  Sn4  1  0.995336  0.742889  0.000000  1
  Sn  Sn5  1  0.257150  0.252706  0.000000  1
  Sn  Sn6  1  0.746435  0.003282  0.000000  1
  Ir  Ir7  1  0.663149  0.332435  0.000000  1
  Ir  Ir8  1  0.999911  0.997502  0.500000  1
