# generated using pymatgen
data_CsLa2AgS4
_symmetry_space_group_name_H-M   'P 1'
_cell_length_a   4.31004200
_cell_length_b   7.60822169
_cell_length_c   14.72091400
_cell_angle_alpha   90.00000000
_cell_angle_beta   90.00000000
_cell_angle_gamma   73.54579803
_symmetry_Int_Tables_number   1
_chemical_formula_structural   CsLa2AgS4
_chemical_formula_sum   'Cs2 La4 Ag2 S8'
_cell_volume   462.95531925
_cell_formula_units_Z   2
loop_
 _symmetry_equiv_pos_site_id
 _symmetry_equiv_pos_as_xyz
  1  'x, y, z'
loop_
 _atom_site_type_symbol
 _atom_site_label
 _atom_site_symmetry_multiplicity
 _atom_site_fract_x
 _atom_site_fract_y
 _atom_site_fract_z
 _atom_site_occupancy
  Cs  Cs0  1  0.891590  0.216822  0.250000  1
  Cs  Cs1  1  0.108410  0.783178  0.750000  1
  La  La2  1  0.633044  0.733913  0.062061  1
  La  La3  1  0.633044  0.733913  0.437939  1
  La  La4  1  0.366955  0.266088  0.562061  1
  La  La5  1  0.366955  0.266088  0.937939  1
  Ag  Ag6  1  0.167362  0.665275  0.250000  1
  Ag  Ag7  1  0.832638  0.334724  0.750000  1
  S  S8  1  0.000000  0.000000  0.000000  1
  S  S9  1  0.257287  0.485425  0.101198  1
  S  S10  1  0.573382  0.853238  0.250000  1
  S  S11  1  0.257287  0.485425  0.398802  1
  S  S12  1  0.000000  0.000000  0.500000  1
  S  S13  1  0.742713  0.514574  0.601197  1
  S  S14  1  0.426618  0.146763  0.750000  1
  S  S15  1  0.742713  0.514574  0.898802  1
