# generated using pymatgen
data_LiNd16Ag3Rh4
_symmetry_space_group_name_H-M   'P 1'
_cell_length_a   9.90102025
_cell_length_b   9.87951356
_cell_length_c   9.87951300
_cell_angle_alpha   60.00000522
_cell_angle_beta   60.07183400
_cell_angle_gamma   60.07183107
_symmetry_Int_Tables_number   1
_chemical_formula_structural   LiNd16Ag3Rh4
_chemical_formula_sum   'Li1 Nd16 Ag3 Rh4'
_cell_volume   684.07977209
_cell_formula_units_Z   1
loop_
 _symmetry_equiv_pos_site_id
 _symmetry_equiv_pos_as_xyz
  1  'x, y, z'
loop_
 _atom_site_type_symbol
 _atom_site_label
 _atom_site_symmetry_multiplicity
 _atom_site_fract_x
 _atom_site_fract_y
 _atom_site_fract_z
 _atom_site_occupancy
  Li  Li0  1  0.554740  0.815087  0.815087  1
  Nd  Nd1  1  0.600705  0.600436  0.600436  1
  Nd  Nd2  1  0.600705  0.600436  0.198421  1
  Nd  Nd3  1  0.600705  0.198421  0.600436  1
  Nd  Nd4  1  0.189262  0.603579  0.603579  1
  Nd  Nd5  1  0.057288  0.440318  0.440318  1
  Nd  Nd6  1  0.434460  0.064424  0.064424  1
  Nd  Nd7  1  0.434460  0.064424  0.436692  1
  Nd  Nd8  1  0.057288  0.440318  0.062075  1
  Nd  Nd9  1  0.434460  0.436692  0.064424  1
  Nd  Nd10  1  0.057288  0.062075  0.440318  1
  Nd  Nd11  1  0.183027  0.813627  0.813627  1
  Nd  Nd12  1  0.813032  0.186015  0.186015  1
  Nd  Nd13  1  0.813032  0.186015  0.814938  1
  Nd  Nd14  1  0.183027  0.813627  0.189718  1
  Nd  Nd15  1  0.813032  0.814938  0.186015  1
  Nd  Nd16  1  0.183027  0.189718  0.813627  1
  Ag  Ag17  1  0.834149  0.833285  0.833285  1
  Ag  Ag18  1  0.834149  0.833285  0.499283  1
  Ag  Ag19  1  0.834149  0.499283  0.833285  1
  Rh  Rh20  1  0.390064  0.393247  0.393247  1
  Rh  Rh21  1  0.390064  0.393247  0.823440  1
  Rh  Rh22  1  0.390064  0.823440  0.393247  1
  Rh  Rh23  1  0.817815  0.394061  0.394061  1
