# generated using pymatgen
data_NdSmYSc(WN3)4
_symmetry_space_group_name_H-M   'P 1'
_cell_length_a   7.17704828
_cell_length_b   7.17704911
_cell_length_c   6.13761800
_cell_angle_alpha   74.85773991
_cell_angle_beta   74.85774639
_cell_angle_gamma   83.11394406
_symmetry_Int_Tables_number   1
_chemical_formula_structural   NdSmYSc(WN3)4
_chemical_formula_sum   'Nd1 Sm1 Y1 Sc1 W4 N12'
_cell_volume   294.12363045
_cell_formula_units_Z   1
loop_
 _symmetry_equiv_pos_site_id
 _symmetry_equiv_pos_as_xyz
  1  'x, y, z'
loop_
 _atom_site_type_symbol
 _atom_site_label
 _atom_site_symmetry_multiplicity
 _atom_site_fract_x
 _atom_site_fract_y
 _atom_site_fract_z
 _atom_site_occupancy
  Nd  Nd0  1  0.698596  0.301404  0.750000  1
  Sm  Sm1  1  0.301820  0.698180  0.250000  1
  Y  Y2  1  0.084798  0.915202  0.750000  1
  Sc  Sc3  1  0.913772  0.086228  0.250000  1
  W  W4  1  0.383603  0.197779  0.255429  1
  W  W5  1  0.619280  0.803165  0.738201  1
  W  W6  1  0.802221  0.616397  0.244571  1
  W  W7  1  0.196835  0.380720  0.761799  1
  N  N8  1  0.628909  0.101089  0.174688  1
  N  N9  1  0.368479  0.345462  0.481427  1
  N  N10  1  0.999512  0.209812  0.871725  1
  N  N11  1  0.379382  0.902809  0.837217  1
  N  N12  1  0.790188  0.000488  0.628275  1
  N  N13  1  0.097191  0.620618  0.662783  1
  N  N14  1  0.898911  0.371091  0.325312  1
  N  N15  1  0.622239  0.646782  0.523087  1
  N  N16  1  0.654538  0.631521  0.018573  1
  N  N17  1  0.353218  0.377761  0.976913  1
  N  N18  1  0.996346  0.789839  0.153239  1
  N  N19  1  0.210161  0.003654  0.346761  1
