# generated using pymatgen
data_Tb2DyCd3Ga2Ag
_symmetry_space_group_name_H-M   'P 1'
_cell_length_a   7.40583601
_cell_length_b   7.40642371
_cell_length_c   4.35218300
_cell_angle_alpha   90.00000000
_cell_angle_beta   90.00000000
_cell_angle_gamma   120.00263173
_symmetry_Int_Tables_number   1
_chemical_formula_structural   Tb2DyCd3Ga2Ag
_chemical_formula_sum   'Tb2 Dy1 Cd3 Ga2 Ag1'
_cell_volume   206.73257157
_cell_formula_units_Z   1
loop_
 _symmetry_equiv_pos_site_id
 _symmetry_equiv_pos_as_xyz
  1  'x, y, z'
loop_
 _atom_site_type_symbol
 _atom_site_label
 _atom_site_symmetry_multiplicity
 _atom_site_fract_x
 _atom_site_fract_y
 _atom_site_fract_z
 _atom_site_occupancy
  Tb  Tb0  1  0.420790  0.420822  0.500000  1
  Tb  Tb1  1  0.579210  0.000032  0.500000  1
  Dy  Dy2  1  0.000000  0.579282  0.500000  1
  Cd  Cd3  1  0.748515  0.748449  0.000000  1
  Cd  Cd4  1  0.251485  0.999934  0.000000  1
  Cd  Cd5  1  0.000000  0.251645  0.000000  1
  Ga  Ga6  1  0.666849  0.333444  0.000000  1
  Ga  Ga7  1  0.333151  0.666596  0.000000  1
  Ag  Ag8  1  0.000000  0.999797  0.500000  1
