# generated using pymatgen
data_Sm6IrBr10
_symmetry_space_group_name_H-M   'P 1'
_cell_length_a   7.54368394
_cell_length_b   9.42652050
_cell_length_c   9.48044895
_cell_angle_alpha   108.53621100
_cell_angle_beta   97.07660747
_cell_angle_gamma   105.57817318
_symmetry_Int_Tables_number   1
_chemical_formula_structural   Sm6IrBr10
_chemical_formula_sum   'Sm6 Ir1 Br10'
_cell_volume   599.43651009
_cell_formula_units_Z   1
loop_
 _symmetry_equiv_pos_site_id
 _symmetry_equiv_pos_as_xyz
  1  'x, y, z'
loop_
 _atom_site_type_symbol
 _atom_site_label
 _atom_site_symmetry_multiplicity
 _atom_site_fract_x
 _atom_site_fract_y
 _atom_site_fract_z
 _atom_site_occupancy
  Sm  Sm0  1  0.972587  0.300372  0.096377  1
  Sm  Sm1  1  0.027413  0.699628  0.903623  1
  Sm  Sm2  1  0.633495  0.860177  0.816139  1
  Sm  Sm3  1  0.366505  0.139823  0.183861  1
  Sm  Sm4  1  0.128057  0.047756  0.755112  1
  Sm  Sm5  1  0.871943  0.952244  0.244888  1
  Ir  Ir6  1  0.000000  0.000000  0.000000  1
  Br  Br7  1  0.548369  0.175158  0.918484  1
  Br  Br8  1  0.451631  0.824842  0.081516  1
  Br  Br9  1  0.751540  0.917811  0.546136  1
  Br  Br10  1  0.248460  0.082189  0.453864  1
  Br  Br11  1  0.087273  0.368449  0.831449  1
  Br  Br12  1  0.912727  0.631551  0.168551  1
  Br  Br13  1  0.205909  0.742043  0.650152  1
  Br  Br14  1  0.794091  0.257957  0.349848  1
  Br  Br15  1  0.643629  0.543626  0.726201  1
  Br  Br16  1  0.356371  0.456374  0.273799  1
