# generated using pymatgen
data_Pu4TcMo3N8
_symmetry_space_group_name_H-M   'P 1'
_cell_length_a   3.23053200
_cell_length_b   5.60221451
_cell_length_c   10.80880027
_cell_angle_alpha   90.00962520
_cell_angle_beta   90.00000000
_cell_angle_gamma   90.00000000
_symmetry_Int_Tables_number   1
_chemical_formula_structural   Pu4TcMo3N8
_chemical_formula_sum   'Pu4 Tc1 Mo3 N8'
_cell_volume   195.61910462
_cell_formula_units_Z   1
loop_
 _symmetry_equiv_pos_site_id
 _symmetry_equiv_pos_as_xyz
  1  'x, y, z'
loop_
 _atom_site_type_symbol
 _atom_site_label
 _atom_site_symmetry_multiplicity
 _atom_site_fract_x
 _atom_site_fract_y
 _atom_site_fract_z
 _atom_site_occupancy
  Pu  Pu0  1  0.250000  0.578177  0.856831  1
  Pu  Pu1  1  0.750000  0.425732  0.143665  1
  Pu  Pu2  1  0.750000  0.922799  0.354784  1
  Pu  Pu3  1  0.250000  0.075161  0.643013  1
  Tc  Tc4  1  0.250000  0.929380  0.099918  1
  Mo  Mo5  1  0.750000  0.073830  0.900420  1
  Mo  Mo6  1  0.750000  0.570641  0.600214  1
  Mo  Mo7  1  0.250000  0.427105  0.401329  1
  N  N8  1  0.250000  0.661642  0.243642  1
  N  N9  1  0.750000  0.337289  0.757768  1
  N  N10  1  0.750000  0.839081  0.744188  1
  N  N11  1  0.250000  0.158513  0.254811  1
  N  N12  1  0.250000  0.753379  0.503674  1
  N  N13  1  0.750000  0.243785  0.495984  1
  N  N14  1  0.750000  0.749431  0.003024  1
  N  N15  1  0.250000  0.254055  0.996733  1
