# generated using pymatgen
data_Nb12Ni8W4CN3
_symmetry_space_group_name_H-M   'P 1'
_cell_length_a   8.19542678
_cell_length_b   8.19542683
_cell_length_c   8.19542700
_cell_angle_alpha   59.99958515
_cell_angle_beta   59.99958352
_cell_angle_gamma   59.99958415
_symmetry_Int_Tables_number   1
_chemical_formula_structural   Nb12Ni8W4CN3
_chemical_formula_sum   'Nb12 Ni8 W4 C1 N3'
_cell_volume   389.22044676
_cell_formula_units_Z   1
loop_
 _symmetry_equiv_pos_site_id
 _symmetry_equiv_pos_as_xyz
  1  'x, y, z'
loop_
 _atom_site_type_symbol
 _atom_site_label
 _atom_site_symmetry_multiplicity
 _atom_site_fract_x
 _atom_site_fract_y
 _atom_site_fract_z
 _atom_site_occupancy
  Nb  Nb0  1  0.438191  0.062738  0.062738  1
  Nb  Nb1  1  0.062407  0.436833  0.436833  1
  Nb  Nb2  1  0.062738  0.438191  0.062738  1
  Nb  Nb3  1  0.062738  0.062738  0.438191  1
  Nb  Nb4  1  0.436833  0.062407  0.436833  1
  Nb  Nb5  1  0.436833  0.436833  0.062407  1
  Nb  Nb6  1  0.187262  0.811809  0.187262  1
  Nb  Nb7  1  0.813167  0.187593  0.813167  1
  Nb  Nb8  1  0.811809  0.187262  0.187262  1
  Nb  Nb9  1  0.187262  0.187262  0.811809  1
  Nb  Nb10  1  0.187593  0.813167  0.813167  1
  Nb  Nb11  1  0.813167  0.813167  0.187593  1
  Ni  Ni12  1  0.828715  0.828715  0.828715  1
  Ni  Ni13  1  0.828883  0.828883  0.513375  1
  Ni  Ni14  1  0.513375  0.828883  0.828883  1
  Ni  Ni15  1  0.828883  0.513375  0.828883  1
  Ni  Ni16  1  0.421285  0.421285  0.421285  1
  Ni  Ni17  1  0.421117  0.421117  0.736625  1
  Ni  Ni18  1  0.421117  0.736625  0.421117  1
  Ni  Ni19  1  0.736625  0.421117  0.421117  1
  W  W20  1  0.625000  0.625000  0.625000  1
  W  W21  1  0.625000  0.625000  0.125000  1
  W  W22  1  0.125000  0.625000  0.625000  1
  W  W23  1  0.625000  0.125000  0.625000  1
  C  C24  1  0.125000  0.125000  0.125000  1
  N  N25  1  0.125000  0.125000  0.625000  1
  N  N26  1  0.625000  0.125000  0.125000  1
  N  N27  1  0.125000  0.625000  0.125000  1
