# generated using pymatgen
data_Ho3Co3Ni6(As2P)2
_symmetry_space_group_name_H-M   'P 1'
_cell_length_a   3.80836400
_cell_length_b   10.77052500
_cell_length_c   12.56800300
_cell_angle_alpha   90.00000000
_cell_angle_beta   90.00000000
_cell_angle_gamma   90.00000000
_symmetry_Int_Tables_number   1
_chemical_formula_structural   Ho3Co3Ni6(As2P)2
_chemical_formula_sum   'Ho6 Co6 Ni12 As8 P4'
_cell_volume   515.51534836
_cell_formula_units_Z   2
loop_
 _symmetry_equiv_pos_site_id
 _symmetry_equiv_pos_as_xyz
  1  'x, y, z'
loop_
 _atom_site_type_symbol
 _atom_site_label
 _atom_site_symmetry_multiplicity
 _atom_site_fract_x
 _atom_site_fract_y
 _atom_site_fract_z
 _atom_site_occupancy
  Ho  Ho0  1  0.000000  0.500000  0.520776  1
  Ho  Ho1  1  0.500000  0.000000  0.479224  1
  Ho  Ho2  1  0.500000  0.812661  0.202256  1
  Ho  Ho3  1  0.500000  0.187339  0.202256  1
  Ho  Ho4  1  0.000000  0.687339  0.797744  1
  Ho  Ho5  1  0.000000  0.312661  0.797744  1
  Co  Co6  1  0.000000  0.500000  0.993381  1
  Co  Co7  1  0.500000  0.000000  0.006619  1
  Co  Co8  1  0.500000  0.331335  0.998939  1
  Co  Co9  1  0.500000  0.668665  0.998939  1
  Co  Co10  1  0.000000  0.168665  0.001061  1
  Co  Co11  1  0.000000  0.831335  0.001061  1
  Ni  Ni12  1  0.500000  0.303471  0.427238  1
  Ni  Ni13  1  0.500000  0.696529  0.427238  1
  Ni  Ni14  1  0.000000  0.196529  0.572762  1
  Ni  Ni15  1  0.000000  0.803471  0.572762  1
  Ni  Ni16  1  0.500000  0.878264  0.723778  1
  Ni  Ni17  1  0.500000  0.121736  0.723778  1
  Ni  Ni18  1  0.000000  0.621736  0.276222  1
  Ni  Ni19  1  0.000000  0.378264  0.276222  1
  Ni  Ni20  1  0.500000  0.500000  0.150756  1
  Ni  Ni21  1  0.000000  0.000000  0.849244  1
  Ni  Ni22  1  0.500000  0.500000  0.703150  1
  Ni  Ni23  1  0.000000  0.000000  0.296850  1
  As  As24  1  0.500000  0.313553  0.616946  1
  As  As25  1  0.500000  0.686447  0.616946  1
  As  As26  1  0.000000  0.186447  0.383054  1
  As  As27  1  0.000000  0.813553  0.383054  1
  As  As28  1  0.500000  0.500000  0.881957  1
  As  As29  1  0.000000  0.000000  0.118043  1
  As  As30  1  0.500000  0.500000  0.340964  1
  As  As31  1  0.000000  0.000000  0.659036  1
  P  P32  1  0.500000  0.842426  0.899849  1
  P  P33  1  0.500000  0.157574  0.899849  1
  P  P34  1  0.000000  0.657574  0.100151  1
  P  P35  1  0.000000  0.342426  0.100151  1
