# generated using pymatgen
data_Nd15YCd4Ru3Au
_symmetry_space_group_name_H-M   'P 1'
_cell_length_a   9.99081900
_cell_length_b   9.94436562
_cell_length_c   9.99081893
_cell_angle_alpha   59.84671038
_cell_angle_beta   59.82007577
_cell_angle_gamma   59.84670592
_symmetry_Int_Tables_number   1
_chemical_formula_structural   Nd15YCd4Ru3Au
_chemical_formula_sum   'Nd15 Y1 Cd4 Ru3 Au1'
_cell_volume   699.29886828
_cell_formula_units_Z   1
loop_
 _symmetry_equiv_pos_site_id
 _symmetry_equiv_pos_as_xyz
  1  'x, y, z'
loop_
 _atom_site_type_symbol
 _atom_site_label
 _atom_site_symmetry_multiplicity
 _atom_site_fract_x
 _atom_site_fract_y
 _atom_site_fract_z
 _atom_site_occupancy
  Nd  Nd0  1  0.439718  0.435387  0.061508  1
  Nd  Nd1  1  0.064613  0.057110  0.440759  1
  Nd  Nd2  1  0.440759  0.057110  0.064613  1
  Nd  Nd3  1  0.854643  0.840562  0.854643  1
  Nd  Nd4  1  0.691383  0.320106  0.298062  1
  Nd  Nd5  1  0.061508  0.435387  0.439718  1
  Nd  Nd6  1  0.312533  0.687120  0.689461  1
  Nd  Nd7  1  0.298062  0.320106  0.691383  1
  Nd  Nd8  1  0.854772  0.840906  0.450452  1
  Nd  Nd9  1  0.689461  0.687120  0.312533  1
  Nd  Nd10  1  0.450452  0.840906  0.854772  1
  Nd  Nd11  1  0.062475  0.436418  0.062475  1
  Nd  Nd12  1  0.843408  0.461939  0.843408  1
  Nd  Nd13  1  0.439882  0.055675  0.439882  1
  Nd  Nd14  1  0.310154  0.689335  0.310154  1
  Y  Y15  1  0.691123  0.318827  0.691123  1
  Cd  Cd16  1  0.080621  0.757438  0.080621  1
  Cd  Cd17  1  0.077344  0.082172  0.760071  1
  Cd  Cd18  1  0.760071  0.082172  0.077344  1
  Cd  Cd19  1  0.079045  0.080400  0.079045  1
  Ru  Ru20  1  0.637424  0.646170  0.637424  1
  Ru  Ru21  1  0.638297  0.646447  0.078399  1
  Ru  Ru22  1  0.078399  0.646447  0.638297  1
  Au  Au23  1  0.643851  0.074738  0.643851  1
