# generated using pymatgen
data_Dy6Er10Cd4NiOs3
_symmetry_space_group_name_H-M   'P 1'
_cell_length_a   9.56221099
_cell_length_b   9.56221182
_cell_length_c   9.56221087
_cell_angle_alpha   60.15677553
_cell_angle_beta   60.15677361
_cell_angle_gamma   60.15676778
_symmetry_Int_Tables_number   1
_chemical_formula_structural   Dy6Er10Cd4NiOs3
_chemical_formula_sum   'Dy6 Er10 Cd4 Ni1 Os3'
_cell_volume   620.43944597
_cell_formula_units_Z   1
loop_
 _symmetry_equiv_pos_site_id
 _symmetry_equiv_pos_as_xyz
  1  'x, y, z'
loop_
 _atom_site_type_symbol
 _atom_site_label
 _atom_site_symmetry_multiplicity
 _atom_site_fract_x
 _atom_site_fract_y
 _atom_site_fract_z
 _atom_site_occupancy
  Dy  Dy0  1  0.192428  0.808431  0.808431  1
  Dy  Dy1  1  0.815533  0.189386  0.189386  1
  Dy  Dy2  1  0.808431  0.192428  0.808431  1
  Dy  Dy3  1  0.189386  0.815533  0.189386  1
  Dy  Dy4  1  0.808431  0.808431  0.192428  1
  Dy  Dy5  1  0.189386  0.189386  0.815533  1
  Er  Er6  1  0.596689  0.596689  0.596689  1
  Er  Er7  1  0.597002  0.597002  0.206113  1
  Er  Er8  1  0.597002  0.206113  0.597002  1
  Er  Er9  1  0.206113  0.597002  0.597002  1
  Er  Er10  1  0.060520  0.439201  0.439201  1
  Er  Er11  1  0.438488  0.061044  0.061044  1
  Er  Er12  1  0.439201  0.060520  0.439201  1
  Er  Er13  1  0.061044  0.438488  0.061044  1
  Er  Er14  1  0.439201  0.439201  0.060520  1
  Er  Er15  1  0.061044  0.061044  0.438488  1
  Cd  Cd16  1  0.830342  0.830342  0.830342  1
  Cd  Cd17  1  0.830521  0.830521  0.509418  1
  Cd  Cd18  1  0.830521  0.509418  0.830521  1
  Cd  Cd19  1  0.509418  0.830521  0.830521  1
  Ni  Ni20  1  0.390615  0.390615  0.390615  1
  Os  Os21  1  0.390289  0.390289  0.828097  1
  Os  Os22  1  0.390289  0.828097  0.390289  1
  Os  Os23  1  0.828097  0.390289  0.390289  1
