# generated using pymatgen
data_Tb3Nb(Co4P3)2
_symmetry_space_group_name_H-M   'P 1'
_cell_length_a   3.71127400
_cell_length_b   10.63980200
_cell_length_c   12.33394000
_cell_angle_alpha   90.00000000
_cell_angle_beta   90.00000000
_cell_angle_gamma   90.00000000
_symmetry_Int_Tables_number   1
_chemical_formula_structural   Tb3Nb(Co4P3)2
_chemical_formula_sum   'Tb6 Nb2 Co16 P12'
_cell_volume   487.03300876
_cell_formula_units_Z   2
loop_
 _symmetry_equiv_pos_site_id
 _symmetry_equiv_pos_as_xyz
  1  'x, y, z'
loop_
 _atom_site_type_symbol
 _atom_site_label
 _atom_site_symmetry_multiplicity
 _atom_site_fract_x
 _atom_site_fract_y
 _atom_site_fract_z
 _atom_site_occupancy
  Tb  Tb0  1  0.000000  0.500000  0.525481  1
  Tb  Tb1  1  0.500000  0.000000  0.474519  1
  Tb  Tb2  1  0.500000  0.819999  0.205463  1
  Tb  Tb3  1  0.500000  0.180001  0.205463  1
  Tb  Tb4  1  0.000000  0.680001  0.794537  1
  Tb  Tb5  1  0.000000  0.319999  0.794537  1
  Nb  Nb6  1  0.500000  0.500000  0.155998  1
  Nb  Nb7  1  0.000000  0.000000  0.844002  1
  Co  Co8  1  0.500000  0.500000  0.701748  1
  Co  Co9  1  0.000000  0.000000  0.298252  1
  Co  Co10  1  0.000000  0.500000  0.985374  1
  Co  Co11  1  0.500000  0.000000  0.014626  1
  Co  Co12  1  0.500000  0.332524  0.991526  1
  Co  Co13  1  0.500000  0.667476  0.991526  1
  Co  Co14  1  0.000000  0.167476  0.008474  1
  Co  Co15  1  0.000000  0.832524  0.008474  1
  Co  Co16  1  0.500000  0.295332  0.432112  1
  Co  Co17  1  0.500000  0.704668  0.432112  1
  Co  Co18  1  0.000000  0.204668  0.567888  1
  Co  Co19  1  0.000000  0.795332  0.567888  1
  Co  Co20  1  0.500000  0.877662  0.705217  1
  Co  Co21  1  0.500000  0.122338  0.705217  1
  Co  Co22  1  0.000000  0.622338  0.294783  1
  Co  Co23  1  0.000000  0.377662  0.294783  1
  P  P24  1  0.500000  0.500000  0.881990  1
  P  P25  1  0.000000  0.000000  0.118010  1
  P  P26  1  0.500000  0.500000  0.354283  1
  P  P27  1  0.000000  0.000000  0.645717  1
  P  P28  1  0.500000  0.310405  0.615262  1
  P  P29  1  0.500000  0.689595  0.615262  1
  P  P30  1  0.000000  0.189595  0.384738  1
  P  P31  1  0.000000  0.810405  0.384738  1
  P  P32  1  0.500000  0.841642  0.893994  1
  P  P33  1  0.500000  0.158358  0.893994  1
  P  P34  1  0.000000  0.658358  0.106006  1
  P  P35  1  0.000000  0.341642  0.106006  1
