# generated using pymatgen
data_Nd8Cd3Pd8Pb
_symmetry_space_group_name_H-M   'P 1'
_cell_length_a   7.91681400
_cell_length_b   7.91681400
_cell_length_c   7.71906600
_cell_angle_alpha   90.00000000
_cell_angle_beta   90.00000000
_cell_angle_gamma   90.00000000
_symmetry_Int_Tables_number   1
_chemical_formula_structural   Nd8Cd3Pd8Pb
_chemical_formula_sum   'Nd8 Cd3 Pd8 Pb1'
_cell_volume   483.79974766
_cell_formula_units_Z   1
loop_
 _symmetry_equiv_pos_site_id
 _symmetry_equiv_pos_as_xyz
  1  'x, y, z'
loop_
 _atom_site_type_symbol
 _atom_site_label
 _atom_site_symmetry_multiplicity
 _atom_site_fract_x
 _atom_site_fract_y
 _atom_site_fract_z
 _atom_site_occupancy
  Nd  Nd0  1  0.172363  0.175025  0.000568  1
  Nd  Nd1  1  0.827637  0.824975  0.000568  1
  Nd  Nd2  1  0.675025  0.327637  0.499432  1
  Nd  Nd3  1  0.324975  0.672363  0.499432  1
  Nd  Nd4  1  0.676991  0.325437  0.000562  1
  Nd  Nd5  1  0.323009  0.674563  0.000562  1
  Nd  Nd6  1  0.825437  0.823009  0.499438  1
  Nd  Nd7  1  0.174563  0.176991  0.499438  1
  Cd  Cd8  1  0.500000  0.000000  0.750000  1
  Cd  Cd9  1  0.000000  0.500000  0.250000  1
  Cd  Cd10  1  0.000000  0.500000  0.750000  1
  Pd  Pd11  1  0.371108  0.379331  0.247690  1
  Pd  Pd12  1  0.625582  0.626710  0.752205  1
  Pd  Pd13  1  0.628892  0.620669  0.247690  1
  Pd  Pd14  1  0.873290  0.125582  0.747795  1
  Pd  Pd15  1  0.879331  0.128892  0.252310  1
  Pd  Pd16  1  0.374418  0.373290  0.752205  1
  Pd  Pd17  1  0.120669  0.871108  0.252310  1
  Pd  Pd18  1  0.126710  0.874418  0.747795  1
  Pb  Pb19  1  0.500000  0.000000  0.250000  1
