# generated using pymatgen
data_Pr6InSn5Pd6
_symmetry_space_group_name_H-M   'P 1'
_cell_length_a   7.66491700
_cell_length_b   7.63758183
_cell_length_c   8.45680216
_cell_angle_alpha   89.99352973
_cell_angle_beta   90.00000000
_cell_angle_gamma   120.11845995
_symmetry_Int_Tables_number   1
_chemical_formula_structural   Pr6InSn5Pd6
_chemical_formula_sum   'Pr6 In1 Sn5 Pd6'
_cell_volume   428.23334777
_cell_formula_units_Z   1
loop_
 _symmetry_equiv_pos_site_id
 _symmetry_equiv_pos_as_xyz
  1  'x, y, z'
loop_
 _atom_site_type_symbol
 _atom_site_label
 _atom_site_symmetry_multiplicity
 _atom_site_fract_x
 _atom_site_fract_y
 _atom_site_fract_z
 _atom_site_occupancy
  Pr  Pr0  1  0.414567  0.001760  0.249233  1
  Pr  Pr1  1  0.586088  0.584750  0.250396  1
  Pr  Pr2  1  0.999303  0.414207  0.249824  1
  Pr  Pr3  1  0.412808  0.998240  0.750767  1
  Pr  Pr4  1  0.585094  0.585793  0.750176  1
  Pr  Pr5  1  0.001338  0.415250  0.749604  1
  In  In6  1  0.752176  0.000000  0.000000  1
  Sn  Sn7  1  0.252360  0.251724  0.500059  1
  Sn  Sn8  1  0.000636  0.748276  0.499941  1
  Sn  Sn9  1  0.996891  0.753773  0.000046  1
  Sn  Sn10  1  0.243117  0.246227  0.999954  1
  Sn  Sn11  1  0.749928  0.000000  0.500000  1
  Pd  Pd12  1  0.331068  0.665613  0.002084  1
  Pd  Pd13  1  0.334555  0.666911  0.497606  1
  Pd  Pd14  1  0.665457  0.334387  0.997916  1
  Pd  Pd15  1  0.667645  0.333089  0.502394  1
  Pd  Pd16  1  0.003561  0.000156  0.253787  1
  Pd  Pd17  1  0.003406  0.999844  0.746213  1
