# generated using pymatgen
data_Y8Tm2Si5Ge
_symmetry_space_group_name_H-M   'P 1'
_cell_length_a   8.44441206
_cell_length_b   8.44441098
_cell_length_c   6.34757300
_cell_angle_alpha   90.00016586
_cell_angle_beta   90.00016264
_cell_angle_gamma   120.01378559
_symmetry_Int_Tables_number   1
_chemical_formula_structural   Y8Tm2Si5Ge
_chemical_formula_sum   'Y8 Tm2 Si5 Ge1'
_cell_volume   391.93745604
_cell_formula_units_Z   1
loop_
 _symmetry_equiv_pos_site_id
 _symmetry_equiv_pos_as_xyz
  1  'x, y, z'
loop_
 _atom_site_type_symbol
 _atom_site_label
 _atom_site_symmetry_multiplicity
 _atom_site_fract_x
 _atom_site_fract_y
 _atom_site_fract_z
 _atom_site_occupancy
  Y  Y0  1  0.667311  0.333200  0.500653  1
  Y  Y1  1  0.333200  0.667311  0.500653  1
  Y  Y2  1  0.756796  0.756796  0.248271  1
  Y  Y3  1  0.243734  0.998950  0.248261  1
  Y  Y4  1  0.998950  0.243734  0.248261  1
  Y  Y5  1  0.243693  0.243693  0.751647  1
  Y  Y6  1  0.755937  0.999941  0.751740  1
  Y  Y7  1  0.999941  0.755937  0.751740  1
  Tm  Tm8  1  0.333204  0.667319  0.999371  1
  Tm  Tm9  1  0.667319  0.333204  0.999371  1
  Si  Si10  1  0.605174  0.999969  0.244819  1
  Si  Si11  1  0.999969  0.605174  0.244819  1
  Si  Si12  1  0.605341  0.605341  0.755094  1
  Si  Si13  1  0.394807  0.000044  0.755192  1
  Si  Si14  1  0.000044  0.394807  0.755192  1
  Ge  Ge15  1  0.394580  0.394580  0.244916  1
