# generated using pymatgen
data_YbCo(GeO3)2
_symmetry_space_group_name_H-M   'P 1'
_cell_length_a   5.47176041
_cell_length_b   6.80777655
_cell_length_c   6.80796109
_cell_angle_alpha   82.01122658
_cell_angle_beta   78.49193279
_cell_angle_gamma   78.49077070
_symmetry_Int_Tables_number   1
_chemical_formula_structural   YbCo(GeO3)2
_chemical_formula_sum   'Yb2 Co2 Ge4 O12'
_cell_volume   242.20286975
_cell_formula_units_Z   2
loop_
 _symmetry_equiv_pos_site_id
 _symmetry_equiv_pos_as_xyz
  1  'x, y, z'
loop_
 _atom_site_type_symbol
 _atom_site_label
 _atom_site_symmetry_multiplicity
 _atom_site_fract_x
 _atom_site_fract_y
 _atom_site_fract_z
 _atom_site_occupancy
  Yb  Yb0  1  0.249759  0.305722  0.694111  1
  Yb  Yb1  1  0.749874  0.694140  0.305788  1
  Co  Co2  1  0.749903  0.088839  0.911009  1
  Co  Co3  1  0.250008  0.911052  0.088855  1
  Ge  Ge4  1  0.227764  0.814216  0.614334  1
  Ge  Ge5  1  0.272355  0.385627  0.185753  1
  Ge  Ge6  1  0.772379  0.185728  0.385725  1
  Ge  Ge7  1  0.727741  0.614418  0.814189  1
  O  O8  1  0.134016  0.986735  0.795195  1
  O  O9  1  0.365990  0.204700  0.013326  1
  O  O10  1  0.866076  0.013270  0.204791  1
  O  O11  1  0.634068  0.795244  0.986718  1
  O  O12  1  0.352662  0.900030  0.370480  1
  O  O13  1  0.147510  0.629604  0.100107  1
  O  O14  1  0.647456  0.100120  0.629656  1
  O  O15  1  0.852581  0.370496  0.899950  1
  O  O16  1  0.983745  0.670875  0.606096  1
  O  O17  1  0.516178  0.393717  0.329319  1
  O  O18  1  0.016170  0.329315  0.393774  1
  O  O19  1  0.483761  0.606154  0.670824  1
