# generated using pymatgen
data_TbPr6ScO12
_symmetry_space_group_name_H-M   'P 1'
_cell_length_a   6.95329584
_cell_length_b   6.95329734
_cell_length_c   6.95329600
_cell_angle_alpha   92.92176745
_cell_angle_beta   92.92176808
_cell_angle_gamma   92.92176102
_symmetry_Int_Tables_number   1
_chemical_formula_structural   TbPr6ScO12
_chemical_formula_sum   'Tb1 Pr6 Sc1 O12'
_cell_volume   334.82282672
_cell_formula_units_Z   1
loop_
 _symmetry_equiv_pos_site_id
 _symmetry_equiv_pos_as_xyz
  1  'x, y, z'
loop_
 _atom_site_type_symbol
 _atom_site_label
 _atom_site_symmetry_multiplicity
 _atom_site_fract_x
 _atom_site_fract_y
 _atom_site_fract_z
 _atom_site_occupancy
  Tb  Tb0  1  0.000000  0.000000  0.000000  1
  Pr  Pr1  1  0.741342  0.928898  0.438132  1
  Pr  Pr2  1  0.438132  0.741342  0.928898  1
  Pr  Pr3  1  0.071102  0.561868  0.258658  1
  Pr  Pr4  1  0.928898  0.438132  0.741342  1
  Pr  Pr5  1  0.561868  0.258658  0.071102  1
  Pr  Pr6  1  0.258658  0.071102  0.561868  1
  Sc  Sc7  1  0.500000  0.500000  0.500000  1
  O  O8  1  0.064638  0.910882  0.311217  1
  O  O9  1  0.688783  0.935362  0.089118  1
  O  O10  1  0.461883  0.796651  0.587966  1
  O  O11  1  0.089118  0.688783  0.935362  1
  O  O12  1  0.796651  0.587966  0.461883  1
  O  O13  1  0.412034  0.538117  0.203349  1
  O  O14  1  0.587966  0.461883  0.796651  1
  O  O15  1  0.203349  0.412034  0.538117  1
  O  O16  1  0.910882  0.311217  0.064638  1
  O  O17  1  0.538117  0.203349  0.412034  1
  O  O18  1  0.311217  0.064638  0.910882  1
  O  O19  1  0.935362  0.089118  0.688783  1
