# generated using pymatgen
data_SmHo2Zn2Co9B4
_symmetry_space_group_name_H-M   'P 1'
_cell_length_a   5.13709805
_cell_length_b   5.13933357
_cell_length_c   9.73988400
_cell_angle_alpha   89.99986630
_cell_angle_beta   90.00027012
_cell_angle_gamma   119.96031261
_symmetry_Int_Tables_number   1
_chemical_formula_structural   SmHo2Zn2Co9B4
_chemical_formula_sum   'Sm1 Ho2 Zn2 Co9 B4'
_cell_volume   222.78329385
_cell_formula_units_Z   1
loop_
 _symmetry_equiv_pos_site_id
 _symmetry_equiv_pos_as_xyz
  1  'x, y, z'
loop_
 _atom_site_type_symbol
 _atom_site_label
 _atom_site_symmetry_multiplicity
 _atom_site_fract_x
 _atom_site_fract_y
 _atom_site_fract_z
 _atom_site_occupancy
  Sm  Sm0  1  0.999991  0.000000  0.000168  1
  Ho  Ho1  1  0.999996  0.000001  0.342885  1
  Ho  Ho2  1  0.999998  0.000002  0.656969  1
  Zn  Zn3  1  0.333398  0.666654  0.000071  1
  Zn  Zn4  1  0.666584  0.333345  0.000072  1
  Co  Co5  1  0.499996  0.000001  0.499957  1
  Co  Co6  1  0.499997  0.499999  0.499953  1
  Co  Co7  1  0.999992  0.499999  0.499940  1
  Co  Co8  1  0.499994  0.000001  0.212720  1
  Co  Co9  1  0.499994  0.500000  0.212694  1
  Co  Co10  1  0.999994  0.500001  0.212705  1
  Co  Co11  1  0.499996  0.999997  0.787322  1
  Co  Co12  1  0.499995  0.500001  0.787339  1
  Co  Co13  1  0.999996  0.500001  0.787351  1
  B  B14  1  0.333187  0.666368  0.351779  1
  B  B15  1  0.666801  0.333632  0.351779  1
  B  B16  1  0.666643  0.333385  0.648148  1
  B  B17  1  0.333346  0.666614  0.648148  1
