# generated using pymatgen
data_Pr3Nd7InSn3(BiBr)2
_symmetry_space_group_name_H-M   'P 1'
_cell_length_a   9.62658100
_cell_length_b   9.62781243
_cell_length_c   6.80732400
_cell_angle_alpha   90.00000000
_cell_angle_beta   90.00000000
_cell_angle_gamma   120.40170311
_symmetry_Int_Tables_number   1
_chemical_formula_structural   Pr3Nd7InSn3(BiBr)2
_chemical_formula_sum   'Pr3 Nd7 In1 Sn3 Bi2 Br2'
_cell_volume   544.16991054
_cell_formula_units_Z   1
loop_
 _symmetry_equiv_pos_site_id
 _symmetry_equiv_pos_as_xyz
  1  'x, y, z'
loop_
 _atom_site_type_symbol
 _atom_site_label
 _atom_site_symmetry_multiplicity
 _atom_site_fract_x
 _atom_site_fract_y
 _atom_site_fract_z
 _atom_site_occupancy
  Pr  Pr0  1  0.004507  0.732166  0.250000  1
  Pr  Pr1  1  0.735117  0.734542  0.750000  1
  Pr  Pr2  1  0.264573  0.264908  0.250000  1
  Nd  Nd3  1  0.267366  0.994796  0.750000  1
  Nd  Nd4  1  0.732735  0.005285  0.250000  1
  Nd  Nd5  1  0.995463  0.268262  0.750000  1
  Nd  Nd6  1  0.330368  0.670714  0.497864  1
  Nd  Nd7  1  0.669980  0.328857  0.498471  1
  Nd  Nd8  1  0.669980  0.328857  0.001529  1
  Nd  Nd9  1  0.330368  0.670714  0.002136  1
  In  In10  1  0.612067  0.999563  0.750000  1
  Sn  Sn11  1  0.389020  0.001355  0.250000  1
  Sn  Sn12  1  0.999059  0.612793  0.750000  1
  Sn  Sn13  1  0.000244  0.385883  0.250000  1
  Bi  Bi14  1  0.384207  0.384347  0.750000  1
  Bi  Bi15  1  0.614805  0.615955  0.250000  1
  Br  Br16  1  0.000070  0.000502  0.500434  1
  Br  Br17  1  0.000070  0.000502  0.999566  1
