# generated using pymatgen
data_Tb3Al12Os3Pt
_symmetry_space_group_name_H-M   'P 1'
_cell_length_a   8.86433837
_cell_length_b   8.86433852
_cell_length_c   9.57551674
_cell_angle_alpha   90.28697599
_cell_angle_beta   89.71302373
_cell_angle_gamma   120.12675280
_symmetry_Int_Tables_number   1
_chemical_formula_structural   Tb3Al12Os3Pt
_chemical_formula_sum   'Tb6 Al24 Os6 Pt2'
_cell_volume   650.76192826
_cell_formula_units_Z   2
loop_
 _symmetry_equiv_pos_site_id
 _symmetry_equiv_pos_as_xyz
  1  'x, y, z'
loop_
 _atom_site_type_symbol
 _atom_site_label
 _atom_site_symmetry_multiplicity
 _atom_site_fract_x
 _atom_site_fract_y
 _atom_site_fract_z
 _atom_site_occupancy
  Tb  Tb0  1  0.195635  0.387060  0.253483  1
  Tb  Tb1  1  0.804365  0.612940  0.746517  1
  Tb  Tb2  1  0.612940  0.804365  0.253483  1
  Tb  Tb3  1  0.387060  0.195635  0.746517  1
  Tb  Tb4  1  0.192962  0.807038  0.252923  1
  Tb  Tb5  1  0.807038  0.192962  0.747077  1
  Al  Al6  1  0.335727  0.664273  0.023884  1
  Al  Al7  1  0.664273  0.335727  0.976116  1
  Al  Al8  1  0.667019  0.332981  0.517360  1
  Al  Al9  1  0.332981  0.667019  0.482640  1
  Al  Al10  1  0.162992  0.326797  0.576317  1
  Al  Al11  1  0.837008  0.673203  0.423683  1
  Al  Al12  1  0.673203  0.837008  0.576317  1
  Al  Al13  1  0.832991  0.674856  0.076483  1
  Al  Al14  1  0.326797  0.162992  0.423683  1
  Al  Al15  1  0.167009  0.325144  0.923517  1
  Al  Al16  1  0.163228  0.836772  0.576437  1
  Al  Al17  1  0.325144  0.167009  0.076483  1
  Al  Al18  1  0.836772  0.163228  0.423563  1
  Al  Al19  1  0.674856  0.832991  0.923517  1
  Al  Al20  1  0.838639  0.161361  0.079034  1
  Al  Al21  1  0.161361  0.838639  0.920966  1
  Al  Al22  1  0.562688  0.124472  0.251666  1
  Al  Al23  1  0.437312  0.875528  0.748334  1
  Al  Al24  1  0.875528  0.437312  0.251666  1
  Al  Al25  1  0.124472  0.562688  0.748334  1
  Al  Al26  1  0.561795  0.438205  0.248560  1
  Al  Al27  1  0.438205  0.561795  0.751440  1
  Al  Al28  1  0.000766  0.999234  0.250373  1
  Al  Al29  1  0.999234  0.000766  0.749627  1
  Os  Os30  1  0.500000  0.000000  0.500000  1
  Os  Os31  1  0.500000  0.500000  0.000000  1
  Os  Os32  1  0.000000  0.500000  0.500000  1
  Os  Os33  1  0.500000  0.500000  0.500000  1
  Os  Os34  1  0.000000  0.000000  0.000000  1
  Os  Os35  1  0.000000  0.000000  0.500000  1
  Pt  Pt36  1  0.500000  0.000000  0.000000  1
  Pt  Pt37  1  0.000000  0.500000  0.000000  1
