# generated using pymatgen
data_K3DyIr2O9
_symmetry_space_group_name_H-M   'P 1'
_cell_length_a   5.98979100
_cell_length_b   5.98875370
_cell_length_c   14.49791900
_cell_angle_alpha   90.00000000
_cell_angle_beta   90.00000000
_cell_angle_gamma   120.00548803
_symmetry_Int_Tables_number   1
_chemical_formula_structural   K3DyIr2O9
_chemical_formula_sum   'K6 Dy2 Ir4 O18'
_cell_volume   450.36061338
_cell_formula_units_Z   2
loop_
 _symmetry_equiv_pos_site_id
 _symmetry_equiv_pos_as_xyz
  1  'x, y, z'
loop_
 _atom_site_type_symbol
 _atom_site_label
 _atom_site_symmetry_multiplicity
 _atom_site_fract_x
 _atom_site_fract_y
 _atom_site_fract_z
 _atom_site_occupancy
  K  K0  1  0.666666  0.333324  0.098698  1
  K  K1  1  0.000018  0.000000  0.250000  1
  K  K2  1  0.666666  0.333324  0.401302  1
  K  K3  1  0.333333  0.666676  0.598698  1
  K  K4  1  0.999982  0.000000  0.750000  1
  K  K5  1  0.333333  0.666676  0.901302  1
  Dy  Dy6  1  0.000000  0.000000  0.000000  1
  Dy  Dy7  1  0.000000  0.000000  0.500000  1
  Ir  Ir8  1  0.333328  0.666665  0.157289  1
  Ir  Ir9  1  0.333328  0.666665  0.342711  1
  Ir  Ir10  1  0.666672  0.333335  0.657288  1
  Ir  Ir11  1  0.666672  0.333335  0.842711  1
  O  O12  1  0.179326  0.358689  0.085437  1
  O  O13  1  0.179362  0.820624  0.085445  1
  O  O14  1  0.641267  0.820645  0.085439  1
  O  O15  1  0.047021  0.523474  0.250000  1
  O  O16  1  0.476407  0.523442  0.250000  1
  O  O17  1  0.476505  0.953089  0.250000  1
  O  O18  1  0.179326  0.358689  0.414562  1
  O  O19  1  0.179362  0.820624  0.414555  1
  O  O20  1  0.641267  0.820645  0.414561  1
  O  O21  1  0.820674  0.641311  0.585438  1
  O  O22  1  0.358733  0.179355  0.585439  1
  O  O23  1  0.820638  0.179376  0.585445  1
  O  O24  1  0.523495  0.046911  0.750000  1
  O  O25  1  0.523593  0.476558  0.750000  1
  O  O26  1  0.952979  0.476526  0.750000  1
  O  O27  1  0.358733  0.179355  0.914561  1
  O  O28  1  0.820638  0.179376  0.914555  1
  O  O29  1  0.820674  0.641311  0.914563  1
