# generated using pymatgen
data_Tb2Gd4NbO12
_symmetry_space_group_name_H-M   'P 1'
_cell_length_a   6.55031841
_cell_length_b   6.52848552
_cell_length_c   6.56788011
_cell_angle_alpha   98.55350503
_cell_angle_beta   98.92585889
_cell_angle_gamma   98.55644614
_symmetry_Int_Tables_number   1
_chemical_formula_structural   Tb2Gd4NbO12
_chemical_formula_sum   'Tb2 Gd4 Nb1 O12'
_cell_volume   270.09985286
_cell_formula_units_Z   1
loop_
 _symmetry_equiv_pos_site_id
 _symmetry_equiv_pos_as_xyz
  1  'x, y, z'
loop_
 _atom_site_type_symbol
 _atom_site_label
 _atom_site_symmetry_multiplicity
 _atom_site_fract_x
 _atom_site_fract_y
 _atom_site_fract_z
 _atom_site_occupancy
  Tb  Tb0  1  0.858553  0.387091  0.698851  1
  Tb  Tb1  1  0.611833  0.300704  0.137026  1
  Gd  Gd2  1  0.304401  0.141875  0.610282  1
  Gd  Gd3  1  0.698935  0.862244  0.390178  1
  Gd  Gd4  1  0.392040  0.695385  0.861193  1
  Gd  Gd5  1  0.138352  0.608395  0.300829  1
  Nb  Nb6  1  0.001540  0.999113  0.999464  1
  O  O7  1  0.927891  0.044223  0.698042  1
  O  O8  1  0.955243  0.303221  0.070458  1
  O  O9  1  0.589799  0.177278  0.436184  1
  O  O10  1  0.822123  0.562344  0.411876  1
  O  O11  1  0.302777  0.073958  0.961262  1
  O  O12  1  0.564599  0.411887  0.823354  1
  O  O13  1  0.436318  0.587874  0.178854  1
  O  O14  1  0.697315  0.930177  0.041878  1
  O  O15  1  0.175562  0.435833  0.586961  1
  O  O16  1  0.411246  0.823893  0.565299  1
  O  O17  1  0.039754  0.696573  0.926035  1
  O  O18  1  0.071718  0.957931  0.301974  1
