# generated using pymatgen
data_Ba5Al4ZnSn
_symmetry_space_group_name_H-M   'P 1'
_cell_length_a   6.14023300
_cell_length_b   6.14023346
_cell_length_c   11.03167700
_cell_angle_alpha   90.00000000
_cell_angle_beta   90.00000000
_cell_angle_gamma   120.00000294
_symmetry_Int_Tables_number   1
_chemical_formula_structural   Ba5Al4ZnSn
_chemical_formula_sum   'Ba5 Al4 Zn1 Sn1'
_cell_volume   360.19849286
_cell_formula_units_Z   1
loop_
 _symmetry_equiv_pos_site_id
 _symmetry_equiv_pos_as_xyz
  1  'x, y, z'
loop_
 _atom_site_type_symbol
 _atom_site_label
 _atom_site_symmetry_multiplicity
 _atom_site_fract_x
 _atom_site_fract_y
 _atom_site_fract_z
 _atom_site_occupancy
  Ba  Ba0  1  0.666667  0.333333  0.797645  1
  Ba  Ba1  1  0.666667  0.333333  0.198402  1
  Ba  Ba2  1  0.000000  0.000000  0.671298  1
  Ba  Ba3  1  0.000000  0.000000  0.332450  1
  Ba  Ba4  1  0.333333  0.666667  0.998603  1
  Al  Al5  1  0.970944  0.485472  0.501664  1
  Al  Al6  1  0.514528  0.485472  0.501664  1
  Al  Al7  1  0.514528  0.029056  0.501664  1
  Al  Al8  1  0.333333  0.666667  0.328183  1
  Zn  Zn9  1  0.333333  0.666667  0.668952  1
  Sn  Sn10  1  0.000000  0.000000  0.999475  1
