# generated using pymatgen
data_MnBe3(VTe)16
_symmetry_space_group_name_H-M   'P 1'
_cell_length_a   4.51221300
_cell_length_b   10.61929570
_cell_length_c   18.38625720
_cell_angle_alpha   90.04140234
_cell_angle_beta   90.00000000
_cell_angle_gamma   90.00000000
_symmetry_Int_Tables_number   1
_chemical_formula_structural   MnBe3(VTe)16
_chemical_formula_sum   'Mn1 Be3 V16 Te16'
_cell_volume   881.00530581
_cell_formula_units_Z   1
loop_
 _symmetry_equiv_pos_site_id
 _symmetry_equiv_pos_as_xyz
  1  'x, y, z'
loop_
 _atom_site_type_symbol
 _atom_site_label
 _atom_site_symmetry_multiplicity
 _atom_site_fract_x
 _atom_site_fract_y
 _atom_site_fract_z
 _atom_site_occupancy
  Mn  Mn0  1  0.250433  0.000000  0.000000  1
  Be  Be1  1  0.253255  0.500000  0.500000  1
  Be  Be2  1  0.750432  0.000000  0.000000  1
  Be  Be3  1  0.746722  0.500000  0.500000  1
  V  V4  1  0.500251  0.559269  0.389011  1
  V  V5  1  0.500251  0.440731  0.610989  1
  V  V6  1  0.505731  0.059719  0.110532  1
  V  V7  1  0.505731  0.940281  0.889468  1
  V  V8  1  0.499903  0.692791  0.534590  1
  V  V9  1  0.499903  0.307209  0.465410  1
  V  V10  1  0.505712  0.192082  0.965823  1
  V  V11  1  0.505712  0.807918  0.034177  1
  V  V12  1  0.000088  0.675221  0.446069  1
  V  V13  1  0.000088  0.324779  0.553931  1
  V  V14  1  0.993223  0.177990  0.054568  1
  V  V15  1  0.993223  0.822010  0.945432  1
  V  V16  1  0.999779  0.407879  0.398922  1
  V  V17  1  0.999779  0.592121  0.601078  1
  V  V18  1  0.995183  0.906439  0.102226  1
  V  V19  1  0.995183  0.093561  0.897774  1
  Te  Te20  1  0.999888  0.836702  0.559961  1
  Te  Te21  1  0.999888  0.163298  0.440039  1
  Te  Te22  1  0.003326  0.339493  0.939647  1
  Te  Te23  1  0.003326  0.660507  0.060353  1
  Te  Te24  1  0.500121  0.335734  0.319872  1
  Te  Te25  1  0.500121  0.664266  0.680128  1
  Te  Te26  1  0.497481  0.835270  0.181178  1
  Te  Te27  1  0.497481  0.164730  0.818822  1
  Te  Te28  1  0.500117  0.811638  0.404892  1
  Te  Te29  1  0.500117  0.188362  0.595108  1
  Te  Te30  1  0.495878  0.314461  0.096073  1
  Te  Te31  1  0.495878  0.685539  0.903927  1
  Te  Te32  1  0.999793  0.603720  0.305199  1
  Te  Te33  1  0.999793  0.396280  0.694801  1
  Te  Te34  1  0.003106  0.104524  0.195930  1
  Te  Te35  1  0.003106  0.895476  0.804070  1
