# generated using pymatgen
data_Pr12FeCoI17
_symmetry_space_group_name_H-M   'P 1'
_cell_length_a   10.05717277
_cell_length_b   12.02225050
_cell_length_c   12.07600436
_cell_angle_alpha   93.35233058
_cell_angle_beta   104.90331367
_cell_angle_gamma   114.58246474
_symmetry_Int_Tables_number   1
_chemical_formula_structural   Pr12FeCoI17
_chemical_formula_sum   'Pr12 Fe1 Co1 I17'
_cell_volume   1260.15319759
_cell_formula_units_Z   1
loop_
 _symmetry_equiv_pos_site_id
 _symmetry_equiv_pos_as_xyz
  1  'x, y, z'
loop_
 _atom_site_type_symbol
 _atom_site_label
 _atom_site_symmetry_multiplicity
 _atom_site_fract_x
 _atom_site_fract_y
 _atom_site_fract_z
 _atom_site_occupancy
  Pr  Pr0  1  0.055927  0.508188  0.321974  1
  Pr  Pr1  1  0.990403  0.810585  0.582487  1
  Pr  Pr2  1  0.647280  0.240780  0.283272  1
  Pr  Pr3  1  0.009195  0.190111  0.415248  1
  Pr  Pr4  1  0.222664  0.670107  0.988126  1
  Pr  Pr5  1  0.259477  0.984767  0.892079  1
  Pr  Pr6  1  0.353926  0.759222  0.716291  1
  Pr  Pr7  1  0.942756  0.490119  0.677317  1
  Pr  Pr8  1  0.741772  0.016608  0.108999  1
  Pr  Pr9  1  0.149141  0.286970  0.152089  1
  Pr  Pr10  1  0.778113  0.329605  0.012982  1
  Pr  Pr11  1  0.849873  0.712543  0.848714  1
  Fe  Fe12  1  0.895472  0.261744  0.214119  1
  Co  Co13  1  0.104080  0.738325  0.785327  1
  I  I14  1  0.783733  0.529465  0.417830  1
  I  I15  1  0.640044  0.418420  0.757872  1
  I  I16  1  0.842294  0.892668  0.324804  1
  I  I17  1  0.326166  0.212003  0.370860  1
  I  I18  1  0.157907  0.106007  0.676421  1
  I  I19  1  0.587655  0.053002  0.841786  1
  I  I20  1  0.754140  0.182993  0.538970  1
  I  I21  1  0.548772  0.705930  0.952996  1
  I  I22  1  0.360357  0.582685  0.241157  1
  I  I23  1  0.216209  0.470918  0.583550  1
  I  I24  1  0.055847  0.366977  0.895943  1
  I  I25  1  0.450541  0.292625  0.045821  1
  I  I26  1  0.000110  0.999644  0.999512  1
  I  I27  1  0.246678  0.818275  0.462441  1
  I  I28  1  0.410371  0.946261  0.157407  1
  I  I29  1  0.673656  0.788181  0.629809  1
  I  I30  1  0.945441  0.634275  0.103797  1
