# generated using pymatgen
data_LaEu2(AlPt)4
_symmetry_space_group_name_H-M   'P 1'
_cell_length_a   8.34177667
_cell_length_b   8.34177722
_cell_length_c   8.34177624
_cell_angle_alpha   150.55541115
_cell_angle_beta   127.71028806
_cell_angle_gamma   61.15114601
_symmetry_Int_Tables_number   1
_chemical_formula_structural   LaEu2(AlPt)4
_chemical_formula_sum   'La1 Eu2 Al4 Pt4'
_cell_volume   223.85530342
_cell_formula_units_Z   1
loop_
 _symmetry_equiv_pos_site_id
 _symmetry_equiv_pos_as_xyz
  1  'x, y, z'
loop_
 _atom_site_type_symbol
 _atom_site_label
 _atom_site_symmetry_multiplicity
 _atom_site_fract_x
 _atom_site_fract_y
 _atom_site_fract_z
 _atom_site_occupancy
  La  La0  1  0.500000  0.000000  0.500000  1
  Eu  Eu1  1  0.883521  0.883521  0.000000  1
  Eu  Eu2  1  0.116479  0.116479  0.000000  1
  Al  Al3  1  0.485617  0.679818  0.805799  1
  Al  Al4  1  0.874018  0.679818  0.194201  1
  Al  Al5  1  0.125982  0.320182  0.805799  1
  Al  Al6  1  0.514383  0.320182  0.194201  1
  Pt  Pt7  1  0.279559  0.779559  0.500000  1
  Pt  Pt8  1  0.720441  0.220441  0.500000  1
  Pt  Pt9  1  0.782266  0.500000  0.282266  1
  Pt  Pt10  1  0.217734  0.500000  0.717734  1
