# generated using pymatgen
data_Ta8Fe2Co6Si13Ge
_symmetry_space_group_name_H-M   'P 1'
_cell_length_a   9.23201604
_cell_length_b   9.23093146
_cell_length_c   9.26161900
_cell_angle_alpha   94.23402680
_cell_angle_beta   94.24024955
_cell_angle_gamma   148.40232692
_symmetry_Int_Tables_number   1
_chemical_formula_structural   Ta8Fe2Co6Si13Ge
_chemical_formula_sum   'Ta8 Fe2 Co6 Si13 Ge1'
_cell_volume   398.02362271
_cell_formula_units_Z   1
loop_
 _symmetry_equiv_pos_site_id
 _symmetry_equiv_pos_as_xyz
  1  'x, y, z'
loop_
 _atom_site_type_symbol
 _atom_site_label
 _atom_site_symmetry_multiplicity
 _atom_site_fract_x
 _atom_site_fract_y
 _atom_site_fract_z
 _atom_site_occupancy
  Ta  Ta0  1  0.132010  0.132010  0.264018  1
  Ta  Ta1  1  0.867973  0.867973  0.735946  1
  Ta  Ta2  1  0.865790  0.134099  0.000192  1
  Ta  Ta3  1  0.134403  0.866094  0.000192  1
  Ta  Ta4  1  0.498778  0.689584  0.188919  1
  Ta  Ta5  1  0.503240  0.309941  0.813518  1
  Ta  Ta6  1  0.310277  0.503578  0.813518  1
  Ta  Ta7  1  0.690140  0.499335  0.188919  1
  Fe  Fe8  1  0.900541  0.400541  0.801083  1
  Fe  Fe9  1  0.599744  0.099744  0.199488  1
  Co  Co10  1  0.398825  0.898825  0.797650  1
  Co  Co11  1  0.101309  0.601309  0.202619  1
  Co  Co12  1  0.100285  0.893254  0.497822  1
  Co  Co13  1  0.397536  0.604566  0.497822  1
  Co  Co14  1  0.602574  0.400468  0.497958  1
  Co  Co15  1  0.895384  0.097491  0.497958  1
  Si  Si16  1  0.707644  0.707644  0.415288  1
  Si  Si17  1  0.709678  0.290929  0.000782  1
  Si  Si18  1  0.291104  0.709853  0.000782  1
  Si  Si19  1  0.995724  0.293185  0.296079  1
  Si  Si20  1  0.996962  0.699605  0.703390  1
  Si  Si21  1  0.706428  0.003785  0.703390  1
  Si  Si22  1  0.300355  0.002893  0.296079  1
  Si  Si23  1  0.505053  0.913223  0.404127  1
  Si  Si24  1  0.508585  0.100907  0.595798  1
  Si  Si25  1  0.087213  0.494890  0.595798  1
  Si  Si26  1  0.899074  0.490904  0.404127  1
  Si  Si27  1  0.751225  0.751227  0.999920  1
  Si  Si28  1  0.248695  0.248694  0.999920  1
  Ge  Ge29  1  0.293450  0.293450  0.586899  1
