# generated using pymatgen
data_Sr2ErSi4(AsPd10)2
_symmetry_space_group_name_H-M   'P 1'
_cell_length_a   8.76318936
_cell_length_b   8.87540462
_cell_length_c   8.87540558
_cell_angle_alpha   59.16527219
_cell_angle_beta   60.41737116
_cell_angle_gamma   60.41737472
_symmetry_Int_Tables_number   1
_chemical_formula_structural   Sr2ErSi4(AsPd10)2
_chemical_formula_sum   'Sr2 Er1 Si4 As2 Pd20'
_cell_volume   487.96254182
_cell_formula_units_Z   1
loop_
 _symmetry_equiv_pos_site_id
 _symmetry_equiv_pos_as_xyz
  1  'x, y, z'
loop_
 _atom_site_type_symbol
 _atom_site_label
 _atom_site_symmetry_multiplicity
 _atom_site_fract_x
 _atom_site_fract_y
 _atom_site_fract_z
 _atom_site_occupancy
  Sr  Sr0  1  0.250000  0.250000  0.250000  1
  Sr  Sr1  1  0.750000  0.750000  0.750000  1
  Er  Er2  1  0.000000  0.000000  0.000000  1
  Si  Si3  1  0.266667  0.733333  0.266667  1
  Si  Si4  1  0.733333  0.266667  0.733333  1
  Si  Si5  1  0.266667  0.266667  0.733333  1
  Si  Si6  1  0.733333  0.733333  0.266667  1
  As  As7  1  0.734349  0.265651  0.265651  1
  As  As8  1  0.265651  0.734349  0.734349  1
  Pd  Pd9  1  0.344174  0.000000  0.000000  1
  Pd  Pd10  1  0.655826  0.000000  0.000000  1
  Pd  Pd11  1  0.000000  0.344174  0.655826  1
  Pd  Pd12  1  0.000000  0.655826  0.344174  1
  Pd  Pd13  1  0.007727  0.344690  0.992273  1
  Pd  Pd14  1  0.655310  0.992273  0.344690  1
  Pd  Pd15  1  0.992273  0.655310  0.007727  1
  Pd  Pd16  1  0.344690  0.007727  0.655310  1
  Pd  Pd17  1  0.007727  0.992273  0.344690  1
  Pd  Pd18  1  0.992273  0.007727  0.655310  1
  Pd  Pd19  1  0.655310  0.344690  0.992273  1
  Pd  Pd20  1  0.344690  0.655310  0.007727  1
  Pd  Pd21  1  0.381131  0.389531  0.389531  1
  Pd  Pd22  1  0.618869  0.610469  0.610469  1
  Pd  Pd23  1  0.389531  0.381131  0.839810  1
  Pd  Pd24  1  0.389531  0.839810  0.381131  1
  Pd  Pd25  1  0.610469  0.618869  0.160190  1
  Pd  Pd26  1  0.610469  0.160190  0.618869  1
  Pd  Pd27  1  0.839810  0.389531  0.389531  1
  Pd  Pd28  1  0.160190  0.610469  0.610469  1
