# generated using pymatgen
data_K4ZrTe4
_symmetry_space_group_name_H-M   'P 1'
_cell_length_a   9.16353300
_cell_length_b   10.88217200
_cell_length_c   16.00916500
_cell_angle_alpha   90.00000000
_cell_angle_beta   90.00000000
_cell_angle_gamma   90.00000000
_symmetry_Int_Tables_number   1
_chemical_formula_structural   K4ZrTe4
_chemical_formula_sum   'K16 Zr4 Te16'
_cell_volume   1596.42020168
_cell_formula_units_Z   4
loop_
 _symmetry_equiv_pos_site_id
 _symmetry_equiv_pos_as_xyz
  1  'x, y, z'
loop_
 _atom_site_type_symbol
 _atom_site_label
 _atom_site_symmetry_multiplicity
 _atom_site_fract_x
 _atom_site_fract_y
 _atom_site_fract_z
 _atom_site_occupancy
  K  K0  1  0.500000  0.500000  0.500000  1
  K  K1  1  0.141993  0.449579  0.273401  1
  K  K2  1  0.141993  0.050421  0.273401  1
  K  K3  1  0.017503  0.750000  0.433842  1
  K  K4  1  0.982497  0.250000  0.566158  1
  K  K5  1  0.641993  0.949579  0.226599  1
  K  K6  1  0.358007  0.050421  0.773401  1
  K  K7  1  0.858007  0.949579  0.726599  1
  K  K8  1  0.358007  0.449579  0.773401  1
  K  K9  1  0.000000  0.500000  0.000000  1
  K  K10  1  0.517503  0.250000  0.066158  1
  K  K11  1  0.641993  0.550421  0.226599  1
  K  K12  1  0.482497  0.750000  0.933842  1
  K  K13  1  0.000000  0.000000  0.000000  1
  K  K14  1  0.858007  0.550421  0.726599  1
  K  K15  1  0.500000  0.000000  0.500000  1
  Zr  Zr16  1  0.752158  0.250000  0.831791  1
  Zr  Zr17  1  0.747842  0.250000  0.331791  1
  Zr  Zr18  1  0.252158  0.750000  0.668209  1
  Zr  Zr19  1  0.247842  0.750000  0.168209  1
  Te  Te20  1  0.553276  0.750000  0.673434  1
  Te  Te21  1  0.446724  0.250000  0.326566  1
  Te  Te22  1  0.365539  0.750000  0.327902  1
  Te  Te23  1  0.134461  0.750000  0.827902  1
  Te  Te24  1  0.053276  0.250000  0.826566  1
  Te  Te25  1  0.946724  0.750000  0.173434  1
  Te  Te26  1  0.634461  0.250000  0.672098  1
  Te  Te27  1  0.865539  0.250000  0.172098  1
  Te  Te28  1  0.843591  0.459642  0.410675  1
  Te  Te29  1  0.656409  0.040358  0.910675  1
  Te  Te30  1  0.343591  0.959642  0.089325  1
  Te  Te31  1  0.343591  0.540358  0.089325  1
  Te  Te32  1  0.156409  0.540358  0.589325  1
  Te  Te33  1  0.843591  0.040358  0.410675  1
  Te  Te34  1  0.156409  0.959642  0.589325  1
  Te  Te35  1  0.656409  0.459642  0.910675  1
