# generated using pymatgen
data_Pr5NdIn7Sn3
_symmetry_space_group_name_H-M   'P 1'
_cell_length_a   6.66235401
_cell_length_b   6.68311691
_cell_length_c   10.44670600
_cell_angle_alpha   90.00000000
_cell_angle_beta   90.00000000
_cell_angle_gamma   102.70791310
_symmetry_Int_Tables_number   1
_chemical_formula_structural   Pr5NdIn7Sn3
_chemical_formula_sum   'Pr5 Nd1 In7 Sn3'
_cell_volume   453.74856804
_cell_formula_units_Z   1
loop_
 _symmetry_equiv_pos_site_id
 _symmetry_equiv_pos_as_xyz
  1  'x, y, z'
loop_
 _atom_site_type_symbol
 _atom_site_label
 _atom_site_symmetry_multiplicity
 _atom_site_fract_x
 _atom_site_fract_y
 _atom_site_fract_z
 _atom_site_occupancy
  Pr  Pr0  1  0.364769  0.368585  0.750000  1
  Pr  Pr1  1  0.203951  0.792220  0.502373  1
  Pr  Pr2  1  0.203951  0.792220  0.997627  1
  Pr  Pr3  1  0.797266  0.208687  0.501543  1
  Pr  Pr4  1  0.797266  0.208687  0.998457  1
  Nd  Nd5  1  0.634610  0.629590  0.250000  1
  In  In6  1  0.012047  0.017903  0.250000  1
  In  In7  1  0.979678  0.981795  0.750000  1
  In  In8  1  0.311119  0.303641  0.052006  1
  In  In9  1  0.691046  0.697112  0.953396  1
  In  In10  1  0.311119  0.303641  0.447994  1
  In  In11  1  0.691046  0.697112  0.546604  1
  In  In12  1  0.500757  0.067625  0.250000  1
  Sn  Sn13  1  0.923823  0.504813  0.750000  1
  Sn  Sn14  1  0.502175  0.927740  0.750000  1
  Sn  Sn15  1  0.075376  0.498627  0.250000  1
