# generated using pymatgen
data_DyHo15(ZnCo)4
_symmetry_space_group_name_H-M   'P 1'
_cell_length_a   9.29885819
_cell_length_b   9.29885778
_cell_length_c   9.30497400
_cell_angle_alpha   59.97823267
_cell_angle_beta   59.97823413
_cell_angle_gamma   60.01151454
_symmetry_Int_Tables_number   1
_chemical_formula_structural   DyHo15(ZnCo)4
_chemical_formula_sum   'Dy1 Ho15 Zn4 Co4'
_cell_volume   568.79292773
_cell_formula_units_Z   1
loop_
 _symmetry_equiv_pos_site_id
 _symmetry_equiv_pos_as_xyz
  1  'x, y, z'
loop_
 _atom_site_type_symbol
 _atom_site_label
 _atom_site_symmetry_multiplicity
 _atom_site_fract_x
 _atom_site_fract_y
 _atom_site_fract_z
 _atom_site_occupancy
  Dy  Dy0  1  0.309209  0.309209  0.690791  1
  Ho  Ho1  1  0.150043  0.548897  0.150530  1
  Ho  Ho2  1  0.690133  0.309830  0.690449  1
  Ho  Ho3  1  0.690133  0.309830  0.309587  1
  Ho  Ho4  1  0.937723  0.562496  0.562592  1
  Ho  Ho5  1  0.548897  0.150043  0.150530  1
  Ho  Ho6  1  0.150509  0.150509  0.549083  1
  Ho  Ho7  1  0.938746  0.938746  0.561254  1
  Ho  Ho8  1  0.309830  0.690133  0.309587  1
  Ho  Ho9  1  0.562496  0.937723  0.937188  1
  Ho  Ho10  1  0.562496  0.937723  0.562592  1
  Ho  Ho11  1  0.690980  0.690980  0.309020  1
  Ho  Ho12  1  0.561597  0.561597  0.938403  1
  Ho  Ho13  1  0.937723  0.562496  0.937188  1
  Ho  Ho14  1  0.309830  0.690133  0.690449  1
  Ho  Ho15  1  0.150509  0.150509  0.149899  1
  Zn  Zn16  1  0.922298  0.233230  0.922236  1
  Zn  Zn17  1  0.922435  0.922435  0.922231  1
  Zn  Zn18  1  0.922435  0.922435  0.232900  1
  Zn  Zn19  1  0.233230  0.922298  0.922236  1
  Co  Co20  1  0.358111  0.358111  0.924961  1
  Co  Co21  1  0.357746  0.924780  0.358737  1
  Co  Co22  1  0.924780  0.357746  0.358737  1
  Co  Co23  1  0.358111  0.358111  0.358818  1
