# generated using pymatgen
data_Lu8Ta8NbSi16Mo3
_symmetry_space_group_name_H-M   'P 1'
_cell_length_a   6.73067221
_cell_length_b   6.98037026
_cell_length_c   13.22961834
_cell_angle_alpha   89.99046547
_cell_angle_beta   90.02434117
_cell_angle_gamma   90.01737041
_symmetry_Int_Tables_number   1
_chemical_formula_structural   Lu8Ta8NbSi16Mo3
_chemical_formula_sum   'Lu8 Ta8 Nb1 Si16 Mo3'
_cell_volume   621.56156338
_cell_formula_units_Z   1
loop_
 _symmetry_equiv_pos_site_id
 _symmetry_equiv_pos_as_xyz
  1  'x, y, z'
loop_
 _atom_site_type_symbol
 _atom_site_label
 _atom_site_symmetry_multiplicity
 _atom_site_fract_x
 _atom_site_fract_y
 _atom_site_fract_z
 _atom_site_occupancy
  Lu  Lu0  1  0.500877  0.327853  0.094176  1
  Lu  Lu1  1  0.000799  0.172453  0.405520  1
  Lu  Lu2  1  0.498667  0.672799  0.594712  1
  Lu  Lu3  1  0.998487  0.827762  0.905881  1
  Lu  Lu4  1  0.498761  0.672552  0.905332  1
  Lu  Lu5  1  0.998324  0.827598  0.594210  1
  Lu  Lu6  1  0.501094  0.327725  0.405714  1
  Lu  Lu7  1  0.000817  0.172461  0.094346  1
  Ta  Ta8  1  0.834819  0.329380  0.625349  1
  Ta  Ta9  1  0.334646  0.171076  0.875109  1
  Ta  Ta10  1  0.165678  0.670140  0.125818  1
  Ta  Ta11  1  0.666078  0.829875  0.373513  1
  Ta  Ta12  1  0.165680  0.670178  0.374167  1
  Ta  Ta13  1  0.665970  0.829947  0.126399  1
  Ta  Ta14  1  0.834704  0.329082  0.874786  1
  Ta  Ta15  1  0.661060  0.007917  0.750156  1
  Nb  Nb16  1  0.334742  0.170818  0.624662  1
  Si  Si17  1  0.666612  0.036287  0.540867  1
  Si  Si18  1  0.166260  0.462858  0.958330  1
  Si  Si19  1  0.333994  0.962808  0.042289  1
  Si  Si20  1  0.834150  0.537112  0.458037  1
  Si  Si21  1  0.334202  0.962727  0.457347  1
  Si  Si22  1  0.833931  0.537067  0.042043  1
  Si  Si23  1  0.666403  0.036166  0.959134  1
  Si  Si24  1  0.165533  0.462942  0.541856  1
  Si  Si25  1  0.533126  0.383308  0.749823  1
  Si  Si26  1  0.038468  0.118844  0.750015  1
  Si  Si27  1  0.465232  0.617660  0.249981  1
  Si  Si28  1  0.966095  0.882738  0.250016  1
  Si  Si29  1  0.796771  0.632600  0.750055  1
  Si  Si30  1  0.293365  0.863650  0.750213  1
  Si  Si31  1  0.202951  0.364913  0.249991  1
  Si  Si32  1  0.702922  0.135368  0.249897  1
  Mo  Mo33  1  0.159982  0.493174  0.750395  1
  Mo  Mo34  1  0.339736  0.993264  0.249906  1
  Mo  Mo35  1  0.839068  0.506900  0.249956  1
