# generated using pymatgen
data_Li2Th2Si2Ge
_symmetry_space_group_name_H-M   'P 1'
_cell_length_a   9.49846410
_cell_length_b   9.49846401
_cell_length_c   6.76604400
_cell_angle_alpha   90.00000000
_cell_angle_beta   90.00000000
_cell_angle_gamma   152.91000122
_symmetry_Int_Tables_number   1
_chemical_formula_structural   Li2Th2Si2Ge
_chemical_formula_sum   'Li4 Th4 Si4 Ge2'
_cell_volume   277.98707704
_cell_formula_units_Z   2
loop_
 _symmetry_equiv_pos_site_id
 _symmetry_equiv_pos_as_xyz
  1  'x, y, z'
loop_
 _atom_site_type_symbol
 _atom_site_label
 _atom_site_symmetry_multiplicity
 _atom_site_fract_x
 _atom_site_fract_y
 _atom_site_fract_z
 _atom_site_occupancy
  Li  Li0  1  0.813122  0.186878  0.434729  1
  Li  Li1  1  0.186878  0.813122  0.565271  1
  Li  Li2  1  0.813122  0.186878  0.065271  1
  Li  Li3  1  0.186878  0.813122  0.934729  1
  Th  Th4  1  0.548910  0.451090  0.750000  1
  Th  Th5  1  0.451090  0.548910  0.250000  1
  Th  Th6  1  0.344854  0.655146  0.750000  1
  Th  Th7  1  0.655146  0.344854  0.250000  1
  Si  Si8  1  0.939832  0.060168  0.929568  1
  Si  Si9  1  0.060168  0.939832  0.070432  1
  Si  Si10  1  0.939832  0.060168  0.570432  1
  Si  Si11  1  0.060168  0.939832  0.429568  1
  Ge  Ge12  1  0.720373  0.279627  0.750000  1
  Ge  Ge13  1  0.279627  0.720373  0.250000  1
