# generated using pymatgen
data_Dy2Nb3Si7Pt9
_symmetry_space_group_name_H-M   'P 1'
_cell_length_a   9.89334600
_cell_length_b   9.89334603
_cell_length_c   4.02528900
_cell_angle_alpha   90.00000000
_cell_angle_beta   90.00000000
_cell_angle_gamma   119.99999990
_symmetry_Int_Tables_number   1
_chemical_formula_structural   Dy2Nb3Si7Pt9
_chemical_formula_sum   'Dy2 Nb3 Si7 Pt9'
_cell_volume   341.20398584
_cell_formula_units_Z   1
loop_
 _symmetry_equiv_pos_site_id
 _symmetry_equiv_pos_as_xyz
  1  'x, y, z'
loop_
 _atom_site_type_symbol
 _atom_site_label
 _atom_site_symmetry_multiplicity
 _atom_site_fract_x
 _atom_site_fract_y
 _atom_site_fract_z
 _atom_site_occupancy
  Dy  Dy0  1  0.000000  0.000000  0.000000  1
  Dy  Dy1  1  0.333333  0.666667  0.500000  1
  Nb  Nb2  1  0.882671  0.455332  0.500000  1
  Nb  Nb3  1  0.572663  0.117329  0.500000  1
  Nb  Nb4  1  0.544668  0.427337  0.500000  1
  Si  Si5  1  0.257702  0.211171  0.500000  1
  Si  Si6  1  0.788829  0.046532  0.500000  1
  Si  Si7  1  0.953468  0.742298  0.500000  1
  Si  Si8  1  0.554421  0.636892  0.000000  1
  Si  Si9  1  0.363108  0.917528  0.000000  1
  Si  Si10  1  0.082472  0.445579  0.000000  1
  Si  Si11  1  0.666667  0.333333  0.000000  1
  Pt  Pt12  1  0.222871  0.941513  0.500000  1
  Pt  Pt13  1  0.058487  0.281360  0.500000  1
  Pt  Pt14  1  0.718640  0.777129  0.500000  1
  Pt  Pt15  1  0.306233  0.409187  0.000000  1
  Pt  Pt16  1  0.590813  0.897047  0.000000  1
  Pt  Pt17  1  0.102953  0.693767  0.000000  1
  Pt  Pt18  1  0.385969  0.173547  0.000000  1
  Pt  Pt19  1  0.826453  0.212422  0.000000  1
  Pt  Pt20  1  0.787578  0.614031  0.000000  1
