# generated using pymatgen
data_Tm2Co3Si4Rh3
_symmetry_space_group_name_H-M   'P 1'
_cell_length_a   6.42416237
_cell_length_b   6.49406069
_cell_length_c   6.42416167
_cell_angle_alpha   131.40867963
_cell_angle_beta   113.95486524
_cell_angle_gamma   85.76568336
_symmetry_Int_Tables_number   1
_chemical_formula_structural   Tm2Co3Si4Rh3
_chemical_formula_sum   'Tm2 Co3 Si4 Rh3'
_cell_volume   176.12736052
_cell_formula_units_Z   1
loop_
 _symmetry_equiv_pos_site_id
 _symmetry_equiv_pos_as_xyz
  1  'x, y, z'
loop_
 _atom_site_type_symbol
 _atom_site_label
 _atom_site_symmetry_multiplicity
 _atom_site_fract_x
 _atom_site_fract_y
 _atom_site_fract_z
 _atom_site_occupancy
  Tm  Tm0  1  0.753800  0.038731  0.288319  1
  Tm  Tm1  1  0.249588  0.961269  0.715069  1
  Co  Co2  1  0.217270  0.500000  0.717270  1
  Co  Co3  1  0.780773  0.500000  0.280773  1
  Co  Co4  1  0.718023  0.000000  0.718023  1
  Si  Si5  1  0.577350  0.379038  0.810608  1
  Si  Si6  1  0.922737  0.724023  0.789404  1
  Si  Si7  1  0.431571  0.620962  0.198312  1
  Si  Si8  1  0.065382  0.275977  0.198714  1
  Rh  Rh9  1  0.501182  0.510613  0.509373  1
  Rh  Rh10  1  0.998760  0.489387  0.990569  1
  Rh  Rh11  1  0.283566  0.000000  0.283566  1
