# generated using pymatgen
data_NdSmEr(Si3Pd10)2
_symmetry_space_group_name_H-M   'P 1'
_cell_length_a   8.73942665
_cell_length_b   8.73948690
_cell_length_c   8.73944400
_cell_angle_alpha   59.99983124
_cell_angle_beta   60.00026890
_cell_angle_gamma   60.00049619
_symmetry_Int_Tables_number   1
_chemical_formula_structural   NdSmEr(Si3Pd10)2
_chemical_formula_sum   'Nd1 Sm1 Er1 Si6 Pd20'
_cell_volume   471.99743746
_cell_formula_units_Z   1
loop_
 _symmetry_equiv_pos_site_id
 _symmetry_equiv_pos_as_xyz
  1  'x, y, z'
loop_
 _atom_site_type_symbol
 _atom_site_label
 _atom_site_symmetry_multiplicity
 _atom_site_fract_x
 _atom_site_fract_y
 _atom_site_fract_z
 _atom_site_occupancy
  Nd  Nd0  1  0.249998  0.250001  0.249998  1
  Sm  Sm1  1  0.750002  0.750002  0.750001  1
  Er  Er2  1  0.999988  0.999967  0.000014  1
  Si  Si3  1  0.733155  0.266848  0.266845  1
  Si  Si4  1  0.266847  0.733155  0.733152  1
  Si  Si5  1  0.266848  0.733154  0.266847  1
  Si  Si6  1  0.733153  0.266848  0.733153  1
  Si  Si7  1  0.266847  0.266849  0.733153  1
  Si  Si8  1  0.733152  0.733154  0.266847  1
  Pd  Pd9  1  0.345155  0.999875  0.999875  1
  Pd  Pd10  1  0.655098  0.999876  0.999869  1
  Pd  Pd11  1  0.999873  0.345162  0.655093  1
  Pd  Pd12  1  0.999874  0.655094  0.345160  1
  Pd  Pd13  1  0.999875  0.345155  0.999877  1
  Pd  Pd14  1  0.655094  0.999876  0.345155  1
  Pd  Pd15  1  0.999874  0.655098  0.999870  1
  Pd  Pd16  1  0.345160  0.999871  0.655097  1
  Pd  Pd17  1  0.999875  0.999873  0.345154  1
  Pd  Pd18  1  0.999871  0.999875  0.655097  1
  Pd  Pd19  1  0.655097  0.345157  0.999873  1
  Pd  Pd20  1  0.345160  0.655095  0.999874  1
  Pd  Pd21  1  0.385024  0.385025  0.385017  1
  Pd  Pd22  1  0.615307  0.615306  0.615311  1
  Pd  Pd23  1  0.385020  0.385024  0.844937  1
  Pd  Pd24  1  0.385020  0.844940  0.385020  1
  Pd  Pd25  1  0.615307  0.615307  0.154080  1
  Pd  Pd26  1  0.615311  0.154079  0.615305  1
  Pd  Pd27  1  0.844934  0.385022  0.385019  1
  Pd  Pd28  1  0.154081  0.615311  0.615307  1
