# generated using pymatgen
data_Tm4Lu3ThSb20
_symmetry_space_group_name_H-M   'P 1'
_cell_length_a   4.23429900
_cell_length_b   13.17898878
_cell_length_c   14.57789400
_cell_angle_alpha   78.25302557
_cell_angle_beta   90.00000000
_cell_angle_gamma   90.00000000
_symmetry_Int_Tables_number   1
_chemical_formula_structural   Tm4Lu3ThSb20
_chemical_formula_sum   'Tm4 Lu3 Th1 Sb20'
_cell_volume   796.46378102
_cell_formula_units_Z   1
loop_
 _symmetry_equiv_pos_site_id
 _symmetry_equiv_pos_as_xyz
  1  'x, y, z'
loop_
 _atom_site_type_symbol
 _atom_site_label
 _atom_site_symmetry_multiplicity
 _atom_site_fract_x
 _atom_site_fract_y
 _atom_site_fract_z
 _atom_site_occupancy
  Tm  Tm0  1  0.750000  0.337645  0.143686  1
  Tm  Tm1  1  0.750000  0.326930  0.424716  1
  Tm  Tm2  1  0.250000  0.952290  0.356491  1
  Tm  Tm3  1  0.750000  0.049695  0.642125  1
  Lu  Lu4  1  0.250000  0.393803  0.772164  1
  Lu  Lu5  1  0.750000  0.603890  0.225982  1
  Lu  Lu6  1  0.250000  0.662273  0.858094  1
  Th  Th7  1  0.250000  0.671975  0.573116  1
  Sb  Sb8  1  0.250000  0.146696  0.779445  1
  Sb  Sb9  1  0.750000  0.853681  0.220536  1
  Sb  Sb10  1  0.250000  0.139832  0.483678  1
  Sb  Sb11  1  0.750000  0.863486  0.515419  1
  Sb  Sb12  1  0.250000  0.152877  0.168987  1
  Sb  Sb13  1  0.750000  0.846695  0.834923  1
  Sb  Sb14  1  0.250000  0.421132  0.975461  1
  Sb  Sb15  1  0.750000  0.579569  0.022637  1
  Sb  Sb16  1  0.750000  0.032966  0.912747  1
  Sb  Sb17  1  0.250000  0.969039  0.088801  1
  Sb  Sb18  1  0.750000  0.137850  0.319845  1
  Sb  Sb19  1  0.250000  0.864033  0.686345  1
  Sb  Sb20  1  0.750000  0.280289  0.936484  1
  Sb  Sb21  1  0.250000  0.721101  0.060928  1
  Sb  Sb22  1  0.750000  0.285158  0.656453  1
  Sb  Sb23  1  0.250000  0.713811  0.341475  1
  Sb  Sb24  1  0.750000  0.575507  0.738143  1
  Sb  Sb25  1  0.250000  0.424290  0.264687  1
  Sb  Sb26  1  0.750000  0.567278  0.443234  1
  Sb  Sb27  1  0.250000  0.426205  0.553401  1
