# generated using pymatgen
data_LiCr(SbO3)4
_symmetry_space_group_name_H-M   'P 1'
_cell_length_a   4.72261900
_cell_length_b   9.42816300
_cell_length_c   9.32328800
_cell_angle_alpha   90.00000000
_cell_angle_beta   90.00000000
_cell_angle_gamma   90.00000000
_symmetry_Int_Tables_number   1
_chemical_formula_structural   LiCr(SbO3)4
_chemical_formula_sum   'Li2 Cr2 Sb8 O24'
_cell_volume   415.12519466
_cell_formula_units_Z   2
loop_
 _symmetry_equiv_pos_site_id
 _symmetry_equiv_pos_as_xyz
  1  'x, y, z'
loop_
 _atom_site_type_symbol
 _atom_site_label
 _atom_site_symmetry_multiplicity
 _atom_site_fract_x
 _atom_site_fract_y
 _atom_site_fract_z
 _atom_site_occupancy
  Li  Li0  1  0.000525  0.502322  0.000000  1
  Li  Li1  1  0.500525  0.747678  0.500000  1
  Cr  Cr2  1  0.998945  0.999508  0.000000  1
  Cr  Cr3  1  0.498945  0.250492  0.500000  1
  Sb  Sb4  1  0.995419  0.995936  0.333250  1
  Sb  Sb5  1  0.005767  0.504387  0.330644  1
  Sb  Sb6  1  0.495419  0.254064  0.833250  1
  Sb  Sb7  1  0.505767  0.745613  0.830644  1
  Sb  Sb8  1  0.495419  0.254064  0.166750  1
  Sb  Sb9  1  0.505767  0.745613  0.169356  1
  Sb  Sb10  1  0.995419  0.995936  0.666750  1
  Sb  Sb11  1  0.005767  0.504387  0.669356  1
  O  O12  1  0.304628  0.149824  0.000000  1
  O  O13  1  0.313350  0.660245  0.000000  1
  O  O14  1  0.198318  0.400527  0.500000  1
  O  O15  1  0.185918  0.907436  0.500000  1
  O  O16  1  0.804628  0.100176  0.500000  1
  O  O17  1  0.813350  0.589755  0.500000  1
  O  O18  1  0.685918  0.342564  0.000000  1
  O  O19  1  0.698318  0.849473  0.000000  1
  O  O20  1  0.308749  0.149692  0.332409  1
  O  O21  1  0.298662  0.655108  0.328686  1
  O  O22  1  0.192758  0.397993  0.826953  1
  O  O23  1  0.197801  0.905899  0.833541  1
  O  O24  1  0.808749  0.100308  0.832409  1
  O  O25  1  0.798662  0.594892  0.828686  1
  O  O26  1  0.808749  0.100308  0.167591  1
  O  O27  1  0.798662  0.594892  0.171314  1
  O  O28  1  0.192758  0.397993  0.173047  1
  O  O29  1  0.197801  0.905899  0.166459  1
  O  O30  1  0.697801  0.344101  0.333541  1
  O  O31  1  0.692758  0.852007  0.326953  1
  O  O32  1  0.308749  0.149692  0.667591  1
  O  O33  1  0.298662  0.655108  0.671314  1
  O  O34  1  0.697801  0.344101  0.666459  1
  O  O35  1  0.692758  0.852007  0.673047  1
