# generated using pymatgen
data_DyHo7(TcB6)4
_symmetry_space_group_name_H-M   'P 1'
_cell_length_a   3.67732800
_cell_length_b   9.14278700
_cell_length_c   11.51963301
_cell_angle_alpha   89.99632852
_cell_angle_beta   90.00000000
_cell_angle_gamma   90.00000000
_symmetry_Int_Tables_number   1
_chemical_formula_structural   DyHo7(TcB6)4
_chemical_formula_sum   'Dy1 Ho7 Tc4 B24'
_cell_volume   387.30188750
_cell_formula_units_Z   1
loop_
 _symmetry_equiv_pos_site_id
 _symmetry_equiv_pos_as_xyz
  1  'x, y, z'
loop_
 _atom_site_type_symbol
 _atom_site_label
 _atom_site_symmetry_multiplicity
 _atom_site_fract_x
 _atom_site_fract_y
 _atom_site_fract_z
 _atom_site_occupancy
  Dy  Dy0  1  0.000000  0.323803  0.414183  1
  Ho  Ho1  1  0.000000  0.676022  0.585880  1
  Ho  Ho2  1  0.000000  0.823977  0.085765  1
  Ho  Ho3  1  0.000000  0.176102  0.914204  1
  Ho  Ho4  1  0.000000  0.942582  0.369160  1
  Ho  Ho5  1  0.000000  0.057412  0.630898  1
  Ho  Ho6  1  0.000000  0.442593  0.130694  1
  Ho  Ho7  1  0.000000  0.557395  0.869265  1
  Tc  Tc8  1  0.000000  0.639053  0.320216  1
  Tc  Tc9  1  0.000000  0.361185  0.679925  1
  Tc  Tc10  1  0.000000  0.138626  0.179393  1
  Tc  Tc11  1  0.000000  0.861188  0.820353  1
  B  B12  1  0.500000  0.553532  0.432964  1
  B  B13  1  0.500000  0.446792  0.567257  1
  B  B14  1  0.500000  0.053228  0.066941  1
  B  B15  1  0.500000  0.946701  0.932997  1
  B  B16  1  0.500000  0.749081  0.418701  1
  B  B17  1  0.500000  0.251019  0.581683  1
  B  B18  1  0.500000  0.248938  0.081229  1
  B  B19  1  0.500000  0.751020  0.918694  1
  B  B20  1  0.500000  0.791972  0.264955  1
  B  B21  1  0.500000  0.208082  0.735125  1
  B  B22  1  0.500000  0.291760  0.234730  1
  B  B23  1  0.500000  0.708085  0.765037  1
  B  B24  1  0.500000  0.630824  0.185228  1
  B  B25  1  0.500000  0.369292  0.814754  1
  B  B26  1  0.500000  0.130525  0.314449  1
  B  B27  1  0.500000  0.869255  0.685336  1
  B  B28  1  0.500000  0.981959  0.211494  1
  B  B29  1  0.500000  0.017965  0.788483  1
  B  B30  1  0.500000  0.482307  0.288256  1
  B  B31  1  0.500000  0.518018  0.711683  1
  B  B32  1  0.500000  0.600119  0.027910  1
  B  B33  1  0.500000  0.399912  0.972049  1
  B  B34  1  0.500000  0.099688  0.472175  1
  B  B35  1  0.500000  0.899988  0.527934  1
