# generated using pymatgen
data_YBi3Rh4F28
_symmetry_space_group_name_H-M   'P 1'
_cell_length_a   5.58941355
_cell_length_b   9.12713040
_cell_length_c   12.10562457
_cell_angle_alpha   62.01466521
_cell_angle_beta   90.01327276
_cell_angle_gamma   89.87817826
_symmetry_Int_Tables_number   1
_chemical_formula_structural   YBi3Rh4F28
_chemical_formula_sum   'Y1 Bi3 Rh4 F28'
_cell_volume   545.35627108
_cell_formula_units_Z   1
loop_
 _symmetry_equiv_pos_site_id
 _symmetry_equiv_pos_as_xyz
  1  'x, y, z'
loop_
 _atom_site_type_symbol
 _atom_site_label
 _atom_site_symmetry_multiplicity
 _atom_site_fract_x
 _atom_site_fract_y
 _atom_site_fract_z
 _atom_site_occupancy
  Y  Y0  1  0.239193  0.806768  0.765304  1
  Bi  Bi1  1  0.264742  0.813874  0.262876  1
  Bi  Bi2  1  0.735161  0.177641  0.737656  1
  Bi  Bi3  1  0.763667  0.186039  0.236619  1
  Rh  Rh4  1  0.757504  0.726887  0.040290  1
  Rh  Rh5  1  0.242253  0.276011  0.956339  1
  Rh  Rh6  1  0.257113  0.270762  0.458828  1
  Rh  Rh7  1  0.741977  0.727950  0.544622  1
  F  F8  1  0.934098  0.708319  0.417755  1
  F  F9  1  0.068330  0.291528  0.585672  1
  F  F10  1  0.432130  0.294398  0.084491  1
  F  F11  1  0.561929  0.709726  0.912989  1
  F  F12  1  0.467172  0.728262  0.130131  1
  F  F13  1  0.532597  0.272557  0.868315  1
  F  F14  1  0.964448  0.270731  0.369734  1
  F  F15  1  0.030183  0.732003  0.636306  1
  F  F16  1  0.944144  0.741711  0.171107  1
  F  F17  1  0.057487  0.260133  0.825855  1
  F  F18  1  0.441208  0.256882  0.326679  1
  F  F19  1  0.547783  0.745988  0.673340  1
  F  F20  1  0.769506  0.489180  0.136068  1
  F  F21  1  0.232712  0.517419  0.860754  1
  F  F22  1  0.268078  0.509245  0.363285  1
  F  F23  1  0.731942  0.490860  0.639291  1
  F  F24  1  0.943179  0.283086  0.039940  1
  F  F25  1  0.053127  0.721240  0.953025  1
  F  F26  1  0.445511  0.720334  0.459185  1
  F  F27  1  0.556954  0.279782  0.541327  1
  F  F28  1  0.740135  0.969630  0.451100  1
  F  F29  1  0.258940  0.030454  0.552097  1
  F  F30  1  0.240628  0.034090  0.048725  1
  F  F31  1  0.758773  0.968497  0.950456  1
  F  F32  1  0.599837  0.967794  0.227483  1
  F  F33  1  0.406517  0.023308  0.770644  1
  F  F34  1  0.100347  0.031406  0.272577  1
  F  F35  1  0.910696  0.965507  0.729134  1
