# generated using pymatgen
data_Eu2ThCu3Sb4
_symmetry_space_group_name_H-M   'P 1'
_cell_length_a   8.51535923
_cell_length_b   8.51570861
_cell_length_c   8.51535941
_cell_angle_alpha   109.24349881
_cell_angle_beta   109.92996752
_cell_angle_gamma   109.24349092
_symmetry_Int_Tables_number   1
_chemical_formula_structural   Eu2ThCu3Sb4
_chemical_formula_sum   'Eu4 Th2 Cu6 Sb8'
_cell_volume   475.30412149
_cell_formula_units_Z   2
loop_
 _symmetry_equiv_pos_site_id
 _symmetry_equiv_pos_as_xyz
  1  'x, y, z'
loop_
 _atom_site_type_symbol
 _atom_site_label
 _atom_site_symmetry_multiplicity
 _atom_site_fract_x
 _atom_site_fract_y
 _atom_site_fract_z
 _atom_site_occupancy
  Eu  Eu0  1  0.250000  0.122690  0.872690  1
  Eu  Eu1  1  0.750015  0.377293  0.627284  1
  Eu  Eu2  1  0.127284  0.877293  0.250015  1
  Eu  Eu3  1  0.372690  0.622690  0.750000  1
  Th  Th4  1  0.874985  0.249993  0.125001  1
  Th  Th5  1  0.625001  0.749993  0.374985  1
  Cu  Cu6  1  0.375038  0.249982  0.624987  1
  Cu  Cu7  1  0.124987  0.749982  0.875038  1
  Cu  Cu8  1  0.249972  0.628160  0.378120  1
  Cu  Cu9  1  0.749974  0.871828  0.121824  1
  Cu  Cu10  1  0.621824  0.371828  0.249974  1
  Cu  Cu11  1  0.878120  0.128160  0.749972  1
  Sb  Sb12  1  0.654880  0.497634  0.000926  1
  Sb  Sb13  1  0.503313  0.002376  0.657272  1
  Sb  Sb14  1  0.996678  0.653949  0.499086  1
  Sb  Sb15  1  0.845167  0.846096  0.842786  1
  Sb  Sb16  1  0.500926  0.997634  0.154880  1
  Sb  Sb17  1  0.157272  0.502376  0.003313  1
  Sb  Sb18  1  0.999086  0.153949  0.496678  1
  Sb  Sb19  1  0.342786  0.346096  0.345167  1
