# generated using pymatgen
data_Dy6Al24CuOs7
_symmetry_space_group_name_H-M   'P 1'
_cell_length_a   8.83104065
_cell_length_b   8.83104087
_cell_length_c   9.52706961
_cell_angle_alpha   89.62085357
_cell_angle_beta   90.37914751
_cell_angle_gamma   119.78046821
_symmetry_Int_Tables_number   1
_chemical_formula_structural   Dy6Al24CuOs7
_chemical_formula_sum   'Dy6 Al24 Cu1 Os7'
_cell_volume   644.84824339
_cell_formula_units_Z   1
loop_
 _symmetry_equiv_pos_site_id
 _symmetry_equiv_pos_as_xyz
  1  'x, y, z'
loop_
 _atom_site_type_symbol
 _atom_site_label
 _atom_site_symmetry_multiplicity
 _atom_site_fract_x
 _atom_site_fract_y
 _atom_site_fract_z
 _atom_site_occupancy
  Dy  Dy0  1  0.190220  0.386377  0.250051  1
  Dy  Dy1  1  0.809780  0.613623  0.749949  1
  Dy  Dy2  1  0.613623  0.809780  0.250051  1
  Dy  Dy3  1  0.386377  0.190220  0.749949  1
  Dy  Dy4  1  0.194448  0.805552  0.251081  1
  Dy  Dy5  1  0.805552  0.194448  0.748919  1
  Al  Al6  1  0.332355  0.667645  0.018624  1
  Al  Al7  1  0.667645  0.332355  0.981376  1
  Al  Al8  1  0.666440  0.333560  0.515979  1
  Al  Al9  1  0.333560  0.666440  0.484021  1
  Al  Al10  1  0.163256  0.325759  0.575562  1
  Al  Al11  1  0.836744  0.674241  0.424438  1
  Al  Al12  1  0.674241  0.836744  0.575562  1
  Al  Al13  1  0.842618  0.675664  0.078358  1
  Al  Al14  1  0.325759  0.163256  0.424438  1
  Al  Al15  1  0.157382  0.324336  0.921642  1
  Al  Al16  1  0.163127  0.836873  0.574836  1
  Al  Al17  1  0.324336  0.157382  0.078358  1
  Al  Al18  1  0.836873  0.163127  0.425164  1
  Al  Al19  1  0.675664  0.842618  0.921642  1
  Al  Al20  1  0.836416  0.163584  0.075197  1
  Al  Al21  1  0.163584  0.836416  0.924803  1
  Al  Al22  1  0.560836  0.121813  0.249052  1
  Al  Al23  1  0.439164  0.878187  0.750948  1
  Al  Al24  1  0.878187  0.439164  0.249052  1
  Al  Al25  1  0.121813  0.560836  0.750948  1
  Al  Al26  1  0.561088  0.438912  0.249957  1
  Al  Al27  1  0.438912  0.561088  0.750043  1
  Al  Al28  1  0.999284  0.000716  0.250291  1
  Al  Al29  1  0.000716  0.999284  0.749709  1
  Cu  Cu30  1  0.500000  0.500000  0.000000  1
  Os  Os31  1  0.500000  0.000000  0.000000  1
  Os  Os32  1  0.000000  0.500000  0.000000  1
  Os  Os33  1  0.500000  0.000000  0.500000  1
  Os  Os34  1  0.000000  0.500000  0.500000  1
  Os  Os35  1  0.500000  0.500000  0.500000  1
  Os  Os36  1  0.000000  0.000000  0.000000  1
  Os  Os37  1  0.000000  0.000000  0.500000  1
