# generated using pymatgen
data_MnZnFeNi9
_symmetry_space_group_name_H-M   'P 1'
_cell_length_a   3.56275600
_cell_length_b   3.56275600
_cell_length_c   10.65202800
_cell_angle_alpha   90.00000000
_cell_angle_beta   90.00000000
_cell_angle_gamma   90.00000000
_symmetry_Int_Tables_number   1
_chemical_formula_structural   MnZnFeNi9
_chemical_formula_sum   'Mn1 Zn1 Fe1 Ni9'
_cell_volume   135.20864473
_cell_formula_units_Z   1
loop_
 _symmetry_equiv_pos_site_id
 _symmetry_equiv_pos_as_xyz
  1  'x, y, z'
loop_
 _atom_site_type_symbol
 _atom_site_label
 _atom_site_symmetry_multiplicity
 _atom_site_fract_x
 _atom_site_fract_y
 _atom_site_fract_z
 _atom_site_occupancy
  Mn  Mn0  1  0.000000  0.000000  0.332727  1
  Zn  Zn1  1  0.000000  0.000000  0.999174  1
  Fe  Fe2  1  0.000000  0.000000  0.668133  1
  Ni  Ni3  1  0.500000  0.500000  0.999095  1
  Ni  Ni4  1  0.500000  0.500000  0.334963  1
  Ni  Ni5  1  0.500000  0.500000  0.666071  1
  Ni  Ni6  1  0.500000  0.000000  0.168107  1
  Ni  Ni7  1  0.500000  0.000000  0.502832  1
  Ni  Ni8  1  0.500000  0.000000  0.828980  1
  Ni  Ni9  1  0.000000  0.500000  0.168107  1
  Ni  Ni10  1  0.000000  0.500000  0.502832  1
  Ni  Ni11  1  0.000000  0.500000  0.828980  1
