# generated using pymatgen
data_TbDy(ZnSi)2
_symmetry_space_group_name_H-M   'P 1'
_cell_length_a   4.15656200
_cell_length_b   4.15656225
_cell_length_c   15.75272100
_cell_angle_alpha   90.00000000
_cell_angle_beta   90.00000000
_cell_angle_gamma   120.00001390
_symmetry_Int_Tables_number   1
_chemical_formula_structural   TbDy(ZnSi)2
_chemical_formula_sum   'Tb2 Dy2 Zn4 Si4'
_cell_volume   235.69735254
_cell_formula_units_Z   2
loop_
 _symmetry_equiv_pos_site_id
 _symmetry_equiv_pos_as_xyz
  1  'x, y, z'
loop_
 _atom_site_type_symbol
 _atom_site_label
 _atom_site_symmetry_multiplicity
 _atom_site_fract_x
 _atom_site_fract_y
 _atom_site_fract_z
 _atom_site_occupancy
  Tb  Tb0  1  0.000000  0.000000  0.000000  1
  Tb  Tb1  1  0.000000  0.000000  0.500000  1
  Dy  Dy2  1  0.000000  0.000000  0.250000  1
  Dy  Dy3  1  0.000000  0.000000  0.750000  1
  Zn  Zn4  1  0.333333  0.666667  0.138028  1
  Zn  Zn5  1  0.666667  0.333333  0.861972  1
  Zn  Zn6  1  0.666667  0.333333  0.638028  1
  Zn  Zn7  1  0.333333  0.666667  0.361972  1
  Si  Si8  1  0.333333  0.666667  0.618038  1
  Si  Si9  1  0.666667  0.333333  0.381962  1
  Si  Si10  1  0.666667  0.333333  0.118038  1
  Si  Si11  1  0.333333  0.666667  0.881962  1
