# generated using pymatgen
data_La(S8Br)3
_symmetry_space_group_name_H-M   'P 1'
_cell_length_a   15.62108357
_cell_length_b   15.62108203
_cell_length_c   15.62108430
_cell_angle_alpha   119.17069049
_cell_angle_beta   119.17069017
_cell_angle_gamma   119.17067882
_symmetry_Int_Tables_number   1
_chemical_formula_structural   La(S8Br)3
_chemical_formula_sum   'La1 S24 Br3'
_cell_volume   899.58301060
_cell_formula_units_Z   1
loop_
 _symmetry_equiv_pos_site_id
 _symmetry_equiv_pos_as_xyz
  1  'x, y, z'
loop_
 _atom_site_type_symbol
 _atom_site_label
 _atom_site_symmetry_multiplicity
 _atom_site_fract_x
 _atom_site_fract_y
 _atom_site_fract_z
 _atom_site_occupancy
  La  La0  1  0.433290  0.433290  0.433290  1
  S  S1  1  0.016249  0.601736  0.601736  1
  S  S2  1  0.601736  0.601736  0.016249  1
  S  S3  1  0.601736  0.016249  0.601736  1
  S  S4  1  0.262641  0.861193  0.736577  1
  S  S5  1  0.861193  0.736577  0.262641  1
  S  S6  1  0.736577  0.262641  0.861193  1
  S  S7  1  0.861193  0.262641  0.736577  1
  S  S8  1  0.262641  0.736577  0.861193  1
  S  S9  1  0.736577  0.861193  0.262641  1
  S  S10  1  0.089736  0.607567  0.432513  1
  S  S11  1  0.607567  0.432513  0.089736  1
  S  S12  1  0.432513  0.089736  0.607567  1
  S  S13  1  0.607567  0.089736  0.432513  1
  S  S14  1  0.089736  0.432513  0.607567  1
  S  S15  1  0.432513  0.607567  0.089736  1
  S  S16  1  0.375326  0.757529  0.631694  1
  S  S17  1  0.757529  0.631694  0.375326  1
  S  S18  1  0.631694  0.375326  0.757529  1
  S  S19  1  0.757529  0.375326  0.631694  1
  S  S20  1  0.375326  0.631694  0.757529  1
  S  S21  1  0.631694  0.757529  0.375326  1
  S  S22  1  0.177459  0.453219  0.453219  1
  S  S23  1  0.453219  0.453219  0.177459  1
  S  S24  1  0.453219  0.177459  0.453219  1
  Br  Br25  1  0.025466  0.887589  0.887589  1
  Br  Br26  1  0.887589  0.887589  0.025466  1
  Br  Br27  1  0.887589  0.025466  0.887589  1
