# generated using pymatgen
data_Dy3Ho(Er2Os)4
_symmetry_space_group_name_H-M   'P 1'
_cell_length_a   6.27940814
_cell_length_b   7.36480771
_cell_length_c   8.98576700
_cell_angle_alpha   90.00000000
_cell_angle_beta   90.00000000
_cell_angle_gamma   89.96288311
_symmetry_Int_Tables_number   1
_chemical_formula_structural   Dy3Ho(Er2Os)4
_chemical_formula_sum   'Dy3 Ho1 Er8 Os4'
_cell_volume   415.56138572
_cell_formula_units_Z   1
loop_
 _symmetry_equiv_pos_site_id
 _symmetry_equiv_pos_as_xyz
  1  'x, y, z'
loop_
 _atom_site_type_symbol
 _atom_site_label
 _atom_site_symmetry_multiplicity
 _atom_site_fract_x
 _atom_site_fract_y
 _atom_site_fract_z
 _atom_site_occupancy
  Dy  Dy0  1  0.870223  0.538826  0.250000  1
  Dy  Dy1  1  0.629948  0.038875  0.250000  1
  Dy  Dy2  1  0.130255  0.460992  0.750000  1
  Ho  Ho3  1  0.369618  0.960927  0.750000  1
  Er  Er4  1  0.332881  0.675557  0.062797  1
  Er  Er5  1  0.167628  0.174683  0.437356  1
  Er  Er6  1  0.666945  0.324609  0.562963  1
  Er  Er7  1  0.832090  0.825094  0.936820  1
  Er  Er8  1  0.666945  0.324609  0.937037  1
  Er  Er9  1  0.832090  0.825094  0.563180  1
  Er  Er10  1  0.332881  0.675557  0.437203  1
  Er  Er11  1  0.167628  0.174683  0.062644  1
  Os  Os12  1  0.041764  0.883023  0.250000  1
  Os  Os13  1  0.458305  0.382934  0.250000  1
  Os  Os14  1  0.959567  0.116883  0.750000  1
  Os  Os15  1  0.541233  0.617657  0.750000  1
