# generated using pymatgen
data_Pa3Al12ZnCo2
_symmetry_space_group_name_H-M   'P 1'
_cell_length_a   9.38741700
_cell_length_b   9.38741500
_cell_length_c   4.07003000
_cell_angle_alpha   90.00000000
_cell_angle_beta   90.00000000
_cell_angle_gamma   120.00001057
_symmetry_Int_Tables_number   1
_chemical_formula_structural   Pa3Al12ZnCo2
_chemical_formula_sum   'Pa3 Al12 Zn1 Co2'
_cell_volume   310.61349740
_cell_formula_units_Z   1
loop_
 _symmetry_equiv_pos_site_id
 _symmetry_equiv_pos_as_xyz
  1  'x, y, z'
loop_
 _atom_site_type_symbol
 _atom_site_label
 _atom_site_symmetry_multiplicity
 _atom_site_fract_x
 _atom_site_fract_y
 _atom_site_fract_z
 _atom_site_occupancy
  Pa  Pa0  1  0.011407  0.414807  0.000000  1
  Pa  Pa1  1  0.585193  0.596600  0.000000  1
  Pa  Pa2  1  0.403400  0.988593  0.000000  1
  Al  Al3  1  0.000824  0.746552  0.000000  1
  Al  Al4  1  0.253448  0.254272  0.000000  1
  Al  Al5  1  0.745728  0.999176  0.000000  1
  Al  Al6  1  0.001103  0.166622  0.500000  1
  Al  Al7  1  0.833378  0.834481  0.500000  1
  Al  Al8  1  0.165519  0.998897  0.500000  1
  Al  Al9  1  0.295822  0.481110  0.500000  1
  Al  Al10  1  0.185289  0.704178  0.500000  1
  Al  Al11  1  0.518890  0.814711  0.500000  1
  Al  Al12  1  0.824060  0.529161  0.500000  1
  Al  Al13  1  0.705100  0.175940  0.500000  1
  Al  Al14  1  0.470839  0.294900  0.500000  1
  Zn  Zn15  1  0.666667  0.333333  0.000000  1
  Co  Co16  1  0.333333  0.666667  0.000000  1
  Co  Co17  1  0.000000  0.000000  0.000000  1
