# generated using pymatgen
data_Pr16Sm4Si15F
_symmetry_space_group_name_H-M   'P 1'
_cell_length_a   7.94988250
_cell_length_b   7.87511570
_cell_length_c   15.26605000
_cell_angle_alpha   89.52931043
_cell_angle_beta   89.16981851
_cell_angle_gamma   90.83091535
_symmetry_Int_Tables_number   1
_chemical_formula_structural   Pr16Sm4Si15F
_chemical_formula_sum   'Pr16 Sm4 Si15 F1'
_cell_volume   955.51531348
_cell_formula_units_Z   1
loop_
 _symmetry_equiv_pos_site_id
 _symmetry_equiv_pos_as_xyz
  1  'x, y, z'
loop_
 _atom_site_type_symbol
 _atom_site_label
 _atom_site_symmetry_multiplicity
 _atom_site_fract_x
 _atom_site_fract_y
 _atom_site_fract_z
 _atom_site_occupancy
  Pr  Pr0  1  0.382378  0.001972  0.443847  1
  Pr  Pr1  1  0.502225  0.860353  0.701130  1
  Pr  Pr2  1  0.512776  0.121831  0.197154  1
  Pr  Pr3  1  0.875032  0.483525  0.301578  1
  Pr  Pr4  1  0.126950  0.513983  0.797777  1
  Pr  Pr5  1  0.635735  0.987465  0.951750  1
  Pr  Pr6  1  0.000323  0.376293  0.550485  1
  Pr  Pr7  1  0.997420  0.624421  0.051844  1
  Pr  Pr8  1  0.142736  0.987257  0.875613  1
  Pr  Pr9  1  0.521821  0.630051  0.125391  1
  Pr  Pr10  1  0.477331  0.357456  0.630354  1
  Pr  Pr11  1  0.640297  0.521480  0.874517  1
  Pr  Pr12  1  0.364924  0.474115  0.377317  1
  Pr  Pr13  1  0.875830  0.018653  0.378980  1
  Pr  Pr14  1  0.984941  0.122932  0.122301  1
  Pr  Pr15  1  0.029989  0.893727  0.623167  1
  Sm  Sm16  1  0.313712  0.310314  0.997492  1
  Sm  Sm17  1  0.188082  0.804414  0.250205  1
  Sm  Sm18  1  0.799311  0.190098  0.753672  1
  Sm  Sm19  1  0.688504  0.685095  0.500056  1
  Si  Si20  1  0.337056  0.695689  0.948669  1
  Si  Si21  1  0.664813  0.304755  0.454605  1
  Si  Si22  1  0.703066  0.334145  0.048449  1
  Si  Si23  1  0.304119  0.663355  0.554021  1
  Si  Si24  1  0.808493  0.828906  0.205656  1
  Si  Si25  1  0.170185  0.190319  0.294538  1
  Si  Si26  1  0.846813  0.810550  0.796067  1
  Si  Si27  1  0.291944  0.922231  0.059659  1
  Si  Si28  1  0.577440  0.780859  0.311151  1
  Si  Si29  1  0.441400  0.206811  0.816675  1
  Si  Si30  1  0.792652  0.582630  0.686341  1
  Si  Si31  1  0.214232  0.423126  0.188719  1
  Si  Si32  1  0.706896  0.071247  0.561515  1
  Si  Si33  1  0.931681  0.290047  0.938432  1
  Si  Si34  1  0.077223  0.711865  0.443242  1
  F  F35  1  0.071668  0.218032  0.687637  1
