# generated using pymatgen
data_Tm4Ti4Ir3Rh
_symmetry_space_group_name_H-M   'P 1'
_cell_length_a   4.33553100
_cell_length_b   6.85598074
_cell_length_c   8.06422748
_cell_angle_alpha   89.87225483
_cell_angle_beta   90.00000000
_cell_angle_gamma   90.00000000
_symmetry_Int_Tables_number   1
_chemical_formula_structural   Tm4Ti4Ir3Rh
_chemical_formula_sum   'Tm4 Ti4 Ir3 Rh1'
_cell_volume   239.70305836
_cell_formula_units_Z   1
loop_
 _symmetry_equiv_pos_site_id
 _symmetry_equiv_pos_as_xyz
  1  'x, y, z'
loop_
 _atom_site_type_symbol
 _atom_site_label
 _atom_site_symmetry_multiplicity
 _atom_site_fract_x
 _atom_site_fract_y
 _atom_site_fract_z
 _atom_site_occupancy
  Tm  Tm0  1  0.250000  0.984530  0.318485  1
  Tm  Tm1  1  0.750000  0.514729  0.818506  1
  Tm  Tm2  1  0.250000  0.482953  0.181902  1
  Tm  Tm3  1  0.750000  0.018704  0.683074  1
  Ti  Ti4  1  0.750000  0.640485  0.430292  1
  Ti  Ti5  1  0.750000  0.139718  0.067362  1
  Ti  Ti6  1  0.250000  0.359947  0.567128  1
  Ti  Ti7  1  0.250000  0.859097  0.935141  1
  Ir  Ir8  1  0.750000  0.775443  0.097239  1
  Ir  Ir9  1  0.750000  0.277075  0.404188  1
  Ir  Ir10  1  0.250000  0.223371  0.902231  1
  Rh  Rh11  1  0.250000  0.723947  0.594451  1
