# generated using pymatgen
data_Ho2Sc3Tc3(P3Ir4)4
_symmetry_space_group_name_H-M   'P 1'
_cell_length_a   12.60075600
_cell_length_b   12.60075617
_cell_length_c   3.95186400
_cell_angle_alpha   90.00000000
_cell_angle_beta   90.00000000
_cell_angle_gamma   119.99999955
_symmetry_Int_Tables_number   1
_chemical_formula_structural   Ho2Sc3Tc3(P3Ir4)4
_chemical_formula_sum   'Ho2 Sc3 Tc3 P12 Ir16'
_cell_volume   543.40775736
_cell_formula_units_Z   1
loop_
 _symmetry_equiv_pos_site_id
 _symmetry_equiv_pos_as_xyz
  1  'x, y, z'
loop_
 _atom_site_type_symbol
 _atom_site_label
 _atom_site_symmetry_multiplicity
 _atom_site_fract_x
 _atom_site_fract_y
 _atom_site_fract_z
 _atom_site_occupancy
  Ho  Ho0  1  0.333333  0.666667  0.000000  1
  Ho  Ho1  1  0.666667  0.333333  0.000000  1
  Sc  Sc2  1  0.821275  0.000000  0.500000  1
  Sc  Sc3  1  0.000000  0.821275  0.500000  1
  Sc  Sc4  1  0.178725  0.178725  0.500000  1
  Tc  Tc5  1  0.455600  0.000000  0.000000  1
  Tc  Tc6  1  0.000000  0.455600  0.000000  1
  Tc  Tc7  1  0.544400  0.544400  0.000000  1
  P  P8  1  0.174186  0.000000  0.000000  1
  P  P9  1  0.000000  0.174186  0.000000  1
  P  P10  1  0.825814  0.825814  0.000000  1
  P  P11  1  0.168496  0.484032  0.500000  1
  P  P12  1  0.515968  0.684463  0.500000  1
  P  P13  1  0.315537  0.831504  0.500000  1
  P  P14  1  0.684463  0.515968  0.500000  1
  P  P15  1  0.831504  0.315537  0.500000  1
  P  P16  1  0.484032  0.168496  0.500000  1
  P  P17  1  0.641243  0.000000  0.000000  1
  P  P18  1  0.000000  0.641243  0.000000  1
  P  P19  1  0.358757  0.358757  0.000000  1
  Ir  Ir20  1  0.357025  0.489115  0.500000  1
  Ir  Ir21  1  0.510885  0.867909  0.500000  1
  Ir  Ir22  1  0.132091  0.642975  0.500000  1
  Ir  Ir23  1  0.867909  0.510885  0.500000  1
  Ir  Ir24  1  0.642975  0.132091  0.500000  1
  Ir  Ir25  1  0.489115  0.357025  0.500000  1
  Ir  Ir26  1  0.178672  0.368716  0.000000  1
  Ir  Ir27  1  0.631284  0.809957  0.000000  1
  Ir  Ir28  1  0.190043  0.821328  0.000000  1
  Ir  Ir29  1  0.809957  0.631284  0.000000  1
  Ir  Ir30  1  0.821328  0.190043  0.000000  1
  Ir  Ir31  1  0.368716  0.178672  0.000000  1
  Ir  Ir32  1  0.289454  0.000000  0.500000  1
  Ir  Ir33  1  0.000000  0.289454  0.500000  1
  Ir  Ir34  1  0.710546  0.710546  0.500000  1
  Ir  Ir35  1  0.000000  0.000000  0.000000  1
