# generated using pymatgen
data_HoTm5(FeCo3)4
_symmetry_space_group_name_H-M   'P 1'
_cell_length_a   7.53333039
_cell_length_b   7.53333141
_cell_length_c   7.53333120
_cell_angle_alpha   109.43886130
_cell_angle_beta   109.43886534
_cell_angle_gamma   109.53595376
_symmetry_Int_Tables_number   1
_chemical_formula_structural   HoTm5(FeCo3)4
_chemical_formula_sum   'Ho1 Tm5 Fe4 Co12'
_cell_volume   329.10830965
_cell_formula_units_Z   1
loop_
 _symmetry_equiv_pos_site_id
 _symmetry_equiv_pos_as_xyz
  1  'x, y, z'
loop_
 _atom_site_type_symbol
 _atom_site_label
 _atom_site_symmetry_multiplicity
 _atom_site_fract_x
 _atom_site_fract_y
 _atom_site_fract_z
 _atom_site_occupancy
  Ho  Ho0  1  0.718216  0.718216  0.000000  1
  Tm  Tm1  1  0.283331  0.000284  0.283047  1
  Tm  Tm2  1  0.000284  0.283331  0.283047  1
  Tm  Tm3  1  0.282581  0.282581  0.000000  1
  Tm  Tm4  1  0.717237  0.000284  0.716953  1
  Tm  Tm5  1  0.000284  0.717237  0.716953  1
  Fe  Fe6  1  0.000643  0.000643  0.500850  1
  Fe  Fe7  1  0.000643  0.499793  0.000000  1
  Fe  Fe8  1  0.499793  0.000643  0.000000  1
  Fe  Fe9  1  0.499793  0.499793  0.499150  1
  Co  Co10  1  0.335209  0.335209  0.670982  1
  Co  Co11  1  0.663978  0.000149  0.336172  1
  Co  Co12  1  0.000149  0.663978  0.336172  1
  Co  Co13  1  0.664227  0.335209  0.000000  1
  Co  Co14  1  0.335603  0.671282  0.335678  1
  Co  Co15  1  0.999925  0.335603  0.664322  1
  Co  Co16  1  0.335209  0.664227  0.000000  1
  Co  Co17  1  0.335603  0.999925  0.664322  1
  Co  Co18  1  0.671282  0.335603  0.335678  1
  Co  Co19  1  0.664227  0.664227  0.329018  1
  Co  Co20  1  0.663978  0.327806  0.663828  1
  Co  Co21  1  0.327806  0.663978  0.663828  1
