# generated using pymatgen
data_Ce6Cu6Sn5Sb3
_symmetry_space_group_name_H-M   'P 1'
_cell_length_a   8.41086598
_cell_length_b   8.41086734
_cell_length_c   8.35728900
_cell_angle_alpha   109.34223134
_cell_angle_beta   109.34223458
_cell_angle_gamma   109.59990166
_symmetry_Int_Tables_number   1
_chemical_formula_structural   Ce6Cu6Sn5Sb3
_chemical_formula_sum   'Ce6 Cu6 Sn5 Sb3'
_cell_volume   455.84152626
_cell_formula_units_Z   1
loop_
 _symmetry_equiv_pos_site_id
 _symmetry_equiv_pos_as_xyz
  1  'x, y, z'
loop_
 _atom_site_type_symbol
 _atom_site_label
 _atom_site_symmetry_multiplicity
 _atom_site_fract_x
 _atom_site_fract_y
 _atom_site_fract_z
 _atom_site_occupancy
  Ce  Ce0  1  0.874223  0.249441  0.124461  1
  Ce  Ce1  1  0.626739  0.750750  0.376129  1
  Ce  Ce2  1  0.250559  0.124783  0.875020  1
  Ce  Ce3  1  0.749250  0.375990  0.625379  1
  Ce  Ce4  1  0.124010  0.873261  0.249390  1
  Ce  Ce5  1  0.375217  0.625777  0.750237  1
  Cu  Cu6  1  0.374953  0.250002  0.625145  1
  Cu  Cu7  1  0.125694  0.750818  0.875418  1
  Cu  Cu8  1  0.249998  0.624950  0.375143  1
  Cu  Cu9  1  0.749182  0.874876  0.124601  1
  Cu  Cu10  1  0.625124  0.374306  0.249725  1
  Cu  Cu11  1  0.875050  0.125047  0.750193  1
  Sn  Sn12  1  0.663781  0.500492  0.000526  1
  Sn  Sn13  1  0.500000  0.000000  0.662576  1
  Sn  Sn14  1  0.999508  0.663290  0.500034  1
  Sn  Sn15  1  0.836710  0.836219  0.836745  1
  Sn  Sn16  1  0.500000  0.000000  0.161668  1
  Sb  Sb17  1  0.161799  0.501410  0.000273  1
  Sb  Sb18  1  0.998590  0.160388  0.498863  1
  Sb  Sb19  1  0.339612  0.338201  0.338474  1
