# generated using pymatgen
data_La3Sn2SbRh3
_symmetry_space_group_name_H-M   'P 1'
_cell_length_a   7.60258017
_cell_length_b   7.60258064
_cell_length_c   4.18116900
_cell_angle_alpha   90.00000000
_cell_angle_beta   90.00000000
_cell_angle_gamma   119.71711344
_symmetry_Int_Tables_number   1
_chemical_formula_structural   La3Sn2SbRh3
_chemical_formula_sum   'La3 Sn2 Sb1 Rh3'
_cell_volume   209.88496615
_cell_formula_units_Z   1
loop_
 _symmetry_equiv_pos_site_id
 _symmetry_equiv_pos_as_xyz
  1  'x, y, z'
loop_
 _atom_site_type_symbol
 _atom_site_label
 _atom_site_symmetry_multiplicity
 _atom_site_fract_x
 _atom_site_fract_y
 _atom_site_fract_z
 _atom_site_occupancy
  La  La0  1  0.000361  0.584597  0.000000  1
  La  La1  1  0.415076  0.415076  0.000000  1
  La  La2  1  0.584597  0.000361  0.000000  1
  Sn  Sn3  1  0.002203  0.250655  0.500000  1
  Sn  Sn4  1  0.250655  0.002203  0.500000  1
  Sb  Sb5  1  0.751342  0.751342  0.500000  1
  Rh  Rh6  1  0.333364  0.665632  0.500000  1
  Rh  Rh7  1  0.665632  0.333364  0.500000  1
  Rh  Rh8  1  0.996770  0.996770  0.000000  1
