# generated using pymatgen
data_YEr11InCo4Pd
_symmetry_space_group_name_H-M   'P 1'
_cell_length_a   8.26680231
_cell_length_b   8.26680193
_cell_length_c   8.25181112
_cell_angle_alpha   110.91717366
_cell_angle_beta   110.57837197
_cell_angle_gamma   107.02438140
_symmetry_Int_Tables_number   1
_chemical_formula_structural   YEr11InCo4Pd
_chemical_formula_sum   'Y1 Er11 In1 Co4 Pd1'
_cell_volume   433.08661920
_cell_formula_units_Z   1
loop_
 _symmetry_equiv_pos_site_id
 _symmetry_equiv_pos_as_xyz
  1  'x, y, z'
loop_
 _atom_site_type_symbol
 _atom_site_label
 _atom_site_symmetry_multiplicity
 _atom_site_fract_x
 _atom_site_fract_y
 _atom_site_fract_z
 _atom_site_occupancy
  Y  Y0  1  0.189353  0.293540  0.482893  1
  Er  Er1  1  0.811674  0.706561  0.518234  1
  Er  Er2  1  0.187987  0.706567  0.894554  1
  Er  Er3  1  0.811286  0.294511  0.105797  1
  Er  Er4  1  0.314613  0.618456  0.303897  1
  Er  Er5  1  0.686968  0.382396  0.696898  1
  Er  Er6  1  0.314502  0.009929  0.696898  1
  Er  Er7  1  0.685441  0.989284  0.303897  1
  Er  Er8  1  0.416509  0.215511  0.199989  1
  Er  Er9  1  0.587755  0.787222  0.801842  1
  Er  Er10  1  0.014620  0.214086  0.801842  1
  Er  Er11  1  0.984478  0.783480  0.199989  1
  In  In12  1  0.499267  0.499776  0.999042  1
  Co  Co13  1  0.109905  0.613722  0.498293  1
  Co  Co14  1  0.884571  0.388388  0.498293  1
  Co  Co15  1  0.379230  0.999389  0.378620  1
  Co  Co16  1  0.620055  0.000064  0.620119  1
  Pd  Pd17  1  0.001785  0.997118  0.998903  1
