# generated using pymatgen
data_Dy6ErCo2Sn23Os4
_symmetry_space_group_name_H-M   'P 1'
_cell_length_a   9.79657958
_cell_length_b   9.84808161
_cell_length_c   10.06533846
_cell_angle_alpha   89.98677509
_cell_angle_beta   89.78488622
_cell_angle_gamma   120.17724694
_symmetry_Int_Tables_number   1
_chemical_formula_structural   Dy6ErCo2Sn23Os4
_chemical_formula_sum   'Dy6 Er1 Co2 Sn23 Os4'
_cell_volume   839.46445264
_cell_formula_units_Z   1
loop_
 _symmetry_equiv_pos_site_id
 _symmetry_equiv_pos_as_xyz
  1  'x, y, z'
loop_
 _atom_site_type_symbol
 _atom_site_label
 _atom_site_symmetry_multiplicity
 _atom_site_fract_x
 _atom_site_fract_y
 _atom_site_fract_z
 _atom_site_occupancy
  Dy  Dy0  1  0.999987  0.000032  0.000033  1
  Dy  Dy1  1  0.516217  0.480983  0.694079  1
  Dy  Dy2  1  0.483806  0.964834  0.305828  1
  Dy  Dy3  1  0.516202  0.035233  0.694158  1
  Dy  Dy4  1  0.035103  0.517570  0.304230  1
  Dy  Dy5  1  0.964826  0.482406  0.695756  1
  Er  Er6  1  0.484365  0.518979  0.305731  1
  Co  Co7  1  0.339105  0.169828  0.199382  1
  Co  Co8  1  0.661070  0.830546  0.800696  1
  Sn  Sn9  1  0.349262  0.002748  0.004872  1
  Sn  Sn10  1  0.650734  0.997280  0.995179  1
  Sn  Sn11  1  0.000026  0.349538  0.000012  1
  Sn  Sn12  1  0.999906  0.650455  0.000093  1
  Sn  Sn13  1  0.650657  0.653385  0.995185  1
  Sn  Sn14  1  0.349328  0.346639  0.004933  1
  Sn  Sn15  1  0.336226  0.668102  0.821389  1
  Sn  Sn16  1  0.663679  0.331941  0.178673  1
  Sn  Sn17  1  0.999975  0.000016  0.499977  1
  Sn  Sn18  1  0.780608  0.220048  0.461229  1
  Sn  Sn19  1  0.219380  0.779980  0.538754  1
  Sn  Sn20  1  0.780227  0.560551  0.461075  1
  Sn  Sn21  1  0.219637  0.439485  0.538495  1
  Sn  Sn22  1  0.437201  0.218989  0.453928  1
  Sn  Sn23  1  0.562812  0.781253  0.545607  1
  Sn  Sn24  1  0.335373  0.667182  0.124259  1
  Sn  Sn25  1  0.664920  0.332446  0.876108  1
  Sn  Sn26  1  0.120893  0.889179  0.275243  1
  Sn  Sn27  1  0.879044  0.110782  0.724736  1
  Sn  Sn28  1  0.121285  0.232010  0.275312  1
  Sn  Sn29  1  0.879001  0.768223  0.724764  1
  Sn  Sn30  1  0.763610  0.881638  0.276565  1
  Sn  Sn31  1  0.236112  0.118099  0.723529  1
  Os  Os32  1  0.829562  0.168302  0.200681  1
  Os  Os33  1  0.170483  0.831615  0.799386  1
  Os  Os34  1  0.828870  0.660822  0.200790  1
  Os  Os35  1  0.170506  0.338878  0.799335  1
