# generated using pymatgen
data_Dy16MgTl(InRh2)2
_symmetry_space_group_name_H-M   'P 1'
_cell_length_a   9.67620043
_cell_length_b   9.67478362
_cell_length_c   9.66744584
_cell_angle_alpha   60.10281335
_cell_angle_beta   60.09358063
_cell_angle_gamma   59.97836871
_symmetry_Int_Tables_number   1
_chemical_formula_structural   Dy16MgTl(InRh2)2
_chemical_formula_sum   'Dy16 Mg1 Tl1 In2 Rh4'
_cell_volume   640.78835501
_cell_formula_units_Z   1
loop_
 _symmetry_equiv_pos_site_id
 _symmetry_equiv_pos_as_xyz
  1  'x, y, z'
loop_
 _atom_site_type_symbol
 _atom_site_label
 _atom_site_symmetry_multiplicity
 _atom_site_fract_x
 _atom_site_fract_y
 _atom_site_fract_z
 _atom_site_occupancy
  Dy  Dy0  1  0.688853  0.311890  0.312536  1
  Dy  Dy1  1  0.687559  0.687763  0.315375  1
  Dy  Dy2  1  0.311549  0.688446  0.313954  1
  Dy  Dy3  1  0.934029  0.934225  0.563168  1
  Dy  Dy4  1  0.147461  0.147978  0.551158  1
  Dy  Dy5  1  0.562643  0.938574  0.559570  1
  Dy  Dy6  1  0.153476  0.154551  0.152952  1
  Dy  Dy7  1  0.309430  0.310549  0.691182  1
  Dy  Dy8  1  0.938400  0.561968  0.561020  1
  Dy  Dy9  1  0.562108  0.561169  0.938274  1
  Dy  Dy10  1  0.564511  0.937268  0.933745  1
  Dy  Dy11  1  0.936690  0.564565  0.933566  1
  Dy  Dy12  1  0.149288  0.546030  0.149459  1
  Dy  Dy13  1  0.310208  0.690562  0.691851  1
  Dy  Dy14  1  0.690717  0.310579  0.692157  1
  Dy  Dy15  1  0.546310  0.149847  0.149190  1
  Mg  Mg16  1  0.924614  0.924695  0.228626  1
  Tl  Tl17  1  0.252958  0.914769  0.919287  1
  In  In18  1  0.915393  0.248839  0.919665  1
  In  In19  1  0.915562  0.916788  0.917956  1
  Rh  Rh20  1  0.355997  0.356478  0.359811  1
  Rh  Rh21  1  0.925084  0.358493  0.360265  1
  Rh  Rh22  1  0.358675  0.358725  0.925055  1
  Rh  Rh23  1  0.358489  0.925250  0.360179  1
