# generated using pymatgen
data_Nd16Cd4CoTcNi2
_symmetry_space_group_name_H-M   'P 1'
_cell_length_a   9.90794326
_cell_length_b   9.90794339
_cell_length_c   9.92584233
_cell_angle_alpha   59.49848371
_cell_angle_beta   59.49848068
_cell_angle_gamma   59.57849226
_symmetry_Int_Tables_number   1
_chemical_formula_structural   Nd16Cd4CoTcNi2
_chemical_formula_sum   'Nd16 Cd4 Co1 Tc1 Ni2'
_cell_volume   681.55979304
_cell_formula_units_Z   1
loop_
 _symmetry_equiv_pos_site_id
 _symmetry_equiv_pos_as_xyz
  1  'x, y, z'
loop_
 _atom_site_type_symbol
 _atom_site_label
 _atom_site_symmetry_multiplicity
 _atom_site_fract_x
 _atom_site_fract_y
 _atom_site_fract_z
 _atom_site_occupancy
  Nd  Nd0  1  0.596289  0.596289  0.601034  1
  Nd  Nd1  1  0.599293  0.599293  0.206968  1
  Nd  Nd2  1  0.597665  0.208664  0.600515  1
  Nd  Nd3  1  0.208664  0.597665  0.600515  1
  Nd  Nd4  1  0.060854  0.438713  0.438655  1
  Nd  Nd5  1  0.438531  0.062800  0.055660  1
  Nd  Nd6  1  0.438713  0.060854  0.438655  1
  Nd  Nd7  1  0.062800  0.438531  0.055660  1
  Nd  Nd8  1  0.438467  0.438467  0.057543  1
  Nd  Nd9  1  0.057657  0.057657  0.440416  1
  Nd  Nd10  1  0.186372  0.812732  0.814546  1
  Nd  Nd11  1  0.802994  0.190695  0.191154  1
  Nd  Nd12  1  0.812732  0.186372  0.814546  1
  Nd  Nd13  1  0.190695  0.802994  0.191154  1
  Nd  Nd14  1  0.813894  0.813894  0.186650  1
  Nd  Nd15  1  0.190881  0.190881  0.803676  1
  Cd  Cd16  1  0.829511  0.829511  0.829816  1
  Cd  Cd17  1  0.829266  0.829266  0.509565  1
  Cd  Cd18  1  0.829816  0.509081  0.829298  1
  Cd  Cd19  1  0.509081  0.829816  0.829298  1
  Co  Co20  1  0.393984  0.393984  0.827648  1
  Tc  Tc21  1  0.391500  0.391500  0.390270  1
  Ni  Ni22  1  0.394020  0.826321  0.393380  1
  Ni  Ni23  1  0.826321  0.394020  0.393380  1
