# generated using pymatgen
data_YErSi2PdRu
_symmetry_space_group_name_H-M   'P 1'
_cell_length_a   4.26041200
_cell_length_b   6.94354538
_cell_length_c   7.42697177
_cell_angle_alpha   90.86288256
_cell_angle_beta   90.00000000
_cell_angle_gamma   90.00000000
_symmetry_Int_Tables_number   1
_chemical_formula_structural   YErSi2PdRu
_chemical_formula_sum   'Y2 Er2 Si4 Pd2 Ru2'
_cell_volume   219.68246758
_cell_formula_units_Z   2
loop_
 _symmetry_equiv_pos_site_id
 _symmetry_equiv_pos_as_xyz
  1  'x, y, z'
loop_
 _atom_site_type_symbol
 _atom_site_label
 _atom_site_symmetry_multiplicity
 _atom_site_fract_x
 _atom_site_fract_y
 _atom_site_fract_z
 _atom_site_occupancy
  Y  Y0  1  0.250000  0.995733  0.805864  1
  Y  Y1  1  0.750000  0.004267  0.194136  1
  Er  Er2  1  0.250000  0.501245  0.690245  1
  Er  Er3  1  0.750000  0.498755  0.309755  1
  Si  Si4  1  0.250000  0.301413  0.089522  1
  Si  Si5  1  0.750000  0.698587  0.910478  1
  Si  Si6  1  0.250000  0.786590  0.383090  1
  Si  Si7  1  0.750000  0.213410  0.616910  1
  Pd  Pd8  1  0.750000  0.831443  0.572964  1
  Pd  Pd9  1  0.250000  0.168557  0.427036  1
  Ru  Ru10  1  0.750000  0.347130  0.931682  1
  Ru  Ru11  1  0.250000  0.652870  0.068318  1
