# generated using pymatgen
data_Er6Al24Fe4CuNiRu2
_symmetry_space_group_name_H-M   'P 1'
_cell_length_a   8.71027200
_cell_length_b   8.69253307
_cell_length_c   9.33242900
_cell_angle_alpha   90.00000000
_cell_angle_beta   90.00000000
_cell_angle_gamma   119.41591871
_symmetry_Int_Tables_number   1
_chemical_formula_structural   Er6Al24Fe4CuNiRu2
_chemical_formula_sum   'Er6 Al24 Fe4 Cu1 Ni1 Ru2'
_cell_volume   615.50204949
_cell_formula_units_Z   1
loop_
 _symmetry_equiv_pos_site_id
 _symmetry_equiv_pos_as_xyz
  1  'x, y, z'
loop_
 _atom_site_type_symbol
 _atom_site_label
 _atom_site_symmetry_multiplicity
 _atom_site_fract_x
 _atom_site_fract_y
 _atom_site_fract_z
 _atom_site_occupancy
  Er  Er0  1  0.189696  0.386998  0.249919  1
  Er  Er1  1  0.810304  0.613002  0.750081  1
  Er  Er2  1  0.613611  0.810595  0.249868  1
  Er  Er3  1  0.386389  0.189405  0.750132  1
  Er  Er4  1  0.195783  0.804562  0.249354  1
  Er  Er5  1  0.804217  0.195438  0.750646  1
  Al  Al6  1  0.337559  0.671711  0.016970  1
  Al  Al7  1  0.662441  0.328289  0.983030  1
  Al  Al8  1  0.664438  0.326020  0.517186  1
  Al  Al9  1  0.335562  0.673980  0.482814  1
  Al  Al10  1  0.155051  0.317992  0.577650  1
  Al  Al11  1  0.844949  0.682008  0.422350  1
  Al  Al12  1  0.680674  0.847881  0.576954  1
  Al  Al13  1  0.840856  0.680597  0.076023  1
  Al  Al14  1  0.319326  0.152119  0.423046  1
  Al  Al15  1  0.159144  0.319403  0.923977  1
  Al  Al16  1  0.164236  0.841532  0.576904  1
  Al  Al17  1  0.320434  0.155988  0.075319  1
  Al  Al18  1  0.835764  0.158468  0.423096  1
  Al  Al19  1  0.679566  0.844012  0.924681  1
  Al  Al20  1  0.835366  0.158454  0.076127  1
  Al  Al21  1  0.164634  0.841546  0.923873  1
  Al  Al22  1  0.557861  0.117171  0.249875  1
  Al  Al23  1  0.442139  0.882829  0.750125  1
  Al  Al24  1  0.874882  0.437951  0.249914  1
  Al  Al25  1  0.125118  0.562049  0.750086  1
  Al  Al26  1  0.559151  0.439271  0.246132  1
  Al  Al27  1  0.440849  0.560729  0.753868  1
  Al  Al28  1  0.998549  0.001041  0.249452  1
  Al  Al29  1  0.001451  0.998959  0.750548  1
  Fe  Fe30  1  0.500000  0.000000  0.000000  1
  Fe  Fe31  1  0.500000  0.000000  0.500000  1
  Fe  Fe32  1  0.000000  0.000000  0.000000  1
  Fe  Fe33  1  0.000000  0.000000  0.500000  1
  Cu  Cu34  1  0.500000  0.500000  0.500000  1
  Ni  Ni35  1  0.500000  0.500000  0.000000  1
  Ru  Ru36  1  0.000000  0.500000  0.000000  1
  Ru  Ru37  1  0.000000  0.500000  0.500000  1
