# generated using pymatgen
data_Cr5Ga6Ru12W
_symmetry_space_group_name_H-M   'P 1'
_cell_length_a   4.27071500
_cell_length_b   6.04660600
_cell_length_c   12.76613400
_cell_angle_alpha   90.00005984
_cell_angle_beta   89.99844992
_cell_angle_gamma   90.00000000
_symmetry_Int_Tables_number   1
_chemical_formula_structural   Cr5Ga6Ru12W
_chemical_formula_sum   'Cr5 Ga6 Ru12 W1'
_cell_volume   329.66410309
_cell_formula_units_Z   1
loop_
 _symmetry_equiv_pos_site_id
 _symmetry_equiv_pos_as_xyz
  1  'x, y, z'
loop_
 _atom_site_type_symbol
 _atom_site_label
 _atom_site_symmetry_multiplicity
 _atom_site_fract_x
 _atom_site_fract_y
 _atom_site_fract_z
 _atom_site_occupancy
  Cr  Cr0  1  0.499782  0.499998  0.170129  1
  Cr  Cr1  1  0.999769  0.000003  0.336225  1
  Cr  Cr2  1  0.500000  0.500000  0.500000  1
  Cr  Cr3  1  0.000230  0.999997  0.663775  1
  Cr  Cr4  1  0.500220  0.500002  0.829871  1
  Ga  Ga5  1  0.000000  0.500000  0.000000  1
  Ga  Ga6  1  0.499778  0.999994  0.169435  1
  Ga  Ga7  1  0.999753  0.500007  0.334573  1
  Ga  Ga8  1  0.500000  0.000000  0.500000  1
  Ga  Ga9  1  0.000246  0.499993  0.665427  1
  Ga  Ga10  1  0.500221  0.000006  0.830565  1
  Ru  Ru11  1  0.500000  0.252224  0.000000  1
  Ru  Ru12  1  0.500000  0.747777  0.000000  1
  Ru  Ru13  1  0.999818  0.251610  0.168024  1
  Ru  Ru14  1  0.999818  0.748393  0.168025  1
  Ru  Ru15  1  0.499767  0.250186  0.334207  1
  Ru  Ru16  1  0.499767  0.749811  0.334207  1
  Ru  Ru17  1  0.000000  0.250715  0.500001  1
  Ru  Ru18  1  0.000000  0.749284  0.499999  1
  Ru  Ru19  1  0.500232  0.250188  0.665793  1
  Ru  Ru20  1  0.500232  0.749813  0.665793  1
  Ru  Ru21  1  0.000184  0.251608  0.831975  1
  Ru  Ru22  1  0.000184  0.748391  0.831976  1
  W  W23  1  0.000000  0.000000  0.000000  1
