# generated using pymatgen
data_Sr5CaAg16N
_symmetry_space_group_name_H-M   'P 1'
_cell_length_a   8.77441978
_cell_length_b   8.77441947
_cell_length_c   8.77441998
_cell_angle_alpha   110.47552357
_cell_angle_beta   108.97141873
_cell_angle_gamma   108.97141681
_symmetry_Int_Tables_number   1
_chemical_formula_structural   Sr5CaAg16N
_chemical_formula_sum   'Sr5 Ca1 Ag16 N1'
_cell_volume   519.91579458
_cell_formula_units_Z   1
loop_
 _symmetry_equiv_pos_site_id
 _symmetry_equiv_pos_as_xyz
  1  'x, y, z'
loop_
 _atom_site_type_symbol
 _atom_site_label
 _atom_site_symmetry_multiplicity
 _atom_site_fract_x
 _atom_site_fract_y
 _atom_site_fract_z
 _atom_site_occupancy
  Sr  Sr0  1  0.000000  0.261762  0.261762  1
  Sr  Sr1  1  0.261702  0.996740  0.258442  1
  Sr  Sr2  1  0.738298  0.996740  0.735038  1
  Sr  Sr3  1  0.738298  0.735038  0.996740  1
  Sr  Sr4  1  0.261702  0.258442  0.996740  1
  Ca  Ca5  1  0.000000  0.742852  0.742852  1
  Ag  Ag6  1  0.500262  0.501902  0.501902  1
  Ag  Ag7  1  0.499738  0.001640  0.001640  1
  Ag  Ag8  1  0.000000  0.501902  0.001640  1
  Ag  Ag9  1  0.000000  0.001640  0.501902  1
  Ag  Ag10  1  0.691728  0.349308  0.349308  1
  Ag  Ag11  1  0.340821  0.999182  0.658360  1
  Ag  Ag12  1  0.341137  0.683040  0.341904  1
  Ag  Ag13  1  0.341137  0.341904  0.683040  1
  Ag  Ag14  1  0.340821  0.658360  0.999182  1
  Ag  Ag15  1  0.000000  0.349308  0.657579  1
  Ag  Ag16  1  0.000000  0.657579  0.349308  1
  Ag  Ag17  1  0.659179  0.658360  0.317540  1
  Ag  Ag18  1  0.658863  0.000767  0.341904  1
  Ag  Ag19  1  0.658863  0.341904  0.000767  1
  Ag  Ag20  1  0.659179  0.317540  0.658360  1
  Ag  Ag21  1  0.308272  0.657579  0.657579  1
  N  N22  1  0.000000  0.986508  0.986508  1
