# generated using pymatgen
data_NdHg3(Pd2O7)2
_symmetry_space_group_name_H-M   'P 1'
_cell_length_a   7.29465478
_cell_length_b   7.34707466
_cell_length_c   7.29465500
_cell_angle_alpha   60.23573237
_cell_angle_beta   59.99999447
_cell_angle_gamma   60.23572901
_symmetry_Int_Tables_number   1
_chemical_formula_structural   NdHg3(Pd2O7)2
_chemical_formula_sum   'Nd1 Hg3 Pd4 O14'
_cell_volume   277.42602803
_cell_formula_units_Z   1
loop_
 _symmetry_equiv_pos_site_id
 _symmetry_equiv_pos_as_xyz
  1  'x, y, z'
loop_
 _atom_site_type_symbol
 _atom_site_label
 _atom_site_symmetry_multiplicity
 _atom_site_fract_x
 _atom_site_fract_y
 _atom_site_fract_z
 _atom_site_occupancy
  Nd  Nd0  1  0.125000  0.625000  0.125000  1
  Hg  Hg1  1  0.625000  0.125000  0.125000  1
  Hg  Hg2  1  0.125000  0.125000  0.625000  1
  Hg  Hg3  1  0.125000  0.125000  0.125000  1
  Pd  Pd4  1  0.125000  0.625000  0.625000  1
  Pd  Pd5  1  0.625000  0.125000  0.625000  1
  Pd  Pd6  1  0.625000  0.625000  0.125000  1
  Pd  Pd7  1  0.625000  0.625000  0.625000  1
  O  O8  1  0.713494  0.700653  0.292926  1
  O  O9  1  0.294186  0.296159  0.704827  1
  O  O10  1  0.704827  0.296159  0.704827  1
  O  O11  1  0.292926  0.700653  0.292926  1
  O  O12  1  0.292926  0.700653  0.713494  1
  O  O13  1  0.704827  0.296159  0.294186  1
  O  O14  1  0.536506  0.549347  0.957074  1
  O  O15  1  0.955814  0.953841  0.545173  1
  O  O16  1  0.545173  0.953841  0.545173  1
  O  O17  1  0.957074  0.549347  0.957074  1
  O  O18  1  0.957074  0.549347  0.536506  1
  O  O19  1  0.545173  0.953841  0.955814  1
  O  O20  1  0.259414  0.221758  0.259414  1
  O  O21  1  0.990586  0.028242  0.990586  1
