# generated using pymatgen
data_Na14Hg2Se9
_symmetry_space_group_name_H-M   'P 1'
_cell_length_a   8.33905500
_cell_length_b   8.33905484
_cell_length_c   11.67711100
_cell_angle_alpha   90.00000000
_cell_angle_beta   90.00000000
_cell_angle_gamma   120.00000460
_symmetry_Int_Tables_number   1
_chemical_formula_structural   Na14Hg2Se9
_chemical_formula_sum   'Na14 Hg2 Se9'
_cell_volume   703.23372202
_cell_formula_units_Z   1
loop_
 _symmetry_equiv_pos_site_id
 _symmetry_equiv_pos_as_xyz
  1  'x, y, z'
loop_
 _atom_site_type_symbol
 _atom_site_label
 _atom_site_symmetry_multiplicity
 _atom_site_fract_x
 _atom_site_fract_y
 _atom_site_fract_z
 _atom_site_occupancy
  Na  Na0  1  0.021347  0.672548  0.909451  1
  Na  Na1  1  0.322759  0.954456  0.592382  1
  Na  Na2  1  0.045544  0.368303  0.592382  1
  Na  Na3  1  0.000000  0.000000  0.250059  1
  Na  Na4  1  0.000000  0.000000  0.749941  1
  Na  Na5  1  0.327452  0.348799  0.909451  1
  Na  Na6  1  0.651201  0.978653  0.909451  1
  Na  Na7  1  0.368303  0.322759  0.407618  1
  Na  Na8  1  0.631697  0.677241  0.592382  1
  Na  Na9  1  0.348799  0.021347  0.090549  1
  Na  Na10  1  0.672548  0.651201  0.090549  1
  Na  Na11  1  0.954456  0.631697  0.407618  1
  Na  Na12  1  0.677241  0.045544  0.407618  1
  Na  Na13  1  0.978653  0.327452  0.090549  1
  Hg  Hg14  1  0.333333  0.666667  0.255903  1
  Hg  Hg15  1  0.666667  0.333333  0.744097  1
  Se  Se16  1  0.306787  0.962341  0.339059  1
  Se  Se17  1  0.037659  0.344445  0.339059  1
  Se  Se18  1  0.333333  0.666667  0.021707  1
  Se  Se19  1  0.000000  0.000000  0.000000  1
  Se  Se20  1  0.344445  0.306787  0.660941  1
  Se  Se21  1  0.655555  0.693213  0.339059  1
  Se  Se22  1  0.666667  0.333333  0.978293  1
  Se  Se23  1  0.962341  0.655555  0.660941  1
  Se  Se24  1  0.693213  0.037659  0.660941  1
