# generated using pymatgen
data_TbLuPa2(Ni2Sn)2
_symmetry_space_group_name_H-M   'P 1'
_cell_length_a   7.34843336
_cell_length_b   7.34979340
_cell_length_c   3.62264700
_cell_angle_alpha   90.00000000
_cell_angle_beta   90.00000000
_cell_angle_gamma   93.48527322
_symmetry_Int_Tables_number   1
_chemical_formula_structural   TbLuPa2(Ni2Sn)2
_chemical_formula_sum   'Tb1 Lu1 Pa2 Ni4 Sn2'
_cell_volume   195.29535723
_cell_formula_units_Z   1
loop_
 _symmetry_equiv_pos_site_id
 _symmetry_equiv_pos_as_xyz
  1  'x, y, z'
loop_
 _atom_site_type_symbol
 _atom_site_label
 _atom_site_symmetry_multiplicity
 _atom_site_fract_x
 _atom_site_fract_y
 _atom_site_fract_z
 _atom_site_occupancy
  Tb  Tb0  1  0.826636  0.673208  0.500000  1
  Lu  Lu1  1  0.172842  0.327021  0.500000  1
  Pa  Pa2  1  0.674863  0.175682  0.500000  1
  Pa  Pa3  1  0.324359  0.825177  0.500000  1
  Ni  Ni4  1  0.872322  0.364528  0.000000  1
  Ni  Ni5  1  0.135178  0.627179  0.000000  1
  Ni  Ni6  1  0.380417  0.120212  0.000000  1
  Ni  Ni7  1  0.615103  0.885472  0.000000  1
  Sn  Sn8  1  0.496200  0.497882  0.000000  1
  Sn  Sn9  1  0.002079  0.003642  0.000000  1
