# generated using pymatgen
data_Ho16Cd4PdRu2Pt
_symmetry_space_group_name_H-M   'P 1'
_cell_length_a   9.61417093
_cell_length_b   9.59780988
_cell_length_c   9.64083100
_cell_angle_alpha   59.85161612
_cell_angle_beta   59.90823097
_cell_angle_gamma   59.74199041
_symmetry_Int_Tables_number   1
_chemical_formula_structural   Ho16Cd4PdRu2Pt
_chemical_formula_sum   'Ho16 Cd4 Pd1 Ru2 Pt1'
_cell_volume   626.67404060
_cell_formula_units_Z   1
loop_
 _symmetry_equiv_pos_site_id
 _symmetry_equiv_pos_as_xyz
  1  'x, y, z'
loop_
 _atom_site_type_symbol
 _atom_site_label
 _atom_site_symmetry_multiplicity
 _atom_site_fract_x
 _atom_site_fract_y
 _atom_site_fract_z
 _atom_site_occupancy
  Ho  Ho0  1  0.599737  0.598186  0.603759  1
  Ho  Ho1  1  0.599737  0.598186  0.198318  1
  Ho  Ho2  1  0.596976  0.203655  0.599685  1
  Ho  Ho3  1  0.202519  0.596162  0.600660  1
  Ho  Ho4  1  0.065672  0.438136  0.439138  1
  Ho  Ho5  1  0.438470  0.066769  0.055936  1
  Ho  Ho6  1  0.438470  0.066769  0.438825  1
  Ho  Ho7  1  0.065672  0.438136  0.057054  1
  Ho  Ho8  1  0.438013  0.437284  0.062351  1
  Ho  Ho9  1  0.058435  0.060123  0.440721  1
  Ho  Ho10  1  0.186211  0.810060  0.817423  1
  Ho  Ho11  1  0.809854  0.186669  0.186571  1
  Ho  Ho12  1  0.809854  0.186669  0.816907  1
  Ho  Ho13  1  0.186211  0.810060  0.186308  1
  Ho  Ho14  1  0.814919  0.814339  0.185371  1
  Ho  Ho15  1  0.187844  0.187971  0.812093  1
  Cd  Cd16  1  0.830201  0.830096  0.831365  1
  Cd  Cd17  1  0.830201  0.830096  0.508340  1
  Cd  Cd18  1  0.831161  0.505438  0.831700  1
  Cd  Cd19  1  0.505487  0.831099  0.831707  1
  Pd  Pd20  1  0.394147  0.822634  0.391609  1
  Ru  Ru21  1  0.393622  0.393559  0.389704  1
  Ru  Ru22  1  0.393622  0.393559  0.823116  1
  Pt  Pt23  1  0.822971  0.394348  0.391340  1
