# generated using pymatgen
data_Sc2Ti4NbPt21
_symmetry_space_group_name_H-M   'P 1'
_cell_length_a   5.62715800
_cell_length_b   5.62715683
_cell_length_c   16.06945700
_cell_angle_alpha   90.00000000
_cell_angle_beta   90.00000000
_cell_angle_gamma   119.99999515
_symmetry_Int_Tables_number   1
_chemical_formula_structural   Sc2Ti4NbPt21
_chemical_formula_sum   'Sc2 Ti4 Nb1 Pt21'
_cell_volume   440.66644615
_cell_formula_units_Z   1
loop_
 _symmetry_equiv_pos_site_id
 _symmetry_equiv_pos_as_xyz
  1  'x, y, z'
loop_
 _atom_site_type_symbol
 _atom_site_label
 _atom_site_symmetry_multiplicity
 _atom_site_fract_x
 _atom_site_fract_y
 _atom_site_fract_z
 _atom_site_occupancy
  Sc  Sc0  1  0.666667  0.333333  0.858189  1
  Sc  Sc1  1  0.333333  0.666667  0.143687  1
  Ti  Ti2  1  0.000000  0.000000  0.277773  1
  Ti  Ti3  1  0.666667  0.333333  0.426322  1
  Ti  Ti4  1  0.000000  0.000000  0.001954  1
  Ti  Ti5  1  0.333333  0.666667  0.569175  1
  Nb  Nb6  1  0.000000  0.000000  0.720508  1
  Pt  Pt7  1  0.833167  0.666333  0.569979  1
  Pt  Pt8  1  0.333667  0.166833  0.569979  1
  Pt  Pt9  1  0.167683  0.335366  0.856863  1
  Pt  Pt10  1  0.166856  0.333713  0.429603  1
  Pt  Pt11  1  0.166856  0.833144  0.429603  1
  Pt  Pt12  1  0.498714  0.997427  0.710240  1
  Pt  Pt13  1  0.666287  0.833144  0.429603  1
  Pt  Pt14  1  0.167683  0.832317  0.856863  1
  Pt  Pt15  1  0.664634  0.832317  0.856863  1
  Pt  Pt16  1  0.832682  0.167318  0.144141  1
  Pt  Pt17  1  0.833167  0.166833  0.569979  1
  Pt  Pt18  1  0.498714  0.501286  0.710240  1
  Pt  Pt19  1  0.334635  0.167318  0.144141  1
  Pt  Pt20  1  0.832682  0.665365  0.144141  1
  Pt  Pt21  1  0.501261  0.498739  0.289488  1
  Pt  Pt22  1  0.501261  0.002524  0.289488  1
  Pt  Pt23  1  0.500002  0.000005  0.000482  1
  Pt  Pt24  1  0.997476  0.498739  0.289488  1
  Pt  Pt25  1  0.002573  0.501286  0.710240  1
  Pt  Pt26  1  0.500002  0.499998  0.000482  1
  Pt  Pt27  1  0.999995  0.499998  0.000482  1
