# generated using pymatgen
data_LiLaEuMgBi4
_symmetry_space_group_name_H-M   'P 1'
_cell_length_a   4.59399800
_cell_length_b   4.58763600
_cell_length_c   11.31089400
_cell_angle_alpha   90.00000000
_cell_angle_beta   90.00000000
_cell_angle_gamma   90.00000000
_symmetry_Int_Tables_number   1
_chemical_formula_structural   LiLaEuMgBi4
_chemical_formula_sum   'Li1 La1 Eu1 Mg1 Bi4'
_cell_volume   238.38377136
_cell_formula_units_Z   1
loop_
 _symmetry_equiv_pos_site_id
 _symmetry_equiv_pos_as_xyz
  1  'x, y, z'
loop_
 _atom_site_type_symbol
 _atom_site_label
 _atom_site_symmetry_multiplicity
 _atom_site_fract_x
 _atom_site_fract_y
 _atom_site_fract_z
 _atom_site_occupancy
  Li  Li0  1  0.500000  0.500000  0.001550  1
  La  La1  1  0.500000  0.000000  0.732907  1
  Eu  Eu2  1  0.000000  0.500000  0.265624  1
  Mg  Mg3  1  0.000000  0.000000  0.002160  1
  Bi  Bi4  1  0.000000  0.500000  0.828890  1
  Bi  Bi5  1  0.500000  0.000000  0.165163  1
  Bi  Bi6  1  0.000000  0.000000  0.501831  1
  Bi  Bi7  1  0.500000  0.500000  0.501876  1
