# generated using pymatgen
data_Hf4Nb2Ga5Sb
_symmetry_space_group_name_H-M   'P 1'
_cell_length_a   5.57997900
_cell_length_b   8.58175012
_cell_length_c   9.24469332
_cell_angle_alpha   89.31070824
_cell_angle_beta   90.00000000
_cell_angle_gamma   90.00000000
_symmetry_Int_Tables_number   1
_chemical_formula_structural   Hf4Nb2Ga5Sb
_chemical_formula_sum   'Hf8 Nb4 Ga10 Sb2'
_cell_volume   442.65921466
_cell_formula_units_Z   2
loop_
 _symmetry_equiv_pos_site_id
 _symmetry_equiv_pos_as_xyz
  1  'x, y, z'
loop_
 _atom_site_type_symbol
 _atom_site_label
 _atom_site_symmetry_multiplicity
 _atom_site_fract_x
 _atom_site_fract_y
 _atom_site_fract_z
 _atom_site_occupancy
  Hf  Hf0  1  0.750000  0.470155  0.625493  1
  Hf  Hf1  1  0.250000  0.529845  0.374507  1
  Hf  Hf2  1  0.750000  0.968753  0.390718  1
  Hf  Hf3  1  0.250000  0.031247  0.609282  1
  Hf  Hf4  1  0.750000  0.383575  0.186005  1
  Hf  Hf5  1  0.250000  0.616425  0.813995  1
  Hf  Hf6  1  0.750000  0.864833  0.808207  1
  Hf  Hf7  1  0.250000  0.135167  0.191793  1
  Nb  Nb8  1  0.999446  0.740824  0.114938  1
  Nb  Nb9  1  0.499446  0.259176  0.885062  1
  Nb  Nb10  1  0.000554  0.259176  0.885062  1
  Nb  Nb11  1  0.500554  0.740824  0.114938  1
  Ga  Ga12  1  0.005444  0.746254  0.572194  1
  Ga  Ga13  1  0.505444  0.253746  0.427806  1
  Ga  Ga14  1  0.994556  0.253746  0.427806  1
  Ga  Ga15  1  0.494556  0.746254  0.572194  1
  Ga  Ga16  1  0.750000  0.548509  0.921010  1
  Ga  Ga17  1  0.250000  0.451491  0.078990  1
  Ga  Ga18  1  0.750000  0.137223  0.652512  1
  Ga  Ga19  1  0.250000  0.862777  0.347488  1
  Ga  Ga20  1  0.750000  0.636664  0.354473  1
  Ga  Ga21  1  0.250000  0.363336  0.645527  1
  Sb  Sb22  1  0.750000  0.051603  0.085738  1
  Sb  Sb23  1  0.250000  0.948397  0.914262  1
