# generated using pymatgen
data_Nb6Si6TcMo5
_symmetry_space_group_name_H-M   'P 1'
_cell_length_a   7.69511736
_cell_length_b   7.69642757
_cell_length_c   7.69492901
_cell_angle_alpha   126.54608805
_cell_angle_beta   128.17484368
_cell_angle_gamma   77.66654627
_symmetry_Int_Tables_number   1
_chemical_formula_structural   Nb6Si6TcMo5
_chemical_formula_sum   'Nb6 Si6 Tc1 Mo5'
_cell_volume   279.08305525
_cell_formula_units_Z   1
loop_
 _symmetry_equiv_pos_site_id
 _symmetry_equiv_pos_as_xyz
  1  'x, y, z'
loop_
 _atom_site_type_symbol
 _atom_site_label
 _atom_site_symmetry_multiplicity
 _atom_site_fract_x
 _atom_site_fract_y
 _atom_site_fract_z
 _atom_site_occupancy
  Nb  Nb0  1  0.548401  0.086609  0.038231  1
  Nb  Nb1  1  0.449762  0.497081  0.549055  1
  Nb  Nb2  1  0.947783  0.496383  0.046508  1
  Nb  Nb3  1  0.047992  0.086991  0.538580  1
  Nb  Nb4  1  0.754193  0.906967  0.654385  1
  Nb  Nb5  1  0.252181  0.906668  0.152417  1
  Si  Si6  1  0.745956  0.496766  0.248945  1
  Si  Si7  1  0.248056  0.496984  0.751442  1
  Si  Si8  1  0.334045  0.824538  0.489909  1
  Si  Si9  1  0.667760  0.165137  0.496443  1
  Si  Si10  1  0.834250  0.828650  0.994519  1
  Si  Si11  1  0.170827  0.168934  0.998532  1
  Tc  Tc12  1  0.371115  0.496730  0.126286  1
  Mo  Mo13  1  0.499338  0.238779  0.739403  1
  Mo  Mo14  1  0.001149  0.240616  0.239935  1
  Mo  Mo15  1  0.128934  0.754141  0.625353  1
  Mo  Mo16  1  0.869644  0.496623  0.626911  1
  Mo  Mo17  1  0.628619  0.753604  0.125347  1
