# generated using pymatgen
data_Tb5ThIrRu
_symmetry_space_group_name_H-M   'P 1'
_cell_length_a   6.38513300
_cell_length_b   7.24752600
_cell_length_c   9.52124900
_cell_angle_alpha   90.00000000
_cell_angle_beta   90.00000000
_cell_angle_gamma   90.00000000
_symmetry_Int_Tables_number   1
_chemical_formula_structural   Tb5ThIrRu
_chemical_formula_sum   'Tb10 Th2 Ir2 Ru2'
_cell_volume   440.60929319
_cell_formula_units_Z   2
loop_
 _symmetry_equiv_pos_site_id
 _symmetry_equiv_pos_as_xyz
  1  'x, y, z'
loop_
 _atom_site_type_symbol
 _atom_site_label
 _atom_site_symmetry_multiplicity
 _atom_site_fract_x
 _atom_site_fract_y
 _atom_site_fract_z
 _atom_site_occupancy
  Tb  Tb0  1  0.334044  0.677130  0.064636  1
  Tb  Tb1  1  0.165956  0.177130  0.435364  1
  Tb  Tb2  1  0.672475  0.323434  0.566455  1
  Tb  Tb3  1  0.827525  0.823434  0.933545  1
  Tb  Tb4  1  0.672475  0.323434  0.933545  1
  Tb  Tb5  1  0.827525  0.823434  0.566455  1
  Tb  Tb6  1  0.334044  0.677130  0.435364  1
  Tb  Tb7  1  0.165956  0.177130  0.064636  1
  Tb  Tb8  1  0.138224  0.463339  0.750000  1
  Tb  Tb9  1  0.361776  0.963339  0.750000  1
  Th  Th10  1  0.849332  0.547798  0.250000  1
  Th  Th11  1  0.650668  0.047798  0.250000  1
  Ir  Ir12  1  0.951425  0.118139  0.750000  1
  Ir  Ir13  1  0.548575  0.618139  0.750000  1
  Ru  Ru14  1  0.032658  0.869597  0.250000  1
  Ru  Ru15  1  0.467342  0.369597  0.250000  1
