# generated using pymatgen
data_Tb5Mn3(P3Ir4)4
_symmetry_space_group_name_H-M   'P 1'
_cell_length_a   12.66272900
_cell_length_b   12.66272925
_cell_length_c   3.96160300
_cell_angle_alpha   90.00000000
_cell_angle_beta   90.00000000
_cell_angle_gamma   120.00000195
_symmetry_Int_Tables_number   1
_chemical_formula_structural   Tb5Mn3(P3Ir4)4
_chemical_formula_sum   'Tb5 Mn3 P12 Ir16'
_cell_volume   550.11844752
_cell_formula_units_Z   1
loop_
 _symmetry_equiv_pos_site_id
 _symmetry_equiv_pos_as_xyz
  1  'x, y, z'
loop_
 _atom_site_type_symbol
 _atom_site_label
 _atom_site_symmetry_multiplicity
 _atom_site_fract_x
 _atom_site_fract_y
 _atom_site_fract_z
 _atom_site_occupancy
  Tb  Tb0  1  0.333333  0.666667  0.500000  1
  Tb  Tb1  1  0.666667  0.333333  0.500000  1
  Tb  Tb2  1  0.000000  0.810097  0.000000  1
  Tb  Tb3  1  0.189903  0.189903  0.000000  1
  Tb  Tb4  1  0.810097  0.000000  0.000000  1
  Mn  Mn5  1  0.000000  0.457598  0.500000  1
  Mn  Mn6  1  0.542402  0.542402  0.500000  1
  Mn  Mn7  1  0.457598  0.000000  0.500000  1
  P  P8  1  0.000000  0.634851  0.500000  1
  P  P9  1  0.365149  0.365149  0.500000  1
  P  P10  1  0.634851  0.000000  0.500000  1
  P  P11  1  0.517180  0.685996  0.000000  1
  P  P12  1  0.314004  0.831184  0.000000  1
  P  P13  1  0.168816  0.482820  0.000000  1
  P  P14  1  0.482820  0.168816  0.000000  1
  P  P15  1  0.685996  0.517180  0.000000  1
  P  P16  1  0.831184  0.314004  0.000000  1
  P  P17  1  0.000000  0.178705  0.500000  1
  P  P18  1  0.821295  0.821295  0.500000  1
  P  P19  1  0.178705  0.000000  0.500000  1
  Ir  Ir20  1  0.508183  0.868294  0.000000  1
  Ir  Ir21  1  0.131706  0.639890  0.000000  1
  Ir  Ir22  1  0.360110  0.491817  0.000000  1
  Ir  Ir23  1  0.491817  0.360110  0.000000  1
  Ir  Ir24  1  0.868294  0.508183  0.000000  1
  Ir  Ir25  1  0.639890  0.131706  0.000000  1
  Ir  Ir26  1  0.000000  0.282628  0.000000  1
  Ir  Ir27  1  0.717372  0.717372  0.000000  1
  Ir  Ir28  1  0.282628  0.000000  0.000000  1
  Ir  Ir29  1  0.623602  0.802465  0.500000  1
  Ir  Ir30  1  0.197535  0.821137  0.500000  1
  Ir  Ir31  1  0.178863  0.376398  0.500000  1
  Ir  Ir32  1  0.376398  0.178863  0.500000  1
  Ir  Ir33  1  0.802465  0.623602  0.500000  1
  Ir  Ir34  1  0.821137  0.197535  0.500000  1
  Ir  Ir35  1  0.000000  0.000000  0.500000  1
