# generated using pymatgen
data_DyU7Nb12Si15Ge
_symmetry_space_group_name_H-M   'P 1'
_cell_length_a   7.05836790
_cell_length_b   7.06381616
_cell_length_c   13.03387531
_cell_angle_alpha   90.10624630
_cell_angle_beta   89.98895951
_cell_angle_gamma   89.80684862
_symmetry_Int_Tables_number   1
_chemical_formula_structural   DyU7Nb12Si15Ge
_chemical_formula_sum   'Dy1 U7 Nb12 Si15 Ge1'
_cell_volume   649.85133961
_cell_formula_units_Z   1
loop_
 _symmetry_equiv_pos_site_id
 _symmetry_equiv_pos_as_xyz
  1  'x, y, z'
loop_
 _atom_site_type_symbol
 _atom_site_label
 _atom_site_symmetry_multiplicity
 _atom_site_fract_x
 _atom_site_fract_y
 _atom_site_fract_z
 _atom_site_occupancy
  Dy  Dy0  1  0.999293  0.338275  0.217640  1
  U  U1  1  0.005111  0.668186  0.718741  1
  U  U2  1  0.168363  0.494561  0.470995  1
  U  U3  1  0.509739  0.829549  0.029772  1
  U  U4  1  0.830852  0.507078  0.966484  1
  U  U5  1  0.493846  0.168271  0.530637  1
  U  U6  1  0.331923  0.995214  0.781102  1
  U  U7  1  0.662040  0.997706  0.283043  1
  Nb  Nb8  1  0.168782  0.168702  0.996633  1
  Nb  Nb9  1  0.831335  0.830588  0.499857  1
  Nb  Nb10  1  0.333904  0.667969  0.250915  1
  Nb  Nb11  1  0.668429  0.331974  0.749975  1
  Nb  Nb12  1  0.157573  0.997686  0.377777  1
  Nb  Nb13  1  0.844506  0.001051  0.874681  1
  Nb  Nb14  1  0.501141  0.655290  0.624928  1
  Nb  Nb15  1  0.345364  0.498345  0.875251  1
  Nb  Nb16  1  0.499050  0.346895  0.123995  1
  Nb  Nb17  1  0.654579  0.502510  0.377137  1
  Nb  Nb18  1  0.998483  0.156197  0.625267  1
  Nb  Nb19  1  0.995726  0.841037  0.124583  1
  Si  Si20  1  0.703372  0.960643  0.684572  1
  Si  Si21  1  0.458750  0.795387  0.436342  1
  Si  Si22  1  0.204215  0.541776  0.063892  1
  Si  Si23  1  0.541134  0.202851  0.934930  1
  Si  Si24  1  0.796827  0.459388  0.565155  1
  Si  Si25  1  0.039896  0.297163  0.814579  1
  Si  Si26  1  0.960812  0.703919  0.315613  1
  Si  Si27  1  0.371747  0.295599  0.317941  1
  Si  Si28  1  0.628694  0.708334  0.815307  1
  Si  Si29  1  0.206971  0.870580  0.566990  1
  Si  Si30  1  0.129898  0.792732  0.933856  1
  Si  Si31  1  0.794315  0.131623  0.066879  1
  Si  Si32  1  0.870191  0.205708  0.432896  1
  Si  Si33  1  0.292882  0.370415  0.683991  1
  Si  Si34  1  0.705850  0.628715  0.184440  1
  Ge  Ge35  1  0.294411  0.038085  0.183203  1
