# generated using pymatgen
data_BaCa2(AgPb)3
_symmetry_space_group_name_H-M   'P 1'
_cell_length_a   4.99650200
_cell_length_b   4.99650179
_cell_length_c   12.06095700
_cell_angle_alpha   90.00000000
_cell_angle_beta   90.00000000
_cell_angle_gamma   119.99998813
_symmetry_Int_Tables_number   1
_chemical_formula_structural   BaCa2(AgPb)3
_chemical_formula_sum   'Ba1 Ca2 Ag3 Pb3'
_cell_volume   260.76215764
_cell_formula_units_Z   1
loop_
 _symmetry_equiv_pos_site_id
 _symmetry_equiv_pos_as_xyz
  1  'x, y, z'
loop_
 _atom_site_type_symbol
 _atom_site_label
 _atom_site_symmetry_multiplicity
 _atom_site_fract_x
 _atom_site_fract_y
 _atom_site_fract_z
 _atom_site_occupancy
  Ba  Ba0  1  0.666667  0.333333  0.830863  1
  Ca  Ca1  1  0.666667  0.333333  0.487364  1
  Ca  Ca2  1  0.666667  0.333333  0.178985  1
  Ag  Ag3  1  0.333333  0.666667  0.036148  1
  Ag  Ag4  1  0.000000  0.000000  0.637422  1
  Ag  Ag5  1  0.000000  0.000000  0.299432  1
  Pb  Pb6  1  0.333333  0.666667  0.626996  1
  Pb  Pb7  1  0.333333  0.666667  0.349513  1
  Pb  Pb8  1  0.000000  0.000000  0.031179  1
