# generated using pymatgen
data_Nd8SiRhI12
_symmetry_space_group_name_H-M   'P 1'
_cell_length_a   4.32773900
_cell_length_b   14.51657636
_cell_length_c   15.24976930
_cell_angle_alpha   89.84381628
_cell_angle_beta   90.00000000
_cell_angle_gamma   90.00000000
_symmetry_Int_Tables_number   1
_chemical_formula_structural   Nd8SiRhI12
_chemical_formula_sum   'Nd8 Si1 Rh1 I12'
_cell_volume   958.04724003
_cell_formula_units_Z   1
loop_
 _symmetry_equiv_pos_site_id
 _symmetry_equiv_pos_as_xyz
  1  'x, y, z'
loop_
 _atom_site_type_symbol
 _atom_site_label
 _atom_site_symmetry_multiplicity
 _atom_site_fract_x
 _atom_site_fract_y
 _atom_site_fract_z
 _atom_site_occupancy
  Nd  Nd0  1  0.500000  0.113308  0.348601  1
  Nd  Nd1  1  0.500000  0.886692  0.651399  1
  Nd  Nd2  1  0.500000  0.614584  0.153980  1
  Nd  Nd3  1  0.500000  0.385416  0.846020  1
  Nd  Nd4  1  0.000000  0.110306  0.574078  1
  Nd  Nd5  1  0.000000  0.889694  0.425922  1
  Nd  Nd6  1  0.000000  0.613316  0.923892  1
  Nd  Nd7  1  0.000000  0.386684  0.076108  1
  Si  Si8  1  0.500000  0.500000  0.000000  1
  Rh  Rh9  1  0.500000  0.000000  0.500000  1
  I  I10  1  0.500000  0.244022  0.162996  1
  I  I11  1  0.500000  0.755978  0.837004  1
  I  I12  1  0.500000  0.743671  0.337087  1
  I  I13  1  0.500000  0.256329  0.662913  1
  I  I14  1  0.000000  0.260644  0.413829  1
  I  I15  1  0.000000  0.739356  0.586171  1
  I  I16  1  0.000000  0.758367  0.085186  1
  I  I17  1  0.000000  0.241633  0.914814  1
  I  I18  1  0.000000  0.998390  0.238129  1
  I  I19  1  0.000000  0.001610  0.761871  1
  I  I20  1  0.000000  0.498012  0.259751  1
  I  I21  1  0.000000  0.501988  0.740249  1
