# generated using pymatgen
data_Dy7Y9MgHg3Rh4
_symmetry_space_group_name_H-M   'P 1'
_cell_length_a   9.67029346
_cell_length_b   9.62457570
_cell_length_c   9.64145725
_cell_angle_alpha   59.77463343
_cell_angle_beta   59.97407290
_cell_angle_gamma   59.95644453
_symmetry_Int_Tables_number   1
_chemical_formula_structural   Dy7Y9MgHg3Rh4
_chemical_formula_sum   'Dy7 Y9 Mg1 Hg3 Rh4'
_cell_volume   633.10576956
_cell_formula_units_Z   1
loop_
 _symmetry_equiv_pos_site_id
 _symmetry_equiv_pos_as_xyz
  1  'x, y, z'
loop_
 _atom_site_type_symbol
 _atom_site_label
 _atom_site_symmetry_multiplicity
 _atom_site_fract_x
 _atom_site_fract_y
 _atom_site_fract_z
 _atom_site_occupancy
  Dy  Dy0  1  0.599238  0.598185  0.597521  1
  Dy  Dy1  1  0.601985  0.598149  0.204036  1
  Dy  Dy2  1  0.602190  0.203833  0.598129  1
  Dy  Dy3  1  0.191388  0.602964  0.602801  1
  Dy  Dy4  1  0.058754  0.440314  0.440550  1
  Dy  Dy5  1  0.435024  0.062764  0.062382  1
  Dy  Dy6  1  0.436562  0.061265  0.438481  1
  Y  Y7  1  0.057648  0.440518  0.059555  1
  Y  Y8  1  0.437169  0.438335  0.060999  1
  Y  Y9  1  0.057437  0.059836  0.440239  1
  Y  Y10  1  0.186820  0.813198  0.812548  1
  Y  Y11  1  0.810510  0.187026  0.186987  1
  Y  Y12  1  0.811933  0.188531  0.814499  1
  Y  Y13  1  0.185668  0.812933  0.188989  1
  Y  Y14  1  0.811427  0.814623  0.188980  1
  Y  Y15  1  0.186133  0.188963  0.812142  1
  Mg  Mg16  1  0.535450  0.820332  0.821108  1
  Hg  Hg17  1  0.833202  0.835430  0.835935  1
  Hg  Hg18  1  0.832924  0.836629  0.492737  1
  Hg  Hg19  1  0.832626  0.492934  0.836877  1
  Rh  Rh20  1  0.388821  0.393149  0.396070  1
  Rh  Rh21  1  0.391936  0.393791  0.820367  1
  Rh  Rh22  1  0.392558  0.821711  0.394019  1
  Rh  Rh23  1  0.822600  0.394587  0.394050  1
