# generated using pymatgen
data_Sc5In4IrRh
_symmetry_space_group_name_H-M   'P 1'
_cell_length_a   3.35645300
_cell_length_b   7.72051258
_cell_length_c   17.70783743
_cell_angle_alpha   89.87542200
_cell_angle_beta   90.00000000
_cell_angle_gamma   90.00000000
_symmetry_Int_Tables_number   1
_chemical_formula_structural   Sc5In4IrRh
_chemical_formula_sum   'Sc10 In8 Ir2 Rh2'
_cell_volume   458.87162642
_cell_formula_units_Z   2
loop_
 _symmetry_equiv_pos_site_id
 _symmetry_equiv_pos_as_xyz
  1  'x, y, z'
loop_
 _atom_site_type_symbol
 _atom_site_label
 _atom_site_symmetry_multiplicity
 _atom_site_fract_x
 _atom_site_fract_y
 _atom_site_fract_z
 _atom_site_occupancy
  Sc  Sc0  1  0.000000  0.000000  0.000000  1
  Sc  Sc1  1  0.000000  0.500000  0.500000  1
  Sc  Sc2  1  0.000000  0.745950  0.778816  1
  Sc  Sc3  1  0.000000  0.254050  0.221184  1
  Sc  Sc4  1  0.000000  0.244502  0.720817  1
  Sc  Sc5  1  0.000000  0.755498  0.279183  1
  Sc  Sc6  1  0.000000  0.875684  0.585132  1
  Sc  Sc7  1  0.000000  0.124316  0.414868  1
  Sc  Sc8  1  0.000000  0.376028  0.914411  1
  Sc  Sc9  1  0.000000  0.623972  0.085589  1
  In  In10  1  0.500000  0.795925  0.433522  1
  In  In11  1  0.500000  0.204075  0.566478  1
  In  In12  1  0.500000  0.296251  0.066477  1
  In  In13  1  0.500000  0.703749  0.933523  1
  In  In14  1  0.500000  0.930849  0.148965  1
  In  In15  1  0.500000  0.069151  0.851035  1
  In  In16  1  0.500000  0.431028  0.350833  1
  In  In17  1  0.500000  0.568972  0.649167  1
  Ir  Ir18  1  0.500000  0.962865  0.694968  1
  Ir  Ir19  1  0.500000  0.037135  0.305032  1
  Rh  Rh20  1  0.500000  0.462427  0.805768  1
  Rh  Rh21  1  0.500000  0.537573  0.194232  1
