# generated using pymatgen
data_Tb9Ho6Lu5Sn16
_symmetry_space_group_name_H-M   'P 1'
_cell_length_a   7.99433612
_cell_length_b   8.14830512
_cell_length_c   15.43228300
_cell_angle_alpha   90.02887886
_cell_angle_beta   89.95825195
_cell_angle_gamma   90.06405096
_symmetry_Int_Tables_number   1
_chemical_formula_structural   Tb9Ho6Lu5Sn16
_chemical_formula_sum   'Tb9 Ho6 Lu5 Sn16'
_cell_volume   1005.26236741
_cell_formula_units_Z   1
loop_
 _symmetry_equiv_pos_site_id
 _symmetry_equiv_pos_as_xyz
  1  'x, y, z'
loop_
 _atom_site_type_symbol
 _atom_site_label
 _atom_site_symmetry_multiplicity
 _atom_site_fract_x
 _atom_site_fract_y
 _atom_site_fract_z
 _atom_site_occupancy
  Tb  Tb0  1  0.865769  0.662501  0.878026  1
  Tb  Tb1  1  0.518852  0.320201  0.903623  1
  Tb  Tb2  1  0.019968  0.179018  0.597111  1
  Tb  Tb3  1  0.480753  0.679599  0.403668  1
  Tb  Tb4  1  0.980222  0.820579  0.096670  1
  Tb  Tb5  1  0.481434  0.680225  0.095228  1
  Tb  Tb6  1  0.980757  0.820634  0.403260  1
  Tb  Tb7  1  0.519358  0.320788  0.597131  1
  Tb  Tb8  1  0.018842  0.178452  0.903137  1
  Ho  Ho9  1  0.864733  0.662447  0.623287  1
  Ho  Ho10  1  0.634794  0.162228  0.377226  1
  Ho  Ho11  1  0.135700  0.337646  0.121333  1
  Ho  Ho12  1  0.634583  0.162905  0.123145  1
  Ho  Ho13  1  0.134583  0.337166  0.377291  1
  Ho  Ho14  1  0.365498  0.837494  0.622991  1
  Lu  Lu15  1  0.364280  0.838304  0.875945  1
  Lu  Lu16  1  0.197147  0.503739  0.750663  1
  Lu  Lu17  1  0.696058  0.996236  0.750407  1
  Lu  Lu18  1  0.803810  0.496372  0.250050  1
  Lu  Lu19  1  0.303482  0.003237  0.249424  1
  Sn  Sn20  1  0.295941  0.036897  0.040656  1
  Sn  Sn21  1  0.795580  0.462469  0.458004  1
  Sn  Sn22  1  0.705061  0.962628  0.542484  1
  Sn  Sn23  1  0.207554  0.539691  0.957456  1
  Sn  Sn24  1  0.700099  0.962683  0.958106  1
  Sn  Sn25  1  0.204324  0.537286  0.542583  1
  Sn  Sn26  1  0.295429  0.037430  0.457733  1
  Sn  Sn27  1  0.795269  0.461765  0.043123  1
  Sn  Sn28  1  0.560890  0.619437  0.750554  1
  Sn  Sn29  1  0.062523  0.881673  0.750421  1
  Sn  Sn30  1  0.438113  0.381557  0.249934  1
  Sn  Sn31  1  0.938545  0.118791  0.249506  1
  Sn  Sn32  1  0.328924  0.148843  0.750337  1
  Sn  Sn33  1  0.828453  0.350100  0.750082  1
  Sn  Sn34  1  0.671149  0.850440  0.249684  1
  Sn  Sn35  1  0.171525  0.648539  0.249719  1
