# generated using pymatgen
data_La4TlOs
_symmetry_space_group_name_H-M   'P 1'
_cell_length_a   10.13154048
_cell_length_b   10.13154131
_cell_length_c   10.13154100
_cell_angle_alpha   59.99999775
_cell_angle_beta   59.99999505
_cell_angle_gamma   60.00000317
_symmetry_Int_Tables_number   1
_chemical_formula_structural   La4TlOs
_chemical_formula_sum   'La16 Tl4 Os4'
_cell_volume   735.37946592
_cell_formula_units_Z   4
loop_
 _symmetry_equiv_pos_site_id
 _symmetry_equiv_pos_as_xyz
  1  'x, y, z'
loop_
 _atom_site_type_symbol
 _atom_site_label
 _atom_site_symmetry_multiplicity
 _atom_site_fract_x
 _atom_site_fract_y
 _atom_site_fract_z
 _atom_site_occupancy
  La  La0  1  0.904111  0.904111  0.904111  1
  La  La1  1  0.441145  0.441145  0.058855  1
  La  La2  1  0.058855  0.058855  0.441145  1
  La  La3  1  0.441145  0.058855  0.058855  1
  La  La4  1  0.306031  0.693969  0.306031  1
  La  La5  1  0.693969  0.693969  0.306031  1
  La  La6  1  0.693969  0.306031  0.306031  1
  La  La7  1  0.287667  0.904111  0.904111  1
  La  La8  1  0.904111  0.287667  0.904111  1
  La  La9  1  0.306031  0.693969  0.693969  1
  La  La10  1  0.904111  0.904111  0.287667  1
  La  La11  1  0.058855  0.441145  0.058855  1
  La  La12  1  0.306031  0.306031  0.693969  1
  La  La13  1  0.058855  0.441145  0.441145  1
  La  La14  1  0.441145  0.058855  0.441145  1
  La  La15  1  0.693969  0.306031  0.693969  1
  Tl  Tl16  1  0.666996  0.666996  0.999013  1
  Tl  Tl17  1  0.999013  0.666996  0.666996  1
  Tl  Tl18  1  0.666996  0.999013  0.666996  1
  Tl  Tl19  1  0.666996  0.666996  0.666996  1
  Os  Os20  1  0.112484  0.112484  0.662548  1
  Os  Os21  1  0.112484  0.112484  0.112484  1
  Os  Os22  1  0.112484  0.662548  0.112484  1
  Os  Os23  1  0.662548  0.112484  0.112484  1
