# generated using pymatgen
data_Be4Al3V12GaN4
_symmetry_space_group_name_H-M   'P 1'
_cell_length_a   6.45980886
_cell_length_b   6.45980886
_cell_length_c   6.45980886
_cell_angle_alpha   90.04189223
_cell_angle_beta   90.04189223
_cell_angle_gamma   90.04189223
_symmetry_Int_Tables_number   1
_chemical_formula_structural   Be4Al3V12GaN4
_chemical_formula_sum   'Be4 Al3 V12 Ga1 N4'
_cell_volume   269.56199117
_cell_formula_units_Z   1
loop_
 _symmetry_equiv_pos_site_id
 _symmetry_equiv_pos_as_xyz
  1  'x, y, z'
loop_
 _atom_site_type_symbol
 _atom_site_label
 _atom_site_symmetry_multiplicity
 _atom_site_fract_x
 _atom_site_fract_y
 _atom_site_fract_z
 _atom_site_occupancy
  Be  Be0  1  0.175748  0.824339  0.322706  1
  Be  Be1  1  0.322706  0.175748  0.824339  1
  Be  Be2  1  0.824339  0.322706  0.175748  1
  Be  Be3  1  0.676487  0.676487  0.676487  1
  Al  Al4  1  0.574317  0.425470  0.925652  1
  Al  Al5  1  0.425470  0.925652  0.574317  1
  Al  Al6  1  0.925652  0.574317  0.425470  1
  V  V7  1  0.794619  0.958899  0.373512  1
  V  V8  1  0.706051  0.041260  0.872567  1
  V  V9  1  0.206015  0.459518  0.126430  1
  V  V10  1  0.293826  0.540080  0.627614  1
  V  V11  1  0.958899  0.373512  0.794619  1
  V  V12  1  0.041260  0.872567  0.706051  1
  V  V13  1  0.459518  0.126430  0.206015  1
  V  V14  1  0.540080  0.627614  0.293826  1
  V  V15  1  0.373512  0.794619  0.958899  1
  V  V16  1  0.872567  0.706051  0.041260  1
  V  V17  1  0.126430  0.206015  0.459518  1
  V  V18  1  0.627614  0.293826  0.540080  1
  Ga  Ga19  1  0.073980  0.073980  0.073980  1
  N  N20  1  0.876812  0.123770  0.624407  1
  N  N21  1  0.624407  0.876812  0.123770  1
  N  N22  1  0.123770  0.624407  0.876812  1
  N  N23  1  0.375920  0.375920  0.375920  1
