# generated using pymatgen
data_Tb16Mg(ZrIr4)3
_symmetry_space_group_name_H-M   'P 1'
_cell_length_a   10.87159400
_cell_length_b   10.87159400
_cell_length_c   6.27559500
_cell_angle_alpha   90.00000000
_cell_angle_beta   90.00000000
_cell_angle_gamma   90.00000000
_symmetry_Int_Tables_number   1
_chemical_formula_structural   Tb16Mg(ZrIr4)3
_chemical_formula_sum   'Tb16 Mg1 Zr3 Ir12'
_cell_volume   741.72233851
_cell_formula_units_Z   1
loop_
 _symmetry_equiv_pos_site_id
 _symmetry_equiv_pos_as_xyz
  1  'x, y, z'
loop_
 _atom_site_type_symbol
 _atom_site_label
 _atom_site_symmetry_multiplicity
 _atom_site_fract_x
 _atom_site_fract_y
 _atom_site_fract_z
 _atom_site_occupancy
  Tb  Tb0  1  0.282066  0.082564  0.374916  1
  Tb  Tb1  1  0.289906  0.912245  0.876790  1
  Tb  Tb2  1  0.710094  0.087755  0.876790  1
  Tb  Tb3  1  0.717934  0.917436  0.374916  1
  Tb  Tb4  1  0.588015  0.789673  0.875602  1
  Tb  Tb5  1  0.584278  0.209032  0.373173  1
  Tb  Tb6  1  0.415722  0.790968  0.373173  1
  Tb  Tb7  1  0.411985  0.210327  0.875602  1
  Tb  Tb8  1  0.209032  0.415722  0.626827  1
  Tb  Tb9  1  0.210327  0.588015  0.124398  1
  Tb  Tb10  1  0.789673  0.411985  0.124398  1
  Tb  Tb11  1  0.790968  0.584278  0.626827  1
  Tb  Tb12  1  0.912245  0.710094  0.123210  1
  Tb  Tb13  1  0.917436  0.282066  0.625084  1
  Tb  Tb14  1  0.082564  0.717934  0.625084  1
  Tb  Tb15  1  0.087755  0.289906  0.123210  1
  Mg  Mg16  1  0.000000  0.000000  0.500000  1
  Zr  Zr17  1  0.000000  0.000000  0.000000  1
  Zr  Zr18  1  0.500000  0.500000  0.000000  1
  Zr  Zr19  1  0.500000  0.500000  0.500000  1
  Ir  Ir20  1  0.854018  0.151984  0.237781  1
  Ir  Ir21  1  0.848016  0.854018  0.762219  1
  Ir  Ir22  1  0.151984  0.145982  0.762219  1
  Ir  Ir23  1  0.145982  0.848016  0.237781  1
  Ir  Ir24  1  0.644562  0.356064  0.746674  1
  Ir  Ir25  1  0.643936  0.644562  0.253326  1
  Ir  Ir26  1  0.356064  0.355438  0.253326  1
  Ir  Ir27  1  0.355438  0.643936  0.746674  1
  Ir  Ir28  1  0.500000  0.000000  0.121456  1
  Ir  Ir29  1  0.500000  0.000000  0.617831  1
  Ir  Ir30  1  0.000000  0.500000  0.878544  1
  Ir  Ir31  1  0.000000  0.500000  0.382169  1
