# generated using pymatgen
data_Sc3P2S
_symmetry_space_group_name_H-M   'P 1'
_cell_length_a   3.74008663
_cell_length_b   6.48456139
_cell_length_c   6.46724439
_cell_angle_alpha   99.51533312
_cell_angle_beta   125.19200144
_cell_angle_gamma   106.77507429
_symmetry_Int_Tables_number   1
_chemical_formula_structural   Sc3P2S
_chemical_formula_sum   'Sc3 P2 S1'
_cell_volume   111.15672430
_cell_formula_units_Z   1
loop_
 _symmetry_equiv_pos_site_id
 _symmetry_equiv_pos_as_xyz
  1  'x, y, z'
loop_
 _atom_site_type_symbol
 _atom_site_label
 _atom_site_symmetry_multiplicity
 _atom_site_fract_x
 _atom_site_fract_y
 _atom_site_fract_z
 _atom_site_occupancy
  Sc  Sc0  1  0.686999  0.187422  0.404690  1
  Sc  Sc1  1  0.004491  0.502871  0.064381  1
  Sc  Sc2  1  0.345048  0.845170  0.733351  1
  P  P3  1  0.515530  0.513741  0.569456  1
  P  P4  1  0.176247  0.176773  0.899517  1
  S  S5  1  0.845398  0.845075  0.233680  1
