# generated using pymatgen
data_Tm4Co16Mo3P12W
_symmetry_space_group_name_H-M   'P 1'
_cell_length_a   3.68805800
_cell_length_b   10.36740545
_cell_length_c   11.82552051
_cell_angle_alpha   90.03367605
_cell_angle_beta   90.00000000
_cell_angle_gamma   90.00000000
_symmetry_Int_Tables_number   1
_chemical_formula_structural   Tm4Co16Mo3P12W
_chemical_formula_sum   'Tm4 Co16 Mo3 P12 W1'
_cell_volume   452.15570643
_cell_formula_units_Z   1
loop_
 _symmetry_equiv_pos_site_id
 _symmetry_equiv_pos_as_xyz
  1  'x, y, z'
loop_
 _atom_site_type_symbol
 _atom_site_label
 _atom_site_symmetry_multiplicity
 _atom_site_fract_x
 _atom_site_fract_y
 _atom_site_fract_z
 _atom_site_occupancy
  Tm  Tm0  1  0.250000  0.583065  0.704003  1
  Tm  Tm1  1  0.250000  0.917257  0.204547  1
  Tm  Tm2  1  0.750000  0.417070  0.295595  1
  Tm  Tm3  1  0.750000  0.083145  0.795600  1
  Co  Co4  1  0.250000  0.406565  0.488684  1
  Co  Co5  1  0.250000  0.093492  0.988693  1
  Co  Co6  1  0.750000  0.593476  0.511388  1
  Co  Co7  1  0.750000  0.905779  0.011798  1
  Co  Co8  1  0.250000  0.221382  0.178253  1
  Co  Co9  1  0.250000  0.278227  0.678260  1
  Co  Co10  1  0.750000  0.777545  0.822092  1
  Co  Co11  1  0.750000  0.721783  0.321693  1
  Co  Co12  1  0.250000  0.887689  0.700921  1
  Co  Co13  1  0.250000  0.612242  0.200826  1
  Co  Co14  1  0.750000  0.112385  0.298907  1
  Co  Co15  1  0.750000  0.387716  0.799049  1
  Co  Co16  1  0.250000  0.465898  0.932899  1
  Co  Co17  1  0.250000  0.034361  0.432524  1
  Co  Co18  1  0.750000  0.534677  0.067202  1
  Co  Co19  1  0.750000  0.965659  0.567294  1
  Mo  Mo20  1  0.250000  0.790716  0.487591  1
  Mo  Mo21  1  0.750000  0.290860  0.012445  1
  Mo  Mo22  1  0.750000  0.209250  0.512418  1
  P  P23  1  0.250000  0.419727  0.116223  1
  P  P24  1  0.250000  0.079713  0.615910  1
  P  P25  1  0.750000  0.579493  0.883680  1
  P  P26  1  0.750000  0.920330  0.384006  1
  P  P27  1  0.250000  0.267668  0.864971  1
  P  P28  1  0.250000  0.232255  0.364898  1
  P  P29  1  0.750000  0.732508  0.135287  1
  P  P30  1  0.750000  0.767898  0.635124  1
  P  P31  1  0.250000  0.594421  0.390603  1
  P  P32  1  0.250000  0.906299  0.890252  1
  P  P33  1  0.750000  0.405455  0.609428  1
  P  P34  1  0.750000  0.094585  0.109381  1
  W  W35  1  0.250000  0.709410  0.987551  1
