# generated using pymatgen
data_Ce4Ga18Ir5Os
_symmetry_space_group_name_H-M   'P 1'
_cell_length_a   7.72373586
_cell_length_b   7.72373684
_cell_length_c   9.51301600
_cell_angle_alpha   89.90844525
_cell_angle_beta   89.90845265
_cell_angle_gamma   119.75321011
_symmetry_Int_Tables_number   1
_chemical_formula_structural   Ce4Ga18Ir5Os
_chemical_formula_sum   'Ce4 Ga18 Ir5 Os1'
_cell_volume   492.69276855
_cell_formula_units_Z   1
loop_
 _symmetry_equiv_pos_site_id
 _symmetry_equiv_pos_as_xyz
  1  'x, y, z'
loop_
 _atom_site_type_symbol
 _atom_site_label
 _atom_site_symmetry_multiplicity
 _atom_site_fract_x
 _atom_site_fract_y
 _atom_site_fract_z
 _atom_site_occupancy
  Ce  Ce0  1  0.997800  0.670948  0.248933  1
  Ce  Ce1  1  0.002200  0.329052  0.751067  1
  Ce  Ce2  1  0.670948  0.997800  0.248933  1
  Ce  Ce3  1  0.329052  0.002200  0.751067  1
  Ga  Ga4  1  0.129550  0.129550  0.249347  1
  Ga  Ga5  1  0.870450  0.870450  0.750653  1
  Ga  Ga6  1  0.002136  0.334555  0.079372  1
  Ga  Ga7  1  0.997864  0.665445  0.920628  1
  Ga  Ga8  1  0.998222  0.664579  0.579758  1
  Ga  Ga9  1  0.335421  0.001778  0.420242  1
  Ga  Ga10  1  0.001778  0.335421  0.420242  1
  Ga  Ga11  1  0.664579  0.998222  0.579758  1
  Ga  Ga12  1  0.665445  0.997864  0.920628  1
  Ga  Ga13  1  0.334555  0.002136  0.079372  1
  Ga  Ga14  1  0.333843  0.333843  0.563704  1
  Ga  Ga15  1  0.666157  0.666157  0.436296  1
  Ga  Ga16  1  0.667658  0.667658  0.061934  1
  Ga  Ga17  1  0.332342  0.332342  0.938066  1
  Ga  Ga18  1  0.340677  0.546813  0.250059  1
  Ga  Ga19  1  0.659323  0.453187  0.749941  1
  Ga  Ga20  1  0.546813  0.340677  0.250059  1
  Ga  Ga21  1  0.453187  0.659323  0.749941  1
  Ir  Ir22  1  0.671654  0.328346  0.000000  1
  Ir  Ir23  1  0.328346  0.671654  0.000000  1
  Ir  Ir24  1  0.328258  0.671742  0.500000  1
  Ir  Ir25  1  0.671742  0.328258  0.500000  1
  Ir  Ir26  1  0.000000  0.000000  0.500000  1
  Os  Os27  1  0.000000  0.000000  0.000000  1
