# generated using pymatgen
data_Dy5P12Ru6Rh13
_symmetry_space_group_name_H-M   'P 1'
_cell_length_a   12.64524694
_cell_length_b   12.65521307
_cell_length_c   3.93849000
_cell_angle_alpha   90.00000000
_cell_angle_beta   90.00000000
_cell_angle_gamma   120.11758922
_symmetry_Int_Tables_number   1
_chemical_formula_structural   Dy5P12Ru6Rh13
_chemical_formula_sum   'Dy5 P12 Ru6 Rh13'
_cell_volume   545.18178371
_cell_formula_units_Z   1
loop_
 _symmetry_equiv_pos_site_id
 _symmetry_equiv_pos_as_xyz
  1  'x, y, z'
loop_
 _atom_site_type_symbol
 _atom_site_label
 _atom_site_symmetry_multiplicity
 _atom_site_fract_x
 _atom_site_fract_y
 _atom_site_fract_z
 _atom_site_occupancy
  Dy  Dy0  1  0.668644  0.332130  0.000000  1
  Dy  Dy1  1  0.332638  0.667310  0.000000  1
  Dy  Dy2  1  0.813950  0.001298  0.500000  1
  Dy  Dy3  1  0.184964  0.187088  0.500000  1
  Dy  Dy4  1  0.999615  0.813388  0.500000  1
  P  P5  1  0.635621  0.999608  0.000000  1
  P  P6  1  0.364769  0.365266  0.000000  1
  P  P7  1  0.000367  0.633328  0.000000  1
  P  P8  1  0.688272  0.519066  0.500000  1
  P  P9  1  0.832204  0.309999  0.500000  1
  P  P10  1  0.316167  0.833919  0.500000  1
  P  P11  1  0.518754  0.690893  0.500000  1
  P  P12  1  0.180639  0.999794  0.000000  1
  P  P13  1  0.818810  0.818374  0.000000  1
  P  P14  1  0.996537  0.178959  0.000000  1
  P  P15  1  0.479032  0.167783  0.500000  1
  P  P16  1  0.165214  0.480210  0.500000  1
  Ru  Ru17  1  0.513529  0.873869  0.500000  1
  Ru  Ru18  1  0.715518  0.715024  0.500000  1
  Ru  Ru19  1  0.000589  0.284540  0.500000  1
  Ru  Ru20  1  0.003249  0.451696  0.000000  1
  Ru  Ru21  1  0.818045  0.195169  0.000000  1
  Ru  Ru22  1  0.281608  0.999111  0.500000  1
  Rh  Rh23  1  0.623983  0.804721  0.000000  1
  Rh  Rh24  1  0.181927  0.374995  0.000000  1
  Rh  Rh25  1  0.375506  0.182230  0.000000  1
  Rh  Rh26  1  0.194759  0.817469  0.000000  1
  Rh  Rh27  1  0.804250  0.621321  0.000000  1
  Rh  Rh28  1  0.872506  0.509772  0.500000  1
  Rh  Rh29  1  0.491421  0.360092  0.500000  1
  Rh  Rh30  1  0.637427  0.129873  0.500000  1
  Rh  Rh31  1  0.129140  0.640195  0.500000  1
  Rh  Rh32  1  0.358886  0.492332  0.500000  1
  Rh  Rh33  1  0.999719  0.999041  0.000000  1
  Rh  Rh34  1  0.453967  0.002047  0.000000  1
  Rh  Rh35  1  0.547774  0.548090  0.000000  1
