# generated using pymatgen
data_Ho3Er2Co2Pd
_symmetry_space_group_name_H-M   'P 1'
_cell_length_a   7.19377802
_cell_length_b   7.18085290
_cell_length_c   8.59022001
_cell_angle_alpha   114.70629593
_cell_angle_beta   114.24327663
_cell_angle_gamma   89.99999352
_symmetry_Int_Tables_number   1
_chemical_formula_structural   Ho3Er2Co2Pd
_chemical_formula_sum   'Ho6 Er4 Co4 Pd2'
_cell_volume   359.60141284
_cell_formula_units_Z   2
loop_
 _symmetry_equiv_pos_site_id
 _symmetry_equiv_pos_as_xyz
  1  'x, y, z'
loop_
 _atom_site_type_symbol
 _atom_site_label
 _atom_site_symmetry_multiplicity
 _atom_site_fract_x
 _atom_site_fract_y
 _atom_site_fract_z
 _atom_site_occupancy
  Ho  Ho0  1  0.309978  0.811908  0.276958  1
  Ho  Ho1  1  0.809977  0.965050  0.276958  1
  Ho  Ho2  1  0.190036  0.035551  0.723713  1
  Ho  Ho3  1  0.690035  0.188163  0.723713  1
  Ho  Ho4  1  0.038675  0.535939  0.723978  1
  Ho  Ho5  1  0.538674  0.688038  0.723978  1
  Er  Er6  1  0.000748  0.001004  0.001216  1
  Er  Er7  1  0.500748  0.500212  0.001216  1
  Er  Er8  1  0.461400  0.311462  0.275386  1
  Er  Er9  1  0.961401  0.463924  0.275386  1
  Co  Co10  1  0.615669  0.115527  0.999657  1
  Co  Co11  1  0.115669  0.384131  0.999657  1
  Co  Co12  1  0.884696  0.615832  0.001385  1
  Co  Co13  1  0.384697  0.885553  0.001385  1
  Pd  Pd14  1  0.248798  0.247555  0.497706  1
  Pd  Pd15  1  0.748798  0.750151  0.497706  1
