# generated using pymatgen
data_Ca4CuSi6Ag
_symmetry_space_group_name_H-M   'P 1'
_cell_length_a   8.33305064
_cell_length_b   8.21359876
_cell_length_c   5.97803785
_cell_angle_alpha   69.89241311
_cell_angle_beta   67.75715466
_cell_angle_gamma   42.35042636
_symmetry_Int_Tables_number   1
_chemical_formula_structural   Ca4CuSi6Ag
_chemical_formula_sum   'Ca4 Cu1 Si6 Ag1'
_cell_volume   253.77823599
_cell_formula_units_Z   1
loop_
 _symmetry_equiv_pos_site_id
 _symmetry_equiv_pos_as_xyz
  1  'x, y, z'
loop_
 _atom_site_type_symbol
 _atom_site_label
 _atom_site_symmetry_multiplicity
 _atom_site_fract_x
 _atom_site_fract_y
 _atom_site_fract_z
 _atom_site_occupancy
  Ca  Ca0  1  0.749049  0.749049  0.750951  1
  Ca  Ca1  1  0.753119  0.248699  0.751301  1
  Ca  Ca2  1  0.249049  0.249049  0.250951  1
  Ca  Ca3  1  0.248699  0.753119  0.246881  1
  Cu  Cu4  1  0.666692  0.666692  0.333308  1
  Si  Si5  1  0.831141  0.336443  0.168859  1
  Si  Si6  1  0.675768  0.162657  0.324232  1
  Si  Si7  1  0.162657  0.675768  0.837343  1
  Si  Si8  1  0.336443  0.831141  0.663557  1
  Si  Si9  1  0.161671  0.161671  0.838329  1
  Si  Si10  1  0.832396  0.832396  0.167604  1
  Ag  Ag11  1  0.333317  0.333317  0.666683  1
