# generated using pymatgen
data_ZrSc7(CoRu)4
_symmetry_space_group_name_H-M   'P 1'
_cell_length_a   6.29806101
_cell_length_b   4.51511700
_cell_length_c   9.05528201
_cell_angle_alpha   90.00000000
_cell_angle_beta   89.99538968
_cell_angle_gamma   90.00000000
_symmetry_Int_Tables_number   1
_chemical_formula_structural   ZrSc7(CoRu)4
_chemical_formula_sum   'Zr1 Sc7 Co4 Ru4'
_cell_volume   257.50036579
_cell_formula_units_Z   1
loop_
 _symmetry_equiv_pos_site_id
 _symmetry_equiv_pos_as_xyz
  1  'x, y, z'
loop_
 _atom_site_type_symbol
 _atom_site_label
 _atom_site_symmetry_multiplicity
 _atom_site_fract_x
 _atom_site_fract_y
 _atom_site_fract_z
 _atom_site_occupancy
  Zr  Zr0  1  0.999588  0.749999  0.124949  1
  Sc  Sc1  1  0.500660  0.749999  0.125016  1
  Sc  Sc2  1  0.000301  0.249999  0.378721  1
  Sc  Sc3  1  0.500220  0.249999  0.376615  1
  Sc  Sc4  1  0.499570  0.749999  0.625014  1
  Sc  Sc5  1  0.000037  0.749999  0.625072  1
  Sc  Sc6  1  0.499613  0.249999  0.873361  1
  Sc  Sc7  1  0.999826  0.249999  0.871278  1
  Co  Co8  1  0.751806  0.249999  0.125005  1
  Co  Co9  1  0.249426  0.749999  0.373643  1
  Co  Co10  1  0.749633  0.249999  0.624998  1
  Co  Co11  1  0.249115  0.749999  0.876338  1
  Ru  Ru12  1  0.248416  0.249999  0.125061  1
  Ru  Ru13  1  0.750971  0.749999  0.373611  1
  Ru  Ru14  1  0.250268  0.249999  0.625070  1
  Ru  Ru15  1  0.750552  0.749999  0.876247  1
