# generated using pymatgen
data_Dy4Y4Re3B24Ir
_symmetry_space_group_name_H-M   'P 1'
_cell_length_a   3.68363200
_cell_length_b   9.18765021
_cell_length_c   11.57240004
_cell_angle_alpha   90.14651924
_cell_angle_beta   90.00000000
_cell_angle_gamma   90.00000000
_symmetry_Int_Tables_number   1
_chemical_formula_structural   Dy4Y4Re3B24Ir
_chemical_formula_sum   'Dy4 Y4 Re3 B24 Ir1'
_cell_volume   391.65412718
_cell_formula_units_Z   1
loop_
 _symmetry_equiv_pos_site_id
 _symmetry_equiv_pos_as_xyz
  1  'x, y, z'
loop_
 _atom_site_type_symbol
 _atom_site_label
 _atom_site_symmetry_multiplicity
 _atom_site_fract_x
 _atom_site_fract_y
 _atom_site_fract_z
 _atom_site_occupancy
  Dy  Dy0  1  0.000000  0.944171  0.370492  1
  Dy  Dy1  1  0.000000  0.055711  0.628839  1
  Dy  Dy2  1  0.000000  0.441342  0.128496  1
  Dy  Dy3  1  0.000000  0.556593  0.871627  1
  Y  Y4  1  0.000000  0.318356  0.415479  1
  Y  Y5  1  0.000000  0.678501  0.591254  1
  Y  Y6  1  0.000000  0.827179  0.081349  1
  Y  Y7  1  0.000000  0.177055  0.912506  1
  Re  Re8  1  0.000000  0.362664  0.677431  1
  Re  Re9  1  0.000000  0.138235  0.179865  1
  Re  Re10  1  0.000000  0.861870  0.821149  1
  B  B11  1  0.500000  0.553899  0.433569  1
  B  B12  1  0.500000  0.446691  0.566882  1
  B  B13  1  0.500000  0.053475  0.066841  1
  B  B14  1  0.500000  0.946980  0.932445  1
  B  B15  1  0.500000  0.748840  0.420072  1
  B  B16  1  0.500000  0.251063  0.581172  1
  B  B17  1  0.500000  0.248534  0.081367  1
  B  B18  1  0.500000  0.752074  0.918767  1
  B  B19  1  0.500000  0.790946  0.265512  1
  B  B20  1  0.500000  0.208676  0.733771  1
  B  B21  1  0.500000  0.291450  0.234744  1
  B  B22  1  0.500000  0.708333  0.766256  1
  B  B23  1  0.500000  0.631864  0.184562  1
  B  B24  1  0.500000  0.369254  0.813694  1
  B  B25  1  0.500000  0.131107  0.314614  1
  B  B26  1  0.500000  0.868250  0.685896  1
  B  B27  1  0.500000  0.983444  0.211923  1
  B  B28  1  0.500000  0.016894  0.787006  1
  B  B29  1  0.500000  0.483258  0.287818  1
  B  B30  1  0.500000  0.517617  0.712472  1
  B  B31  1  0.500000  0.604669  0.029762  1
  B  B32  1  0.500000  0.396335  0.971645  1
  B  B33  1  0.500000  0.102955  0.470760  1
  B  B34  1  0.500000  0.894128  0.528552  1
  Ir  Ir35  1  0.000000  0.637588  0.321416  1
