# generated using pymatgen
data_KHo10(C2Br9)2
_symmetry_space_group_name_H-M   'P 1'
_cell_length_a   10.58634716
_cell_length_b   10.67329026
_cell_length_c   10.79513500
_cell_angle_alpha   113.49205946
_cell_angle_beta   87.52991978
_cell_angle_gamma   118.82803113
_symmetry_Int_Tables_number   1
_chemical_formula_structural   KHo10(C2Br9)2
_chemical_formula_sum   'K1 Ho10 C4 Br18'
_cell_volume   962.99681607
_cell_formula_units_Z   1
loop_
 _symmetry_equiv_pos_site_id
 _symmetry_equiv_pos_as_xyz
  1  'x, y, z'
loop_
 _atom_site_type_symbol
 _atom_site_label
 _atom_site_symmetry_multiplicity
 _atom_site_fract_x
 _atom_site_fract_y
 _atom_site_fract_z
 _atom_site_occupancy
  K  K0  1  0.500000  0.000000  0.500000  1
  Ho  Ho1  1  0.662580  0.717172  0.702467  1
  Ho  Ho2  1  0.282698  0.364803  0.011676  1
  Ho  Ho3  1  0.093357  0.406708  0.300905  1
  Ho  Ho4  1  0.959314  0.035745  0.333294  1
  Ho  Ho5  1  0.906643  0.593292  0.699095  1
  Ho  Ho6  1  0.111920  0.941712  0.001051  1
  Ho  Ho7  1  0.040686  0.964255  0.666706  1
  Ho  Ho8  1  0.337420  0.282828  0.297533  1
  Ho  Ho9  1  0.717302  0.635197  0.988324  1
  Ho  Ho10  1  0.888080  0.058288  0.998949  1
  C  C11  1  0.157308  0.227962  0.122831  1
  C  C12  1  0.842692  0.772038  0.877169  1
  C  C13  1  0.922602  0.852127  0.795824  1
  C  C14  1  0.077398  0.147873  0.204176  1
  Br  Br15  1  0.449820  0.529999  0.832551  1
  Br  Br16  1  0.384459  0.038801  0.159944  1
  Br  Br17  1  0.775986  0.857254  0.500895  1
  Br  Br18  1  0.837105  0.311969  0.154450  1
  Br  Br19  1  0.550180  0.470001  0.167449  1
  Br  Br20  1  0.224014  0.142746  0.499105  1
  Br  Br21  1  0.317087  0.099309  0.828203  1
  Br  Br22  1  0.682913  0.900691  0.171797  1
  Br  Br23  1  0.974980  0.759245  0.172927  1
  Br  Br24  1  0.931761  0.301737  0.501677  1
  Br  Br25  1  0.025020  0.240755  0.827073  1
  Br  Br26  1  0.068239  0.698263  0.498323  1
  Br  Br27  1  0.262399  0.626699  0.189192  1
  Br  Br28  1  0.737601  0.373301  0.810808  1
  Br  Br29  1  0.638379  0.431759  0.498150  1
  Br  Br30  1  0.162895  0.688031  0.845550  1
  Br  Br31  1  0.615541  0.961199  0.840056  1
  Br  Br32  1  0.361621  0.568241  0.501850  1
