# generated using pymatgen
data_Tb2Tm2ReB12Ir
_symmetry_space_group_name_H-M   'P 1'
_cell_length_a   3.65647800
_cell_length_b   9.12636895
_cell_length_c   11.52860404
_cell_angle_alpha   90.28897273
_cell_angle_beta   90.00000000
_cell_angle_gamma   90.00000000
_symmetry_Int_Tables_number   1
_chemical_formula_structural   Tb2Tm2ReB12Ir
_chemical_formula_sum   'Tb4 Tm4 Re2 B24 Ir2'
_cell_volume   384.70885832
_cell_formula_units_Z   2
loop_
 _symmetry_equiv_pos_site_id
 _symmetry_equiv_pos_as_xyz
  1  'x, y, z'
loop_
 _atom_site_type_symbol
 _atom_site_label
 _atom_site_symmetry_multiplicity
 _atom_site_fract_x
 _atom_site_fract_y
 _atom_site_fract_z
 _atom_site_occupancy
  Tb  Tb0  1  0.000000  0.317319  0.410461  1
  Tb  Tb1  1  0.000000  0.682681  0.589539  1
  Tb  Tb2  1  0.000000  0.825807  0.082603  1
  Tb  Tb3  1  0.000000  0.174193  0.917397  1
  Tm  Tm4  1  0.000000  0.946501  0.372299  1
  Tm  Tm5  1  0.000000  0.053499  0.627701  1
  Tm  Tm6  1  0.000000  0.441624  0.125923  1
  Tm  Tm7  1  0.000000  0.558376  0.874077  1
  Re  Re8  1  0.000000  0.138989  0.180638  1
  Re  Re9  1  0.000000  0.861011  0.819362  1
  B  B10  1  0.500000  0.554717  0.433498  1
  B  B11  1  0.500000  0.445283  0.566502  1
  B  B12  1  0.500000  0.053805  0.067725  1
  B  B13  1  0.500000  0.946195  0.932275  1
  B  B14  1  0.500000  0.750569  0.420507  1
  B  B15  1  0.500000  0.249431  0.579493  1
  B  B16  1  0.500000  0.249040  0.081337  1
  B  B17  1  0.500000  0.750960  0.918663  1
  B  B18  1  0.500000  0.791380  0.265872  1
  B  B19  1  0.500000  0.208620  0.734128  1
  B  B20  1  0.500000  0.292704  0.234478  1
  B  B21  1  0.500000  0.707296  0.765522  1
  B  B22  1  0.500000  0.630940  0.183525  1
  B  B23  1  0.500000  0.369060  0.816475  1
  B  B24  1  0.500000  0.131114  0.315310  1
  B  B25  1  0.500000  0.868886  0.684690  1
  B  B26  1  0.500000  0.982876  0.213718  1
  B  B27  1  0.500000  0.017124  0.786282  1
  B  B28  1  0.500000  0.482611  0.286763  1
  B  B29  1  0.500000  0.517389  0.713237  1
  B  B30  1  0.500000  0.603778  0.029005  1
  B  B31  1  0.500000  0.396222  0.970995  1
  B  B32  1  0.500000  0.104827  0.471822  1
  B  B33  1  0.500000  0.895173  0.528178  1
  Ir  Ir34  1  0.000000  0.637450  0.321242  1
  Ir  Ir35  1  0.000000  0.362550  0.678758  1
