# generated using pymatgen
data_Zr6AlCo22
_symmetry_space_group_name_H-M   'P 1'
_cell_length_a   8.16915002
_cell_length_b   8.16818086
_cell_length_c   8.16915002
_cell_angle_alpha   119.99933817
_cell_angle_beta   90.00854266
_cell_angle_gamma   119.99933817
_symmetry_Int_Tables_number   1
_chemical_formula_structural   Zr6AlCo22
_chemical_formula_sum   'Zr6 Al1 Co22'
_cell_volume   385.42545539
_cell_formula_units_Z   1
loop_
 _symmetry_equiv_pos_site_id
 _symmetry_equiv_pos_as_xyz
  1  'x, y, z'
loop_
 _atom_site_type_symbol
 _atom_site_label
 _atom_site_symmetry_multiplicity
 _atom_site_fract_x
 _atom_site_fract_y
 _atom_site_fract_z
 _atom_site_occupancy
  Zr  Zr0  1  0.287040  0.999979  0.287040  1
  Zr  Zr1  1  0.712969  0.000050  0.287083  1
  Zr  Zr2  1  0.287022  0.574119  0.287022  1
  Zr  Zr3  1  0.287083  0.000050  0.712969  1
  Zr  Zr4  1  0.712960  0.425853  0.712960  1
  Zr  Zr5  1  0.712991  0.000123  0.712991  1
  Al  Al6  1  0.000046  0.000088  0.000046  1
  Co  Co7  1  0.500038  0.000087  0.000052  1
  Co  Co8  1  0.999987  0.499980  0.999987  1
  Co  Co9  1  0.499984  0.499966  0.999973  1
  Co  Co10  1  0.674818  0.349663  0.024543  1
  Co  Co11  1  0.876962  0.753910  0.123045  1
  Co  Co12  1  0.369010  0.245965  0.122961  1
  Co  Co13  1  0.876947  0.246064  0.123037  1
  Co  Co14  1  0.674849  0.349672  0.325110  1
  Co  Co15  1  0.674866  0.650289  0.325127  1
  Co  Co16  1  0.975450  0.650306  0.325163  1
  Co  Co17  1  0.122961  0.245965  0.369010  1
  Co  Co18  1  0.000052  0.000087  0.500038  1
  Co  Co19  1  0.999973  0.499966  0.499984  1
  Co  Co20  1  0.499984  0.499952  0.499984  1
  Co  Co21  1  0.877025  0.753983  0.630960  1
  Co  Co22  1  0.024543  0.349663  0.674818  1
  Co  Co23  1  0.325110  0.349672  0.674849  1
  Co  Co24  1  0.325127  0.650289  0.674866  1
  Co  Co25  1  0.123037  0.246064  0.876947  1
  Co  Co26  1  0.123045  0.753910  0.876962  1
  Co  Co27  1  0.630960  0.753983  0.877025  1
  Co  Co28  1  0.325163  0.650306  0.975450  1
