# generated using pymatgen
data_Li10Pr12Mg2TaW7O48
_symmetry_space_group_name_H-M   'P 1'
_cell_length_a   10.99043635
_cell_length_b   10.99043688
_cell_length_c   10.99043800
_cell_angle_alpha   109.42840073
_cell_angle_beta   109.42841274
_cell_angle_gamma   109.42840200
_symmetry_Int_Tables_number   1
_chemical_formula_structural   Li10Pr12Mg2TaW7O48
_chemical_formula_sum   'Li10 Pr12 Mg2 Ta1 W7 O48'
_cell_volume   1023.55112719
_cell_formula_units_Z   1
loop_
 _symmetry_equiv_pos_site_id
 _symmetry_equiv_pos_as_xyz
  1  'x, y, z'
loop_
 _atom_site_type_symbol
 _atom_site_label
 _atom_site_symmetry_multiplicity
 _atom_site_fract_x
 _atom_site_fract_y
 _atom_site_fract_z
 _atom_site_occupancy
  Li  Li0  1  0.122582  0.374369  0.249557  1
  Li  Li1  1  0.626280  0.874975  0.250138  1
  Li  Li2  1  0.124249  0.750234  0.376534  1
  Li  Li3  1  0.750457  0.624387  0.375651  1
  Li  Li4  1  0.249969  0.376135  0.624485  1
  Li  Li5  1  0.875221  0.249597  0.623324  1
  Li  Li6  1  0.373899  0.124759  0.749817  1
  Li  Li7  1  0.876996  0.625619  0.750068  1
  Li  Li8  1  0.627829  0.753004  0.877043  1
  Li  Li9  1  0.751670  0.124672  0.874870  1
  Pr  Pr10  1  0.755879  0.379119  0.132061  1
  Pr  Pr11  1  0.875025  0.753404  0.126775  1
  Pr  Pr12  1  0.375434  0.625303  0.250153  1
  Pr  Pr13  1  0.877521  0.127117  0.252112  1
  Pr  Pr14  1  0.247856  0.127598  0.379020  1
  Pr  Pr15  1  0.636171  0.254822  0.382164  1
  Pr  Pr16  1  0.753268  0.877783  0.627071  1
  Pr  Pr17  1  0.367248  0.744833  0.621119  1
  Pr  Pr18  1  0.121637  0.870733  0.745025  1
  Pr  Pr19  1  0.624634  0.374616  0.749828  1
  Pr  Pr20  1  0.243853  0.617149  0.864351  1
  Pr  Pr21  1  0.118543  0.246572  0.869028  1
  Mg  Mg22  1  0.249640  0.874412  0.125837  1
  Mg  Mg23  1  0.374774  0.249808  0.124521  1
  Ta  Ta24  1  0.999842  0.499837  0.499246  1
  W  W25  1  0.995494  0.999754  0.998488  1
  W  W26  1  0.504198  0.997831  0.997543  1
  W  W27  1  0.501693  0.502113  0.997935  1
  W  W28  1  0.996010  0.496047  0.998429  1
  W  W29  1  0.999463  0.999280  0.499620  1
  W  W30  1  0.501927  0.000208  0.504365  1
  W  W31  1  0.502622  0.504335  0.504408  1
  O  O32  1  0.824282  0.907307  0.030207  1
  O  O33  1  0.692933  0.114696  0.020469  1
  O  O34  1  0.195617  0.671136  0.078887  1
  O  O35  1  0.384067  0.408783  0.080435  1
  O  O36  1  0.477894  0.671113  0.091953  1
  O  O37  1  0.115490  0.421869  0.092073  1
  O  O38  1  0.523721  0.194449  0.116859  1
  O  O39  1  0.093172  0.918088  0.123922  1
  O  O40  1  0.978925  0.592360  0.171459  1
  O  O41  1  0.692699  0.578963  0.170675  1
  O  O42  1  0.081874  0.171805  0.195111  1
  O  O43  1  0.613161  0.020577  0.191779  1
  O  O44  1  0.828075  0.920004  0.307359  1
  O  O45  1  0.972268  0.380807  0.298320  1
  O  O46  1  0.408545  0.024139  0.328992  1
  O  O47  1  0.421383  0.305242  0.328822  1
  O  O48  1  0.079806  0.908286  0.386172  1
  O  O49  1  0.799119  0.473681  0.382063  1
  O  O50  1  0.328856  0.521774  0.407081  1
  O  O51  1  0.579172  0.886411  0.407832  1
  O  O52  1  0.591711  0.613483  0.420267  1
  O  O53  1  0.328220  0.806365  0.419123  1
  O  O54  1  0.092088  0.172294  0.478066  1
  O  O55  1  0.883098  0.300078  0.475261  1
  O  O56  1  0.118462  0.700202  0.525500  1
  O  O57  1  0.907053  0.828161  0.522565  1
  O  O58  1  0.409052  0.386196  0.580363  1
  O  O59  1  0.671534  0.194240  0.581508  1
  O  O60  1  0.671480  0.477656  0.593346  1
  O  O61  1  0.420778  0.114910  0.592606  1
  O  O62  1  0.201497  0.526120  0.616982  1
  O  O63  1  0.918603  0.091368  0.612704  1
  O  O64  1  0.579852  0.694311  0.672651  1
  O  O65  1  0.590915  0.977624  0.672552  1
  O  O66  1  0.171162  0.079877  0.692185  1
  O  O67  1  0.027296  0.618169  0.700672  1
  O  O68  1  0.386002  0.978694  0.808235  1
  O  O69  1  0.920226  0.829007  0.805482  1
  O  O70  1  0.306234  0.419970  0.828257  1
  O  O71  1  0.021076  0.408059  0.827808  1
  O  O72  1  0.478113  0.805712  0.884589  1
  O  O73  1  0.905812  0.081779  0.876170  1
  O  O74  1  0.521180  0.328207  0.907800  1
  O  O75  1  0.885077  0.578642  0.907653  1
  O  O76  1  0.613171  0.591186  0.917796  1
  O  O77  1  0.805509  0.327145  0.919834  1
  O  O78  1  0.306460  0.884372  0.978354  1
  O  O79  1  0.175384  0.094262  0.970611  1
