# generated using pymatgen
data_K2TaCuS4
_symmetry_space_group_name_H-M   'P 1'
_cell_length_a   13.47096398
_cell_length_b   12.01769785
_cell_length_c   7.26028717
_cell_angle_alpha   84.84806026
_cell_angle_beta   62.68717877
_cell_angle_gamma   32.46476643
_symmetry_Int_Tables_number   1
_chemical_formula_structural   K2TaCuS4
_chemical_formula_sum   'K4 Ta2 Cu2 S8'
_cell_volume   438.29799245
_cell_formula_units_Z   2
loop_
 _symmetry_equiv_pos_site_id
 _symmetry_equiv_pos_as_xyz
  1  'x, y, z'
loop_
 _atom_site_type_symbol
 _atom_site_label
 _atom_site_symmetry_multiplicity
 _atom_site_fract_x
 _atom_site_fract_y
 _atom_site_fract_z
 _atom_site_occupancy
  K  K0  1  0.679607  0.679607  0.320393  1
  K  K1  1  0.320393  0.320393  0.679607  1
  K  K2  1  0.570393  0.570393  0.929607  1
  K  K3  1  0.929607  0.929607  0.570393  1
  Ta  Ta4  1  0.500000  0.500000  0.500000  1
  Ta  Ta5  1  0.750000  0.750000  0.750000  1
  Cu  Cu6  1  0.000000  0.000000  0.000000  1
  Cu  Cu7  1  0.250000  0.250000  0.250000  1
  S  S8  1  0.354214  0.034824  0.947662  1
  S  S9  1  0.663300  0.947662  0.034824  1
  S  S10  1  0.947662  0.663300  0.354214  1
  S  S11  1  0.034824  0.354214  0.663300  1
  S  S12  1  0.895786  0.215176  0.302338  1
  S  S13  1  0.586700  0.302338  0.215176  1
  S  S14  1  0.302338  0.586700  0.895786  1
  S  S15  1  0.215176  0.895786  0.586700  1
