# generated using pymatgen
data_Tm4Al24IrPd8
_symmetry_space_group_name_H-M   'P 1'
_cell_length_a   7.50804927
_cell_length_b   7.53293134
_cell_length_c   13.13534400
_cell_angle_alpha   84.65942414
_cell_angle_beta   79.12454825
_cell_angle_gamma   59.90193329
_symmetry_Int_Tables_number   1
_chemical_formula_structural   Tm4Al24IrPd8
_chemical_formula_sum   'Tm4 Al24 Ir1 Pd8'
_cell_volume   631.19201693
_cell_formula_units_Z   1
loop_
 _symmetry_equiv_pos_site_id
 _symmetry_equiv_pos_as_xyz
  1  'x, y, z'
loop_
 _atom_site_type_symbol
 _atom_site_label
 _atom_site_symmetry_multiplicity
 _atom_site_fract_x
 _atom_site_fract_y
 _atom_site_fract_z
 _atom_site_occupancy
  Tm  Tm0  1  0.393639  0.168653  0.808873  1
  Tm  Tm1  1  0.606361  0.831347  0.191127  1
  Tm  Tm2  1  0.734068  0.498175  0.808861  1
  Tm  Tm3  1  0.265932  0.501825  0.191139  1
  Al  Al4  1  0.686089  0.831377  0.945004  1
  Al  Al5  1  0.313911  0.168623  0.054996  1
  Al  Al6  1  0.146349  0.832288  0.561972  1
  Al  Al7  1  0.853651  0.167712  0.438028  1
  Al  Al8  1  0.480003  0.166587  0.559409  1
  Al  Al9  1  0.519997  0.833413  0.440591  1
  Al  Al10  1  0.217768  0.165018  0.327445  1
  Al  Al11  1  0.782232  0.834982  0.672555  1
  Al  Al12  1  0.436399  0.506937  0.672577  1
  Al  Al13  1  0.563601  0.493063  0.327423  1
  Al  Al14  1  0.108933  0.159851  0.670734  1
  Al  Al15  1  0.891067  0.840149  0.329266  1
  Al  Al16  1  0.350851  0.498900  0.945074  1
  Al  Al17  1  0.649149  0.501100  0.054926  1
  Al  Al18  1  0.015599  0.171088  0.953660  1
  Al  Al19  1  0.984401  0.828912  0.046340  1
  Al  Al20  1  0.186557  0.499554  0.440936  1
  Al  Al21  1  0.813443  0.500446  0.559064  1
  Al  Al22  1  0.733156  0.163364  0.183199  1
  Al  Al23  1  0.266844  0.836636  0.816801  1
  Al  Al24  1  0.061172  0.629419  0.817280  1
  Al  Al25  1  0.938828  0.370581  0.182720  1
  Al  Al26  1  0.854408  0.043353  0.816439  1
  Al  Al27  1  0.145592  0.956647  0.183561  1
  Ir  Ir28  1  0.000000  0.500000  0.000000  1
  Pd  Pd29  1  0.119955  0.491936  0.639448  1
  Pd  Pd30  1  0.880045  0.508064  0.360552  1
  Pd  Pd31  1  0.657171  0.171483  0.999791  1
  Pd  Pd32  1  0.342829  0.828517  0.000209  1
  Pd  Pd33  1  0.537257  0.167042  0.361816  1
  Pd  Pd34  1  0.462743  0.832958  0.638184  1
  Pd  Pd35  1  0.778336  0.175044  0.637210  1
  Pd  Pd36  1  0.221664  0.824956  0.362790  1
