# generated using pymatgen
data_Pr4Ga4PdRh3
_symmetry_space_group_name_H-M   'P 1'
_cell_length_a   4.46872400
_cell_length_b   7.14490107
_cell_length_c   7.87690931
_cell_angle_alpha   89.91248908
_cell_angle_beta   90.00000000
_cell_angle_gamma   90.00000000
_symmetry_Int_Tables_number   1
_chemical_formula_structural   Pr4Ga4PdRh3
_chemical_formula_sum   'Pr4 Ga4 Pd1 Rh3'
_cell_volume   251.49832154
_cell_formula_units_Z   1
loop_
 _symmetry_equiv_pos_site_id
 _symmetry_equiv_pos_as_xyz
  1  'x, y, z'
loop_
 _atom_site_type_symbol
 _atom_site_label
 _atom_site_symmetry_multiplicity
 _atom_site_fract_x
 _atom_site_fract_y
 _atom_site_fract_z
 _atom_site_occupancy
  Pr  Pr0  1  0.250000  0.025831  0.685490  1
  Pr  Pr1  1  0.250000  0.532911  0.811791  1
  Pr  Pr2  1  0.750000  0.971929  0.310729  1
  Pr  Pr3  1  0.750000  0.476731  0.193394  1
  Ga  Ga4  1  0.250000  0.154843  0.073932  1
  Ga  Ga5  1  0.250000  0.655608  0.427790  1
  Ga  Ga6  1  0.750000  0.838102  0.928782  1
  Ga  Ga7  1  0.750000  0.345860  0.568374  1
  Pd  Pd8  1  0.750000  0.216997  0.891813  1
  Rh  Rh9  1  0.250000  0.279607  0.393087  1
  Rh  Rh10  1  0.250000  0.781015  0.106951  1
  Rh  Rh11  1  0.750000  0.720566  0.607867  1
