# generated using pymatgen
data_Eu2ErCu2Se5
_symmetry_space_group_name_H-M   'P 1'
_cell_length_a   4.08252169
_cell_length_b   6.96693548
_cell_length_c   9.22041836
_cell_angle_alpha   102.12705994
_cell_angle_beta   102.79037150
_cell_angle_gamma   107.03720668
_symmetry_Int_Tables_number   1
_chemical_formula_structural   Eu2ErCu2Se5
_chemical_formula_sum   'Eu2 Er1 Cu2 Se5'
_cell_volume   233.64942847
_cell_formula_units_Z   1
loop_
 _symmetry_equiv_pos_site_id
 _symmetry_equiv_pos_as_xyz
  1  'x, y, z'
loop_
 _atom_site_type_symbol
 _atom_site_label
 _atom_site_symmetry_multiplicity
 _atom_site_fract_x
 _atom_site_fract_y
 _atom_site_fract_z
 _atom_site_occupancy
  Eu  Eu0  1  0.467336  0.638619  0.296051  1
  Eu  Eu1  1  0.532664  0.361381  0.703949  1
  Er  Er2  1  0.000000  0.000000  0.000000  1
  Cu  Cu3  1  0.726992  0.166921  0.287064  1
  Cu  Cu4  1  0.273008  0.833079  0.712936  1
  Se  Se5  1  0.693433  0.317772  0.069096  1
  Se  Se6  1  0.148244  0.981097  0.315390  1
  Se  Se7  1  0.000001  0.500001  0.500000  1
  Se  Se8  1  0.851756  0.018903  0.684611  1
  Se  Se9  1  0.306568  0.682230  0.930904  1
