# generated using pymatgen
data_Th5UZnCo5Sb8
_symmetry_space_group_name_H-M   'P 1'
_cell_length_a   8.31687856
_cell_length_b   8.32549382
_cell_length_c   8.34389237
_cell_angle_alpha   109.26884267
_cell_angle_beta   108.76850090
_cell_angle_gamma   110.10058677
_symmetry_Int_Tables_number   1
_chemical_formula_structural   Th5UZnCo5Sb8
_chemical_formula_sum   'Th5 U1 Zn1 Co5 Sb8'
_cell_volume   446.21198904
_cell_formula_units_Z   1
loop_
 _symmetry_equiv_pos_site_id
 _symmetry_equiv_pos_as_xyz
  1  'x, y, z'
loop_
 _atom_site_type_symbol
 _atom_site_label
 _atom_site_symmetry_multiplicity
 _atom_site_fract_x
 _atom_site_fract_y
 _atom_site_fract_z
 _atom_site_occupancy
  Th  Th0  1  0.740530  0.874338  0.119298  1
  Th  Th1  1  0.256971  0.617018  0.382654  1
  Th  Th2  1  0.623760  0.375641  0.248651  1
  Th  Th3  1  0.871510  0.124298  0.748510  1
  Th  Th4  1  0.120834  0.741278  0.858535  1
  U  U5  1  0.400964  0.276191  0.661757  1
  Zn  Zn6  1  0.135035  0.888094  0.261944  1
  Co  Co7  1  0.622384  0.749114  0.371834  1
  Co  Co8  1  0.877785  0.248561  0.129380  1
  Co  Co9  1  0.274305  0.150987  0.836808  1
  Co  Co10  1  0.688912  0.355990  0.629095  1
  Co  Co11  1  0.378277  0.596374  0.742852  1
  Sb  Sb12  1  0.999749  0.331425  0.499361  1
  Sb  Sb13  1  0.842338  0.494764  0.005023  1
  Sb  Sb14  1  0.502737  0.997554  0.837876  1
  Sb  Sb15  1  0.666801  0.667172  0.662416  1
  Sb  Sb16  1  0.162101  0.165102  0.154733  1
  Sb  Sb17  1  0.333216  0.505435  0.004915  1
  Sb  Sb18  1  0.507706  0.000849  0.340727  1
  Sb  Sb19  1  0.994082  0.839813  0.503635  1
