# generated using pymatgen
data_Hf11Zr8Si16W
_symmetry_space_group_name_H-M   'P 1'
_cell_length_a   7.07469629
_cell_length_b   7.07469533
_cell_length_c   12.90870701
_cell_angle_alpha   89.93544533
_cell_angle_beta   90.06455776
_cell_angle_gamma   90.05713263
_symmetry_Int_Tables_number   1
_chemical_formula_structural   Hf11Zr8Si16W
_chemical_formula_sum   'Hf11 Zr8 Si16 W1'
_cell_volume   646.09669494
_cell_formula_units_Z   1
loop_
 _symmetry_equiv_pos_site_id
 _symmetry_equiv_pos_as_xyz
  1  'x, y, z'
loop_
 _atom_site_type_symbol
 _atom_site_label
 _atom_site_symmetry_multiplicity
 _atom_site_fract_x
 _atom_site_fract_y
 _atom_site_fract_z
 _atom_site_occupancy
  Hf  Hf0  1  0.824679  0.824679  0.500000  1
  Hf  Hf1  1  0.324675  0.675502  0.248617  1
  Hf  Hf2  1  0.675502  0.324675  0.751383  1
  Hf  Hf3  1  0.146155  0.999294  0.374599  1
  Hf  Hf4  1  0.855137  0.003018  0.878393  1
  Hf  Hf5  1  0.501549  0.647564  0.626815  1
  Hf  Hf6  1  0.351747  0.497256  0.874909  1
  Hf  Hf7  1  0.497256  0.351747  0.125091  1
  Hf  Hf8  1  0.647564  0.501549  0.373185  1
  Hf  Hf9  1  0.999294  0.146155  0.625401  1
  Hf  Hf10  1  0.003018  0.855137  0.121607  1
  Zr  Zr11  1  0.998881  0.346179  0.215200  1
  Zr  Zr12  1  0.002567  0.653263  0.717989  1
  Zr  Zr13  1  0.153350  0.498455  0.465922  1
  Zr  Zr14  1  0.500561  0.845835  0.033146  1
  Zr  Zr15  1  0.845835  0.500561  0.966854  1
  Zr  Zr16  1  0.498455  0.153350  0.534078  1
  Zr  Zr17  1  0.346179  0.998881  0.784800  1
  Zr  Zr18  1  0.653263  0.002567  0.282011  1
  Si  Si19  1  0.355834  0.295487  0.321571  1
  Si  Si20  1  0.645209  0.704239  0.822433  1
  Si  Si21  1  0.204853  0.855768  0.571580  1
  Si  Si22  1  0.145379  0.797387  0.927748  1
  Si  Si23  1  0.797387  0.145379  0.072252  1
  Si  Si24  1  0.855768  0.204853  0.428420  1
  Si  Si25  1  0.295487  0.355834  0.678429  1
  Si  Si26  1  0.704239  0.645209  0.177567  1
  Si  Si27  1  0.298203  0.051499  0.183440  1
  Si  Si28  1  0.699170  0.950888  0.687080  1
  Si  Si29  1  0.450749  0.801076  0.435982  1
  Si  Si30  1  0.198200  0.544408  0.063449  1
  Si  Si31  1  0.544408  0.198200  0.936551  1
  Si  Si32  1  0.801076  0.450749  0.564018  1
  Si  Si33  1  0.051499  0.298203  0.816560  1
  Si  Si34  1  0.950888  0.699170  0.312920  1
  W  W35  1  0.175985  0.175985  0.000000  1
