# generated using pymatgen
data_CeTh5(SbN3)2
_symmetry_space_group_name_H-M   'P 1'
_cell_length_a   7.19530706
_cell_length_b   7.19530682
_cell_length_c   12.26327466
_cell_angle_alpha   117.71304014
_cell_angle_beta   117.71303890
_cell_angle_gamma   32.81167066
_symmetry_Int_Tables_number   1
_chemical_formula_structural   CeTh5(SbN3)2
_chemical_formula_sum   'Ce1 Th5 Sb2 N6'
_cell_volume   300.90874695
_cell_formula_units_Z   1
loop_
 _symmetry_equiv_pos_site_id
 _symmetry_equiv_pos_as_xyz
  1  'x, y, z'
loop_
 _atom_site_type_symbol
 _atom_site_label
 _atom_site_symmetry_multiplicity
 _atom_site_fract_x
 _atom_site_fract_y
 _atom_site_fract_z
 _atom_site_occupancy
  Ce  Ce0  1  0.628605  0.628605  0.900830  1
  Th  Th1  1  0.368781  0.368781  0.097970  1
  Th  Th2  1  0.148978  0.148978  0.201378  1
  Th  Th3  1  0.621926  0.621926  0.439390  1
  Th  Th4  1  0.378190  0.378190  0.559799  1
  Th  Th5  1  0.853358  0.853358  0.799073  1
  Sb  Sb6  1  0.878763  0.878763  0.321505  1
  Sb  Sb7  1  0.121591  0.121591  0.682341  1
  N  N8  1  0.163507  0.163507  0.010852  1
  N  N9  1  0.563503  0.563503  0.206152  1
  N  N10  1  0.190250  0.190250  0.408778  1
  N  N11  1  0.809787  0.809787  0.591287  1
  N  N12  1  0.438337  0.438337  0.794740  1
  N  N13  1  0.834424  0.834424  0.985908  1
