# generated using pymatgen
data_Rb6GdErI12
_symmetry_space_group_name_H-M   'P 1'
_cell_length_a   10.37433500
_cell_length_b   10.37553351
_cell_length_c   8.59342000
_cell_angle_alpha   90.00000000
_cell_angle_beta   90.00000000
_cell_angle_gamma   89.98197554
_symmetry_Int_Tables_number   1
_chemical_formula_structural   Rb6GdErI12
_chemical_formula_sum   'Rb6 Gd1 Er1 I12'
_cell_volume   924.98932795
_cell_formula_units_Z   1
loop_
 _symmetry_equiv_pos_site_id
 _symmetry_equiv_pos_as_xyz
  1  'x, y, z'
loop_
 _atom_site_type_symbol
 _atom_site_label
 _atom_site_symmetry_multiplicity
 _atom_site_fract_x
 _atom_site_fract_y
 _atom_site_fract_z
 _atom_site_occupancy
  Rb  Rb0  1  0.000000  0.000000  0.500000  1
  Rb  Rb1  1  0.000000  0.000000  0.000000  1
  Rb  Rb2  1  0.236512  0.587085  0.500000  1
  Rb  Rb3  1  0.763488  0.412915  0.500000  1
  Rb  Rb4  1  0.413337  0.232713  0.000000  1
  Rb  Rb5  1  0.586663  0.767287  0.000000  1
  Gd  Gd6  1  0.000000  0.500000  0.000000  1
  Er  Er7  1  0.500000  0.000000  0.500000  1
  I  I8  1  0.698316  0.057493  0.748556  1
  I  I9  1  0.301684  0.942507  0.748556  1
  I  I10  1  0.941385  0.701291  0.250938  1
  I  I11  1  0.058615  0.298709  0.250938  1
  I  I12  1  0.301684  0.942507  0.251444  1
  I  I13  1  0.698316  0.057493  0.251444  1
  I  I14  1  0.058615  0.298709  0.749062  1
  I  I15  1  0.941385  0.701291  0.749062  1
  I  I16  1  0.568341  0.717632  0.500000  1
  I  I17  1  0.431659  0.282368  0.500000  1
  I  I18  1  0.285698  0.569476  0.000000  1
  I  I19  1  0.714302  0.430524  0.000000  1
