# generated using pymatgen
data_Rb8BeCd3H16
_symmetry_space_group_name_H-M   'P 1'
_cell_length_a   6.13271500
_cell_length_b   8.43548109
_cell_length_c   10.88921200
_cell_angle_alpha   90.15048216
_cell_angle_beta   90.00000000
_cell_angle_gamma   90.00000000
_symmetry_Int_Tables_number   1
_chemical_formula_structural   Rb8BeCd3H16
_chemical_formula_sum   'Rb8 Be1 Cd3 H16'
_cell_volume   563.32314361
_cell_formula_units_Z   1
loop_
 _symmetry_equiv_pos_site_id
 _symmetry_equiv_pos_as_xyz
  1  'x, y, z'
loop_
 _atom_site_type_symbol
 _atom_site_label
 _atom_site_symmetry_multiplicity
 _atom_site_fract_x
 _atom_site_fract_y
 _atom_site_fract_z
 _atom_site_occupancy
  Rb  Rb0  1  0.250000  0.669314  0.079303  1
  Rb  Rb1  1  0.250000  0.160941  0.411274  1
  Rb  Rb2  1  0.750000  0.368276  0.910628  1
  Rb  Rb3  1  0.750000  0.832696  0.609906  1
  Rb  Rb4  1  0.250000  0.980857  0.816946  1
  Rb  Rb5  1  0.250000  0.488929  0.689787  1
  Rb  Rb6  1  0.750000  0.005287  0.173565  1
  Rb  Rb7  1  0.750000  0.514962  0.313990  1
  Be  Be8  1  0.750000  0.755342  0.916674  1
  Cd  Cd9  1  0.250000  0.738185  0.415786  1
  Cd  Cd10  1  0.250000  0.241930  0.082107  1
  Cd  Cd11  1  0.750000  0.259951  0.585107  1
  H  H12  1  0.004654  0.817931  0.342189  1
  H  H13  1  0.497583  0.319122  0.154530  1
  H  H14  1  0.504348  0.182626  0.660268  1
  H  H15  1  0.946778  0.691046  0.855184  1
  H  H16  1  0.995652  0.182626  0.660268  1
  H  H17  1  0.553222  0.691046  0.855184  1
  H  H18  1  0.495346  0.817931  0.342189  1
  H  H19  1  0.002417  0.319122  0.154530  1
  H  H20  1  0.250000  0.520134  0.410745  1
  H  H21  1  0.250000  0.023947  0.088855  1
  H  H22  1  0.750000  0.478322  0.594799  1
  H  H23  1  0.750000  0.928467  0.908373  1
  H  H24  1  0.250000  0.311620  0.920811  1
  H  H25  1  0.250000  0.806861  0.578205  1
  H  H26  1  0.750000  0.699207  0.045241  1
  H  H27  1  0.750000  0.193325  0.423557  1
