# generated using pymatgen
data_Dy10(TlBi)3
_symmetry_space_group_name_H-M   'P 1'
_cell_length_a   9.06080001
_cell_length_b   9.06080007
_cell_length_c   6.64863500
_cell_angle_alpha   89.99945686
_cell_angle_beta   89.99944415
_cell_angle_gamma   119.99580798
_symmetry_Int_Tables_number   1
_chemical_formula_structural   Dy10(TlBi)3
_chemical_formula_sum   'Dy10 Tl3 Bi3'
_cell_volume   472.73151868
_cell_formula_units_Z   1
loop_
 _symmetry_equiv_pos_site_id
 _symmetry_equiv_pos_as_xyz
  1  'x, y, z'
loop_
 _atom_site_type_symbol
 _atom_site_label
 _atom_site_symmetry_multiplicity
 _atom_site_fract_x
 _atom_site_fract_y
 _atom_site_fract_z
 _atom_site_occupancy
  Dy  Dy0  1  0.666665  0.333330  0.994312  1
  Dy  Dy1  1  0.333329  0.666664  0.994312  1
  Dy  Dy2  1  0.762889  0.762888  0.250006  1
  Dy  Dy3  1  0.237137  0.999994  0.250000  1
  Dy  Dy4  1  0.999994  0.237137  0.250000  1
  Dy  Dy5  1  0.666661  0.333338  0.505687  1
  Dy  Dy6  1  0.333337  0.666661  0.505687  1
  Dy  Dy7  1  0.237711  0.237710  0.750002  1
  Dy  Dy8  1  0.762278  0.000012  0.750000  1
  Dy  Dy9  1  0.000012  0.762278  0.750000  1
  Tl  Tl10  1  0.393592  0.999986  0.749971  1
  Tl  Tl11  1  0.999985  0.393591  0.749971  1
  Tl  Tl12  1  0.606411  0.606410  0.750056  1
  Bi  Bi13  1  0.604938  0.000007  0.249993  1
  Bi  Bi14  1  0.000007  0.604937  0.249993  1
  Bi  Bi15  1  0.395054  0.395053  0.250006  1
