# generated using pymatgen
data_Zr2ScU5Ir8
_symmetry_space_group_name_H-M   'P 1'
_cell_length_a   10.39989245
_cell_length_b   5.55132253
_cell_length_c   5.55033251
_cell_angle_alpha   81.02685501
_cell_angle_beta   90.08777101
_cell_angle_gamma   90.18460381
_symmetry_Int_Tables_number   1
_chemical_formula_structural   Zr2ScU5Ir8
_chemical_formula_sum   'Zr2 Sc1 U5 Ir8'
_cell_volume   316.51473923
_cell_formula_units_Z   1
loop_
 _symmetry_equiv_pos_site_id
 _symmetry_equiv_pos_as_xyz
  1  'x, y, z'
loop_
 _atom_site_type_symbol
 _atom_site_label
 _atom_site_symmetry_multiplicity
 _atom_site_fract_x
 _atom_site_fract_y
 _atom_site_fract_z
 _atom_site_occupancy
  Zr  Zr0  1  0.001078  0.900763  0.150763  1
  Zr  Zr1  1  0.498719  0.664995  0.398205  1
  Sc  Sc2  1  0.498508  0.097829  0.850907  1
  U  U3  1  0.988502  0.331404  0.593623  1
  U  U4  1  0.221727  0.389407  0.122022  1
  U  U5  1  0.710399  0.607893  0.881097  1
  U  U6  1  0.222638  0.854547  0.633149  1
  U  U7  1  0.711812  0.153956  0.373385  1
  Ir  Ir8  1  0.765176  0.107838  0.878234  1
  Ir  Ir9  1  0.265907  0.887391  0.129610  1
  Ir  Ir10  1  0.760890  0.651993  0.372697  1
  Ir  Ir11  1  0.260967  0.354989  0.624536  1
  Ir  Ir12  1  0.957120  0.408886  0.087407  1
  Ir  Ir13  1  0.454347  0.587173  0.909492  1
  Ir  Ir14  1  0.959926  0.825065  0.660793  1
  Ir  Ir15  1  0.458288  0.175871  0.334081  1
