# generated using pymatgen
data_Yb8CoPtO12
_symmetry_space_group_name_H-M   'P 1'
_cell_length_a   6.41579483
_cell_length_b   6.41579422
_cell_length_c   6.41579579
_cell_angle_alpha   90.30206228
_cell_angle_beta   90.30205614
_cell_angle_gamma   90.30206954
_symmetry_Int_Tables_number   1
_chemical_formula_structural   Yb8CoPtO12
_chemical_formula_sum   'Yb8 Co1 Pt1 O12'
_cell_volume   264.07862831
_cell_formula_units_Z   1
loop_
 _symmetry_equiv_pos_site_id
 _symmetry_equiv_pos_as_xyz
  1  'x, y, z'
loop_
 _atom_site_type_symbol
 _atom_site_label
 _atom_site_symmetry_multiplicity
 _atom_site_fract_x
 _atom_site_fract_y
 _atom_site_fract_z
 _atom_site_occupancy
  Yb  Yb0  1  0.740998  0.122670  0.385595  1
  Yb  Yb1  1  0.385595  0.740998  0.122670  1
  Yb  Yb2  1  0.122670  0.385595  0.740998  1
  Yb  Yb3  1  0.259002  0.877330  0.614405  1
  Yb  Yb4  1  0.614405  0.259002  0.877330  1
  Yb  Yb5  1  0.877330  0.614405  0.259002  1
  Yb  Yb6  1  0.254791  0.254791  0.254791  1
  Yb  Yb7  1  0.745209  0.745209  0.745209  1
  Co  Co8  1  0.500000  0.500000  0.500000  1
  Pt  Pt9  1  0.000000  0.000000  0.000000  1
  O  O10  1  0.425968  0.210035  0.557749  1
  O  O11  1  0.557749  0.425968  0.210035  1
  O  O12  1  0.210035  0.557749  0.425968  1
  O  O13  1  0.074510  0.943421  0.301710  1
  O  O14  1  0.301710  0.074510  0.943421  1
  O  O15  1  0.943421  0.301710  0.074510  1
  O  O16  1  0.574032  0.789965  0.442251  1
  O  O17  1  0.442251  0.574032  0.789965  1
  O  O18  1  0.789965  0.442251  0.574032  1
  O  O19  1  0.925490  0.056579  0.698290  1
  O  O20  1  0.056579  0.698290  0.925490  1
  O  O21  1  0.698290  0.925490  0.056579  1
