# generated using pymatgen
data_Nb12Ni8Sn3SbC4
_symmetry_space_group_name_H-M   'P 1'
_cell_length_a   8.31809703
_cell_length_b   8.31809781
_cell_length_c   8.31809748
_cell_angle_alpha   59.99136348
_cell_angle_beta   59.99135680
_cell_angle_gamma   59.99135682
_symmetry_Int_Tables_number   1
_chemical_formula_structural   Nb12Ni8Sn3SbC4
_chemical_formula_sum   'Nb12 Ni8 Sn3 Sb1 C4'
_cell_volume   406.88522147
_cell_formula_units_Z   1
loop_
 _symmetry_equiv_pos_site_id
 _symmetry_equiv_pos_as_xyz
  1  'x, y, z'
loop_
 _atom_site_type_symbol
 _atom_site_label
 _atom_site_symmetry_multiplicity
 _atom_site_fract_x
 _atom_site_fract_y
 _atom_site_fract_z
 _atom_site_occupancy
  Nb  Nb0  1  0.431708  0.067879  0.067879  1
  Nb  Nb1  1  0.067685  0.433036  0.433036  1
  Nb  Nb2  1  0.067879  0.431708  0.067879  1
  Nb  Nb3  1  0.067879  0.067879  0.431708  1
  Nb  Nb4  1  0.433036  0.067685  0.433036  1
  Nb  Nb5  1  0.433036  0.433036  0.067685  1
  Nb  Nb6  1  0.182121  0.818292  0.182121  1
  Nb  Nb7  1  0.816964  0.182315  0.816964  1
  Nb  Nb8  1  0.818292  0.182121  0.182121  1
  Nb  Nb9  1  0.182121  0.182121  0.818292  1
  Nb  Nb10  1  0.182315  0.816964  0.816964  1
  Nb  Nb11  1  0.816964  0.816964  0.182315  1
  Ni  Ni12  1  0.838524  0.838524  0.838524  1
  Ni  Ni13  1  0.835616  0.835616  0.488890  1
  Ni  Ni14  1  0.488890  0.835616  0.835616  1
  Ni  Ni15  1  0.835616  0.488890  0.835616  1
  Ni  Ni16  1  0.411476  0.411476  0.411476  1
  Ni  Ni17  1  0.414384  0.414384  0.761110  1
  Ni  Ni18  1  0.414384  0.761110  0.414384  1
  Ni  Ni19  1  0.761110  0.414384  0.414384  1
  Sn  Sn20  1  0.625000  0.625000  0.125000  1
  Sn  Sn21  1  0.125000  0.625000  0.625000  1
  Sn  Sn22  1  0.625000  0.125000  0.625000  1
  Sb  Sb23  1  0.625000  0.625000  0.625000  1
  C  C24  1  0.125000  0.625000  0.125000  1
  C  C25  1  0.625000  0.125000  0.125000  1
  C  C26  1  0.125000  0.125000  0.625000  1
  C  C27  1  0.125000  0.125000  0.125000  1
