# generated using pymatgen
data_Tb4Cu9Ni11Sn4
_symmetry_space_group_name_H-M   'P 1'
_cell_length_a   5.01647800
_cell_length_b   8.12016839
_cell_length_c   10.26032007
_cell_angle_alpha   90.08824716
_cell_angle_beta   90.00000000
_cell_angle_gamma   90.00000000
_symmetry_Int_Tables_number   1
_chemical_formula_structural   Tb4Cu9Ni11Sn4
_chemical_formula_sum   'Tb4 Cu9 Ni11 Sn4'
_cell_volume   417.95001083
_cell_formula_units_Z   1
loop_
 _symmetry_equiv_pos_site_id
 _symmetry_equiv_pos_as_xyz
  1  'x, y, z'
loop_
 _atom_site_type_symbol
 _atom_site_label
 _atom_site_symmetry_multiplicity
 _atom_site_fract_x
 _atom_site_fract_y
 _atom_site_fract_z
 _atom_site_occupancy
  Tb  Tb0  1  0.250000  0.756596  0.060013  1
  Tb  Tb1  1  0.750000  0.242876  0.939066  1
  Tb  Tb2  1  0.750000  0.747242  0.558531  1
  Tb  Tb3  1  0.250000  0.253960  0.435834  1
  Cu  Cu4  1  0.250000  0.814652  0.745124  1
  Cu  Cu5  1  0.750000  0.185550  0.255313  1
  Cu  Cu6  1  0.750000  0.685504  0.244661  1
  Cu  Cu7  1  0.250000  0.313801  0.756724  1
  Cu  Cu8  1  0.250000  0.919724  0.517429  1
  Cu  Cu9  1  0.750000  0.082066  0.482257  1
  Cu  Cu10  1  0.750000  0.580813  0.018490  1
  Cu  Cu11  1  0.250000  0.418682  0.983288  1
  Cu  Cu12  1  0.250000  0.557974  0.601332  1
  Ni  Ni13  1  0.502678  0.568016  0.810848  1
  Ni  Ni14  1  0.498777  0.430727  0.191305  1
  Ni  Ni15  1  0.498717  0.931984  0.308657  1
  Ni  Ni16  1  0.001223  0.430727  0.191305  1
  Ni  Ni17  1  0.501631  0.068147  0.691290  1
  Ni  Ni18  1  0.997322  0.568016  0.810848  1
  Ni  Ni19  1  0.998369  0.068147  0.691290  1
  Ni  Ni20  1  0.001283  0.931984  0.308657  1
  Ni  Ni21  1  0.750000  0.445404  0.401219  1
  Ni  Ni22  1  0.750000  0.945147  0.098714  1
  Ni  Ni23  1  0.250000  0.053728  0.901344  1
  Sn  Sn24  1  0.250000  0.640475  0.356084  1
  Sn  Sn25  1  0.750000  0.358912  0.641706  1
  Sn  Sn26  1  0.750000  0.859745  0.858224  1
  Sn  Sn27  1  0.250000  0.139402  0.140444  1
