# generated using pymatgen
data_K3V2Ag3Se8
_symmetry_space_group_name_H-M   'P 1'
_cell_length_a   13.03603238
_cell_length_b   13.03603252
_cell_length_c   14.67095583
_cell_angle_alpha   61.38323946
_cell_angle_beta   61.38323979
_cell_angle_gamma   26.68569648
_symmetry_Int_Tables_number   1
_chemical_formula_structural   K3V2Ag3Se8
_chemical_formula_sum   'K6 V4 Ag6 Se16'
_cell_volume   974.62643859
_cell_formula_units_Z   2
loop_
 _symmetry_equiv_pos_site_id
 _symmetry_equiv_pos_as_xyz
  1  'x, y, z'
loop_
 _atom_site_type_symbol
 _atom_site_label
 _atom_site_symmetry_multiplicity
 _atom_site_fract_x
 _atom_site_fract_y
 _atom_site_fract_z
 _atom_site_occupancy
  K  K0  1  0.632379  0.761362  0.396830  1
  K  K1  1  0.000000  0.000000  0.000000  1
  K  K2  1  0.761362  0.632379  0.896830  1
  K  K3  1  0.000000  0.000000  0.500000  1
  K  K4  1  0.238638  0.367621  0.103170  1
  K  K5  1  0.367621  0.238638  0.603170  1
  V  V6  1  0.583504  0.163115  0.278367  1
  V  V7  1  0.163115  0.583504  0.778367  1
  V  V8  1  0.836885  0.416496  0.221633  1
  V  V9  1  0.416496  0.836885  0.721633  1
  Ag  Ag10  1  0.288110  0.711890  0.750000  1
  Ag  Ag11  1  0.336270  0.916843  0.214757  1
  Ag  Ag12  1  0.916843  0.336270  0.714757  1
  Ag  Ag13  1  0.083157  0.663730  0.285243  1
  Ag  Ag14  1  0.711890  0.288110  0.250000  1
  Ag  Ag15  1  0.663730  0.083157  0.785243  1
  Se  Se16  1  0.456380  0.450040  0.650016  1
  Se  Se17  1  0.232059  0.083043  0.818150  1
  Se  Se18  1  0.450040  0.456380  0.150016  1
  Se  Se19  1  0.767941  0.916957  0.181850  1
  Se  Se20  1  0.549960  0.543620  0.849984  1
  Se  Se21  1  0.282271  0.295938  0.890138  1
  Se  Se22  1  0.704062  0.717729  0.609862  1
  Se  Se23  1  0.295938  0.282271  0.390138  1
  Se  Se24  1  0.916957  0.767941  0.681850  1
  Se  Se25  1  0.187733  0.013384  0.611685  1
  Se  Se26  1  0.717729  0.704062  0.109862  1
  Se  Se27  1  0.543620  0.549960  0.349984  1
  Se  Se28  1  0.986616  0.812267  0.888315  1
  Se  Se29  1  0.083043  0.232059  0.318150  1
  Se  Se30  1  0.812267  0.986616  0.388315  1
  Se  Se31  1  0.013384  0.187733  0.111685  1
