# generated using pymatgen
data_Ta8FeSiNiP
_symmetry_space_group_name_H-M   'P 1'
_cell_length_a   6.17688100
_cell_length_b   6.17688100
_cell_length_c   4.98949600
_cell_angle_alpha   90.00000000
_cell_angle_beta   90.00000000
_cell_angle_gamma   90.00000000
_symmetry_Int_Tables_number   1
_chemical_formula_structural   Ta8FeSiNiP
_chemical_formula_sum   'Ta8 Fe1 Si1 Ni1 P1'
_cell_volume   190.36852631
_cell_formula_units_Z   1
loop_
 _symmetry_equiv_pos_site_id
 _symmetry_equiv_pos_as_xyz
  1  'x, y, z'
loop_
 _atom_site_type_symbol
 _atom_site_label
 _atom_site_symmetry_multiplicity
 _atom_site_fract_x
 _atom_site_fract_y
 _atom_site_fract_z
 _atom_site_occupancy
  Ta  Ta0  1  0.656999  0.163960  0.497147  1
  Ta  Ta1  1  0.343001  0.836040  0.497147  1
  Ta  Ta2  1  0.836040  0.656999  0.497147  1
  Ta  Ta3  1  0.163960  0.343001  0.497147  1
  Ta  Ta4  1  0.343001  0.163960  0.002853  1
  Ta  Ta5  1  0.656999  0.836040  0.002853  1
  Ta  Ta6  1  0.163960  0.656999  0.002853  1
  Ta  Ta7  1  0.836040  0.343001  0.002853  1
  Fe  Fe8  1  0.500000  0.500000  0.250000  1
  Si  Si9  1  0.000000  0.000000  0.750000  1
  Ni  Ni10  1  0.000000  0.000000  0.250000  1
  P  P11  1  0.500000  0.500000  0.750000  1
