# generated using pymatgen
data_Tb4Al23GaPt9
_symmetry_space_group_name_H-M   'P 1'
_cell_length_a   7.54323153
_cell_length_b   7.56051482
_cell_length_c   13.18674944
_cell_angle_alpha   84.55508816
_cell_angle_beta   79.10258962
_cell_angle_gamma   59.94786976
_symmetry_Int_Tables_number   1
_chemical_formula_structural   Tb4Al23GaPt9
_chemical_formula_sum   'Tb4 Al23 Ga1 Pt9'
_cell_volume   639.21331388
_cell_formula_units_Z   1
loop_
 _symmetry_equiv_pos_site_id
 _symmetry_equiv_pos_as_xyz
  1  'x, y, z'
loop_
 _atom_site_type_symbol
 _atom_site_label
 _atom_site_symmetry_multiplicity
 _atom_site_fract_x
 _atom_site_fract_y
 _atom_site_fract_z
 _atom_site_occupancy
  Tb  Tb0  1  0.394564  0.166565  0.808758  1
  Tb  Tb1  1  0.607223  0.831682  0.190762  1
  Tb  Tb2  1  0.733184  0.500329  0.808581  1
  Tb  Tb3  1  0.266088  0.501709  0.192192  1
  Al  Al4  1  0.315688  0.165997  0.055755  1
  Al  Al5  1  0.147059  0.832655  0.561441  1
  Al  Al6  1  0.853430  0.167444  0.438610  1
  Al  Al7  1  0.479054  0.167338  0.558742  1
  Al  Al8  1  0.520209  0.833099  0.441447  1
  Al  Al9  1  0.217035  0.165150  0.330500  1
  Al  Al10  1  0.783928  0.834743  0.667839  1
  Al  Al11  1  0.437775  0.506079  0.669740  1
  Al  Al12  1  0.562411  0.493665  0.330399  1
  Al  Al13  1  0.109444  0.160322  0.668754  1
  Al  Al14  1  0.890280  0.840091  0.331361  1
  Al  Al15  1  0.352750  0.499572  0.944479  1
  Al  Al16  1  0.647483  0.500402  0.055764  1
  Al  Al17  1  0.015425  0.167396  0.953304  1
  Al  Al18  1  0.983860  0.832648  0.046242  1
  Al  Al19  1  0.186793  0.499039  0.441481  1
  Al  Al20  1  0.813039  0.500473  0.558783  1
  Al  Al21  1  0.735016  0.163143  0.184075  1
  Al  Al22  1  0.264219  0.836044  0.816430  1
  Al  Al23  1  0.062677  0.630470  0.815479  1
  Al  Al24  1  0.937757  0.368845  0.185238  1
  Al  Al25  1  0.855698  0.042689  0.816307  1
  Al  Al26  1  0.144423  0.958899  0.184493  1
  Ga  Ga27  1  0.684831  0.833784  0.939534  1
  Pt  Pt28  1  0.119686  0.492547  0.638747  1
  Pt  Pt29  1  0.879813  0.507832  0.361684  1
  Pt  Pt30  1  0.657272  0.174079  0.000627  1
  Pt  Pt31  1  0.339135  0.828630  0.000906  1
  Pt  Pt32  1  0.538068  0.166638  0.361687  1
  Pt  Pt33  1  0.461757  0.833313  0.638891  1
  Pt  Pt34  1  0.778986  0.174461  0.637240  1
  Pt  Pt35  1  0.221093  0.825163  0.363101  1
  Pt  Pt36  1  0.002845  0.497067  0.000629  1
