# generated using pymatgen
data_Tm16MgIn3Co3Cu
_symmetry_space_group_name_H-M   'P 1'
_cell_length_a   9.52127053
_cell_length_b   9.49960688
_cell_length_c   9.49960579
_cell_angle_alpha   59.44665041
_cell_angle_beta   59.69123102
_cell_angle_gamma   59.69123216
_symmetry_Int_Tables_number   1
_chemical_formula_structural   Tm16MgIn3Co3Cu
_chemical_formula_sum   'Tm16 Mg1 In3 Co3 Cu1'
_cell_volume   602.16599218
_cell_formula_units_Z   1
loop_
 _symmetry_equiv_pos_site_id
 _symmetry_equiv_pos_as_xyz
  1  'x, y, z'
loop_
 _atom_site_type_symbol
 _atom_site_label
 _atom_site_symmetry_multiplicity
 _atom_site_fract_x
 _atom_site_fract_y
 _atom_site_fract_z
 _atom_site_occupancy
  Tm  Tm0  1  0.342631  0.343830  0.343830  1
  Tm  Tm1  1  0.355122  0.353572  0.956607  1
  Tm  Tm2  1  0.355122  0.956607  0.353572  1
  Tm  Tm3  1  0.952122  0.356247  0.356247  1
  Tm  Tm4  1  0.798665  0.188969  0.188969  1
  Tm  Tm5  1  0.185864  0.812869  0.812869  1
  Tm  Tm6  1  0.185797  0.801514  0.187467  1
  Tm  Tm7  1  0.810371  0.189318  0.810410  1
  Tm  Tm8  1  0.185797  0.187467  0.801514  1
  Tm  Tm9  1  0.810371  0.810410  0.189318  1
  Tm  Tm10  1  0.937484  0.564577  0.564577  1
  Tm  Tm11  1  0.563067  0.938962  0.938962  1
  Tm  Tm12  1  0.564224  0.937888  0.562653  1
  Tm  Tm13  1  0.940729  0.562702  0.938549  1
  Tm  Tm14  1  0.564224  0.562653  0.937888  1
  Tm  Tm15  1  0.940729  0.938549  0.562702  1
  Mg  Mg16  1  0.269183  0.576121  0.576121  1
  In  In17  1  0.582802  0.584049  0.584049  1
  In  In18  1  0.581823  0.582216  0.251552  1
  In  In19  1  0.581823  0.251552  0.582216  1
  Co  Co20  1  0.137520  0.141658  0.575523  1
  Co  Co21  1  0.137520  0.575523  0.141658  1
  Co  Co22  1  0.575511  0.140732  0.140732  1
  Cu  Cu23  1  0.141498  0.142017  0.142017  1
