# generated using pymatgen
data_CaLa5PrCoI12
_symmetry_space_group_name_H-M   'P 1'
_cell_length_a   10.16885405
_cell_length_b   10.18086583
_cell_length_c   10.01966393
_cell_angle_alpha   107.27046993
_cell_angle_beta   106.71067213
_cell_angle_gamma   107.06919162
_symmetry_Int_Tables_number   1
_chemical_formula_structural   CaLa5PrCoI12
_chemical_formula_sum   'Ca1 La5 Pr1 Co1 I12'
_cell_volume   863.47228067
_cell_formula_units_Z   1
loop_
 _symmetry_equiv_pos_site_id
 _symmetry_equiv_pos_as_xyz
  1  'x, y, z'
loop_
 _atom_site_type_symbol
 _atom_site_label
 _atom_site_symmetry_multiplicity
 _atom_site_fract_x
 _atom_site_fract_y
 _atom_site_fract_z
 _atom_site_occupancy
  Ca  Ca0  1  0.500058  0.500853  0.500563  1
  La  La1  1  0.975109  0.903541  0.709311  1
  La  La2  1  0.025059  0.096326  0.290510  1
  La  La3  1  0.100952  0.306501  0.025592  1
  La  La4  1  0.309264  0.026580  0.102425  1
  La  La5  1  0.897064  0.692718  0.973916  1
  Pr  Pr6  1  0.695296  0.973178  0.898313  1
  Co  Co7  1  0.000548  0.999627  0.999987  1
  I  I8  1  0.536962  0.618786  0.840572  1
  I  I9  1  0.462531  0.384023  0.160166  1
  I  I10  1  0.320352  0.926525  0.771718  1
  I  I11  1  0.384430  0.163644  0.465399  1
  I  I12  1  0.927551  0.775881  0.322425  1
  I  I13  1  0.680175  0.072490  0.225282  1
  I  I14  1  0.072200  0.224261  0.677582  1
  I  I15  1  0.772752  0.316893  0.926349  1
  I  I16  1  0.224561  0.679922  0.072734  1
  I  I17  1  0.836494  0.535984  0.613178  1
  I  I18  1  0.163124  0.463995  0.386904  1
  I  I19  1  0.615517  0.838272  0.537075  1
