# generated using pymatgen
data_Li3Tb5(P3Ir4)4
_symmetry_space_group_name_H-M   'P 1'
_cell_length_a   12.71821500
_cell_length_b   12.71821451
_cell_length_c   3.98486300
_cell_angle_alpha   90.00000000
_cell_angle_beta   90.00000000
_cell_angle_gamma   119.99999868
_symmetry_Int_Tables_number   1
_chemical_formula_structural   Li3Tb5(P3Ir4)4
_chemical_formula_sum   'Li3 Tb5 P12 Ir16'
_cell_volume   558.20836506
_cell_formula_units_Z   1
loop_
 _symmetry_equiv_pos_site_id
 _symmetry_equiv_pos_as_xyz
  1  'x, y, z'
loop_
 _atom_site_type_symbol
 _atom_site_label
 _atom_site_symmetry_multiplicity
 _atom_site_fract_x
 _atom_site_fract_y
 _atom_site_fract_z
 _atom_site_occupancy
  Li  Li0  1  0.441704  0.000000  0.000000  1
  Li  Li1  1  0.000000  0.441704  0.000000  1
  Li  Li2  1  0.558296  0.558296  0.000000  1
  Tb  Tb3  1  0.333333  0.666667  0.000000  1
  Tb  Tb4  1  0.666667  0.333333  0.000000  1
  Tb  Tb5  1  0.808612  0.000000  0.500000  1
  Tb  Tb6  1  0.000000  0.808612  0.500000  1
  Tb  Tb7  1  0.191388  0.191388  0.500000  1
  P  P8  1  0.179545  0.000000  0.000000  1
  P  P9  1  0.000000  0.179545  0.000000  1
  P  P10  1  0.820455  0.820455  0.000000  1
  P  P11  1  0.171099  0.482919  0.500000  1
  P  P12  1  0.517081  0.688179  0.500000  1
  P  P13  1  0.311821  0.828901  0.500000  1
  P  P14  1  0.688179  0.517081  0.500000  1
  P  P15  1  0.828901  0.311821  0.500000  1
  P  P16  1  0.482919  0.171099  0.500000  1
  P  P17  1  0.629399  0.000000  0.000000  1
  P  P18  1  0.000000  0.629399  0.000000  1
  P  P19  1  0.370601  0.370601  0.000000  1
  Ir  Ir20  1  0.359355  0.490694  0.500000  1
  Ir  Ir21  1  0.509306  0.868661  0.500000  1
  Ir  Ir22  1  0.131339  0.640645  0.500000  1
  Ir  Ir23  1  0.868661  0.509306  0.500000  1
  Ir  Ir24  1  0.640645  0.131339  0.500000  1
  Ir  Ir25  1  0.490694  0.359355  0.500000  1
  Ir  Ir26  1  0.180389  0.372988  0.000000  1
  Ir  Ir27  1  0.627012  0.807402  0.000000  1
  Ir  Ir28  1  0.192598  0.819611  0.000000  1
  Ir  Ir29  1  0.807402  0.627012  0.000000  1
  Ir  Ir30  1  0.819611  0.192598  0.000000  1
  Ir  Ir31  1  0.372988  0.180389  0.000000  1
  Ir  Ir32  1  0.279895  0.000000  0.500000  1
  Ir  Ir33  1  0.000000  0.279895  0.500000  1
  Ir  Ir34  1  0.720105  0.720105  0.500000  1
  Ir  Ir35  1  0.000000  0.000000  0.000000  1
