# generated using pymatgen
data_Tb3HoNi13C4
_symmetry_space_group_name_H-M   'P 1'
_cell_length_a   8.39535247
_cell_length_b   8.39535268
_cell_length_c   3.84624600
_cell_angle_alpha   90.00000000
_cell_angle_beta   90.00000000
_cell_angle_gamma   91.21670812
_symmetry_Int_Tables_number   1
_chemical_formula_structural   Tb3HoNi13C4
_chemical_formula_sum   'Tb3 Ho1 Ni13 C4'
_cell_volume   271.02977657
_cell_formula_units_Z   1
loop_
 _symmetry_equiv_pos_site_id
 _symmetry_equiv_pos_as_xyz
  1  'x, y, z'
loop_
 _atom_site_type_symbol
 _atom_site_label
 _atom_site_symmetry_multiplicity
 _atom_site_fract_x
 _atom_site_fract_y
 _atom_site_fract_z
 _atom_site_occupancy
  Tb  Tb0  1  0.812741  0.187259  0.500000  1
  Tb  Tb1  1  0.651354  0.651955  0.500000  1
  Tb  Tb2  1  0.348045  0.348646  0.500000  1
  Ho  Ho3  1  0.187196  0.812804  0.500000  1
  Ni  Ni4  1  0.498897  0.999613  0.500000  1
  Ni  Ni5  1  0.000387  0.501103  0.500000  1
  Ni  Ni6  1  0.000657  0.999343  0.000000  1
  Ni  Ni7  1  0.430140  0.784648  0.000000  1
  Ni  Ni8  1  0.568635  0.215914  0.000000  1
  Ni  Ni9  1  0.215352  0.569860  0.000000  1
  Ni  Ni10  1  0.784086  0.431365  0.000000  1
  Ni  Ni11  1  0.708793  0.925894  0.000000  1
  Ni  Ni12  1  0.291205  0.072548  0.000000  1
  Ni  Ni13  1  0.074106  0.291207  0.000000  1
  Ni  Ni14  1  0.927452  0.708795  0.000000  1
  Ni  Ni15  1  0.877331  0.876422  0.500000  1
  Ni  Ni16  1  0.123578  0.122669  0.500000  1
  C  C17  1  0.442869  0.557131  0.000000  1
  C  C18  1  0.556631  0.443369  0.000000  1
  C  C19  1  0.500432  0.999886  0.000000  1
  C  C20  1  0.000114  0.499568  0.000000  1
