# generated using pymatgen
data_Tb8Hf11Si16Ag
_symmetry_space_group_name_H-M   'P 1'
_cell_length_a   7.30691000
_cell_length_b   7.30691000
_cell_length_c   13.32335692
_cell_angle_alpha   89.85362211
_cell_angle_beta   90.14637789
_cell_angle_gamma   89.80983145
_symmetry_Int_Tables_number   1
_chemical_formula_structural   Tb8Hf11Si16Ag
_chemical_formula_sum   'Tb8 Hf11 Si16 Ag1'
_cell_volume   711.33789087
_cell_formula_units_Z   1
loop_
 _symmetry_equiv_pos_site_id
 _symmetry_equiv_pos_as_xyz
  1  'x, y, z'
loop_
 _atom_site_type_symbol
 _atom_site_label
 _atom_site_symmetry_multiplicity
 _atom_site_fract_x
 _atom_site_fract_y
 _atom_site_fract_z
 _atom_site_occupancy
  Tb  Tb0  1  0.997849  0.344501  0.211426  1
  Tb  Tb1  1  0.004417  0.656706  0.716304  1
  Tb  Tb2  1  0.155675  0.495560  0.464932  1
  Tb  Tb3  1  0.499252  0.847459  0.033300  1
  Tb  Tb4  1  0.847459  0.499252  0.966700  1
  Tb  Tb5  1  0.495560  0.155675  0.535068  1
  Tb  Tb6  1  0.344501  0.997849  0.788574  1
  Tb  Tb7  1  0.656706  0.004417  0.283696  1
  Hf  Hf8  1  0.824971  0.824971  0.500000  1
  Hf  Hf9  1  0.323953  0.675589  0.249639  1
  Hf  Hf10  1  0.675589  0.323953  0.750361  1
  Hf  Hf11  1  0.146613  0.995603  0.374280  1
  Hf  Hf12  1  0.855925  0.003287  0.877628  1
  Hf  Hf13  1  0.504134  0.647524  0.625742  1
  Hf  Hf14  1  0.354087  0.491731  0.877561  1
  Hf  Hf15  1  0.491731  0.354087  0.122439  1
  Hf  Hf16  1  0.647524  0.504134  0.374258  1
  Hf  Hf17  1  0.995603  0.146613  0.625720  1
  Hf  Hf18  1  0.003287  0.855925  0.122372  1
  Si  Si19  1  0.360747  0.295492  0.316606  1
  Si  Si20  1  0.638300  0.704834  0.818988  1
  Si  Si21  1  0.206601  0.862115  0.568272  1
  Si  Si22  1  0.131879  0.778133  0.928806  1
  Si  Si23  1  0.778133  0.131879  0.071194  1
  Si  Si24  1  0.862115  0.206601  0.431728  1
  Si  Si25  1  0.295492  0.360747  0.683394  1
  Si  Si26  1  0.704834  0.638300  0.181012  1
  Si  Si27  1  0.296214  0.050033  0.189792  1
  Si  Si28  1  0.704435  0.951257  0.686314  1
  Si  Si29  1  0.450899  0.795386  0.435538  1
  Si  Si30  1  0.210079  0.564355  0.064570  1
  Si  Si31  1  0.564355  0.210079  0.935430  1
  Si  Si32  1  0.795386  0.450899  0.564462  1
  Si  Si33  1  0.050033  0.296214  0.810208  1
  Si  Si34  1  0.951257  0.704435  0.313686  1
  Ag  Ag35  1  0.174405  0.174405  0.000000  1
