# generated using pymatgen
data_PrNd(GeRh2)2
_symmetry_space_group_name_H-M   'P 1'
_cell_length_a   9.38970135
_cell_length_b   9.38970129
_cell_length_c   4.21246400
_cell_angle_alpha   90.00000000
_cell_angle_beta   90.00000000
_cell_angle_gamma   155.05248763
_symmetry_Int_Tables_number   1
_chemical_formula_structural   PrNd(GeRh2)2
_chemical_formula_sum   'Pr1 Nd1 Ge2 Rh4'
_cell_volume   156.65122863
_cell_formula_units_Z   1
loop_
 _symmetry_equiv_pos_site_id
 _symmetry_equiv_pos_as_xyz
  1  'x, y, z'
loop_
 _atom_site_type_symbol
 _atom_site_label
 _atom_site_symmetry_multiplicity
 _atom_site_fract_x
 _atom_site_fract_y
 _atom_site_fract_z
 _atom_site_occupancy
  Pr  Pr0  1  0.903061  0.096939  0.250000  1
  Nd  Nd1  1  0.097547  0.902453  0.750000  1
  Ge  Ge2  1  0.323708  0.676292  0.750000  1
  Ge  Ge3  1  0.675998  0.324002  0.250000  1
  Rh  Rh4  1  0.542954  0.457046  0.250000  1
  Rh  Rh5  1  0.457270  0.542730  0.750000  1
  Rh  Rh6  1  0.250146  0.749854  0.250000  1
  Rh  Rh7  1  0.749315  0.250685  0.750000  1
