# generated using pymatgen
data_Y3U(B4Ru)4
_symmetry_space_group_name_H-M   'P 1'
_cell_length_a   3.55628700
_cell_length_b   5.95894614
_cell_length_c   11.54286328
_cell_angle_alpha   89.97493841
_cell_angle_beta   90.00000000
_cell_angle_gamma   90.00000000
_symmetry_Int_Tables_number   1
_chemical_formula_structural   Y3U(B4Ru)4
_chemical_formula_sum   'Y3 U1 B16 Ru4'
_cell_volume   244.61313431
_cell_formula_units_Z   1
loop_
 _symmetry_equiv_pos_site_id
 _symmetry_equiv_pos_as_xyz
  1  'x, y, z'
loop_
 _atom_site_type_symbol
 _atom_site_label
 _atom_site_symmetry_multiplicity
 _atom_site_fract_x
 _atom_site_fract_y
 _atom_site_fract_z
 _atom_site_occupancy
  Y  Y0  1  0.000000  0.370191  0.650839  1
  Y  Y1  1  0.000000  0.128866  0.148215  1
  Y  Y2  1  0.000000  0.870978  0.850100  1
  U  U3  1  0.000000  0.629074  0.349645  1
  B  B4  1  0.500000  0.788531  0.187934  1
  B  B5  1  0.500000  0.210914  0.814830  1
  B  B6  1  0.500000  0.291092  0.313620  1
  B  B7  1  0.500000  0.712398  0.686288  1
  B  B8  1  0.500000  0.862569  0.031294  1
  B  B9  1  0.500000  0.135765  0.969166  1
  B  B10  1  0.500000  0.366487  0.468335  1
  B  B11  1  0.500000  0.635285  0.530445  1
  B  B12  1  0.500000  0.886280  0.452897  1
  B  B13  1  0.500000  0.111855  0.546912  1
  B  B14  1  0.500000  0.387205  0.046107  1
  B  B15  1  0.500000  0.611809  0.953653  1
  B  B16  1  0.500000  0.975386  0.307918  1
  B  B17  1  0.500000  0.023862  0.691487  1
  B  B18  1  0.500000  0.474799  0.192543  1
  B  B19  1  0.500000  0.524539  0.808381  1
  Ru  Ru20  1  0.000000  0.639720  0.095932  1
  Ru  Ru21  1  0.000000  0.362366  0.908212  1
  Ru  Ru22  1  0.000000  0.141925  0.405416  1
  Ru  Ru23  1  0.000000  0.858104  0.589831  1
