# generated using pymatgen
data_Tb3DySi4(NiRu)2
_symmetry_space_group_name_H-M   'P 1'
_cell_length_a   4.26661900
_cell_length_b   6.96579071
_cell_length_c   7.13042629
_cell_angle_alpha   91.45506069
_cell_angle_beta   90.00000000
_cell_angle_gamma   90.00000000
_symmetry_Int_Tables_number   1
_chemical_formula_structural   Tb3DySi4(NiRu)2
_chemical_formula_sum   'Tb3 Dy1 Si4 Ni2 Ru2'
_cell_volume   211.85060972
_cell_formula_units_Z   1
loop_
 _symmetry_equiv_pos_site_id
 _symmetry_equiv_pos_as_xyz
  1  'x, y, z'
loop_
 _atom_site_type_symbol
 _atom_site_label
 _atom_site_symmetry_multiplicity
 _atom_site_fract_x
 _atom_site_fract_y
 _atom_site_fract_z
 _atom_site_occupancy
  Tb  Tb0  1  0.250000  0.987865  0.800276  1
  Tb  Tb1  1  0.750000  0.012333  0.199881  1
  Tb  Tb2  1  0.250000  0.486911  0.679973  1
  Dy  Dy3  1  0.750000  0.513373  0.318689  1
  Si  Si4  1  0.250000  0.302222  0.098741  1
  Si  Si5  1  0.750000  0.697726  0.901978  1
  Si  Si6  1  0.250000  0.805108  0.396346  1
  Si  Si7  1  0.750000  0.195011  0.603387  1
  Ni  Ni8  1  0.750000  0.838452  0.575383  1
  Ni  Ni9  1  0.250000  0.161123  0.424255  1
  Ru  Ru10  1  0.750000  0.346268  0.930524  1
  Ru  Ru11  1  0.250000  0.653608  0.070568  1
