# generated using pymatgen
data_Hf6Ti(NbSn2)5
_symmetry_space_group_name_H-M   'P 1'
_cell_length_a   9.59100500
_cell_length_b   9.58609097
_cell_length_c   5.81021950
_cell_angle_alpha   90.23642170
_cell_angle_beta   90.00000000
_cell_angle_gamma   120.01695536
_symmetry_Int_Tables_number   1
_chemical_formula_structural   Hf6Ti(NbSn2)5
_chemical_formula_sum   'Hf6 Ti1 Nb5 Sn10'
_cell_volume   462.54040624
_cell_formula_units_Z   1
loop_
 _symmetry_equiv_pos_site_id
 _symmetry_equiv_pos_as_xyz
  1  'x, y, z'
loop_
 _atom_site_type_symbol
 _atom_site_label
 _atom_site_symmetry_multiplicity
 _atom_site_fract_x
 _atom_site_fract_y
 _atom_site_fract_z
 _atom_site_occupancy
  Hf  Hf0  1  0.845807  0.691614  0.748550  1
  Hf  Hf1  1  0.154034  0.845839  0.253135  1
  Hf  Hf2  1  0.691805  0.845839  0.253135  1
  Hf  Hf3  1  0.308195  0.154161  0.746865  1
  Hf  Hf4  1  0.845966  0.154161  0.746865  1
  Hf  Hf5  1  0.154193  0.308386  0.251450  1
  Ti  Ti6  1  0.500000  0.000000  0.000000  1
  Nb  Nb7  1  0.500000  0.000000  0.500000  1
  Nb  Nb8  1  0.500000  0.500000  0.000000  1
  Nb  Nb9  1  0.000000  0.500000  0.000000  1
  Nb  Nb10  1  0.000000  0.500000  0.500000  1
  Nb  Nb11  1  0.500000  0.500000  0.500000  1
  Sn  Sn12  1  0.209225  0.418450  0.750872  1
  Sn  Sn13  1  0.787996  0.208024  0.246277  1
  Sn  Sn14  1  0.420028  0.208024  0.246277  1
  Sn  Sn15  1  0.579972  0.791976  0.753723  1
  Sn  Sn16  1  0.212004  0.791976  0.753723  1
  Sn  Sn17  1  0.790775  0.581550  0.249128  1
  Sn  Sn18  1  0.666497  0.332993  0.747622  1
  Sn  Sn19  1  0.333503  0.667007  0.252378  1
  Sn  Sn20  1  0.000000  0.000000  0.500000  1
  Sn  Sn21  1  0.000000  0.000000  0.000000  1
