# generated using pymatgen
data_SrTbGa3SiIr4
_symmetry_space_group_name_H-M   'P 1'
_cell_length_a   4.26608000
_cell_length_b   4.26608000
_cell_length_c   10.18282600
_cell_angle_alpha   90.00000000
_cell_angle_beta   90.00000000
_cell_angle_gamma   90.00000000
_symmetry_Int_Tables_number   1
_chemical_formula_structural   SrTbGa3SiIr4
_chemical_formula_sum   'Sr1 Tb1 Ga3 Si1 Ir4'
_cell_volume   185.32171622
_cell_formula_units_Z   1
loop_
 _symmetry_equiv_pos_site_id
 _symmetry_equiv_pos_as_xyz
  1  'x, y, z'
loop_
 _atom_site_type_symbol
 _atom_site_label
 _atom_site_symmetry_multiplicity
 _atom_site_fract_x
 _atom_site_fract_y
 _atom_site_fract_z
 _atom_site_occupancy
  Sr  Sr0  1  0.500000  0.000000  0.754827  1
  Tb  Tb1  1  0.000000  0.500000  0.243940  1
  Ga  Ga2  1  0.000000  0.000000  0.492309  1
  Ga  Ga3  1  0.500000  0.500000  0.492309  1
  Ga  Ga4  1  0.000000  0.500000  0.876922  1
  Si  Si5  1  0.500000  0.000000  0.124962  1
  Ir  Ir6  1  0.000000  0.000000  0.017402  1
  Ir  Ir7  1  0.500000  0.500000  0.017402  1
  Ir  Ir8  1  0.000000  0.500000  0.625309  1
  Ir  Ir9  1  0.500000  0.000000  0.354619  1
