# generated using pymatgen
data_Ho16Sc4(IrRh3)3
_symmetry_space_group_name_H-M   'P 1'
_cell_length_a   10.71134348
_cell_length_b   10.71134348
_cell_length_c   6.28674185
_cell_angle_alpha   90.06240444
_cell_angle_beta   90.06240444
_cell_angle_gamma   89.93202825
_symmetry_Int_Tables_number   1
_chemical_formula_structural   Ho16Sc4(IrRh3)3
_chemical_formula_sum   'Ho16 Sc4 Ir3 Rh9'
_cell_volume   721.29463099
_cell_formula_units_Z   1
loop_
 _symmetry_equiv_pos_site_id
 _symmetry_equiv_pos_as_xyz
  1  'x, y, z'
loop_
 _atom_site_type_symbol
 _atom_site_label
 _atom_site_symmetry_multiplicity
 _atom_site_fract_x
 _atom_site_fract_y
 _atom_site_fract_z
 _atom_site_occupancy
  Ho  Ho0  1  0.288004  0.087617  0.377351  1
  Ho  Ho1  1  0.288187  0.912191  0.877588  1
  Ho  Ho2  1  0.712143  0.086011  0.877640  1
  Ho  Ho3  1  0.711964  0.912419  0.377312  1
  Ho  Ho4  1  0.584859  0.786658  0.878500  1
  Ho  Ho5  1  0.584772  0.212730  0.377559  1
  Ho  Ho6  1  0.415299  0.787004  0.377774  1
  Ho  Ho7  1  0.413597  0.212808  0.878591  1
  Ho  Ho8  1  0.213342  0.415141  0.621500  1
  Ho  Ho9  1  0.212996  0.584701  0.122226  1
  Ho  Ho10  1  0.787270  0.415228  0.122441  1
  Ho  Ho11  1  0.787192  0.586403  0.621409  1
  Ho  Ho12  1  0.912383  0.711996  0.122649  1
  Ho  Ho13  1  0.913989  0.287857  0.622360  1
  Ho  Ho14  1  0.087809  0.711813  0.622412  1
  Ho  Ho15  1  0.087581  0.288036  0.122688  1
  Sc  Sc16  1  0.999966  0.999950  0.499642  1
  Sc  Sc17  1  0.000050  0.000034  0.000358  1
  Sc  Sc18  1  0.499443  0.500417  0.000603  1
  Sc  Sc19  1  0.499583  0.500557  0.499397  1
  Ir  Ir20  1  0.649599  0.648665  0.250016  1
  Ir  Ir21  1  0.351335  0.350401  0.249984  1
  Ir  Ir22  1  0.350662  0.649338  0.750000  1
  Rh  Rh23  1  0.851669  0.148331  0.250000  1
  Rh  Rh24  1  0.852218  0.852251  0.749994  1
  Rh  Rh25  1  0.147749  0.147782  0.750006  1
  Rh  Rh26  1  0.147661  0.852339  0.250000  1
  Rh  Rh27  1  0.649406  0.350594  0.750000  1
  Rh  Rh28  1  0.500129  0.000456  0.122289  1
  Rh  Rh29  1  0.500161  0.000559  0.622637  1
  Rh  Rh30  1  0.999441  0.499839  0.877363  1
  Rh  Rh31  1  0.999544  0.499871  0.377711  1
