# generated using pymatgen
data_Bi4Ir3RhSe4
_symmetry_space_group_name_H-M   'P 1'
_cell_length_a   6.39120654
_cell_length_b   6.39120654
_cell_length_c   6.39120654
_cell_angle_alpha   90.07221544
_cell_angle_beta   90.07221544
_cell_angle_gamma   90.07221544
_symmetry_Int_Tables_number   1
_chemical_formula_structural   Bi4Ir3RhSe4
_chemical_formula_sum   'Bi4 Ir3 Rh1 Se4'
_cell_volume   261.06432096
_cell_formula_units_Z   1
loop_
 _symmetry_equiv_pos_site_id
 _symmetry_equiv_pos_as_xyz
  1  'x, y, z'
loop_
 _atom_site_type_symbol
 _atom_site_label
 _atom_site_symmetry_multiplicity
 _atom_site_fract_x
 _atom_site_fract_y
 _atom_site_fract_z
 _atom_site_occupancy
  Bi  Bi0  1  0.130233  0.631588  0.869847  1
  Bi  Bi1  1  0.631588  0.869847  0.130233  1
  Bi  Bi2  1  0.869847  0.130233  0.631588  1
  Bi  Bi3  1  0.369205  0.369205  0.369205  1
  Ir  Ir4  1  0.485753  0.985179  0.514505  1
  Ir  Ir5  1  0.985179  0.514505  0.485753  1
  Ir  Ir6  1  0.514505  0.485753  0.985179  1
  Rh  Rh7  1  0.014547  0.014547  0.014547  1
  Se  Se8  1  0.877185  0.380499  0.120662  1
  Se  Se9  1  0.380499  0.120662  0.877185  1
  Se  Se10  1  0.120662  0.877185  0.380499  1
  Se  Se11  1  0.620798  0.620798  0.620798  1
