# generated using pymatgen
data_CdBiSb5(SO8)2
_symmetry_space_group_name_H-M   'P 1'
_cell_length_a   5.73496115
_cell_length_b   7.99768080
_cell_length_c   9.46710225
_cell_angle_alpha   95.54931804
_cell_angle_beta   97.03496654
_cell_angle_gamma   108.63517552
_symmetry_Int_Tables_number   1
_chemical_formula_structural   CdBiSb5(SO8)2
_chemical_formula_sum   'Cd1 Bi1 Sb5 S2 O16'
_cell_volume   404.07665947
_cell_formula_units_Z   1
loop_
 _symmetry_equiv_pos_site_id
 _symmetry_equiv_pos_as_xyz
  1  'x, y, z'
loop_
 _atom_site_type_symbol
 _atom_site_label
 _atom_site_symmetry_multiplicity
 _atom_site_fract_x
 _atom_site_fract_y
 _atom_site_fract_z
 _atom_site_occupancy
  Cd  Cd0  1  0.028030  0.478385  0.525488  1
  Bi  Bi1  1  0.688400  0.512925  0.805217  1
  Sb  Sb2  1  0.311449  0.479633  0.220341  1
  Sb  Sb3  1  0.644640  0.829609  0.530461  1
  Sb  Sb4  1  0.364918  0.162648  0.474177  1
  Sb  Sb5  1  0.337610  0.862732  0.801799  1
  Sb  Sb6  1  0.673454  0.144564  0.199380  1
  S  S7  1  0.128843  0.232843  0.842374  1
  S  S8  1  0.856147  0.773865  0.143524  1
  O  O9  1  0.020409  0.671380  0.714208  1
  O  O10  1  0.990031  0.331513  0.299596  1
  O  O11  1  0.525291  0.703850  0.709139  1
  O  O12  1  0.473440  0.302973  0.293942  1
  O  O13  1  0.040795  0.040191  0.778245  1
  O  O14  1  0.938268  0.968763  0.206117  1
  O  O15  1  0.657816  0.355302  0.593093  1
  O  O16  1  0.351629  0.624355  0.417173  1
  O  O17  1  0.349742  0.271484  0.956559  1
  O  O18  1  0.647274  0.735276  0.020073  1
  O  O19  1  0.420953  0.958644  0.613204  1
  O  O20  1  0.579650  0.037330  0.379687  1
  O  O21  1  0.219565  0.345416  0.725460  1
  O  O22  1  0.759978  0.665182  0.258812  1
  O  O23  1  0.923922  0.280446  0.896857  1
  O  O24  1  0.067743  0.730689  0.095075  1
