# generated using pymatgen
data_La4TmLu5Si8
_symmetry_space_group_name_H-M   'P 1'
_cell_length_a   7.75514000
_cell_length_b   7.75429725
_cell_length_c   14.24634646
_cell_angle_alpha   89.97073131
_cell_angle_beta   90.00000000
_cell_angle_gamma   90.00000000
_symmetry_Int_Tables_number   1
_chemical_formula_structural   La4TmLu5Si8
_chemical_formula_sum   'La8 Tm2 Lu10 Si16'
_cell_volume   856.71334683
_cell_formula_units_Z   2
loop_
 _symmetry_equiv_pos_site_id
 _symmetry_equiv_pos_as_xyz
  1  'x, y, z'
loop_
 _atom_site_type_symbol
 _atom_site_label
 _atom_site_symmetry_multiplicity
 _atom_site_fract_x
 _atom_site_fract_y
 _atom_site_fract_z
 _atom_site_occupancy
  La  La0  1  0.991202  0.644070  0.039500  1
  La  La1  1  0.008702  0.356010  0.539647  1
  La  La2  1  0.644062  0.991221  0.960446  1
  La  La3  1  0.144062  0.508779  0.789554  1
  La  La4  1  0.856012  0.491333  0.289502  1
  La  La5  1  0.508702  0.143990  0.210353  1
  La  La6  1  0.491202  0.855930  0.710500  1
  La  La7  1  0.356012  0.008667  0.460498  1
  Tm  Tm8  1  0.359719  0.493892  0.375006  1
  Tm  Tm9  1  0.859719  0.006108  0.374994  1
  Lu  Lu10  1  0.994020  0.140274  0.124947  1
  Lu  Lu11  1  0.005932  0.859671  0.625042  1
  Lu  Lu12  1  0.640319  0.505972  0.874975  1
  Lu  Lu13  1  0.494020  0.359726  0.625053  1
  Lu  Lu14  1  0.505932  0.640329  0.124958  1
  Lu  Lu15  1  0.140319  0.994028  0.875025  1
  Lu  Lu16  1  0.681947  0.681790  0.500067  1
  Lu  Lu17  1  0.818184  0.181855  0.750002  1
  Lu  Lu18  1  0.181947  0.818210  0.249933  1
  Lu  Lu19  1  0.318184  0.318145  0.999998  1
  Si  Si20  1  0.063173  0.712649  0.437011  1
  Si  Si21  1  0.936803  0.287263  0.936846  1
  Si  Si22  1  0.712650  0.063295  0.563304  1
  Si  Si23  1  0.212651  0.436705  0.186696  1
  Si  Si24  1  0.787256  0.563168  0.686862  1
  Si  Si25  1  0.436803  0.212738  0.813154  1
  Si  Si26  1  0.563173  0.787351  0.312989  1
  Si  Si27  1  0.287256  0.936832  0.063138  1
  Si  Si28  1  0.850444  0.796445  0.810660  1
  Si  Si29  1  0.149668  0.203572  0.310420  1
  Si  Si30  1  0.796307  0.850299  0.189187  1
  Si  Si31  1  0.296307  0.649701  0.560813  1
  Si  Si32  1  0.703599  0.350453  0.060631  1
  Si  Si33  1  0.649668  0.296428  0.439580  1
  Si  Si34  1  0.350444  0.703555  0.939340  1
  Si  Si35  1  0.203599  0.149547  0.689369  1
