# generated using pymatgen
data_ErTh3Al3(Ga5Ir2)3
_symmetry_space_group_name_H-M   'P 1'
_cell_length_a   7.67563777
_cell_length_b   7.68810590
_cell_length_c   9.47628101
_cell_angle_alpha   89.97593875
_cell_angle_beta   89.97519251
_cell_angle_gamma   119.70778572
_symmetry_Int_Tables_number   1
_chemical_formula_structural   ErTh3Al3(Ga5Ir2)3
_chemical_formula_sum   'Er1 Th3 Al3 Ga15 Ir6'
_cell_volume   485.70605522
_cell_formula_units_Z   1
loop_
 _symmetry_equiv_pos_site_id
 _symmetry_equiv_pos_as_xyz
  1  'x, y, z'
loop_
 _atom_site_type_symbol
 _atom_site_label
 _atom_site_symmetry_multiplicity
 _atom_site_fract_x
 _atom_site_fract_y
 _atom_site_fract_z
 _atom_site_occupancy
  Er  Er0  1  0.328310  0.001832  0.749372  1
  Th  Th1  1  0.998729  0.670868  0.250043  1
  Th  Th2  1  0.999997  0.330086  0.748842  1
  Th  Th3  1  0.670555  0.997895  0.250077  1
  Al  Al4  1  0.660856  0.660795  0.452136  1
  Al  Al5  1  0.665101  0.664973  0.048189  1
  Al  Al6  1  0.334634  0.330795  0.946023  1
  Ga  Ga7  1  0.136953  0.133260  0.249286  1
  Ga  Ga8  1  0.871573  0.869949  0.749388  1
  Ga  Ga9  1  0.004686  0.335476  0.078772  1
  Ga  Ga10  1  0.002324  0.671048  0.917658  1
  Ga  Ga11  1  0.001621  0.671240  0.582241  1
  Ga  Ga12  1  0.335611  0.005031  0.425893  1
  Ga  Ga13  1  0.006795  0.335759  0.419018  1
  Ga  Ga14  1  0.657625  0.995528  0.582420  1
  Ga  Ga15  1  0.658171  0.996423  0.917602  1
  Ga  Ga16  1  0.335454  0.002938  0.071964  1
  Ga  Ga17  1  0.332541  0.327302  0.567395  1
  Ga  Ga18  1  0.350888  0.547118  0.249875  1
  Ga  Ga19  1  0.651381  0.448309  0.750153  1
  Ga  Ga20  1  0.547008  0.347007  0.249918  1
  Ga  Ga21  1  0.453294  0.658489  0.749922  1
  Ir  Ir22  1  0.672070  0.331376  0.999478  1
  Ir  Ir23  1  0.328630  0.667392  0.999519  1
  Ir  Ir24  1  0.328145  0.670811  0.499110  1
  Ir  Ir25  1  0.675974  0.331359  0.499204  1
  Ir  Ir26  1  0.998372  0.000977  0.999511  1
  Ir  Ir27  1  0.992709  0.995964  0.496990  1
