# generated using pymatgen
data_Y5Er15(Bi2Sb)4
_symmetry_space_group_name_H-M   'P 1'
_cell_length_a   8.13661786
_cell_length_b   9.41546331
_cell_length_c   11.90789200
_cell_angle_alpha   89.98890044
_cell_angle_beta   90.02630082
_cell_angle_gamma   90.00952857
_symmetry_Int_Tables_number   1
_chemical_formula_structural   Y5Er15(Bi2Sb)4
_chemical_formula_sum   'Y5 Er15 Bi8 Sb4'
_cell_volume   912.26380032
_cell_formula_units_Z   1
loop_
 _symmetry_equiv_pos_site_id
 _symmetry_equiv_pos_as_xyz
  1  'x, y, z'
loop_
 _atom_site_type_symbol
 _atom_site_label
 _atom_site_symmetry_multiplicity
 _atom_site_fract_x
 _atom_site_fract_y
 _atom_site_fract_z
 _atom_site_occupancy
  Y  Y0  1  0.188810  0.562346  0.441705  1
  Y  Y1  1  0.315780  0.249961  0.217654  1
  Y  Y2  1  0.815945  0.249958  0.282148  1
  Y  Y3  1  0.684238  0.750126  0.782393  1
  Y  Y4  1  0.184242  0.750339  0.718070  1
  Er  Er5  1  0.353545  0.750422  0.214235  1
  Er  Er6  1  0.852640  0.750367  0.285456  1
  Er  Er7  1  0.647056  0.250175  0.785593  1
  Er  Er8  1  0.147141  0.250283  0.714408  1
  Er  Er9  1  0.688832  0.563706  0.058219  1
  Er  Er10  1  0.188852  0.936119  0.441611  1
  Er  Er11  1  0.311088  0.063736  0.941821  1
  Er  Er12  1  0.811295  0.436132  0.558214  1
  Er  Er13  1  0.311244  0.436338  0.941760  1
  Er  Er14  1  0.810592  0.063486  0.558498  1
  Er  Er15  1  0.688894  0.936373  0.058131  1
  Er  Er16  1  0.473123  0.250031  0.488204  1
  Er  Er17  1  0.972966  0.250174  0.011728  1
  Er  Er18  1  0.527351  0.750183  0.511872  1
  Er  Er19  1  0.027034  0.750063  0.988114  1
  Bi  Bi20  1  0.565700  0.995236  0.325956  1
  Bi  Bi21  1  0.065534  0.505112  0.173877  1
  Bi  Bi22  1  0.434378  0.495161  0.674166  1
  Bi  Bi23  1  0.934292  0.005173  0.825949  1
  Bi  Bi24  1  0.434360  0.005102  0.674037  1
  Bi  Bi25  1  0.934150  0.495137  0.825953  1
  Bi  Bi26  1  0.566049  0.505047  0.325886  1
  Bi  Bi27  1  0.065673  0.995106  0.173957  1
  Sb  Sb28  1  0.406144  0.749968  0.959116  1
  Sb  Sb29  1  0.905887  0.750296  0.540935  1
  Sb  Sb30  1  0.593858  0.250049  0.040820  1
  Sb  Sb31  1  0.093310  0.248293  0.459512  1
