# generated using pymatgen
data_Rb8Tb6IrBr20
_symmetry_space_group_name_H-M   'P 1'
_cell_length_a   12.42900878
_cell_length_b   12.42900901
_cell_length_c   12.42900800
_cell_angle_alpha   59.99999736
_cell_angle_beta   59.99999676
_cell_angle_gamma   59.99999690
_symmetry_Int_Tables_number   1
_chemical_formula_structural   Rb8Tb6IrBr20
_chemical_formula_sum   'Rb8 Tb6 Ir1 Br20'
_cell_volume   1357.67067610
_cell_formula_units_Z   1
loop_
 _symmetry_equiv_pos_site_id
 _symmetry_equiv_pos_as_xyz
  1  'x, y, z'
loop_
 _atom_site_type_symbol
 _atom_site_label
 _atom_site_symmetry_multiplicity
 _atom_site_fract_x
 _atom_site_fract_y
 _atom_site_fract_z
 _atom_site_occupancy
  Rb  Rb0  1  0.358906  0.358906  0.358906  1
  Rb  Rb1  1  0.641094  0.641094  0.641094  1
  Rb  Rb2  1  0.358906  0.358906  0.923283  1
  Rb  Rb3  1  0.358906  0.923283  0.358906  1
  Rb  Rb4  1  0.641094  0.641094  0.076717  1
  Rb  Rb5  1  0.641094  0.076717  0.641094  1
  Rb  Rb6  1  0.923283  0.358906  0.358906  1
  Rb  Rb7  1  0.076717  0.641094  0.641094  1
  Tb  Tb8  1  0.843217  0.156783  0.156783  1
  Tb  Tb9  1  0.156783  0.843217  0.843217  1
  Tb  Tb10  1  0.156783  0.843217  0.156783  1
  Tb  Tb11  1  0.843217  0.156783  0.843217  1
  Tb  Tb12  1  0.156783  0.156783  0.843217  1
  Tb  Tb13  1  0.843217  0.843217  0.156783  1
  Ir  Ir14  1  0.000000  0.000000  0.000000  1
  Br  Br15  1  0.331114  0.000000  0.000000  1
  Br  Br16  1  0.668886  0.000000  0.000000  1
  Br  Br17  1  0.000000  0.331114  0.668886  1
  Br  Br18  1  0.000000  0.668886  0.331114  1
  Br  Br19  1  0.000000  0.331114  0.000000  1
  Br  Br20  1  0.668886  0.000000  0.331114  1
  Br  Br21  1  0.000000  0.668886  0.000000  1
  Br  Br22  1  0.331114  0.000000  0.668886  1
  Br  Br23  1  0.000000  0.000000  0.331114  1
  Br  Br24  1  0.000000  0.000000  0.668886  1
  Br  Br25  1  0.668886  0.331114  0.000000  1
  Br  Br26  1  0.331114  0.668886  0.000000  1
  Br  Br27  1  0.678714  0.321286  0.321286  1
  Br  Br28  1  0.321286  0.678714  0.678714  1
  Br  Br29  1  0.321286  0.678714  0.321286  1
  Br  Br30  1  0.678714  0.321286  0.678714  1
  Br  Br31  1  0.321286  0.321286  0.678714  1
  Br  Br32  1  0.678714  0.678714  0.321286  1
  Br  Br33  1  0.250000  0.250000  0.250000  1
  Br  Br34  1  0.750000  0.750000  0.750000  1
