# generated using pymatgen
data_Pr20(Ga3Pb)3
_symmetry_space_group_name_H-M   'P 1'
_cell_length_a   8.11598100
_cell_length_b   8.11598100
_cell_length_c   14.45724400
_cell_angle_alpha   90.00000000
_cell_angle_beta   90.00000000
_cell_angle_gamma   90.00000000
_symmetry_Int_Tables_number   1
_chemical_formula_structural   Pr20(Ga3Pb)3
_chemical_formula_sum   'Pr20 Ga9 Pb3'
_cell_volume   952.28633881
_cell_formula_units_Z   1
loop_
 _symmetry_equiv_pos_site_id
 _symmetry_equiv_pos_as_xyz
  1  'x, y, z'
loop_
 _atom_site_type_symbol
 _atom_site_label
 _atom_site_symmetry_multiplicity
 _atom_site_fract_x
 _atom_site_fract_y
 _atom_site_fract_z
 _atom_site_occupancy
  Pr  Pr0  1  0.000000  0.500000  0.730772  1
  Pr  Pr1  1  0.000000  0.500000  0.211324  1
  Pr  Pr2  1  0.500000  0.000000  0.271572  1
  Pr  Pr3  1  0.500000  0.000000  0.779210  1
  Pr  Pr4  1  0.823520  0.838735  0.608821  1
  Pr  Pr5  1  0.173770  0.835999  0.104867  1
  Pr  Pr6  1  0.158995  0.822042  0.389452  1
  Pr  Pr7  1  0.841005  0.177958  0.389452  1
  Pr  Pr8  1  0.677958  0.658995  0.389452  1
  Pr  Pr9  1  0.661265  0.323520  0.608821  1
  Pr  Pr10  1  0.338735  0.676480  0.608821  1
  Pr  Pr11  1  0.664001  0.673770  0.104867  1
  Pr  Pr12  1  0.685628  0.344118  0.898273  1
  Pr  Pr13  1  0.844118  0.814372  0.898273  1
  Pr  Pr14  1  0.322042  0.341005  0.389452  1
  Pr  Pr15  1  0.176480  0.161265  0.608821  1
  Pr  Pr16  1  0.826230  0.164001  0.104867  1
  Pr  Pr17  1  0.314372  0.655882  0.898273  1
  Pr  Pr18  1  0.335999  0.326230  0.104867  1
  Pr  Pr19  1  0.155882  0.185628  0.898273  1
  Ga  Ga20  1  0.623051  0.375669  0.247507  1
  Ga  Ga21  1  0.122866  0.878430  0.752354  1
  Ga  Ga22  1  0.378430  0.377134  0.752354  1
  Ga  Ga23  1  0.376949  0.624331  0.247507  1
  Ga  Ga24  1  0.875669  0.876949  0.247507  1
  Ga  Ga25  1  0.621570  0.622866  0.752354  1
  Ga  Ga26  1  0.877134  0.121570  0.752354  1
  Ga  Ga27  1  0.124331  0.123051  0.247507  1
  Ga  Ga28  1  0.000000  0.500000  0.998037  1
  Pb  Pb29  1  0.000000  0.500000  0.501590  1
  Pb  Pb30  1  0.500000  0.000000  0.497990  1
  Pb  Pb31  1  0.500000  0.000000  0.004410  1
