# generated using pymatgen
data_YTm7(Tc3Ge4)4
_symmetry_space_group_name_H-M   'P 1'
_cell_length_a   6.96279533
_cell_length_b   6.91915058
_cell_length_c   12.85931340
_cell_angle_alpha   90.04003212
_cell_angle_beta   89.99648591
_cell_angle_gamma   90.03957044
_symmetry_Int_Tables_number   1
_chemical_formula_structural   YTm7(Tc3Ge4)4
_chemical_formula_sum   'Y1 Tm7 Tc12 Ge16'
_cell_volume   619.51807576
_cell_formula_units_Z   1
loop_
 _symmetry_equiv_pos_site_id
 _symmetry_equiv_pos_as_xyz
  1  'x, y, z'
loop_
 _atom_site_type_symbol
 _atom_site_label
 _atom_site_symmetry_multiplicity
 _atom_site_fract_x
 _atom_site_fract_y
 _atom_site_fract_z
 _atom_site_occupancy
  Y  Y0  1  0.985307  0.165094  0.091939  1
  Tm  Tm1  1  0.483330  0.333960  0.092332  1
  Tm  Tm2  1  0.983171  0.166067  0.407486  1
  Tm  Tm3  1  0.516417  0.666703  0.592131  1
  Tm  Tm4  1  0.017104  0.833292  0.907173  1
  Tm  Tm5  1  0.517107  0.665314  0.907150  1
  Tm  Tm6  1  0.017084  0.834527  0.592400  1
  Tm  Tm7  1  0.483689  0.334007  0.408043  1
  Tc  Tc8  1  0.677235  0.989379  0.749445  1
  Tc  Tc9  1  0.176460  0.511399  0.749886  1
  Tc  Tc10  1  0.323422  0.010756  0.250435  1
  Tc  Tc11  1  0.822464  0.489697  0.250780  1
  Tc  Tc12  1  0.826037  0.357113  0.623721  1
  Tc  Tc13  1  0.327310  0.143110  0.876243  1
  Tc  Tc14  1  0.174392  0.642485  0.123209  1
  Tc  Tc15  1  0.674324  0.856856  0.377065  1
  Tc  Tc16  1  0.174887  0.642778  0.377242  1
  Tc  Tc17  1  0.672741  0.855692  0.123740  1
  Tc  Tc18  1  0.822972  0.358563  0.875693  1
  Tc  Tc19  1  0.324415  0.142676  0.623326  1
  Ge  Ge20  1  0.819703  0.644831  0.749470  1
  Ge  Ge21  1  0.320179  0.856152  0.749921  1
  Ge  Ge22  1  0.181002  0.356837  0.250930  1
  Ge  Ge23  1  0.679098  0.143798  0.250348  1
  Ge  Ge24  1  0.525852  0.350954  0.749014  1
  Ge  Ge25  1  0.026513  0.149788  0.750794  1
  Ge  Ge26  1  0.473075  0.649164  0.250456  1
  Ge  Ge27  1  0.973022  0.848995  0.250823  1
  Ge  Ge28  1  0.667709  0.054051  0.550576  1
  Ge  Ge29  1  0.167880  0.446399  0.948624  1
  Ge  Ge30  1  0.334117  0.944813  0.050260  1
  Ge  Ge31  1  0.832296  0.553801  0.449786  1
  Ge  Ge32  1  0.332032  0.946622  0.449480  1
  Ge  Ge33  1  0.832005  0.554841  0.050558  1
  Ge  Ge34  1  0.667842  0.053050  0.948937  1
  Ge  Ge35  1  0.167810  0.446433  0.550584  1
