# generated using pymatgen
data_ScTiCo3P7Ru9
_symmetry_space_group_name_H-M   'P 1'
_cell_length_a   9.25448500
_cell_length_b   9.25448639
_cell_length_c   3.75672600
_cell_angle_alpha   90.00000000
_cell_angle_beta   90.00000000
_cell_angle_gamma   119.99999147
_symmetry_Int_Tables_number   1
_chemical_formula_structural   ScTiCo3P7Ru9
_chemical_formula_sum   'Sc1 Ti1 Co3 P7 Ru9'
_cell_volume   278.64083727
_cell_formula_units_Z   1
loop_
 _symmetry_equiv_pos_site_id
 _symmetry_equiv_pos_as_xyz
  1  'x, y, z'
loop_
 _atom_site_type_symbol
 _atom_site_label
 _atom_site_symmetry_multiplicity
 _atom_site_fract_x
 _atom_site_fract_y
 _atom_site_fract_z
 _atom_site_occupancy
  Sc  Sc0  1  0.000000  0.000000  0.000000  1
  Ti  Ti1  1  0.333333  0.666667  0.500000  1
  Co  Co2  1  0.824766  0.607047  0.000000  1
  Co  Co3  1  0.392953  0.217719  0.000000  1
  Co  Co4  1  0.782281  0.175234  0.000000  1
  P  P5  1  0.787277  0.738063  0.500000  1
  P  P6  1  0.261937  0.049214  0.500000  1
  P  P7  1  0.950786  0.212723  0.500000  1
  P  P8  1  0.666667  0.333333  0.000000  1
  P  P9  1  0.080797  0.635306  0.000000  1
  P  P10  1  0.364694  0.445491  0.000000  1
  P  P11  1  0.554509  0.919203  0.000000  1
  Ru  Ru12  1  0.098633  0.403827  0.000000  1
  Ru  Ru13  1  0.596173  0.694805  0.000000  1
  Ru  Ru14  1  0.305195  0.901367  0.000000  1
  Ru  Ru15  1  0.052327  0.771918  0.500000  1
  Ru  Ru16  1  0.228082  0.280409  0.500000  1
  Ru  Ru17  1  0.719591  0.947673  0.500000  1
  Ru  Ru18  1  0.874768  0.419371  0.500000  1
  Ru  Ru19  1  0.580629  0.455396  0.500000  1
  Ru  Ru20  1  0.544604  0.125232  0.500000  1
