# generated using pymatgen
data_Pr7ThInPd24
_symmetry_space_group_name_H-M   'P 1'
_cell_length_a   8.57515914
_cell_length_b   8.57515914
_cell_length_c   8.57515914
_cell_angle_alpha   89.86930033
_cell_angle_beta   89.86930033
_cell_angle_gamma   89.86930033
_symmetry_Int_Tables_number   1
_chemical_formula_structural   Pr7ThInPd24
_chemical_formula_sum   'Pr7 Th1 In1 Pd24'
_cell_volume   630.55530132
_cell_formula_units_Z   1
loop_
 _symmetry_equiv_pos_site_id
 _symmetry_equiv_pos_as_xyz
  1  'x, y, z'
loop_
 _atom_site_type_symbol
 _atom_site_label
 _atom_site_symmetry_multiplicity
 _atom_site_fract_x
 _atom_site_fract_y
 _atom_site_fract_z
 _atom_site_occupancy
  Pr  Pr0  1  0.748571  0.748571  0.748571  1
  Pr  Pr1  1  0.748779  0.748779  0.251251  1
  Pr  Pr2  1  0.748779  0.251251  0.748779  1
  Pr  Pr3  1  0.251110  0.251110  0.749650  1
  Pr  Pr4  1  0.251110  0.749650  0.251110  1
  Pr  Pr5  1  0.251251  0.748779  0.748779  1
  Pr  Pr6  1  0.749650  0.251110  0.251110  1
  Th  Th7  1  0.252698  0.252698  0.252698  1
  In  In8  1  0.998710  0.998710  0.998710  1
  Pd  Pd9  1  0.266523  0.498330  0.003502  1
  Pd  Pd10  1  0.733338  0.499353  0.000142  1
  Pd  Pd11  1  0.003502  0.266523  0.498330  1
  Pd  Pd12  1  0.498330  0.266523  0.003502  1
  Pd  Pd13  1  0.000142  0.733338  0.499353  1
  Pd  Pd14  1  0.499353  0.733338  0.000142  1
  Pd  Pd15  1  0.498330  0.003502  0.266523  1
  Pd  Pd16  1  0.266523  0.003502  0.498330  1
  Pd  Pd17  1  0.499353  0.000142  0.733338  1
  Pd  Pd18  1  0.733338  0.000142  0.499353  1
  Pd  Pd19  1  0.003502  0.498330  0.266523  1
  Pd  Pd20  1  0.000142  0.499353  0.733338  1
  Pd  Pd21  1  0.255352  0.497741  0.497741  1
  Pd  Pd22  1  0.745075  0.499518  0.499518  1
  Pd  Pd23  1  0.497741  0.255352  0.497741  1
  Pd  Pd24  1  0.499518  0.745075  0.499518  1
  Pd  Pd25  1  0.497741  0.497741  0.255352  1
  Pd  Pd26  1  0.499518  0.499518  0.745075  1
  Pd  Pd27  1  0.312817  0.001922  0.001922  1
  Pd  Pd28  1  0.685396  0.999982  0.999982  1
  Pd  Pd29  1  0.001922  0.312817  0.001922  1
  Pd  Pd30  1  0.999982  0.685396  0.999982  1
  Pd  Pd31  1  0.001922  0.001922  0.312817  1
  Pd  Pd32  1  0.999982  0.999982  0.685396  1
