# generated using pymatgen
data_YHoTc2C3
_symmetry_space_group_name_H-M   'P 1'
_cell_length_a   6.04144562
_cell_length_b   6.04144727
_cell_length_c   5.67835934
_cell_angle_alpha   67.25966560
_cell_angle_beta   67.25965629
_cell_angle_gamma   32.03814109
_symmetry_Int_Tables_number   1
_chemical_formula_structural   YHoTc2C3
_chemical_formula_sum   'Y1 Ho1 Tc2 C3'
_cell_volume   100.66200286
_cell_formula_units_Z   1
loop_
 _symmetry_equiv_pos_site_id
 _symmetry_equiv_pos_as_xyz
  1  'x, y, z'
loop_
 _atom_site_type_symbol
 _atom_site_label
 _atom_site_symmetry_multiplicity
 _atom_site_fract_x
 _atom_site_fract_y
 _atom_site_fract_z
 _atom_site_occupancy
  Y  Y0  1  0.391246  0.391246  0.821564  1
  Ho  Ho1  1  0.609535  0.609535  0.176197  1
  Tc  Tc2  1  0.158216  0.158216  0.679509  1
  Tc  Tc3  1  0.841846  0.841846  0.320705  1
  C  C4  1  0.752562  0.752562  0.729191  1
  C  C5  1  0.246113  0.246113  0.271788  1
  C  C6  1  0.000481  0.000481  0.001045  1
