# generated using pymatgen
data_Ho2Si7(PdPt3)3
_symmetry_space_group_name_H-M   'P 1'
_cell_length_a   9.94444100
_cell_length_b   9.94444165
_cell_length_c   3.93334600
_cell_angle_alpha   90.00000000
_cell_angle_beta   90.00000000
_cell_angle_gamma   120.00000115
_symmetry_Int_Tables_number   1
_chemical_formula_structural   Ho2Si7(PdPt3)3
_chemical_formula_sum   'Ho2 Si7 Pd3 Pt9'
_cell_volume   336.86319028
_cell_formula_units_Z   1
loop_
 _symmetry_equiv_pos_site_id
 _symmetry_equiv_pos_as_xyz
  1  'x, y, z'
loop_
 _atom_site_type_symbol
 _atom_site_label
 _atom_site_symmetry_multiplicity
 _atom_site_fract_x
 _atom_site_fract_y
 _atom_site_fract_z
 _atom_site_occupancy
  Ho  Ho0  1  0.000000  0.000000  0.000000  1
  Ho  Ho1  1  0.333333  0.666667  0.500000  1
  Si  Si2  1  0.265426  0.214710  0.500000  1
  Si  Si3  1  0.785290  0.050717  0.500000  1
  Si  Si4  1  0.949283  0.734574  0.500000  1
  Si  Si5  1  0.553112  0.636302  0.000000  1
  Si  Si6  1  0.363698  0.916810  0.000000  1
  Si  Si7  1  0.083190  0.446888  0.000000  1
  Si  Si8  1  0.666667  0.333333  0.000000  1
  Pd  Pd9  1  0.884117  0.459751  0.500000  1
  Pd  Pd10  1  0.575635  0.115883  0.500000  1
  Pd  Pd11  1  0.540249  0.424365  0.500000  1
  Pt  Pt12  1  0.212936  0.940435  0.500000  1
  Pt  Pt13  1  0.059565  0.272503  0.500000  1
  Pt  Pt14  1  0.727497  0.787064  0.500000  1
  Pt  Pt15  1  0.306495  0.413141  0.000000  1
  Pt  Pt16  1  0.586859  0.893354  0.000000  1
  Pt  Pt17  1  0.106646  0.693505  0.000000  1
  Pt  Pt18  1  0.388932  0.170606  0.000000  1
  Pt  Pt19  1  0.829394  0.218326  0.000000  1
  Pt  Pt20  1  0.781674  0.611068  0.000000  1
