# generated using pymatgen
data_Tb2Ho8Ga3NiBi2
_symmetry_space_group_name_H-M   'P 1'
_cell_length_a   8.53199204
_cell_length_b   8.53199231
_cell_length_c   8.72456006
_cell_angle_alpha   124.15283549
_cell_angle_beta   124.15283641
_cell_angle_gamma   81.48047018
_symmetry_Int_Tables_number   1
_chemical_formula_structural   Tb2Ho8Ga3NiBi2
_chemical_formula_sum   'Tb2 Ho8 Ga3 Ni1 Bi2'
_cell_volume   421.80182205
_cell_formula_units_Z   1
loop_
 _symmetry_equiv_pos_site_id
 _symmetry_equiv_pos_as_xyz
  1  'x, y, z'
loop_
 _atom_site_type_symbol
 _atom_site_label
 _atom_site_symmetry_multiplicity
 _atom_site_fract_x
 _atom_site_fract_y
 _atom_site_fract_z
 _atom_site_occupancy
  Tb  Tb0  1  0.704933  0.515907  0.500000  1
  Tb  Tb1  1  0.984093  0.795067  0.500000  1
  Ho  Ho2  1  0.994148  0.996929  0.991078  1
  Ho  Ho3  1  0.503071  0.505852  0.008922  1
  Ho  Ho4  1  0.779193  0.296193  0.794709  1
  Ho  Ho5  1  0.203807  0.720807  0.205291  1
  Ho  Ho6  1  0.484484  0.001485  0.205291  1
  Ho  Ho7  1  0.303486  0.458842  0.500000  1
  Ho  Ho8  1  0.041158  0.196514  0.500000  1
  Ho  Ho9  1  0.498515  0.015516  0.794709  1
  Ga  Ga10  1  0.147852  0.644727  0.792578  1
  Ga  Ga11  1  0.855273  0.352148  0.207422  1
  Ga  Ga12  1  0.633724  0.866276  0.500000  1
  Ni  Ni13  1  0.377413  0.122587  0.500000  1
  Bi  Bi14  1  0.244424  0.255576  0.000000  1
  Bi  Bi15  1  0.744424  0.755576  0.000000  1
