# generated using pymatgen
data_Er2Sn4Ir3
_symmetry_space_group_name_H-M   'P 1'
_cell_length_a   7.04872038
_cell_length_b   7.65175300
_cell_length_c   4.14116800
_cell_angle_alpha   90.00000000
_cell_angle_beta   90.00000000
_cell_angle_gamma   122.87280297
_symmetry_Int_Tables_number   1
_chemical_formula_structural   Er2Sn4Ir3
_chemical_formula_sum   'Er2 Sn4 Ir3'
_cell_volume   187.59016881
_cell_formula_units_Z   1
loop_
 _symmetry_equiv_pos_site_id
 _symmetry_equiv_pos_as_xyz
  1  'x, y, z'
loop_
 _atom_site_type_symbol
 _atom_site_label
 _atom_site_symmetry_multiplicity
 _atom_site_fract_x
 _atom_site_fract_y
 _atom_site_fract_z
 _atom_site_occupancy
  Er  Er0  1  0.415733  0.403671  0.500000  1
  Er  Er1  1  0.584267  0.987938  0.500000  1
  Sn  Sn2  1  0.000000  0.610845  0.500000  1
  Sn  Sn3  1  0.720317  0.738776  0.000000  1
  Sn  Sn4  1  0.279683  0.018459  0.000000  1
  Sn  Sn5  1  0.000000  0.234845  0.000000  1
  Ir  Ir6  1  0.714878  0.367836  0.000000  1
  Ir  Ir7  1  0.285122  0.652960  0.000000  1
  Ir  Ir8  1  0.000000  0.984671  0.500000  1
