# generated using pymatgen
data_TbNd3Zn2Rh3
_symmetry_space_group_name_H-M   'P 1'
_cell_length_a   7.56991700
_cell_length_b   7.56255080
_cell_length_c   4.02329800
_cell_angle_alpha   90.00000000
_cell_angle_beta   90.00000000
_cell_angle_gamma   120.03223048
_symmetry_Int_Tables_number   1
_chemical_formula_structural   TbNd3Zn2Rh3
_chemical_formula_sum   'Tb1 Nd3 Zn2 Rh3'
_cell_volume   199.40273728
_cell_formula_units_Z   1
loop_
 _symmetry_equiv_pos_site_id
 _symmetry_equiv_pos_as_xyz
  1  'x, y, z'
loop_
 _atom_site_type_symbol
 _atom_site_label
 _atom_site_symmetry_multiplicity
 _atom_site_fract_x
 _atom_site_fract_y
 _atom_site_fract_z
 _atom_site_occupancy
  Tb  Tb0  1  0.235610  0.000000  0.000000  1
  Nd  Nd1  1  0.618610  0.000000  0.500000  1
  Nd  Nd2  1  0.423032  0.448568  0.500000  1
  Nd  Nd3  1  0.974464  0.551432  0.500000  1
  Zn  Zn4  1  0.756949  0.748480  0.000000  1
  Zn  Zn5  1  0.008469  0.251520  0.000000  1
  Rh  Rh6  1  0.990695  0.000000  0.500000  1
  Rh  Rh7  1  0.332928  0.673686  0.000000  1
  Rh  Rh8  1  0.659243  0.326314  0.000000  1
