# generated using pymatgen
data_H2CN6
_symmetry_space_group_name_H-M   'P 1'
_cell_length_a   4.85547422
_cell_length_b   6.62924844
_cell_length_c   6.37048728
_cell_angle_alpha   115.89595080
_cell_angle_beta   94.77026456
_cell_angle_gamma   107.13136473
_symmetry_Int_Tables_number   1
_chemical_formula_structural   H2CN6
_chemical_formula_sum   'H2 C1 N6'
_cell_volume   170.84588736
_cell_formula_units_Z   1
loop_
 _symmetry_equiv_pos_site_id
 _symmetry_equiv_pos_as_xyz
  1  'x, y, z'
loop_
 _atom_site_type_symbol
 _atom_site_label
 _atom_site_symmetry_multiplicity
 _atom_site_fract_x
 _atom_site_fract_y
 _atom_site_fract_z
 _atom_site_occupancy
  H  H0  1  0.268764  0.218829  0.759921  1
  H  H1  1  0.380709  0.075021  0.899941  1
  C  C2  1  0.976151  0.105774  0.924446  1
  N  N3  1  0.655647  0.712507  0.243062  1
  N  N4  1  0.205244  0.103435  0.827439  1
  N  N5  1  0.764032  0.099106  0.001665  1
  N  N6  1  0.679764  0.420543  0.645373  1
  N  N7  1  0.921831  0.480963  0.653984  1
  N  N8  1  0.503147  0.764730  0.359899  1
