# generated using pymatgen
data_Ba2SrMnGa2F14
_symmetry_space_group_name_H-M   'P 1'
_cell_length_a   7.52283119
_cell_length_b   7.52283105
_cell_length_c   15.41193912
_cell_angle_alpha   88.34786732
_cell_angle_beta   88.34786628
_cell_angle_gamma   42.90145209
_symmetry_Int_Tables_number   1
_chemical_formula_structural   Ba2SrMnGa2F14
_chemical_formula_sum   'Ba4 Sr2 Mn2 Ga4 F28'
_cell_volume   593.46123001
_cell_formula_units_Z   2
loop_
 _symmetry_equiv_pos_site_id
 _symmetry_equiv_pos_as_xyz
  1  'x, y, z'
loop_
 _atom_site_type_symbol
 _atom_site_label
 _atom_site_symmetry_multiplicity
 _atom_site_fract_x
 _atom_site_fract_y
 _atom_site_fract_z
 _atom_site_occupancy
  Ba  Ba0  1  0.648793  0.736925  0.881271  1
  Ba  Ba1  1  0.351207  0.263075  0.118729  1
  Ba  Ba2  1  0.263075  0.351207  0.618729  1
  Ba  Ba3  1  0.736925  0.648793  0.381271  1
  Sr  Sr4  1  0.941695  0.058305  0.750000  1
  Sr  Sr5  1  0.058305  0.941695  0.250000  1
  Mn  Mn6  1  0.000000  0.000000  0.500000  1
  Mn  Mn7  1  0.000000  0.000000  0.000000  1
  Ga  Ga8  1  0.613715  0.627859  0.621233  1
  Ga  Ga9  1  0.386285  0.372141  0.378767  1
  Ga  Ga10  1  0.372141  0.386285  0.878767  1
  Ga  Ga11  1  0.627859  0.613715  0.121233  1
  F  F12  1  0.563627  0.422055  0.654683  1
  F  F13  1  0.436373  0.577945  0.345317  1
  F  F14  1  0.577945  0.436373  0.845317  1
  F  F15  1  0.422055  0.563627  0.154683  1
  F  F16  1  0.669449  0.080251  0.947944  1
  F  F17  1  0.330551  0.919749  0.052056  1
  F  F18  1  0.919749  0.330551  0.552056  1
  F  F19  1  0.080251  0.669449  0.447944  1
  F  F20  1  0.531549  0.141623  0.781543  1
  F  F21  1  0.468451  0.858377  0.218457  1
  F  F22  1  0.858377  0.468451  0.718457  1
  F  F23  1  0.141623  0.531549  0.281543  1
  F  F24  1  0.695238  0.802758  0.582400  1
  F  F25  1  0.304762  0.197242  0.417600  1
  F  F26  1  0.197242  0.304762  0.917600  1
  F  F27  1  0.802758  0.695238  0.082400  1
  F  F28  1  0.345418  0.914844  0.694039  1
  F  F29  1  0.654582  0.085156  0.305961  1
  F  F30  1  0.085156  0.654582  0.805961  1
  F  F31  1  0.914844  0.345418  0.194039  1
  F  F32  1  0.407785  0.760701  0.517699  1
  F  F33  1  0.592215  0.239299  0.482301  1
  F  F34  1  0.239299  0.592215  0.982301  1
  F  F35  1  0.760701  0.407785  0.017699  1
  F  F36  1  0.848430  0.019813  0.117869  1
  F  F37  1  0.151570  0.980187  0.882131  1
  F  F38  1  0.980187  0.151570  0.382131  1
  F  F39  1  0.019813  0.848430  0.617869  1
