# generated using pymatgen
data_Sm4Y2CoBr10
_symmetry_space_group_name_H-M   'P 1'
_cell_length_a   7.44312320
_cell_length_b   9.21740899
_cell_length_c   9.40313141
_cell_angle_alpha   108.03470371
_cell_angle_beta   96.31816936
_cell_angle_gamma   104.86176493
_symmetry_Int_Tables_number   1
_chemical_formula_structural   Sm4Y2CoBr10
_chemical_formula_sum   'Sm4 Y2 Co1 Br10'
_cell_volume   580.16457961
_cell_formula_units_Z   1
loop_
 _symmetry_equiv_pos_site_id
 _symmetry_equiv_pos_as_xyz
  1  'x, y, z'
loop_
 _atom_site_type_symbol
 _atom_site_label
 _atom_site_symmetry_multiplicity
 _atom_site_fract_x
 _atom_site_fract_y
 _atom_site_fract_z
 _atom_site_occupancy
  Sm  Sm0  1  0.466602  0.785298  0.589137  1
  Sm  Sm1  1  0.533398  0.214702  0.410863  1
  Sm  Sm2  1  0.372645  0.451055  0.744378  1
  Sm  Sm3  1  0.627355  0.548945  0.255622  1
  Y  Y4  1  0.853447  0.629030  0.673507  1
  Y  Y5  1  0.146553  0.370970  0.326493  1
  Co  Co6  1  0.500000  0.500000  0.500000  1
  Br  Br7  1  0.413174  0.128481  0.671124  1
  Br  Br8  1  0.586826  0.871519  0.328876  1
  Br  Br9  1  0.048537  0.679619  0.416446  1
  Br  Br10  1  0.951463  0.320381  0.583554  1
  Br  Br11  1  0.269711  0.751328  0.841824  1
  Br  Br12  1  0.730289  0.248672  0.158176  1
  Br  Br13  1  0.251617  0.417089  0.050247  1
  Br  Br14  1  0.748383  0.582911  0.949753  1
  Br  Br15  1  0.848909  0.945954  0.769295  1
  Br  Br16  1  0.151091  0.054046  0.230705  1
