# generated using pymatgen
data_CsPu(BH4)3
_symmetry_space_group_name_H-M   'P 1'
_cell_length_a   6.14118800
_cell_length_b   7.92242500
_cell_length_c   7.93981200
_cell_angle_alpha   90.00000000
_cell_angle_beta   90.00000000
_cell_angle_gamma   90.00000000
_symmetry_Int_Tables_number   1
_chemical_formula_structural   CsPu(BH4)3
_chemical_formula_sum   'Cs2 Pu2 B6 H24'
_cell_volume   386.29647786
_cell_formula_units_Z   2
loop_
 _symmetry_equiv_pos_site_id
 _symmetry_equiv_pos_as_xyz
  1  'x, y, z'
loop_
 _atom_site_type_symbol
 _atom_site_label
 _atom_site_symmetry_multiplicity
 _atom_site_fract_x
 _atom_site_fract_y
 _atom_site_fract_z
 _atom_site_occupancy
  Cs  Cs0  1  0.475416  0.500000  0.000000  1
  Cs  Cs1  1  0.524584  0.000000  0.500000  1
  Pu  Pu2  1  0.008033  0.500000  0.500000  1
  Pu  Pu3  1  0.991967  0.000000  0.000000  1
  B  B4  1  0.942460  0.721570  0.768175  1
  B  B5  1  0.942460  0.278430  0.231825  1
  B  B6  1  0.057540  0.221570  0.731825  1
  B  B7  1  0.057540  0.778430  0.268175  1
  B  B8  1  0.508170  0.000000  0.000000  1
  B  B9  1  0.491830  0.500000  0.500000  1
  H  H10  1  0.934747  0.566903  0.787687  1
  H  H11  1  0.934747  0.433097  0.212313  1
  H  H12  1  0.065253  0.066903  0.712313  1
  H  H13  1  0.065253  0.933097  0.287687  1
  H  H14  1  0.909255  0.761771  0.620067  1
  H  H15  1  0.909255  0.238229  0.379933  1
  H  H16  1  0.090745  0.261771  0.879933  1
  H  H17  1  0.090745  0.738229  0.120067  1
  H  H18  1  0.796465  0.784210  0.854690  1
  H  H19  1  0.796465  0.215790  0.145310  1
  H  H20  1  0.203535  0.284210  0.645310  1
  H  H21  1  0.203535  0.715790  0.354690  1
  H  H22  1  0.123210  0.774082  0.811059  1
  H  H23  1  0.123210  0.225918  0.188941  1
  H  H24  1  0.876790  0.274082  0.688941  1
  H  H25  1  0.876790  0.725918  0.311059  1
  H  H26  1  0.624706  0.919311  0.099904  1
  H  H27  1  0.624706  0.080689  0.900096  1
  H  H28  1  0.375294  0.419311  0.400096  1
  H  H29  1  0.375294  0.580689  0.599904  1
  H  H30  1  0.394651  0.900037  0.919969  1
  H  H31  1  0.394651  0.099963  0.080031  1
  H  H32  1  0.605349  0.400037  0.580031  1
  H  H33  1  0.605349  0.599963  0.419969  1
