# generated using pymatgen
data_Dy5Tm7(TcRh)2
_symmetry_space_group_name_H-M   'P 1'
_cell_length_a   6.27162474
_cell_length_b   7.30417035
_cell_length_c   9.11183497
_cell_angle_alpha   89.96163875
_cell_angle_beta   89.77490904
_cell_angle_gamma   89.96285477
_symmetry_Int_Tables_number   1
_chemical_formula_structural   Dy5Tm7(TcRh)2
_chemical_formula_sum   'Dy5 Tm7 Tc2 Rh2'
_cell_volume   417.40078721
_cell_formula_units_Z   1
loop_
 _symmetry_equiv_pos_site_id
 _symmetry_equiv_pos_as_xyz
  1  'x, y, z'
loop_
 _atom_site_type_symbol
 _atom_site_label
 _atom_site_symmetry_multiplicity
 _atom_site_fract_x
 _atom_site_fract_y
 _atom_site_fract_z
 _atom_site_occupancy
  Dy  Dy0  1  0.171711  0.177147  0.066794  1
  Dy  Dy1  1  0.872453  0.538401  0.250517  1
  Dy  Dy2  1  0.628062  0.037664  0.250900  1
  Dy  Dy3  1  0.135868  0.459750  0.749208  1
  Dy  Dy4  1  0.364170  0.959310  0.749275  1
  Tm  Tm5  1  0.330846  0.677004  0.067490  1
  Tm  Tm6  1  0.169949  0.176850  0.433889  1
  Tm  Tm7  1  0.663078  0.323891  0.560218  1
  Tm  Tm8  1  0.835355  0.823024  0.939007  1
  Tm  Tm9  1  0.664629  0.323424  0.939558  1
  Tm  Tm10  1  0.834945  0.822751  0.559985  1
  Tm  Tm11  1  0.329272  0.677696  0.433017  1
  Tc  Tc12  1  0.038845  0.885531  0.250501  1
  Tc  Tc13  1  0.462056  0.386399  0.251006  1
  Rh  Rh14  1  0.947838  0.115305  0.747577  1
  Rh  Rh15  1  0.550923  0.615851  0.751058  1
