# generated using pymatgen
data_TbSmPa2(Al3Rh)6
_symmetry_space_group_name_H-M   'P 1'
_cell_length_a   7.61443616
_cell_length_b   7.61287401
_cell_length_c   9.41771500
_cell_angle_alpha   90.00000000
_cell_angle_beta   90.00000000
_cell_angle_gamma   119.57635850
_symmetry_Int_Tables_number   1
_chemical_formula_structural   TbSmPa2(Al3Rh)6
_chemical_formula_sum   'Tb1 Sm1 Pa2 Al18 Rh6'
_cell_volume   474.78910032
_cell_formula_units_Z   1
loop_
 _symmetry_equiv_pos_site_id
 _symmetry_equiv_pos_as_xyz
  1  'x, y, z'
loop_
 _atom_site_type_symbol
 _atom_site_label
 _atom_site_symmetry_multiplicity
 _atom_site_fract_x
 _atom_site_fract_y
 _atom_site_fract_z
 _atom_site_occupancy
  Tb  Tb0  1  0.329487  0.006374  0.750000  1
  Sm  Sm1  1  0.670316  0.993613  0.250000  1
  Pa  Pa2  1  0.997168  0.671476  0.250000  1
  Pa  Pa3  1  0.002835  0.328457  0.750000  1
  Al  Al4  1  0.130944  0.127057  0.250000  1
  Al  Al5  1  0.869868  0.873215  0.750000  1
  Al  Al6  1  0.001200  0.333385  0.076662  1
  Al  Al7  1  0.999528  0.667300  0.922845  1
  Al  Al8  1  0.999528  0.667300  0.577155  1
  Al  Al9  1  0.337022  0.002610  0.425310  1
  Al  Al10  1  0.001200  0.333385  0.423338  1
  Al  Al11  1  0.662272  0.997355  0.575797  1
  Al  Al12  1  0.662272  0.997355  0.924203  1
  Al  Al13  1  0.337022  0.002610  0.074690  1
  Al  Al14  1  0.334594  0.333290  0.551906  1
  Al  Al15  1  0.665392  0.666151  0.448682  1
  Al  Al16  1  0.665392  0.666151  0.051318  1
  Al  Al17  1  0.334594  0.333290  0.948094  1
  Al  Al18  1  0.339361  0.548114  0.250000  1
  Al  Al19  1  0.660047  0.451020  0.750000  1
  Al  Al20  1  0.550208  0.343004  0.250000  1
  Al  Al21  1  0.449507  0.657332  0.750000  1
  Rh  Rh22  1  0.675043  0.329707  0.999453  1
  Rh  Rh23  1  0.324678  0.670311  0.000070  1
  Rh  Rh24  1  0.324678  0.670311  0.499930  1
  Rh  Rh25  1  0.675043  0.329707  0.500547  1
  Rh  Rh26  1  0.000400  0.000058  0.999687  1
  Rh  Rh27  1  0.000400  0.000058  0.500313  1
