# generated using pymatgen
data_CaErTh2(Al3Rh)6
_symmetry_space_group_name_H-M   'P 1'
_cell_length_a   7.60671321
_cell_length_b   7.60806272
_cell_length_c   9.52179900
_cell_angle_alpha   90.00000000
_cell_angle_beta   90.00000000
_cell_angle_gamma   119.30888911
_symmetry_Int_Tables_number   1
_chemical_formula_structural   CaErTh2(Al3Rh)6
_chemical_formula_sum   'Ca1 Er1 Th2 Al18 Rh6'
_cell_volume   480.51096564
_cell_formula_units_Z   1
loop_
 _symmetry_equiv_pos_site_id
 _symmetry_equiv_pos_as_xyz
  1  'x, y, z'
loop_
 _atom_site_type_symbol
 _atom_site_label
 _atom_site_symmetry_multiplicity
 _atom_site_fract_x
 _atom_site_fract_y
 _atom_site_fract_z
 _atom_site_occupancy
  Ca  Ca0  1  0.005451  0.327260  0.250000  1
  Er  Er1  1  0.327432  0.004570  0.250000  1
  Th  Th2  1  0.994148  0.670517  0.750000  1
  Th  Th3  1  0.672483  0.994890  0.750000  1
  Al  Al4  1  0.134563  0.134693  0.750000  1
  Al  Al5  1  0.874369  0.872667  0.250000  1
  Al  Al6  1  0.006041  0.335998  0.568477  1
  Al  Al7  1  0.000642  0.664085  0.418024  1
  Al  Al8  1  0.000642  0.664085  0.081976  1
  Al  Al9  1  0.335798  0.005486  0.930670  1
  Al  Al10  1  0.006041  0.335998  0.931523  1
  Al  Al11  1  0.663934  0.000433  0.081746  1
  Al  Al12  1  0.663934  0.000433  0.418254  1
  Al  Al13  1  0.335798  0.005486  0.569330  1
  Al  Al14  1  0.331774  0.331572  0.055711  1
  Al  Al15  1  0.663320  0.663425  0.960678  1
  Al  Al16  1  0.663320  0.663425  0.539322  1
  Al  Al17  1  0.331774  0.331572  0.444289  1
  Al  Al18  1  0.340132  0.544354  0.750000  1
  Al  Al19  1  0.655863  0.446485  0.250000  1
  Al  Al20  1  0.544277  0.339558  0.750000  1
  Al  Al21  1  0.448432  0.662075  0.250000  1
  Rh  Rh22  1  0.671619  0.328218  0.501888  1
  Rh  Rh23  1  0.329356  0.674464  0.501616  1
  Rh  Rh24  1  0.329356  0.674464  0.998384  1
  Rh  Rh25  1  0.671619  0.328218  0.998112  1
  Rh  Rh26  1  0.998941  0.997786  0.501756  1
  Rh  Rh27  1  0.998941  0.997786  0.998244  1
