# generated using pymatgen
data_Y6Zn21Ag2Ge
_symmetry_space_group_name_H-M   'P 1'
_cell_length_a   9.08345494
_cell_length_b   9.07459276
_cell_length_c   9.07459300
_cell_angle_alpha   59.99999546
_cell_angle_beta   60.03226414
_cell_angle_gamma   60.03226627
_symmetry_Int_Tables_number   1
_chemical_formula_structural   Y6Zn21Ag2Ge
_chemical_formula_sum   'Y6 Zn21 Ag2 Ge1'
_cell_volume   529.17824490
_cell_formula_units_Z   1
loop_
 _symmetry_equiv_pos_site_id
 _symmetry_equiv_pos_as_xyz
  1  'x, y, z'
loop_
 _atom_site_type_symbol
 _atom_site_label
 _atom_site_symmetry_multiplicity
 _atom_site_fract_x
 _atom_site_fract_y
 _atom_site_fract_z
 _atom_site_occupancy
  Y  Y0  1  0.716999  0.283703  0.283703  1
  Y  Y1  1  0.716999  0.283703  0.715594  1
  Y  Y2  1  0.716999  0.715594  0.283703  1
  Y  Y3  1  0.279411  0.719970  0.719970  1
  Y  Y4  1  0.279411  0.719970  0.280650  1
  Y  Y5  1  0.279411  0.280650  0.719970  1
  Zn  Zn6  1  0.125257  0.617925  0.128409  1
  Zn  Zn7  1  0.125257  0.128409  0.617925  1
  Zn  Zn8  1  0.125257  0.128409  0.128409  1
  Zn  Zn9  1  0.385839  0.871387  0.871387  1
  Zn  Zn10  1  0.870529  0.376723  0.876374  1
  Zn  Zn11  1  0.870529  0.876374  0.376723  1
  Zn  Zn12  1  0.870529  0.876374  0.876374  1
  Zn  Zn13  1  0.497075  0.999683  0.999683  1
  Zn  Zn14  1  0.497075  0.999683  0.503559  1
  Zn  Zn15  1  0.497075  0.503559  0.999683  1
  Zn  Zn16  1  0.998929  0.500695  0.500695  1
  Zn  Zn17  1  0.998929  0.500695  0.999681  1
  Zn  Zn18  1  0.998929  0.999681  0.500695  1
  Zn  Zn19  1  0.001575  0.332808  0.332808  1
  Zn  Zn20  1  0.333757  0.999613  0.333314  1
  Zn  Zn21  1  0.333757  0.333314  0.999613  1
  Zn  Zn22  1  0.333757  0.333314  0.333314  1
  Zn  Zn23  1  0.999329  0.666891  0.666891  1
  Zn  Zn24  1  0.666973  0.999233  0.666898  1
  Zn  Zn25  1  0.666973  0.666898  0.999233  1
  Zn  Zn26  1  0.666973  0.666898  0.666898  1
  Ag  Ag27  1  0.632437  0.122521  0.122521  1
  Ag  Ag28  1  0.018362  0.993879  0.993879  1
  Ge  Ge29  1  0.495666  0.501445  0.501445  1
