# generated using pymatgen
data_Ba4In(BiO4)3
_symmetry_space_group_name_H-M   'P 1'
_cell_length_a   6.15874552
_cell_length_b   6.15874612
_cell_length_c   10.66760304
_cell_angle_alpha   73.67836191
_cell_angle_beta   73.67835863
_cell_angle_gamma   59.90062683
_symmetry_Int_Tables_number   1
_chemical_formula_structural   Ba4In(BiO4)3
_chemical_formula_sum   'Ba4 In1 Bi3 O12'
_cell_volume   331.13857738
_cell_formula_units_Z   1
loop_
 _symmetry_equiv_pos_site_id
 _symmetry_equiv_pos_as_xyz
  1  'x, y, z'
loop_
 _atom_site_type_symbol
 _atom_site_label
 _atom_site_symmetry_multiplicity
 _atom_site_fract_x
 _atom_site_fract_y
 _atom_site_fract_z
 _atom_site_occupancy
  Ba  Ba0  1  0.128920  0.128920  0.619028  1
  Ba  Ba1  1  0.625711  0.625711  0.126851  1
  Ba  Ba2  1  0.374289  0.374289  0.873149  1
  Ba  Ba3  1  0.871080  0.871080  0.380972  1
  In  In4  1  0.500000  0.500000  0.500000  1
  Bi  Bi5  1  0.752052  0.752052  0.744346  1
  Bi  Bi6  1  0.247948  0.247948  0.255654  1
  Bi  Bi7  1  0.000000  0.000000  0.000000  1
  O  O8  1  0.903057  0.903057  0.838814  1
  O  O9  1  0.404623  0.404623  0.344060  1
  O  O10  1  0.595377  0.595377  0.655940  1
  O  O11  1  0.096943  0.096943  0.161186  1
  O  O12  1  0.108217  0.605913  0.608109  1
  O  O13  1  0.596381  0.112141  0.113021  1
  O  O14  1  0.887859  0.403619  0.886979  1
  O  O15  1  0.394087  0.891783  0.391891  1
  O  O16  1  0.605913  0.108217  0.608109  1
  O  O17  1  0.112141  0.596381  0.113021  1
  O  O18  1  0.403619  0.887859  0.886979  1
  O  O19  1  0.891783  0.394087  0.391891  1
