# generated using pymatgen
data_Sr2LiSb3Pd4
_symmetry_space_group_name_H-M   'P 1'
_cell_length_a   4.58127800
_cell_length_b   4.58127800
_cell_length_c   10.90948400
_cell_angle_alpha   90.00000000
_cell_angle_beta   90.00000000
_cell_angle_gamma   90.00000000
_symmetry_Int_Tables_number   1
_chemical_formula_structural   Sr2LiSb3Pd4
_chemical_formula_sum   'Sr2 Li1 Sb3 Pd4'
_cell_volume   228.96942965
_cell_formula_units_Z   1
loop_
 _symmetry_equiv_pos_site_id
 _symmetry_equiv_pos_as_xyz
  1  'x, y, z'
loop_
 _atom_site_type_symbol
 _atom_site_label
 _atom_site_symmetry_multiplicity
 _atom_site_fract_x
 _atom_site_fract_y
 _atom_site_fract_z
 _atom_site_occupancy
  Sr  Sr0  1  0.500000  0.000000  0.753612  1
  Sr  Sr1  1  0.000000  0.500000  0.246388  1
  Li  Li2  1  0.000000  0.000000  0.500000  1
  Sb  Sb3  1  0.500000  0.500000  0.500000  1
  Sb  Sb4  1  0.500000  0.000000  0.133947  1
  Sb  Sb5  1  0.000000  0.500000  0.866053  1
  Pd  Pd6  1  0.000000  0.000000  0.000000  1
  Pd  Pd7  1  0.500000  0.500000  0.000000  1
  Pd  Pd8  1  0.500000  0.000000  0.375285  1
  Pd  Pd9  1  0.000000  0.500000  0.624715  1
