# generated using pymatgen
data_Yb3ErB15C
_symmetry_space_group_name_H-M   'P 1'
_cell_length_a   7.00377683
_cell_length_b   7.00377677
_cell_length_c   4.05946500
_cell_angle_alpha   90.00000000
_cell_angle_beta   90.00000000
_cell_angle_gamma   90.73296276
_symmetry_Int_Tables_number   1
_chemical_formula_structural   Yb3ErB15C
_chemical_formula_sum   'Yb3 Er1 B15 C1'
_cell_volume   199.11219451
_cell_formula_units_Z   1
loop_
 _symmetry_equiv_pos_site_id
 _symmetry_equiv_pos_as_xyz
  1  'x, y, z'
loop_
 _atom_site_type_symbol
 _atom_site_label
 _atom_site_symmetry_multiplicity
 _atom_site_fract_x
 _atom_site_fract_y
 _atom_site_fract_z
 _atom_site_occupancy
  Yb  Yb0  1  0.816619  0.315415  0.000000  1
  Yb  Yb1  1  0.184585  0.683381  0.000000  1
  Yb  Yb2  1  0.676975  0.823025  0.000000  1
  Er  Er3  1  0.319473  0.180527  0.000000  1
  B  B4  1  0.504983  0.503158  0.796871  1
  B  B5  1  0.996842  0.995017  0.796871  1
  B  B6  1  0.504983  0.503158  0.203129  1
  B  B7  1  0.996842  0.995017  0.203129  1
  B  B8  1  0.078547  0.421453  0.500000  1
  B  B9  1  0.412500  0.915292  0.500000  1
  B  B10  1  0.584708  0.087500  0.500000  1
  B  B11  1  0.685838  0.540501  0.500000  1
  B  B12  1  0.325125  0.466626  0.500000  1
  B  B13  1  0.174676  0.960010  0.500000  1
  B  B14  1  0.821370  0.032375  0.500000  1
  B  B15  1  0.467625  0.678630  0.500000  1
  B  B16  1  0.539990  0.325324  0.500000  1
  B  B17  1  0.033374  0.174875  0.500000  1
  B  B18  1  0.959499  0.814162  0.500000  1
  C  C19  1  0.915445  0.584555  0.500000  1
