# generated using pymatgen
data_Nd7P6
_symmetry_space_group_name_H-M   'P 1'
_cell_length_a   7.11470096
_cell_length_b   7.11307199
_cell_length_c   10.86283100
_cell_angle_alpha   90.05226083
_cell_angle_beta   40.22061130
_cell_angle_gamma   80.48210328
_symmetry_Int_Tables_number   1
_chemical_formula_structural   Nd7P6
_chemical_formula_sum   'Nd7 P6'
_cell_volume   343.04650935
_cell_formula_units_Z   1
loop_
 _symmetry_equiv_pos_site_id
 _symmetry_equiv_pos_as_xyz
  1  'x, y, z'
loop_
 _atom_site_type_symbol
 _atom_site_label
 _atom_site_symmetry_multiplicity
 _atom_site_fract_x
 _atom_site_fract_y
 _atom_site_fract_z
 _atom_site_occupancy
  Nd  Nd0  1  0.501924  0.618800  0.503925  1
  Nd  Nd1  1  0.211833  0.326448  0.945706  1
  Nd  Nd2  1  0.099551  0.178144  0.647343  1
  Nd  Nd3  1  0.947651  0.028666  0.356881  1
  Nd  Nd4  1  0.653416  0.768163  0.794897  1
  Nd  Nd5  1  0.800864  0.898207  0.075688  1
  Nd  Nd6  1  0.390527  0.470188  0.205477  1
  P  P7  1  0.943612  0.538671  0.860417  1
  P  P8  1  0.374881  0.970367  0.717002  1
  P  P9  1  0.226037  0.826484  0.434677  1
  P  P10  1  0.087149  0.683208  0.148811  1
  P  P11  1  0.658641  0.257918  0.290656  1
  P  P12  1  0.514445  0.113316  0.002865  1
