# generated using pymatgen
data_Er7Lu3OsRu3
_symmetry_space_group_name_H-M   'P 1'
_cell_length_a   6.25871590
_cell_length_b   7.24236996
_cell_length_c   8.32912643
_cell_angle_alpha   96.87387177
_cell_angle_beta   112.00484177
_cell_angle_gamma   89.81733123
_symmetry_Int_Tables_number   1
_chemical_formula_structural   Er7Lu3OsRu3
_chemical_formula_sum   'Er7 Lu3 Os1 Ru3'
_cell_volume   347.16689320
_cell_formula_units_Z   1
loop_
 _symmetry_equiv_pos_site_id
 _symmetry_equiv_pos_as_xyz
  1  'x, y, z'
loop_
 _atom_site_type_symbol
 _atom_site_label
 _atom_site_symmetry_multiplicity
 _atom_site_fract_x
 _atom_site_fract_y
 _atom_site_fract_z
 _atom_site_occupancy
  Er  Er0  1  0.522197  0.083631  0.814774  1
  Er  Er1  1  0.476695  0.917674  0.185819  1
  Er  Er2  1  0.711176  0.416644  0.185770  1
  Er  Er3  1  0.292609  0.584249  0.817579  1
  Er  Er4  1  0.294968  0.315984  0.434509  1
  Er  Er5  1  0.702215  0.683441  0.564380  1
  Er  Er6  1  0.862497  0.184066  0.565642  1
  Lu  Lu7  1  0.138034  0.815190  0.433351  1
  Lu  Lu8  1  0.080471  0.250488  0.000214  1
  Lu  Lu9  1  0.920643  0.749490  0.000868  1
  Os  Os10  1  0.318356  0.578131  0.217216  1
  Ru  Ru11  1  0.679233  0.421900  0.781587  1
  Ru  Ru12  1  0.101484  0.923151  0.778690  1
  Ru  Ru13  1  0.899419  0.075958  0.219601  1
