# generated using pymatgen
data_Li4HfPtBr12
_symmetry_space_group_name_H-M   'P 1'
_cell_length_a   6.56935600
_cell_length_b   6.56935448
_cell_length_c   26.85741700
_cell_angle_alpha   90.00000000
_cell_angle_beta   90.00000000
_cell_angle_gamma   119.99999760
_symmetry_Int_Tables_number   1
_chemical_formula_structural   Li4HfPtBr12
_chemical_formula_sum   'Li8 Hf2 Pt2 Br24'
_cell_volume   1003.78425315
_cell_formula_units_Z   2
loop_
 _symmetry_equiv_pos_site_id
 _symmetry_equiv_pos_as_xyz
  1  'x, y, z'
loop_
 _atom_site_type_symbol
 _atom_site_label
 _atom_site_symmetry_multiplicity
 _atom_site_fract_x
 _atom_site_fract_y
 _atom_site_fract_z
 _atom_site_occupancy
  Li  Li0  1  0.000000  0.000000  0.250000  1
  Li  Li1  1  0.000000  0.000000  0.750000  1
  Li  Li2  1  0.333333  0.666667  0.999990  1
  Li  Li3  1  0.333333  0.666667  0.500010  1
  Li  Li4  1  0.333333  0.666667  0.250000  1
  Li  Li5  1  0.666667  0.333333  0.750000  1
  Li  Li6  1  0.666667  0.333333  0.000010  1
  Li  Li7  1  0.666667  0.333333  0.499990  1
  Hf  Hf8  1  0.333333  0.666667  0.750000  1
  Hf  Hf9  1  0.666667  0.333333  0.250000  1
  Pt  Pt10  1  0.000000  0.000000  0.000000  1
  Pt  Pt11  1  0.000000  0.000000  0.500000  1
  Br  Br12  1  0.342632  0.008780  0.306830  1
  Br  Br13  1  0.333852  0.991220  0.806830  1
  Br  Br14  1  0.000778  0.311097  0.054193  1
  Br  Br15  1  0.999222  0.310319  0.554193  1
  Br  Br16  1  0.991220  0.333852  0.306830  1
  Br  Br17  1  0.008780  0.342632  0.806830  1
  Br  Br18  1  0.342632  0.333852  0.193170  1
  Br  Br19  1  0.333852  0.342632  0.693170  1
  Br  Br20  1  0.310319  0.311097  0.445807  1
  Br  Br21  1  0.311097  0.310319  0.945807  1
  Br  Br22  1  0.688903  0.999222  0.445807  1
  Br  Br23  1  0.310319  0.999222  0.054193  1
  Br  Br24  1  0.311097  0.000778  0.554193  1
  Br  Br25  1  0.688903  0.689681  0.054193  1
  Br  Br26  1  0.689681  0.688903  0.554193  1
  Br  Br27  1  0.666148  0.657368  0.306830  1
  Br  Br28  1  0.657368  0.666148  0.806830  1
  Br  Br29  1  0.991220  0.657368  0.193170  1
  Br  Br30  1  0.008780  0.666148  0.693170  1
  Br  Br31  1  0.000778  0.689681  0.445807  1
  Br  Br32  1  0.999222  0.688903  0.945807  1
  Br  Br33  1  0.689681  0.000778  0.945807  1
  Br  Br34  1  0.666148  0.008780  0.193170  1
  Br  Br35  1  0.657368  0.991220  0.693170  1
