# generated using pymatgen
data_Ba6Li2Ag21Au
_symmetry_space_group_name_H-M   'P 1'
_cell_length_a   10.01436800
_cell_length_b   10.01436656
_cell_length_c   8.39732000
_cell_angle_alpha   90.00000000
_cell_angle_beta   90.00000000
_cell_angle_gamma   119.99999817
_symmetry_Int_Tables_number   1
_chemical_formula_structural   Ba6Li2Ag21Au
_chemical_formula_sum   'Ba6 Li2 Ag21 Au1'
_cell_volume   729.32041988
_cell_formula_units_Z   1
loop_
 _symmetry_equiv_pos_site_id
 _symmetry_equiv_pos_as_xyz
  1  'x, y, z'
loop_
 _atom_site_type_symbol
 _atom_site_label
 _atom_site_symmetry_multiplicity
 _atom_site_fract_x
 _atom_site_fract_y
 _atom_site_fract_z
 _atom_site_occupancy
  Ba  Ba0  1  0.523519  0.047040  0.250071  1
  Ba  Ba1  1  0.475147  0.950294  0.747987  1
  Ba  Ba2  1  0.952960  0.476481  0.250071  1
  Ba  Ba3  1  0.049706  0.524853  0.747987  1
  Ba  Ba4  1  0.523519  0.476481  0.250071  1
  Ba  Ba5  1  0.475147  0.524853  0.747987  1
  Li  Li6  1  0.000000  0.000000  0.000643  1
  Li  Li7  1  0.000000  0.000000  0.500208  1
  Ag  Ag8  1  0.164822  0.329642  0.064080  1
  Ag  Ag9  1  0.835034  0.670068  0.936354  1
  Ag  Ag10  1  0.670358  0.835178  0.064080  1
  Ag  Ag11  1  0.834764  0.669528  0.564360  1
  Ag  Ag12  1  0.329932  0.164966  0.936354  1
  Ag  Ag13  1  0.165833  0.331665  0.434851  1
  Ag  Ag14  1  0.164822  0.835178  0.064080  1
  Ag  Ag15  1  0.330472  0.165236  0.564360  1
  Ag  Ag16  1  0.835034  0.164966  0.936354  1
  Ag  Ag17  1  0.668335  0.834167  0.434851  1
  Ag  Ag18  1  0.834764  0.165236  0.564360  1
  Ag  Ag19  1  0.165833  0.834167  0.434851  1
  Ag  Ag20  1  0.899567  0.799135  0.251376  1
  Ag  Ag21  1  0.100638  0.201275  0.749192  1
  Ag  Ag22  1  0.200865  0.100433  0.251376  1
  Ag  Ag23  1  0.798725  0.899362  0.749192  1
  Ag  Ag24  1  0.899567  0.100433  0.251376  1
  Ag  Ag25  1  0.100638  0.899362  0.749192  1
  Ag  Ag26  1  0.333333  0.666667  0.076715  1
  Ag  Ag27  1  0.666667  0.333333  0.923898  1
  Ag  Ag28  1  0.666667  0.333333  0.572163  1
  Au  Au29  1  0.333333  0.666667  0.431569  1
