# generated using pymatgen
data_Li4YbNi9As7
_symmetry_space_group_name_H-M   'P 1'
_cell_length_a   9.41060100
_cell_length_b   9.41059992
_cell_length_c   3.82724200
_cell_angle_alpha   90.00000000
_cell_angle_beta   90.00000000
_cell_angle_gamma   120.00000730
_symmetry_Int_Tables_number   1
_chemical_formula_structural   Li4YbNi9As7
_chemical_formula_sum   'Li4 Yb1 Ni9 As7'
_cell_volume   293.52912122
_cell_formula_units_Z   1
loop_
 _symmetry_equiv_pos_site_id
 _symmetry_equiv_pos_as_xyz
  1  'x, y, z'
loop_
 _atom_site_type_symbol
 _atom_site_label
 _atom_site_symmetry_multiplicity
 _atom_site_fract_x
 _atom_site_fract_y
 _atom_site_fract_z
 _atom_site_occupancy
  Li  Li0  1  0.772706  0.545232  0.500000  1
  Li  Li1  1  0.454768  0.227473  0.500000  1
  Li  Li2  1  0.772527  0.227294  0.500000  1
  Li  Li3  1  0.000000  0.000000  0.500000  1
  Yb  Yb4  1  0.333333  0.666667  0.000000  1
  Ni  Ni5  1  0.274920  0.376437  0.500000  1
  Ni  Ni6  1  0.623563  0.898484  0.500000  1
  Ni  Ni7  1  0.101516  0.725080  0.500000  1
  Ni  Ni8  1  0.495706  0.451509  0.000000  1
  Ni  Ni9  1  0.548491  0.044196  0.000000  1
  Ni  Ni10  1  0.955804  0.504294  0.000000  1
  Ni  Ni11  1  0.715713  0.761124  0.000000  1
  Ni  Ni12  1  0.238876  0.954589  0.000000  1
  Ni  Ni13  1  0.045411  0.284287  0.000000  1
  As  As14  1  0.964098  0.756913  0.000000  1
  As  As15  1  0.243087  0.207186  0.000000  1
  As  As16  1  0.792814  0.035902  0.000000  1
  As  As17  1  0.666667  0.333333  0.000000  1
  As  As18  1  0.546074  0.618772  0.500000  1
  As  As19  1  0.381228  0.927302  0.500000  1
  As  As20  1  0.072698  0.453926  0.500000  1
