# generated using pymatgen
data_Sm3Ni4Sb5Pd2
_symmetry_space_group_name_H-M   'P 1'
_cell_length_a   4.31710400
_cell_length_b   9.90966500
_cell_length_c   13.09250300
_cell_angle_alpha   90.00000000
_cell_angle_beta   90.00000000
_cell_angle_gamma   90.00000000
_symmetry_Int_Tables_number   1
_chemical_formula_structural   Sm3Ni4Sb5Pd2
_chemical_formula_sum   'Sm6 Ni8 Sb10 Pd4'
_cell_volume   560.11108321
_cell_formula_units_Z   2
loop_
 _symmetry_equiv_pos_site_id
 _symmetry_equiv_pos_as_xyz
  1  'x, y, z'
loop_
 _atom_site_type_symbol
 _atom_site_label
 _atom_site_symmetry_multiplicity
 _atom_site_fract_x
 _atom_site_fract_y
 _atom_site_fract_z
 _atom_site_occupancy
  Sm  Sm0  1  0.000000  0.241651  0.000000  1
  Sm  Sm1  1  0.500000  0.758349  0.500000  1
  Sm  Sm2  1  0.000000  0.248985  0.323813  1
  Sm  Sm3  1  0.500000  0.751015  0.176187  1
  Sm  Sm4  1  0.000000  0.248985  0.676187  1
  Sm  Sm5  1  0.500000  0.751015  0.823813  1
  Ni  Ni6  1  0.000000  0.990578  0.151913  1
  Ni  Ni7  1  0.500000  0.009422  0.348087  1
  Ni  Ni8  1  0.000000  0.990578  0.848087  1
  Ni  Ni9  1  0.500000  0.009422  0.651913  1
  Ni  Ni10  1  0.000000  0.617807  0.320090  1
  Ni  Ni11  1  0.500000  0.382193  0.179910  1
  Ni  Ni12  1  0.000000  0.617807  0.679910  1
  Ni  Ni13  1  0.500000  0.382193  0.820090  1
  Sb  Sb14  1  0.000000  0.509333  0.139456  1
  Sb  Sb15  1  0.500000  0.490667  0.360544  1
  Sb  Sb16  1  0.000000  0.509333  0.860544  1
  Sb  Sb17  1  0.500000  0.490667  0.639456  1
  Sb  Sb18  1  0.000000  0.871231  0.327627  1
  Sb  Sb19  1  0.500000  0.128769  0.172373  1
  Sb  Sb20  1  0.000000  0.871231  0.672373  1
  Sb  Sb21  1  0.500000  0.128769  0.827627  1
  Sb  Sb22  1  0.000000  0.821449  0.000000  1
  Sb  Sb23  1  0.500000  0.178551  0.500000  1
  Pd  Pd24  1  0.500000  0.986787  0.000000  1
  Pd  Pd25  1  0.000000  0.013213  0.500000  1
  Pd  Pd26  1  0.500000  0.511188  0.000000  1
  Pd  Pd27  1  0.000000  0.488812  0.500000  1
