# generated using pymatgen
data_Tb3(Ga2Si)2
_symmetry_space_group_name_H-M   'P 1'
_cell_length_a   4.09254354
_cell_length_b   4.18777362
_cell_length_c   21.65765469
_cell_angle_alpha   84.45192389
_cell_angle_beta   84.57845649
_cell_angle_gamma   90.00000810
_symmetry_Int_Tables_number   1
_chemical_formula_structural   Tb3(Ga2Si)2
_chemical_formula_sum   'Tb6 Ga8 Si4'
_cell_volume   367.77570604
_cell_formula_units_Z   2
loop_
 _symmetry_equiv_pos_site_id
 _symmetry_equiv_pos_as_xyz
  1  'x, y, z'
loop_
 _atom_site_type_symbol
 _atom_site_label
 _atom_site_symmetry_multiplicity
 _atom_site_fract_x
 _atom_site_fract_y
 _atom_site_fract_z
 _atom_site_occupancy
  Tb  Tb0  1  0.957831  0.707831  0.084338  1
  Tb  Tb1  1  0.290185  0.040185  0.419632  1
  Tb  Tb2  1  0.623102  0.373102  0.753796  1
  Tb  Tb3  1  0.377423  0.627423  0.245154  1
  Tb  Tb4  1  0.709785  0.959785  0.580430  1
  Tb  Tb5  1  0.041487  0.291487  0.917026  1
  Ga  Ga6  1  0.820112  0.570112  0.359777  1
  Ga  Ga7  1  0.152772  0.902772  0.694457  1
  Ga  Ga8  1  0.431645  0.181645  0.136710  1
  Ga  Ga9  1  0.764321  0.514321  0.471358  1
  Ga  Ga10  1  0.097011  0.847011  0.805979  1
  Ga  Ga11  1  0.847754  0.097754  0.304492  1
  Ga  Ga12  1  0.180400  0.430400  0.639200  1
  Ga  Ga13  1  0.513106  0.763106  0.973787  1
  Si  Si14  1  0.902641  0.152641  0.194718  1
  Si  Si15  1  0.235417  0.485417  0.529166  1
  Si  Si16  1  0.568310  0.818310  0.863378  1
  Si  Si17  1  0.486699  0.236699  0.026601  1
