# generated using pymatgen
data_Ac4BeAl14Pt
_symmetry_space_group_name_H-M   'P 1'
_cell_length_a   6.27097893
_cell_length_b   6.26301279
_cell_length_c   11.78032800
_cell_angle_alpha   74.58401388
_cell_angle_beta   74.56391649
_cell_angle_gamma   90.00000232
_symmetry_Int_Tables_number   1
_chemical_formula_structural   Ac4BeAl14Pt
_chemical_formula_sum   'Ac4 Be1 Al14 Pt1'
_cell_volume   428.69132163
_cell_formula_units_Z   1
loop_
 _symmetry_equiv_pos_site_id
 _symmetry_equiv_pos_as_xyz
  1  'x, y, z'
loop_
 _atom_site_type_symbol
 _atom_site_label
 _atom_site_symmetry_multiplicity
 _atom_site_fract_x
 _atom_site_fract_y
 _atom_site_fract_z
 _atom_site_occupancy
  Ac  Ac0  1  0.996346  0.996346  0.007308  1
  Ac  Ac1  1  0.502684  0.502684  0.994631  1
  Ac  Ac2  1  0.751755  0.251755  0.496492  1
  Ac  Ac3  1  0.249481  0.749481  0.501040  1
  Be  Be4  1  0.309074  0.309074  0.381852  1
  Al  Al5  1  0.198750  0.198750  0.602501  1
  Al  Al6  1  0.813739  0.813739  0.372521  1
  Al  Al7  1  0.599871  0.136103  0.254553  1
  Al  Al8  1  0.145575  0.609343  0.254553  1
  Al  Al9  1  0.599871  0.609343  0.254553  1
  Al  Al10  1  0.145575  0.136103  0.254553  1
  Al  Al11  1  0.869757  0.360219  0.750908  1
  Al  Al12  1  0.379335  0.888870  0.750908  1
  Al  Al13  1  0.869757  0.888870  0.750908  1
  Al  Al14  1  0.379335  0.360219  0.750908  1
  Al  Al15  1  0.692653  0.692653  0.614692  1
  Al  Al16  1  0.061022  0.561022  0.877955  1
  Al  Al17  1  0.447544  0.947544  0.104912  1
  Al  Al18  1  0.940520  0.440520  0.118959  1
  Pt  Pt19  1  0.562187  0.062187  0.875626  1
