# generated using pymatgen
data_Zn2SbP6IN12
_symmetry_space_group_name_H-M   'P 1'
_cell_length_a   7.30371024
_cell_length_b   7.39548261
_cell_length_c   7.30371095
_cell_angle_alpha   109.95000994
_cell_angle_beta   108.95178377
_cell_angle_gamma   109.94998898
_symmetry_Int_Tables_number   1
_chemical_formula_structural   Zn2SbP6IN12
_chemical_formula_sum   'Zn2 Sb1 P6 I1 N12'
_cell_volume   302.01484489
_cell_formula_units_Z   1
loop_
 _symmetry_equiv_pos_site_id
 _symmetry_equiv_pos_as_xyz
  1  'x, y, z'
loop_
 _atom_site_type_symbol
 _atom_site_label
 _atom_site_symmetry_multiplicity
 _atom_site_fract_x
 _atom_site_fract_y
 _atom_site_fract_z
 _atom_site_occupancy
  Zn  Zn0  1  0.003246  0.003807  0.382320  1
  Zn  Zn1  1  0.382320  0.003807  0.003246  1
  Sb  Sb2  1  0.013958  0.357561  0.013958  1
  P  P3  1  0.498077  0.261645  0.751980  1
  P  P4  1  0.253024  0.759247  0.500706  1
  P  P5  1  0.740394  0.506148  0.258317  1
  P  P6  1  0.751980  0.261645  0.498077  1
  P  P7  1  0.500706  0.759247  0.253024  1
  P  P8  1  0.258317  0.506148  0.740394  1
  I  I9  1  0.982143  0.888471  0.982143  1
  N  N10  1  0.402754  0.695341  0.402754  1
  N  N11  1  0.715281  0.437470  0.436226  1
  N  N12  1  0.436226  0.437470  0.715281  1
  N  N13  1  0.725353  0.291382  0.725353  1
  N  N14  1  0.993064  0.578130  0.280923  1
  N  N15  1  0.280923  0.578130  0.993064  1
  N  N16  1  0.281401  0.006858  0.567523  1
  N  N17  1  0.002071  0.282263  0.563985  1
  N  N18  1  0.718991  0.728054  0.288260  1
  N  N19  1  0.567523  0.006858  0.281401  1
  N  N20  1  0.288260  0.728054  0.718991  1
  N  N21  1  0.563985  0.282263  0.002071  1
