# generated using pymatgen
data_Ce2IrPdPb
_symmetry_space_group_name_H-M   'P 1'
_cell_length_a   7.90926400
_cell_length_b   7.92501900
_cell_length_c   3.69580500
_cell_angle_alpha   90.00000000
_cell_angle_beta   90.00000000
_cell_angle_gamma   90.00000000
_symmetry_Int_Tables_number   1
_chemical_formula_structural   Ce2IrPdPb
_chemical_formula_sum   'Ce4 Ir2 Pd2 Pb2'
_cell_volume   231.65700258
_cell_formula_units_Z   2
loop_
 _symmetry_equiv_pos_site_id
 _symmetry_equiv_pos_as_xyz
  1  'x, y, z'
loop_
 _atom_site_type_symbol
 _atom_site_label
 _atom_site_symmetry_multiplicity
 _atom_site_fract_x
 _atom_site_fract_y
 _atom_site_fract_z
 _atom_site_occupancy
  Ce  Ce0  1  0.656064  0.173080  0.500000  1
  Ce  Ce1  1  0.185187  0.328747  0.500000  1
  Ce  Ce2  1  0.843936  0.673080  0.500000  1
  Ce  Ce3  1  0.314813  0.828747  0.500000  1
  Ir  Ir4  1  0.374566  0.126144  0.000000  1
  Ir  Ir5  1  0.125434  0.626144  0.000000  1
  Pd  Pd6  1  0.630307  0.866216  0.000000  1
  Pd  Pd7  1  0.869693  0.366216  0.000000  1
  Pb  Pb8  1  0.995393  0.005812  0.000000  1
  Pb  Pb9  1  0.504607  0.505812  0.000000  1
