# generated using pymatgen
data_Sc4NbIO12
_symmetry_space_group_name_H-M   'P 1'
_cell_length_a   5.17693200
_cell_length_b   7.37581924
_cell_length_c   11.00735900
_cell_angle_alpha   75.82450959
_cell_angle_beta   90.00000000
_cell_angle_gamma   90.00000000
_symmetry_Int_Tables_number   1
_chemical_formula_structural   Sc4NbIO12
_chemical_formula_sum   'Sc8 Nb2 I2 O24'
_cell_volume   407.50801545
_cell_formula_units_Z   2
loop_
 _symmetry_equiv_pos_site_id
 _symmetry_equiv_pos_as_xyz
  1  'x, y, z'
loop_
 _atom_site_type_symbol
 _atom_site_label
 _atom_site_symmetry_multiplicity
 _atom_site_fract_x
 _atom_site_fract_y
 _atom_site_fract_z
 _atom_site_occupancy
  Sc  Sc0  1  0.188135  0.795896  0.078428  1
  Sc  Sc1  1  0.256391  0.979699  0.759617  1
  Sc  Sc2  1  0.743609  0.979699  0.259617  1
  Sc  Sc3  1  0.307039  0.528453  0.743861  1
  Sc  Sc4  1  0.188381  0.204927  0.419481  1
  Sc  Sc5  1  0.692961  0.528453  0.243861  1
  Sc  Sc6  1  0.811619  0.204927  0.919481  1
  Sc  Sc7  1  0.811865  0.795896  0.578428  1
  Nb  Nb8  1  0.741942  0.714098  0.891439  1
  Nb  Nb9  1  0.258058  0.714098  0.391439  1
  I  I10  1  0.743241  0.273238  0.617288  1
  I  I11  1  0.256759  0.273238  0.117288  1
  O  O12  1  0.873130  0.363959  0.453433  1
  O  O13  1  0.447088  0.851673  0.931162  1
  O  O14  1  0.869713  0.632015  0.058700  1
  O  O15  1  0.024623  0.305335  0.728053  1
  O  O16  1  0.975377  0.305335  0.228053  1
  O  O17  1  0.126870  0.363959  0.953433  1
  O  O18  1  0.621178  0.475629  0.875504  1
  O  O19  1  0.547659  0.158786  0.063302  1
  O  O20  1  0.130287  0.632015  0.558700  1
  O  O21  1  0.028625  0.719967  0.766306  1
  O  O22  1  0.439366  0.182660  0.272774  1
  O  O23  1  0.027838  0.956337  0.401386  1
  O  O24  1  0.452341  0.158786  0.563302  1
  O  O25  1  0.971375  0.719967  0.266306  1
  O  O26  1  0.944291  0.054365  0.614908  1
  O  O27  1  0.560634  0.182660  0.772774  1
  O  O28  1  0.520949  0.792854  0.712898  1
  O  O29  1  0.055709  0.054365  0.114908  1
  O  O30  1  0.611230  0.510110  0.611463  1
  O  O31  1  0.388770  0.510110  0.111463  1
  O  O32  1  0.479051  0.792854  0.212898  1
  O  O33  1  0.378822  0.475629  0.375504  1
  O  O34  1  0.552912  0.851673  0.431162  1
  O  O35  1  0.972162  0.956337  0.901386  1
