# generated using pymatgen
data_HoTm3(P3Rh4)2
_symmetry_space_group_name_H-M   'P 1'
_cell_length_a   3.94779800
_cell_length_b   11.29933700
_cell_length_c   12.93558600
_cell_angle_alpha   90.00000000
_cell_angle_beta   90.00000000
_cell_angle_gamma   90.00000000
_symmetry_Int_Tables_number   1
_chemical_formula_structural   HoTm3(P3Rh4)2
_chemical_formula_sum   'Ho2 Tm6 P12 Rh16'
_cell_volume   577.02415262
_cell_formula_units_Z   2
loop_
 _symmetry_equiv_pos_site_id
 _symmetry_equiv_pos_as_xyz
  1  'x, y, z'
loop_
 _atom_site_type_symbol
 _atom_site_label
 _atom_site_symmetry_multiplicity
 _atom_site_fract_x
 _atom_site_fract_y
 _atom_site_fract_z
 _atom_site_occupancy
  Ho  Ho0  1  0.500000  0.500000  0.160198  1
  Ho  Ho1  1  0.000000  0.000000  0.839802  1
  Tm  Tm2  1  0.000000  0.500000  0.523539  1
  Tm  Tm3  1  0.500000  0.000000  0.476461  1
  Tm  Tm4  1  0.500000  0.820691  0.203969  1
  Tm  Tm5  1  0.500000  0.179309  0.203969  1
  Tm  Tm6  1  0.000000  0.679309  0.796031  1
  Tm  Tm7  1  0.000000  0.320691  0.796031  1
  P  P8  1  0.500000  0.500000  0.878374  1
  P  P9  1  0.000000  0.000000  0.121626  1
  P  P10  1  0.500000  0.500000  0.367336  1
  P  P11  1  0.000000  0.000000  0.632664  1
  P  P12  1  0.500000  0.313423  0.616885  1
  P  P13  1  0.500000  0.686577  0.616885  1
  P  P14  1  0.000000  0.186577  0.383115  1
  P  P15  1  0.000000  0.813423  0.383115  1
  P  P16  1  0.500000  0.837609  0.888958  1
  P  P17  1  0.500000  0.162391  0.888958  1
  P  P18  1  0.000000  0.662391  0.111042  1
  P  P19  1  0.000000  0.337609  0.111042  1
  Rh  Rh20  1  0.500000  0.500000  0.700652  1
  Rh  Rh21  1  0.000000  0.000000  0.299348  1
  Rh  Rh22  1  0.000000  0.500000  0.979822  1
  Rh  Rh23  1  0.500000  0.000000  0.020178  1
  Rh  Rh24  1  0.500000  0.331309  0.989767  1
  Rh  Rh25  1  0.500000  0.668691  0.989767  1
  Rh  Rh26  1  0.000000  0.168691  0.010233  1
  Rh  Rh27  1  0.000000  0.831309  0.010233  1
  Rh  Rh28  1  0.500000  0.290296  0.432862  1
  Rh  Rh29  1  0.500000  0.709704  0.432862  1
  Rh  Rh30  1  0.000000  0.209704  0.567138  1
  Rh  Rh31  1  0.000000  0.790296  0.567138  1
  Rh  Rh32  1  0.500000  0.871737  0.704586  1
  Rh  Rh33  1  0.500000  0.128263  0.704586  1
  Rh  Rh34  1  0.000000  0.628263  0.295414  1
  Rh  Rh35  1  0.000000  0.371737  0.295414  1
