# generated using pymatgen
data_La2Zn2Si3GePt2
_symmetry_space_group_name_H-M   'P 1'
_cell_length_a   4.33038900
_cell_length_b   4.33038900
_cell_length_c   10.17338200
_cell_angle_alpha   90.00000000
_cell_angle_beta   90.00000000
_cell_angle_gamma   90.00000000
_symmetry_Int_Tables_number   1
_chemical_formula_structural   La2Zn2Si3GePt2
_chemical_formula_sum   'La2 Zn2 Si3 Ge1 Pt2'
_cell_volume   190.77399480
_cell_formula_units_Z   1
loop_
 _symmetry_equiv_pos_site_id
 _symmetry_equiv_pos_as_xyz
  1  'x, y, z'
loop_
 _atom_site_type_symbol
 _atom_site_label
 _atom_site_symmetry_multiplicity
 _atom_site_fract_x
 _atom_site_fract_y
 _atom_site_fract_z
 _atom_site_occupancy
  La  La0  1  0.000000  0.500000  0.261095  1
  La  La1  1  0.500000  0.000000  0.742258  1
  Zn  Zn2  1  0.500000  0.500000  0.994852  1
  Zn  Zn3  1  0.000000  0.000000  0.994852  1
  Si  Si4  1  0.500000  0.500000  0.501778  1
  Si  Si5  1  0.000000  0.000000  0.501778  1
  Si  Si6  1  0.000000  0.500000  0.855543  1
  Ge  Ge7  1  0.500000  0.000000  0.141351  1
  Pt  Pt8  1  0.000000  0.500000  0.616403  1
  Pt  Pt9  1  0.500000  0.000000  0.390089  1
