# generated using pymatgen
data_HfNi3P2
_symmetry_space_group_name_H-M   'P 1'
_cell_length_a   3.62971400
_cell_length_b   10.30646900
_cell_length_c   12.03729100
_cell_angle_alpha   90.00000000
_cell_angle_beta   90.00000000
_cell_angle_gamma   90.00000000
_symmetry_Int_Tables_number   1
_chemical_formula_structural   HfNi3P2
_chemical_formula_sum   'Hf6 Ni18 P12'
_cell_volume   450.30945680
_cell_formula_units_Z   6
loop_
 _symmetry_equiv_pos_site_id
 _symmetry_equiv_pos_as_xyz
  1  'x, y, z'
loop_
 _atom_site_type_symbol
 _atom_site_label
 _atom_site_symmetry_multiplicity
 _atom_site_fract_x
 _atom_site_fract_y
 _atom_site_fract_z
 _atom_site_occupancy
  Hf  Hf0  1  0.752388  0.000000  0.474446  1
  Hf  Hf1  1  0.252388  0.500000  0.525554  1
  Hf  Hf2  1  0.252155  0.678644  0.794448  1
  Hf  Hf3  1  0.252155  0.321356  0.794448  1
  Hf  Hf4  1  0.752155  0.821356  0.205552  1
  Hf  Hf5  1  0.752155  0.178644  0.205552  1
  Ni  Ni6  1  0.751421  0.000000  0.014960  1
  Ni  Ni7  1  0.251421  0.500000  0.985040  1
  Ni  Ni8  1  0.251788  0.198423  0.568008  1
  Ni  Ni9  1  0.251788  0.801577  0.568008  1
  Ni  Ni10  1  0.751788  0.301577  0.431992  1
  Ni  Ni11  1  0.751788  0.698423  0.431992  1
  Ni  Ni12  1  0.251677  0.624750  0.292953  1
  Ni  Ni13  1  0.251677  0.375250  0.292953  1
  Ni  Ni14  1  0.751677  0.875250  0.707047  1
  Ni  Ni15  1  0.751677  0.124750  0.707047  1
  Ni  Ni16  1  0.251463  0.169320  0.005401  1
  Ni  Ni17  1  0.251463  0.830680  0.005401  1
  Ni  Ni18  1  0.751463  0.330680  0.994599  1
  Ni  Ni19  1  0.751463  0.669320  0.994599  1
  Ni  Ni20  1  0.251063  0.000000  0.835964  1
  Ni  Ni21  1  0.751063  0.500000  0.164036  1
  Ni  Ni22  1  0.253204  0.000000  0.299892  1
  Ni  Ni23  1  0.753204  0.500000  0.700108  1
  P  P24  1  0.251918  0.182897  0.383423  1
  P  P25  1  0.251918  0.817103  0.383423  1
  P  P26  1  0.751918  0.317103  0.616577  1
  P  P27  1  0.751918  0.682897  0.616577  1
  P  P28  1  0.251651  0.000000  0.123478  1
  P  P29  1  0.751651  0.500000  0.876522  1
  P  P30  1  0.251633  0.655142  0.113001  1
  P  P31  1  0.251633  0.344858  0.113001  1
  P  P32  1  0.751633  0.844858  0.886999  1
  P  P33  1  0.751633  0.155142  0.886999  1
  P  P34  1  0.251809  0.000000  0.648035  1
  P  P35  1  0.751809  0.500000  0.351965  1
