# generated using pymatgen
data_Hf14Cu13Ir3Au4
_symmetry_space_group_name_H-M   'P 1'
_cell_length_a   8.00004334
_cell_length_b   7.87850667
_cell_length_c   9.53505332
_cell_angle_alpha   89.99775194
_cell_angle_beta   89.73300009
_cell_angle_gamma   107.16456561
_symmetry_Int_Tables_number   1
_chemical_formula_structural   Hf14Cu13Ir3Au4
_chemical_formula_sum   'Hf14 Cu13 Ir3 Au4'
_cell_volume   574.20526841
_cell_formula_units_Z   1
loop_
 _symmetry_equiv_pos_site_id
 _symmetry_equiv_pos_as_xyz
  1  'x, y, z'
loop_
 _atom_site_type_symbol
 _atom_site_label
 _atom_site_symmetry_multiplicity
 _atom_site_fract_x
 _atom_site_fract_y
 _atom_site_fract_z
 _atom_site_occupancy
  Hf  Hf0  1  0.692455  0.302030  0.997861  1
  Hf  Hf1  1  0.302919  0.700456  0.995724  1
  Hf  Hf2  1  0.806352  0.198083  0.496577  1
  Hf  Hf3  1  0.191379  0.805103  0.507546  1
  Hf  Hf4  1  0.000314  0.999562  0.000976  1
  Hf  Hf5  1  0.501377  0.499615  0.499228  1
  Hf  Hf6  1  0.007739  0.503634  0.250559  1
  Hf  Hf7  1  0.993061  0.491872  0.748757  1
  Hf  Hf8  1  0.496378  0.993189  0.748990  1
  Hf  Hf9  1  0.506856  0.008722  0.249348  1
  Hf  Hf10  1  0.312420  0.313896  0.188686  1
  Hf  Hf11  1  0.685529  0.676678  0.811147  1
  Hf  Hf12  1  0.186591  0.179204  0.692210  1
  Hf  Hf13  1  0.816721  0.822616  0.306693  1
  Cu  Cu14  1  0.654229  0.368247  0.296600  1
  Cu  Cu15  1  0.360028  0.657195  0.298325  1
  Cu  Cu16  1  0.346002  0.632176  0.701160  1
  Cu  Cu17  1  0.846832  0.132980  0.797988  1
  Cu  Cu18  1  0.159475  0.861022  0.203362  1
  Cu  Cu19  1  0.947327  0.647484  0.010723  1
  Cu  Cu20  1  0.051937  0.355105  0.994044  1
  Cu  Cu21  1  0.545536  0.849913  0.503238  1
  Cu  Cu22  1  0.151378  0.448557  0.496970  1
  Cu  Cu23  1  0.450893  0.148228  0.491836  1
  Cu  Cu24  1  0.855191  0.555532  0.497451  1
  Cu  Cu25  1  0.353755  0.054656  0.001114  1
  Cu  Cu26  1  0.645917  0.944014  0.999572  1
  Ir  Ir27  1  0.853916  0.150989  0.207884  1
  Ir  Ir28  1  0.146081  0.849175  0.791651  1
  Ir  Ir29  1  0.646091  0.350537  0.706301  1
  Au  Au30  1  0.122346  0.111867  0.398841  1
  Au  Au31  1  0.875030  0.887138  0.601768  1
  Au  Au32  1  0.378641  0.388255  0.898409  1
  Au  Au33  1  0.609298  0.612268  0.108464  1
