# generated using pymatgen
data_Yb(IrO3)3
_symmetry_space_group_name_H-M   'P 1'
_cell_length_a   5.39111704
_cell_length_b   5.39111587
_cell_length_c   11.76286400
_cell_angle_alpha   90.00000000
_cell_angle_beta   90.00000000
_cell_angle_gamma   107.05029687
_symmetry_Int_Tables_number   1
_chemical_formula_structural   Yb(IrO3)3
_chemical_formula_sum   'Yb2 Ir6 O18'
_cell_volume   326.85119505
_cell_formula_units_Z   2
loop_
 _symmetry_equiv_pos_site_id
 _symmetry_equiv_pos_as_xyz
  1  'x, y, z'
loop_
 _atom_site_type_symbol
 _atom_site_label
 _atom_site_symmetry_multiplicity
 _atom_site_fract_x
 _atom_site_fract_y
 _atom_site_fract_z
 _atom_site_occupancy
  Yb  Yb0  1  0.743538  0.256462  0.750000  1
  Yb  Yb1  1  0.256462  0.743538  0.250000  1
  Ir  Ir2  1  0.113217  0.886783  0.902723  1
  Ir  Ir3  1  0.886783  0.113217  0.402723  1
  Ir  Ir4  1  0.886783  0.113217  0.097277  1
  Ir  Ir5  1  0.113217  0.886783  0.597277  1
  Ir  Ir6  1  0.500000  0.500000  0.000000  1
  Ir  Ir7  1  0.500000  0.500000  0.500000  1
  O  O8  1  0.967577  0.032423  0.250000  1
  O  O9  1  0.032423  0.967577  0.750000  1
  O  O10  1  0.109349  0.890651  0.067639  1
  O  O11  1  0.890651  0.109349  0.567639  1
  O  O12  1  0.890651  0.109349  0.932361  1
  O  O13  1  0.109349  0.890651  0.432361  1
  O  O14  1  0.334433  0.665567  0.892465  1
  O  O15  1  0.665567  0.334433  0.392465  1
  O  O16  1  0.418474  0.190828  0.602810  1
  O  O17  1  0.581526  0.809172  0.102810  1
  O  O18  1  0.190828  0.418474  0.397190  1
  O  O19  1  0.809172  0.581526  0.897190  1
  O  O20  1  0.581526  0.809172  0.397190  1
  O  O21  1  0.418474  0.190828  0.897190  1
  O  O22  1  0.809172  0.581526  0.602810  1
  O  O23  1  0.190828  0.418474  0.102810  1
  O  O24  1  0.334433  0.665567  0.607535  1
  O  O25  1  0.665567  0.334433  0.107535  1
