# generated using pymatgen
data_HoTm15In4Ir3Ru
_symmetry_space_group_name_H-M   'P 1'
_cell_length_a   9.52838075
_cell_length_b   9.58458687
_cell_length_c   9.55000697
_cell_angle_alpha   59.88014356
_cell_angle_beta   59.71318290
_cell_angle_gamma   59.80467261
_symmetry_Int_Tables_number   1
_chemical_formula_structural   HoTm15In4Ir3Ru
_chemical_formula_sum   'Ho1 Tm15 In4 Ir3 Ru1'
_cell_volume   613.89833634
_cell_formula_units_Z   1
loop_
 _symmetry_equiv_pos_site_id
 _symmetry_equiv_pos_as_xyz
  1  'x, y, z'
loop_
 _atom_site_type_symbol
 _atom_site_label
 _atom_site_symmetry_multiplicity
 _atom_site_fract_x
 _atom_site_fract_y
 _atom_site_fract_z
 _atom_site_occupancy
  Ho  Ho0  1  0.439350  0.059832  0.440988  1
  Tm  Tm1  1  0.439938  0.443080  0.058219  1
  Tm  Tm2  1  0.649922  0.652043  0.045992  1
  Tm  Tm3  1  0.193531  0.808015  0.190438  1
  Tm  Tm4  1  0.059518  0.440249  0.059984  1
  Tm  Tm5  1  0.193722  0.807187  0.809347  1
  Tm  Tm6  1  0.058688  0.441226  0.440101  1
  Tm  Tm7  1  0.809253  0.191582  0.192650  1
  Tm  Tm8  1  0.650251  0.652578  0.651387  1
  Tm  Tm9  1  0.808459  0.191756  0.808030  1
  Tm  Tm10  1  0.193722  0.189742  0.809347  1
  Tm  Tm11  1  0.047144  0.651229  0.650399  1
  Tm  Tm12  1  0.439938  0.058765  0.058219  1
  Tm  Tm13  1  0.058688  0.059987  0.440101  1
  Tm  Tm14  1  0.650251  0.045784  0.651387  1
  Tm  Tm15  1  0.809253  0.806516  0.192650  1
  In  In16  1  0.416212  0.416622  0.416134  1
  In  In17  1  0.416710  0.415995  0.751301  1
  In  In18  1  0.416212  0.751034  0.416134  1
  In  In19  1  0.749735  0.416617  0.417032  1
  Ir  Ir20  1  0.859389  0.859414  0.859050  1
  Ir  Ir21  1  0.859389  0.422147  0.859050  1
  Ir  Ir22  1  0.859271  0.859024  0.422681  1
  Ru  Ru23  1  0.421454  0.859580  0.859385  1
