# generated using pymatgen
data_CsBe(NiBi)8
_symmetry_space_group_name_H-M   'P 1'
_cell_length_a   9.99197600
_cell_length_b   9.99197600
_cell_length_c   4.20973600
_cell_angle_alpha   90.00000000
_cell_angle_beta   90.00000000
_cell_angle_gamma   90.00000000
_symmetry_Int_Tables_number   1
_chemical_formula_structural   CsBe(NiBi)8
_chemical_formula_sum   'Cs1 Be1 Ni8 Bi8'
_cell_volume   420.29829261
_cell_formula_units_Z   1
loop_
 _symmetry_equiv_pos_site_id
 _symmetry_equiv_pos_as_xyz
  1  'x, y, z'
loop_
 _atom_site_type_symbol
 _atom_site_label
 _atom_site_symmetry_multiplicity
 _atom_site_fract_x
 _atom_site_fract_y
 _atom_site_fract_z
 _atom_site_occupancy
  Cs  Cs0  1  0.500000  0.500000  0.513753  1
  Be  Be1  1  0.000000  0.000000  0.255953  1
  Ni  Ni2  1  0.084485  0.826462  0.502781  1
  Ni  Ni3  1  0.915515  0.173538  0.502781  1
  Ni  Ni4  1  0.826462  0.915515  0.502781  1
  Ni  Ni5  1  0.173538  0.084485  0.502781  1
  Ni  Ni6  1  0.182091  0.941464  0.999592  1
  Ni  Ni7  1  0.817909  0.058536  0.999592  1
  Ni  Ni8  1  0.941464  0.817909  0.999592  1
  Ni  Ni9  1  0.058536  0.182091  0.999592  1
  Bi  Bi10  1  0.350448  0.881630  0.497930  1
  Bi  Bi11  1  0.649552  0.118370  0.497930  1
  Bi  Bi12  1  0.881630  0.649552  0.497930  1
  Bi  Bi13  1  0.118370  0.350448  0.497930  1
  Bi  Bi14  1  0.167329  0.670454  0.004620  1
  Bi  Bi15  1  0.832671  0.329546  0.004620  1
  Bi  Bi16  1  0.670454  0.832671  0.004620  1
  Bi  Bi17  1  0.329546  0.167329  0.004620  1
