# generated using pymatgen
data_Tb3CeNi8
_symmetry_space_group_name_H-M   'P 1'
_cell_length_a   5.05255800
_cell_length_b   5.05304865
_cell_length_c   8.79158900
_cell_angle_alpha   73.29807851
_cell_angle_beta   90.00102060
_cell_angle_gamma   119.99730996
_symmetry_Int_Tables_number   1
_chemical_formula_structural   Tb3CeNi8
_chemical_formula_sum   'Tb3 Ce1 Ni8'
_cell_volume   183.37576513
_cell_formula_units_Z   1
loop_
 _symmetry_equiv_pos_site_id
 _symmetry_equiv_pos_as_xyz
  1  'x, y, z'
loop_
 _atom_site_type_symbol
 _atom_site_label
 _atom_site_symmetry_multiplicity
 _atom_site_fract_x
 _atom_site_fract_y
 _atom_site_fract_z
 _atom_site_occupancy
  Tb  Tb0  1  0.812233  0.124462  0.563276  1
  Tb  Tb1  1  0.187607  0.875206  0.437382  1
  Tb  Tb2  1  0.687648  0.875310  0.937152  1
  Ce  Ce3  1  0.312735  0.125464  0.061770  1
  Ni  Ni4  1  0.999959  0.499897  0.000285  1
  Ni  Ni5  1  0.500021  0.500071  0.499938  1
  Ni  Ni6  1  0.750007  0.000023  0.250210  1
  Ni  Ni7  1  0.249729  0.999399  0.749856  1
  Ni  Ni8  1  0.750025  0.499728  0.250207  1
  Ni  Ni9  1  0.249695  0.500372  0.749855  1
  Ni  Ni10  1  0.249696  0.499737  0.250219  1
  Ni  Ni11  1  0.750641  0.500330  0.749854  1
