# generated using pymatgen
data_Sr5(OsO6)2
_symmetry_space_group_name_H-M   'P 1'
_cell_length_a   7.90348337
_cell_length_b   7.89982370
_cell_length_c   10.55322800
_cell_angle_alpha   111.97368757
_cell_angle_beta   111.98542671
_cell_angle_gamma   90.00826766
_symmetry_Int_Tables_number   1
_chemical_formula_structural   Sr5(OsO6)2
_chemical_formula_sum   'Sr10 Os4 O24'
_cell_volume   559.01779588
_cell_formula_units_Z   2
loop_
 _symmetry_equiv_pos_site_id
 _symmetry_equiv_pos_as_xyz
  1  'x, y, z'
loop_
 _atom_site_type_symbol
 _atom_site_label
 _atom_site_symmetry_multiplicity
 _atom_site_fract_x
 _atom_site_fract_y
 _atom_site_fract_z
 _atom_site_occupancy
  Sr  Sr0  1  0.499949  0.500213  0.999710  1
  Sr  Sr1  1  0.999921  0.999936  0.999876  1
  Sr  Sr2  1  0.442730  0.326099  0.287984  1
  Sr  Sr3  1  0.961962  0.442724  0.287925  1
  Sr  Sr4  1  0.326057  0.845135  0.287976  1
  Sr  Sr5  1  0.845286  0.961942  0.288054  1
  Sr  Sr6  1  0.154964  0.038512  0.711992  1
  Sr  Sr7  1  0.673597  0.155125  0.712023  1
  Sr  Sr8  1  0.038345  0.557032  0.712097  1
  Sr  Sr9  1  0.557046  0.673625  0.712016  1
  Os  Os10  1  0.500033  0.999978  0.000034  1
  Os  Os11  1  0.999985  0.500013  0.000037  1
  Os  Os12  1  0.246804  0.246775  0.493650  1
  Os  Os13  1  0.753306  0.753310  0.506508  1
  O  O14  1  0.291625  0.118562  0.999844  1
  O  O15  1  0.881061  0.291531  0.999894  1
  O  O16  1  0.118889  0.708460  0.000134  1
  O  O17  1  0.708416  0.881359  0.000190  1
  O  O18  1  0.657008  0.225042  0.152441  1
  O  O19  1  0.224619  0.495346  0.152742  1
  O  O20  1  0.927721  0.657178  0.152475  1
  O  O21  1  0.495515  0.928217  0.152831  1
  O  O22  1  0.134061  0.134247  0.268290  1
  O  O23  1  0.646153  0.646307  0.292124  1
  O  O24  1  0.471295  0.184241  0.477813  1
  O  O25  1  0.006570  0.293619  0.478056  1
  O  O26  1  0.293774  0.471699  0.478103  1
  O  O27  1  0.184217  0.006196  0.477925  1
  O  O28  1  0.815771  0.993727  0.522042  1
  O  O29  1  0.706227  0.528377  0.521872  1
  O  O30  1  0.993369  0.706418  0.521960  1
  O  O31  1  0.528810  0.815747  0.522149  1
  O  O32  1  0.353897  0.353655  0.707887  1
  O  O33  1  0.865875  0.865696  0.731554  1
  O  O34  1  0.504511  0.071621  0.847196  1
  O  O35  1  0.072219  0.342871  0.847584  1
  O  O36  1  0.775304  0.504671  0.847336  1
  O  O37  1  0.343115  0.774798  0.847684  1
