# generated using pymatgen
data_Nd11In2Hg7Pt4
_symmetry_space_group_name_H-M   'P 1'
_cell_length_a   13.51386380
_cell_length_b   13.45693597
_cell_length_c   3.80141600
_cell_angle_alpha   90.00000000
_cell_angle_beta   90.00000000
_cell_angle_gamma   112.21145939
_symmetry_Int_Tables_number   1
_chemical_formula_structural   Nd11In2Hg7Pt4
_chemical_formula_sum   'Nd11 In2 Hg7 Pt4'
_cell_volume   640.00880812
_cell_formula_units_Z   1
loop_
 _symmetry_equiv_pos_site_id
 _symmetry_equiv_pos_as_xyz
  1  'x, y, z'
loop_
 _atom_site_type_symbol
 _atom_site_label
 _atom_site_symmetry_multiplicity
 _atom_site_fract_x
 _atom_site_fract_y
 _atom_site_fract_z
 _atom_site_occupancy
  Nd  Nd0  1  0.077812  0.418748  0.000000  1
  Nd  Nd1  1  0.922429  0.583674  0.000000  1
  Nd  Nd2  1  0.418241  0.078813  0.000000  1
  Nd  Nd3  1  0.578790  0.923227  0.000000  1
  Nd  Nd4  1  0.629734  0.369835  0.000000  1
  Nd  Nd5  1  0.371553  0.629635  0.000000  1
  Nd  Nd6  1  0.834734  0.163561  0.000000  1
  Nd  Nd7  1  0.166631  0.834208  0.000000  1
  Nd  Nd8  1  0.004354  0.000096  0.000000  1
  Nd  Nd9  1  0.301033  0.303014  0.000000  1
  Nd  Nd10  1  0.694613  0.693747  0.000000  1
  In  In11  1  0.785816  0.930088  0.500000  1
  In  In12  1  0.499171  0.499095  0.500000  1
  Hg  Hg13  1  0.844682  0.366428  0.500000  1
  Hg  Hg14  1  0.157000  0.634366  0.500000  1
  Hg  Hg15  1  0.364316  0.843196  0.500000  1
  Hg  Hg16  1  0.635238  0.156376  0.500000  1
  Hg  Hg17  1  0.066173  0.214221  0.500000  1
  Hg  Hg18  1  0.928427  0.786545  0.500000  1
  Hg  Hg19  1  0.216619  0.068171  0.500000  1
  Pt  Pt20  1  0.251550  0.450166  0.500000  1
  Pt  Pt21  1  0.748634  0.548640  0.500000  1
  Pt  Pt22  1  0.449004  0.252034  0.500000  1
  Pt  Pt23  1  0.553443  0.752114  0.500000  1
