# generated using pymatgen
data_Y3Ho3B14MoOs
_symmetry_space_group_name_H-M   'P 1'
_cell_length_a   8.09383627
_cell_length_b   8.09383800
_cell_length_c   9.38518927
_cell_angle_alpha   89.97313425
_cell_angle_beta   90.02686631
_cell_angle_gamma   155.01277593
_symmetry_Int_Tables_number   1
_chemical_formula_structural   Y3Ho3B14MoOs
_chemical_formula_sum   'Y3 Ho3 B14 Mo1 Os1'
_cell_volume   259.71224902
_cell_formula_units_Z   1
loop_
 _symmetry_equiv_pos_site_id
 _symmetry_equiv_pos_as_xyz
  1  'x, y, z'
loop_
 _atom_site_type_symbol
 _atom_site_label
 _atom_site_symmetry_multiplicity
 _atom_site_fract_x
 _atom_site_fract_y
 _atom_site_fract_z
 _atom_site_occupancy
  Y  Y0  1  0.256203  0.743797  0.250141  1
  Y  Y1  1  0.744996  0.255004  0.749984  1
  Y  Y2  1  0.605955  0.394045  0.062051  1
  Ho  Ho3  1  0.393324  0.606676  0.941271  1
  Ho  Ho4  1  0.393328  0.606672  0.558686  1
  Ho  Ho5  1  0.605720  0.394280  0.438525  1
  B  B6  1  0.978799  0.021201  0.096500  1
  B  B7  1  0.019307  0.980693  0.908462  1
  B  B8  1  0.019476  0.980524  0.591181  1
  B  B9  1  0.978984  0.021016  0.403679  1
  B  B10  1  0.773681  0.226319  0.034885  1
  B  B11  1  0.228283  0.771717  0.967732  1
  B  B12  1  0.228068  0.771932  0.532083  1
  B  B13  1  0.773434  0.226566  0.465024  1
  B  B14  1  0.868420  0.131580  0.150765  1
  B  B15  1  0.134452  0.865548  0.852417  1
  B  B16  1  0.134423  0.865577  0.647103  1
  B  B17  1  0.868411  0.131589  0.349256  1
  B  B18  1  0.042196  0.957804  0.250395  1
  B  B19  1  0.954259  0.045741  0.749942  1
  Mo  Mo20  1  0.552423  0.447577  0.749754  1
  Os  Os21  1  0.445857  0.554143  0.250166  1
