# generated using pymatgen
data_Tb2Yb2Pt3RhO14
_symmetry_space_group_name_H-M   'P 1'
_cell_length_a   7.27130875
_cell_length_b   7.26491188
_cell_length_c   7.27130751
_cell_angle_alpha   59.88684321
_cell_angle_beta   59.80885179
_cell_angle_gamma   59.88685741
_symmetry_Int_Tables_number   1
_chemical_formula_structural   Tb2Yb2Pt3RhO14
_chemical_formula_sum   'Tb2 Yb2 Pt3 Rh1 O14'
_cell_volume   270.74871805
_cell_formula_units_Z   1
loop_
 _symmetry_equiv_pos_site_id
 _symmetry_equiv_pos_as_xyz
  1  'x, y, z'
loop_
 _atom_site_type_symbol
 _atom_site_label
 _atom_site_symmetry_multiplicity
 _atom_site_fract_x
 _atom_site_fract_y
 _atom_site_fract_z
 _atom_site_occupancy
  Tb  Tb0  1  0.625000  0.625000  0.625000  1
  Tb  Tb1  1  0.625000  0.125000  0.625000  1
  Yb  Yb2  1  0.625000  0.625000  0.125000  1
  Yb  Yb3  1  0.125000  0.625000  0.625000  1
  Pt  Pt4  1  0.625000  0.125000  0.125000  1
  Pt  Pt5  1  0.125000  0.625000  0.125000  1
  Pt  Pt6  1  0.125000  0.125000  0.625000  1
  Rh  Rh7  1  0.125000  0.125000  0.125000  1
  O  O8  1  0.036115  0.460629  0.461282  1
  O  O9  1  0.788718  0.789371  0.213885  1
  O  O10  1  0.792766  0.203213  0.211276  1
  O  O11  1  0.462553  0.037748  0.462553  1
  O  O12  1  0.045101  0.454046  0.045101  1
  O  O13  1  0.746623  0.753612  0.746623  1
  O  O14  1  0.038724  0.046787  0.457234  1
  O  O15  1  0.204899  0.795954  0.204899  1
  O  O16  1  0.211276  0.203213  0.792766  1
  O  O17  1  0.503377  0.496388  0.503377  1
  O  O18  1  0.787447  0.212252  0.787447  1
  O  O19  1  0.457234  0.046787  0.038724  1
  O  O20  1  0.461282  0.460629  0.036115  1
  O  O21  1  0.213885  0.789371  0.788718  1
