# generated using pymatgen
data_Nb12Al7Co4SiC4
_symmetry_space_group_name_H-M   'P 1'
_cell_length_a   8.23202162
_cell_length_b   8.23202191
_cell_length_c   8.23202249
_cell_angle_alpha   60.09771034
_cell_angle_beta   60.09770847
_cell_angle_gamma   60.09770784
_symmetry_Int_Tables_number   1
_chemical_formula_structural   Nb12Al7Co4SiC4
_chemical_formula_sum   'Nb12 Al7 Co4 Si1 C4'
_cell_volume   395.33476569
_cell_formula_units_Z   1
loop_
 _symmetry_equiv_pos_site_id
 _symmetry_equiv_pos_as_xyz
  1  'x, y, z'
loop_
 _atom_site_type_symbol
 _atom_site_label
 _atom_site_symmetry_multiplicity
 _atom_site_fract_x
 _atom_site_fract_y
 _atom_site_fract_z
 _atom_site_occupancy
  Nb  Nb0  1  0.687968  0.312446  0.687968  1
  Nb  Nb1  1  0.939983  0.560127  0.560127  1
  Nb  Nb2  1  0.560706  0.939032  0.939032  1
  Nb  Nb3  1  0.939032  0.560706  0.939032  1
  Nb  Nb4  1  0.560127  0.560127  0.939983  1
  Nb  Nb5  1  0.939032  0.939032  0.560706  1
  Nb  Nb6  1  0.687968  0.687968  0.312446  1
  Nb  Nb7  1  0.312446  0.687968  0.687968  1
  Nb  Nb8  1  0.685328  0.311119  0.311119  1
  Nb  Nb9  1  0.311119  0.311119  0.685328  1
  Nb  Nb10  1  0.560127  0.939983  0.560127  1
  Nb  Nb11  1  0.311119  0.685328  0.311119  1
  Al  Al12  1  0.245688  0.918279  0.918279  1
  Al  Al13  1  0.918279  0.245688  0.918279  1
  Al  Al14  1  0.918279  0.918279  0.245688  1
  Al  Al15  1  0.331213  0.003980  0.331213  1
  Al  Al16  1  0.331213  0.331213  0.003980  1
  Al  Al17  1  0.003980  0.331213  0.331213  1
  Al  Al18  1  0.918541  0.918541  0.918541  1
  Co  Co19  1  0.125212  0.125212  0.125212  1
  Co  Co20  1  0.619456  0.130218  0.130218  1
  Co  Co21  1  0.130218  0.619456  0.130218  1
  Co  Co22  1  0.130218  0.130218  0.619456  1
  Si  Si23  1  0.332049  0.332049  0.332049  1
  C  C24  1  0.625710  0.625710  0.625710  1
  C  C25  1  0.124654  0.625169  0.625169  1
  C  C26  1  0.625169  0.124654  0.625169  1
  C  C27  1  0.625169  0.625169  0.124654  1
