# generated using pymatgen
data_Cs4TaTi3H20
_symmetry_space_group_name_H-M   'P 1'
_cell_length_a   11.64131400
_cell_length_b   7.54516322
_cell_length_c   5.20747058
_cell_angle_alpha   90.03280839
_cell_angle_beta   89.95774407
_cell_angle_gamma   89.26649787
_symmetry_Int_Tables_number   1
_chemical_formula_structural   Cs4TaTi3H20
_chemical_formula_sum   'Cs4 Ta1 Ti3 H20'
_cell_volume   457.36369325
_cell_formula_units_Z   1
loop_
 _symmetry_equiv_pos_site_id
 _symmetry_equiv_pos_as_xyz
  1  'x, y, z'
loop_
 _atom_site_type_symbol
 _atom_site_label
 _atom_site_symmetry_multiplicity
 _atom_site_fract_x
 _atom_site_fract_y
 _atom_site_fract_z
 _atom_site_occupancy
  Cs  Cs0  1  0.672847  0.069049  0.334974  1
  Cs  Cs1  1  0.168573  0.431975  0.325529  1
  Cs  Cs2  1  0.830275  0.568964  0.824770  1
  Cs  Cs3  1  0.329587  0.935531  0.831039  1
  Ta  Ta4  1  0.517507  0.568948  0.307758  1
  Ti  Ti5  1  0.018208  0.927259  0.309826  1
  Ti  Ti6  1  0.982163  0.072715  0.809917  1
  Ti  Ti7  1  0.481767  0.429301  0.805843  1
  H  H8  1  0.341724  0.336194  0.787944  1
  H  H9  1  0.838627  0.157090  0.779789  1
  H  H10  1  0.955053  0.710235  0.289884  1
  H  H11  1  0.466914  0.801080  0.305587  1
  H  H12  1  0.583665  0.397480  0.085732  1
  H  H13  1  0.074033  0.103444  0.098574  1
  H  H14  1  0.395140  0.500575  0.093771  1
  H  H15  1  0.900653  0.013328  0.102754  1
  H  H16  1  0.968202  0.136181  0.465407  1
  H  H17  1  0.465821  0.355093  0.457380  1
  H  H18  1  0.162085  0.844408  0.277752  1
  H  H19  1  0.659206  0.671688  0.285872  1
  H  H20  1  0.533207  0.204350  0.803383  1
  H  H21  1  0.044892  0.290083  0.790263  1
  H  H22  1  0.926255  0.896504  0.598471  1
  H  H23  1  0.412476  0.597762  0.581807  1
  H  H24  1  0.099954  0.986507  0.602695  1
  H  H25  1  0.606673  0.485761  0.586228  1
  H  H26  1  0.532364  0.644630  0.959962  1
  H  H27  1  0.032133  0.863863  0.965085  1
