# generated using pymatgen
data_Y3Ho5SiPd24
_symmetry_space_group_name_H-M   'P 1'
_cell_length_a   8.32983007
_cell_length_b   8.32983007
_cell_length_c   8.32937702
_cell_angle_alpha   90.00492476
_cell_angle_beta   89.99507524
_cell_angle_gamma   89.98624334
_symmetry_Int_Tables_number   1
_chemical_formula_structural   Y3Ho5SiPd24
_chemical_formula_sum   'Y3 Ho5 Si1 Pd24'
_cell_volume   577.94270703
_cell_formula_units_Z   1
loop_
 _symmetry_equiv_pos_site_id
 _symmetry_equiv_pos_as_xyz
  1  'x, y, z'
loop_
 _atom_site_type_symbol
 _atom_site_label
 _atom_site_symmetry_multiplicity
 _atom_site_fract_x
 _atom_site_fract_y
 _atom_site_fract_z
 _atom_site_occupancy
  Y  Y0  1  0.253487  0.746513  0.253464  1
  Y  Y1  1  0.253480  0.746520  0.746526  1
  Y  Y2  1  0.746489  0.253511  0.253497  1
  Ho  Ho3  1  0.253568  0.253572  0.253589  1
  Ho  Ho4  1  0.746404  0.746389  0.746390  1
  Ho  Ho5  1  0.746428  0.746432  0.253589  1
  Ho  Ho6  1  0.746378  0.253622  0.746395  1
  Ho  Ho7  1  0.253611  0.253596  0.746390  1
  Si  Si8  1  0.000066  0.999934  0.000071  1
  Pd  Pd9  1  0.257590  0.499030  0.999970  1
  Pd  Pd10  1  0.742392  0.500476  0.999486  1
  Pd  Pd11  1  0.000455  0.257608  0.500485  1
  Pd  Pd12  1  0.499524  0.257608  0.999486  1
  Pd  Pd13  1  0.998995  0.742413  0.500004  1
  Pd  Pd14  1  0.500970  0.742410  0.999970  1
  Pd  Pd15  1  0.500006  0.000034  0.257588  1
  Pd  Pd16  1  0.257587  0.001005  0.500004  1
  Pd  Pd17  1  0.500488  0.000519  0.742391  1
  Pd  Pd18  1  0.742392  0.999545  0.500485  1
  Pd  Pd19  1  0.999966  0.499994  0.257588  1
  Pd  Pd20  1  0.999481  0.499512  0.742391  1
  Pd  Pd21  1  0.252583  0.498919  0.500023  1
  Pd  Pd22  1  0.747400  0.500502  0.500550  1
  Pd  Pd23  1  0.499498  0.252600  0.500550  1
  Pd  Pd24  1  0.501081  0.747417  0.500023  1
  Pd  Pd25  1  0.500027  0.499973  0.252580  1
  Pd  Pd26  1  0.500556  0.499444  0.747399  1
  Pd  Pd27  1  0.280423  0.000914  0.999984  1
  Pd  Pd28  1  0.719645  0.999570  0.999537  1
  Pd  Pd29  1  0.000430  0.280355  0.999537  1
  Pd  Pd30  1  0.999086  0.719577  0.999984  1
  Pd  Pd31  1  0.999985  0.000015  0.280422  1
  Pd  Pd32  1  0.999530  0.000470  0.719652  1
