# generated using pymatgen
data_NaZr2GeTe2
_symmetry_space_group_name_H-M   'P 1'
_cell_length_a   4.01449000
_cell_length_b   4.01449942
_cell_length_c   32.59769200
_cell_angle_alpha   90.00000000
_cell_angle_beta   89.99964319
_cell_angle_gamma   120.00007073
_symmetry_Int_Tables_number   1
_chemical_formula_structural   NaZr2GeTe2
_chemical_formula_sum   'Na3 Zr6 Ge3 Te6'
_cell_volume   454.96601154
_cell_formula_units_Z   3
loop_
 _symmetry_equiv_pos_site_id
 _symmetry_equiv_pos_as_xyz
  1  'x, y, z'
loop_
 _atom_site_type_symbol
 _atom_site_label
 _atom_site_symmetry_multiplicity
 _atom_site_fract_x
 _atom_site_fract_y
 _atom_site_fract_z
 _atom_site_occupancy
  Na  Na0  1  0.333366  0.666684  0.166661  1
  Na  Na1  1  0.999999  0.999999  0.500007  1
  Na  Na2  1  0.666634  0.333318  0.833370  1
  Zr  Zr3  1  0.333365  0.666682  0.044435  1
  Zr  Zr4  1  0.333203  0.666601  0.288844  1
  Zr  Zr5  1  0.000038  0.000019  0.377757  1
  Zr  Zr6  1  0.999993  0.999997  0.622210  1
  Zr  Zr7  1  0.666716  0.333358  0.711159  1
  Zr  Zr8  1  0.666640  0.333320  0.955573  1
  Ge  Ge9  1  0.000000  0.000000  0.000001  1
  Ge  Ge10  1  0.666640  0.333321  0.333270  1
  Ge  Ge11  1  0.333343  0.666671  0.666692  1
  Te  Te12  1  0.666658  0.333329  0.100673  1
  Te  Te13  1  0.000068  0.000034  0.232615  1
  Te  Te14  1  0.333280  0.666639  0.434033  1
  Te  Te15  1  0.666731  0.333365  0.565946  1
  Te  Te16  1  0.999966  0.999983  0.767438  1
  Te  Te17  1  0.333351  0.666675  0.899347  1
