# generated using pymatgen
data_ThReH5
_symmetry_space_group_name_H-M   'P 1'
_cell_length_a   4.62129900
_cell_length_b   4.77144100
_cell_length_c   12.07790700
_cell_angle_alpha   90.00000000
_cell_angle_beta   90.00000000
_cell_angle_gamma   90.00000000
_symmetry_Int_Tables_number   1
_chemical_formula_structural   ThReH5
_chemical_formula_sum   'Th4 Re4 H20'
_cell_volume   266.32093552
_cell_formula_units_Z   4
loop_
 _symmetry_equiv_pos_site_id
 _symmetry_equiv_pos_as_xyz
  1  'x, y, z'
loop_
 _atom_site_type_symbol
 _atom_site_label
 _atom_site_symmetry_multiplicity
 _atom_site_fract_x
 _atom_site_fract_y
 _atom_site_fract_z
 _atom_site_occupancy
  Th  Th0  1  0.272853  0.169963  0.646696  1
  Th  Th1  1  0.772853  0.330037  0.353304  1
  Th  Th2  1  0.227147  0.830037  0.146696  1
  Th  Th3  1  0.727147  0.669963  0.853304  1
  Re  Re4  1  0.305487  0.163551  0.906165  1
  Re  Re5  1  0.805487  0.336449  0.093835  1
  Re  Re6  1  0.194513  0.836449  0.406165  1
  Re  Re7  1  0.694513  0.663551  0.593835  1
  H  H8  1  0.567252  0.375985  0.522062  1
  H  H9  1  0.067252  0.124015  0.477938  1
  H  H10  1  0.932748  0.624015  0.022062  1
  H  H11  1  0.432748  0.875985  0.977938  1
  H  H12  1  0.135614  0.947291  0.811344  1
  H  H13  1  0.635614  0.552709  0.188656  1
  H  H14  1  0.364386  0.052709  0.311344  1
  H  H15  1  0.864386  0.447291  0.688656  1
  H  H16  1  0.206577  0.460289  0.825374  1
  H  H17  1  0.706577  0.039711  0.174626  1
  H  H18  1  0.293423  0.539711  0.325374  1
  H  H19  1  0.793423  0.960289  0.674626  1
  H  H20  1  0.612363  0.166855  0.823501  1
  H  H21  1  0.112363  0.333145  0.176499  1
  H  H22  1  0.887637  0.833145  0.323501  1
  H  H23  1  0.387637  0.666855  0.676499  1
  H  H24  1  0.977451  0.080741  0.995350  1
  H  H25  1  0.477451  0.419259  0.004650  1
  H  H26  1  0.522549  0.919259  0.495350  1
  H  H27  1  0.022549  0.580741  0.504650  1
