# generated using pymatgen
data_Sm3Ho2(FeB3)2
_symmetry_space_group_name_H-M   'P 1'
_cell_length_a   5.42976660
_cell_length_b   5.42976742
_cell_length_c   8.45814158
_cell_angle_alpha   71.27788474
_cell_angle_beta   71.27788065
_cell_angle_gamma   59.99999261
_symmetry_Int_Tables_number   1
_chemical_formula_structural   Sm3Ho2(FeB3)2
_chemical_formula_sum   'Sm3 Ho2 Fe2 B6'
_cell_volume   200.57661516
_cell_formula_units_Z   1
loop_
 _symmetry_equiv_pos_site_id
 _symmetry_equiv_pos_as_xyz
  1  'x, y, z'
loop_
 _atom_site_type_symbol
 _atom_site_label
 _atom_site_symmetry_multiplicity
 _atom_site_fract_x
 _atom_site_fract_y
 _atom_site_fract_z
 _atom_site_occupancy
  Sm  Sm0  1  0.000000  0.000000  0.000000  1
  Sm  Sm1  1  0.252541  0.252541  0.242376  1
  Sm  Sm2  1  0.747459  0.747459  0.757624  1
  Ho  Ho3  1  0.419572  0.419572  0.741285  1
  Ho  Ho4  1  0.580428  0.580428  0.258715  1
  Fe  Fe5  1  0.119548  0.119548  0.641355  1
  Fe  Fe6  1  0.880452  0.880452  0.358645  1
  B  B7  1  0.167414  0.832586  0.500000  1
  B  B8  1  0.832586  0.500000  0.500000  1
  B  B9  1  0.500000  0.167414  0.500000  1
  B  B10  1  0.167414  0.500000  0.500000  1
  B  B11  1  0.500000  0.832586  0.500000  1
  B  B12  1  0.832586  0.167414  0.500000  1
