# generated using pymatgen
data_Ho3Mg3Hg2Os
_symmetry_space_group_name_H-M   'P 1'
_cell_length_a   7.86315100
_cell_length_b   7.86315117
_cell_length_c   3.94558100
_cell_angle_alpha   90.00000000
_cell_angle_beta   90.00000000
_cell_angle_gamma   119.99999510
_symmetry_Int_Tables_number   1
_chemical_formula_structural   Ho3Mg3Hg2Os
_chemical_formula_sum   'Ho3 Mg3 Hg2 Os1'
_cell_volume   211.26855277
_cell_formula_units_Z   1
loop_
 _symmetry_equiv_pos_site_id
 _symmetry_equiv_pos_as_xyz
  1  'x, y, z'
loop_
 _atom_site_type_symbol
 _atom_site_label
 _atom_site_symmetry_multiplicity
 _atom_site_fract_x
 _atom_site_fract_y
 _atom_site_fract_z
 _atom_site_occupancy
  Ho  Ho0  1  0.564120  0.959019  0.000000  1
  Ho  Ho1  1  0.040981  0.605102  0.000000  1
  Ho  Ho2  1  0.394898  0.435880  0.000000  1
  Mg  Mg3  1  0.259827  0.996560  0.500000  1
  Mg  Mg4  1  0.003440  0.263267  0.500000  1
  Mg  Mg5  1  0.736733  0.740173  0.500000  1
  Hg  Hg6  1  0.666667  0.333333  0.500000  1
  Hg  Hg7  1  0.000000  0.000000  0.000000  1
  Os  Os8  1  0.333333  0.666667  0.500000  1
