# generated using pymatgen
data_TmPa3(NbN2)4
_symmetry_space_group_name_H-M   'P 1'
_cell_length_a   3.30808600
_cell_length_b   5.72053301
_cell_length_c   10.96918500
_cell_angle_alpha   90.11306609
_cell_angle_beta   90.00000000
_cell_angle_gamma   90.00000000
_symmetry_Int_Tables_number   1
_chemical_formula_structural   TmPa3(NbN2)4
_chemical_formula_sum   'Tm1 Pa3 Nb4 N8'
_cell_volume   207.58061899
_cell_formula_units_Z   1
loop_
 _symmetry_equiv_pos_site_id
 _symmetry_equiv_pos_as_xyz
  1  'x, y, z'
loop_
 _atom_site_type_symbol
 _atom_site_label
 _atom_site_symmetry_multiplicity
 _atom_site_fract_x
 _atom_site_fract_y
 _atom_site_fract_z
 _atom_site_occupancy
  Tm  Tm0  1  0.250000  0.577367  0.854583  1
  Pa  Pa1  1  0.750000  0.425496  0.138942  1
  Pa  Pa2  1  0.750000  0.922774  0.355620  1
  Pa  Pa3  1  0.250000  0.079126  0.648103  1
  Nb  Nb4  1  0.250000  0.922723  0.095768  1
  Nb  Nb5  1  0.750000  0.071340  0.905358  1
  Nb  Nb6  1  0.750000  0.576968  0.599626  1
  Nb  Nb7  1  0.250000  0.424534  0.402714  1
  N  N8  1  0.250000  0.659862  0.245289  1
  N  N9  1  0.750000  0.336692  0.753684  1
  N  N10  1  0.750000  0.844089  0.744746  1
  N  N11  1  0.250000  0.158257  0.255055  1
  N  N12  1  0.250000  0.766664  0.505011  1
  N  N13  1  0.750000  0.234672  0.496835  1
  N  N14  1  0.750000  0.730745  0.001548  1
  N  N15  1  0.250000  0.268690  0.997117  1
