# generated using pymatgen
data_Y3Lu5Cd2NiIr
_symmetry_space_group_name_H-M   'P 1'
_cell_length_a   9.49168199
_cell_length_b   9.49168155
_cell_length_c   9.54137700
_cell_angle_alpha   59.82665677
_cell_angle_beta   59.82665832
_cell_angle_gamma   59.64295096
_symmetry_Int_Tables_number   1
_chemical_formula_structural   Y3Lu5Cd2NiIr
_chemical_formula_sum   'Y6 Lu10 Cd4 Ni2 Ir2'
_cell_volume   604.58873878
_cell_formula_units_Z   2
loop_
 _symmetry_equiv_pos_site_id
 _symmetry_equiv_pos_as_xyz
  1  'x, y, z'
loop_
 _atom_site_type_symbol
 _atom_site_label
 _atom_site_symmetry_multiplicity
 _atom_site_fract_x
 _atom_site_fract_y
 _atom_site_fract_z
 _atom_site_occupancy
  Y  Y0  1  0.189244  0.809328  0.813217  1
  Y  Y1  1  0.809328  0.189244  0.188212  1
  Y  Y2  1  0.809328  0.189244  0.813217  1
  Y  Y3  1  0.189244  0.809328  0.188212  1
  Y  Y4  1  0.813157  0.813157  0.186843  1
  Y  Y5  1  0.191432  0.191432  0.808568  1
  Lu  Lu6  1  0.599488  0.599488  0.594085  1
  Lu  Lu7  1  0.599488  0.599488  0.206940  1
  Lu  Lu8  1  0.602319  0.205402  0.596139  1
  Lu  Lu9  1  0.205402  0.602319  0.596139  1
  Lu  Lu10  1  0.060604  0.436008  0.438991  1
  Lu  Lu11  1  0.436008  0.060604  0.064397  1
  Lu  Lu12  1  0.436008  0.060604  0.438991  1
  Lu  Lu13  1  0.060604  0.436008  0.064397  1
  Lu  Lu14  1  0.437762  0.437762  0.062238  1
  Lu  Lu15  1  0.062362  0.062362  0.437638  1
  Cd  Cd16  1  0.829178  0.829178  0.832082  1
  Cd  Cd17  1  0.829178  0.829178  0.509561  1
  Cd  Cd18  1  0.829723  0.507623  0.831326  1
  Cd  Cd19  1  0.507623  0.829723  0.831326  1
  Ni  Ni20  1  0.391669  0.825735  0.391298  1
  Ni  Ni21  1  0.825735  0.391669  0.391298  1
  Ir  Ir22  1  0.392559  0.392559  0.391666  1
  Ir  Ir23  1  0.392559  0.392559  0.823217  1
