# generated using pymatgen
data_Cs4As2S9
_symmetry_space_group_name_H-M   'P 1'
_cell_length_a   7.39089063
_cell_length_b   7.39089094
_cell_length_c   19.54144531
_cell_angle_alpha   93.66382555
_cell_angle_beta   93.66382696
_cell_angle_gamma   94.08242126
_symmetry_Int_Tables_number   1
_chemical_formula_structural   Cs4As2S9
_chemical_formula_sum   'Cs8 As4 S18'
_cell_volume   1060.05667915
_cell_formula_units_Z   2
loop_
 _symmetry_equiv_pos_site_id
 _symmetry_equiv_pos_as_xyz
  1  'x, y, z'
loop_
 _atom_site_type_symbol
 _atom_site_label
 _atom_site_symmetry_multiplicity
 _atom_site_fract_x
 _atom_site_fract_y
 _atom_site_fract_z
 _atom_site_occupancy
  Cs  Cs0  1  0.721600  0.214987  0.026185  1
  Cs  Cs1  1  0.236365  0.432712  0.174627  1
  Cs  Cs2  1  0.567288  0.763634  0.325373  1
  Cs  Cs3  1  0.785013  0.278399  0.473815  1
  Cs  Cs4  1  0.214987  0.721600  0.526185  1
  Cs  Cs5  1  0.432712  0.236365  0.674627  1
  Cs  Cs6  1  0.763634  0.567288  0.825373  1
  Cs  Cs7  1  0.278399  0.785013  0.973815  1
  As  As8  1  0.733555  0.745845  0.124274  1
  As  As9  1  0.254155  0.266445  0.375727  1
  As  As10  1  0.745844  0.733554  0.624273  1
  As  As11  1  0.266445  0.254155  0.875727  1
  S  S12  1  0.792743  0.717010  0.016975  1
  S  S13  1  0.494069  0.883047  0.144127  1
  S  S14  1  0.988385  0.958253  0.162170  1
  S  S15  1  0.751067  0.508264  0.181110  1
  S  S16  1  0.909681  0.090320  0.250000  1
  S  S17  1  0.491736  0.248933  0.318891  1
  S  S18  1  0.041748  0.011616  0.337830  1
  S  S19  1  0.116953  0.505930  0.355872  1
  S  S20  1  0.282989  0.207257  0.483025  1
  S  S21  1  0.717010  0.792743  0.516975  1
  S  S22  1  0.883047  0.494069  0.644128  1
  S  S23  1  0.958252  0.988383  0.662170  1
  S  S24  1  0.508264  0.751066  0.681109  1
  S  S25  1  0.090320  0.909681  0.750000  1
  S  S26  1  0.248933  0.491736  0.818891  1
  S  S27  1  0.011616  0.041748  0.837830  1
  S  S28  1  0.505930  0.116953  0.855872  1
  S  S29  1  0.207257  0.282989  0.983025  1
