# generated using pymatgen
data_Ac2MgSn3Ir4
_symmetry_space_group_name_H-M   'P 1'
_cell_length_a   4.46393100
_cell_length_b   4.46393100
_cell_length_c   11.41411200
_cell_angle_alpha   90.00000000
_cell_angle_beta   90.00000000
_cell_angle_gamma   90.00000000
_symmetry_Int_Tables_number   1
_chemical_formula_structural   Ac2MgSn3Ir4
_chemical_formula_sum   'Ac2 Mg1 Sn3 Ir4'
_cell_volume   227.44535700
_cell_formula_units_Z   1
loop_
 _symmetry_equiv_pos_site_id
 _symmetry_equiv_pos_as_xyz
  1  'x, y, z'
loop_
 _atom_site_type_symbol
 _atom_site_label
 _atom_site_symmetry_multiplicity
 _atom_site_fract_x
 _atom_site_fract_y
 _atom_site_fract_z
 _atom_site_occupancy
  Ac  Ac0  1  0.000000  0.500000  0.750612  1
  Ac  Ac1  1  0.500000  0.000000  0.249388  1
  Mg  Mg2  1  0.000000  0.000000  0.500000  1
  Sn  Sn3  1  0.000000  0.500000  0.127034  1
  Sn  Sn4  1  0.500000  0.000000  0.872966  1
  Sn  Sn5  1  0.500000  0.500000  0.500000  1
  Ir  Ir6  1  0.000000  0.500000  0.361310  1
  Ir  Ir7  1  0.000000  0.000000  0.000000  1
  Ir  Ir8  1  0.500000  0.000000  0.638690  1
  Ir  Ir9  1  0.500000  0.500000  0.000000  1
