# generated using pymatgen
data_Nd3Er5Cd2PdRu
_symmetry_space_group_name_H-M   'P 1'
_cell_length_a   9.70743369
_cell_length_b   9.70743369
_cell_length_c   9.73073400
_cell_angle_alpha   59.92056842
_cell_angle_beta   59.92056842
_cell_angle_gamma   60.02981400
_symmetry_Int_Tables_number   1
_chemical_formula_structural   Nd3Er5Cd2PdRu
_chemical_formula_sum   'Nd6 Er10 Cd4 Pd2 Ru2'
_cell_volume   647.76060205
_cell_formula_units_Z   2
loop_
 _symmetry_equiv_pos_site_id
 _symmetry_equiv_pos_as_xyz
  1  'x, y, z'
loop_
 _atom_site_type_symbol
 _atom_site_label
 _atom_site_symmetry_multiplicity
 _atom_site_fract_x
 _atom_site_fract_y
 _atom_site_fract_z
 _atom_site_occupancy
  Nd  Nd0  1  0.939015  0.556065  0.563851  1
  Nd  Nd1  1  0.556065  0.939015  0.941068  1
  Nd  Nd2  1  0.556065  0.939015  0.563851  1
  Nd  Nd3  1  0.939015  0.556065  0.941068  1
  Nd  Nd4  1  0.560790  0.560790  0.939210  1
  Nd  Nd5  1  0.940829  0.940829  0.559171  1
  Er  Er6  1  0.347747  0.347747  0.354714  1
  Er  Er7  1  0.347747  0.347747  0.949793  1
  Er  Er8  1  0.343178  0.959298  0.348762  1
  Er  Er9  1  0.959298  0.343178  0.348762  1
  Er  Er10  1  0.819677  0.184575  0.187454  1
  Er  Er11  1  0.184575  0.819677  0.808294  1
  Er  Er12  1  0.184575  0.819677  0.187454  1
  Er  Er13  1  0.819677  0.184575  0.808294  1
  Er  Er14  1  0.184838  0.184838  0.815162  1
  Er  Er15  1  0.812231  0.812231  0.187769  1
  Cd  Cd16  1  0.579031  0.579031  0.579596  1
  Cd  Cd17  1  0.579031  0.579031  0.262343  1
  Cd  Cd18  1  0.579718  0.260076  0.580103  1
  Cd  Cd19  1  0.260076  0.579718  0.580103  1
  Pd  Pd20  1  0.145896  0.572330  0.140886  1
  Pd  Pd21  1  0.572330  0.145896  0.140886  1
  Ru  Ru22  1  0.144298  0.144298  0.138221  1
  Ru  Ru23  1  0.144298  0.144298  0.573184  1
