# generated using pymatgen
data_Y20Tl3Cd2HgRu2
_symmetry_space_group_name_H-M   'P 1'
_cell_length_a   9.77296608
_cell_length_b   9.77296596
_cell_length_c   9.76308800
_cell_angle_alpha   90.00000000
_cell_angle_beta   90.00000000
_cell_angle_gamma   119.84784511
_symmetry_Int_Tables_number   1
_chemical_formula_structural   Y20Tl3Cd2HgRu2
_chemical_formula_sum   'Y20 Tl3 Cd2 Hg1 Ru2'
_cell_volume   808.78751665
_cell_formula_units_Z   1
loop_
 _symmetry_equiv_pos_site_id
 _symmetry_equiv_pos_as_xyz
  1  'x, y, z'
loop_
 _atom_site_type_symbol
 _atom_site_label
 _atom_site_symmetry_multiplicity
 _atom_site_fract_x
 _atom_site_fract_y
 _atom_site_fract_z
 _atom_site_occupancy
  Y  Y0  1  0.002108  0.997892  0.508663  1
  Y  Y1  1  0.002108  0.997892  0.991337  1
  Y  Y2  1  0.210662  0.789338  0.438948  1
  Y  Y3  1  0.209798  0.420128  0.439444  1
  Y  Y4  1  0.579872  0.790202  0.439444  1
  Y  Y5  1  0.790436  0.209564  0.562780  1
  Y  Y6  1  0.789174  0.580344  0.562626  1
  Y  Y7  1  0.419656  0.210826  0.562626  1
  Y  Y8  1  0.790436  0.209564  0.937220  1
  Y  Y9  1  0.789174  0.580344  0.937374  1
  Y  Y10  1  0.419656  0.210826  0.937374  1
  Y  Y11  1  0.210662  0.789338  0.061052  1
  Y  Y12  1  0.209798  0.420128  0.060556  1
  Y  Y13  1  0.579872  0.790202  0.060556  1
  Y  Y14  1  0.538207  0.461793  0.250000  1
  Y  Y15  1  0.539581  0.079301  0.250000  1
  Y  Y16  1  0.920699  0.460419  0.250000  1
  Y  Y17  1  0.458093  0.541907  0.750000  1
  Y  Y18  1  0.456028  0.918532  0.750000  1
  Y  Y19  1  0.081468  0.543972  0.750000  1
  Tl  Tl20  1  0.883390  0.116610  0.250000  1
  Tl  Tl21  1  0.883360  0.764887  0.250000  1
  Tl  Tl22  1  0.235113  0.116640  0.250000  1
  Cd  Cd23  1  0.117042  0.236273  0.750000  1
  Cd  Cd24  1  0.763727  0.882958  0.750000  1
  Hg  Hg25  1  0.119148  0.880852  0.750000  1
  Ru  Ru26  1  0.334256  0.665744  0.250000  1
  Ru  Ru27  1  0.666476  0.333524  0.750000  1
