# generated using pymatgen
data_Tb3Y5Hf12Si15As
_symmetry_space_group_name_H-M   'P 1'
_cell_length_a   7.28137838
_cell_length_b   7.29515413
_cell_length_c   13.39812501
_cell_angle_alpha   89.71366989
_cell_angle_beta   89.96550895
_cell_angle_gamma   89.92628659
_symmetry_Int_Tables_number   1
_chemical_formula_structural   Tb3Y5Hf12Si15As
_chemical_formula_sum   'Tb3 Y5 Hf12 Si15 As1'
_cell_volume   711.68242002
_cell_formula_units_Z   1
loop_
 _symmetry_equiv_pos_site_id
 _symmetry_equiv_pos_as_xyz
  1  'x, y, z'
loop_
 _atom_site_type_symbol
 _atom_site_label
 _atom_site_symmetry_multiplicity
 _atom_site_fract_x
 _atom_site_fract_y
 _atom_site_fract_z
 _atom_site_occupancy
  Tb  Tb0  1  0.495899  0.154809  0.535565  1
  Tb  Tb1  1  0.344761  0.995866  0.785192  1
  Tb  Tb2  1  0.654780  0.004291  0.284225  1
  Y  Y3  1  0.995675  0.345137  0.215141  1
  Y  Y4  1  0.004900  0.656039  0.715326  1
  Y  Y5  1  0.153057  0.498954  0.466663  1
  Y  Y6  1  0.506879  0.842598  0.033828  1
  Y  Y7  1  0.844170  0.503675  0.964834  1
  Hf  Hf8  1  0.174429  0.175200  0.000151  1
  Hf  Hf9  1  0.826258  0.826297  0.500057  1
  Hf  Hf10  1  0.325127  0.677648  0.249772  1
  Hf  Hf11  1  0.674390  0.325422  0.750005  1
  Hf  Hf12  1  0.149641  0.995453  0.372985  1
  Hf  Hf13  1  0.850751  0.003970  0.874737  1
  Hf  Hf14  1  0.503364  0.650117  0.624810  1
  Hf  Hf15  1  0.350907  0.496305  0.875419  1
  Hf  Hf16  1  0.494826  0.348125  0.125083  1
  Hf  Hf17  1  0.653276  0.506544  0.376748  1
  Hf  Hf18  1  0.996581  0.150000  0.625594  1
  Hf  Hf19  1  0.001186  0.848155  0.124405  1
  Si  Si20  1  0.637184  0.705160  0.816572  1
  Si  Si21  1  0.203954  0.863569  0.566298  1
  Si  Si22  1  0.137109  0.794843  0.932572  1
  Si  Si23  1  0.795020  0.138211  0.067176  1
  Si  Si24  1  0.862984  0.204304  0.432755  1
  Si  Si25  1  0.295728  0.362312  0.682963  1
  Si  Si26  1  0.703064  0.635810  0.183734  1
  Si  Si27  1  0.293283  0.039145  0.179914  1
  Si  Si28  1  0.705731  0.951063  0.685686  1
  Si  Si29  1  0.451549  0.795375  0.435902  1
  Si  Si30  1  0.205025  0.548006  0.064465  1
  Si  Si31  1  0.549127  0.205112  0.935791  1
  Si  Si32  1  0.794289  0.451251  0.565107  1
  Si  Si33  1  0.049191  0.294827  0.814096  1
  Si  Si34  1  0.951918  0.705420  0.314595  1
  As  As35  1  0.363989  0.300989  0.321832  1
