# generated using pymatgen
data_Cs2KSe22
_symmetry_space_group_name_H-M   'P 1'
_cell_length_a   9.16967727
_cell_length_b   8.98568686
_cell_length_c   11.72209917
_cell_angle_alpha   112.44484617
_cell_angle_beta   112.93605880
_cell_angle_gamma   90.27499868
_symmetry_Int_Tables_number   1
_chemical_formula_structural   Cs2KSe22
_chemical_formula_sum   'Cs2 K1 Se22'
_cell_volume   808.61696766
_cell_formula_units_Z   1
loop_
 _symmetry_equiv_pos_site_id
 _symmetry_equiv_pos_as_xyz
  1  'x, y, z'
loop_
 _atom_site_type_symbol
 _atom_site_label
 _atom_site_symmetry_multiplicity
 _atom_site_fract_x
 _atom_site_fract_y
 _atom_site_fract_z
 _atom_site_occupancy
  Cs  Cs0  1  0.183126  0.168860  0.348081  1
  Cs  Cs1  1  0.835322  0.821143  0.652173  1
  K  K2  1  0.495510  0.502004  0.000187  1
  Se  Se3  1  0.878901  0.841923  0.000098  1
  Se  Se4  1  0.118091  0.515637  0.775746  1
  Se  Se5  1  0.253320  0.111247  0.764892  1
  Se  Se6  1  0.041390  0.220025  0.638725  1
  Se  Se7  1  0.342201  0.739433  0.224685  1
  Se  Se8  1  0.948698  0.787789  0.351044  1
  Se  Se9  1  0.651749  0.260043  0.764774  1
  Se  Se10  1  0.489367  0.346255  0.235827  1
  Se  Se11  1  0.854016  0.099165  0.000079  1
  Se  Se12  1  0.508457  0.672041  0.782993  1
  Se  Se13  1  0.724963  0.889669  0.217393  1
  Se  Se14  1  0.887549  0.496148  0.235680  1
  Se  Se15  1  0.422096  0.040929  0.646065  1
  Se  Se16  1  0.571914  0.957816  0.350983  1
  Se  Se17  1  0.221488  0.607150  0.649502  1
  Se  Se18  1  0.218302  0.885501  0.000478  1
  Se  Se19  1  0.597707  0.436252  0.649397  1
  Se  Se20  1  0.017796  0.455847  0.000605  1
  Se  Se21  1  0.777367  0.395736  0.354700  1
  Se  Se22  1  0.103817  0.207352  0.000458  1
  Se  Se23  1  0.459759  0.979412  0.000744  1
  Se  Se24  1  0.403135  0.581103  0.361740  1
