# generated using pymatgen
data_Er11TmMn2In3
_symmetry_space_group_name_H-M   'P 1'
_cell_length_a   8.38965903
_cell_length_b   8.38966397
_cell_length_c   8.38976200
_cell_angle_alpha   110.15204239
_cell_angle_beta   110.15236436
_cell_angle_gamma   108.11677751
_symmetry_Int_Tables_number   1
_chemical_formula_structural   Er11TmMn2In3
_chemical_formula_sum   'Er11 Tm1 Mn2 In3'
_cell_volume   454.40178294
_cell_formula_units_Z   1
loop_
 _symmetry_equiv_pos_site_id
 _symmetry_equiv_pos_as_xyz
  1  'x, y, z'
loop_
 _atom_site_type_symbol
 _atom_site_label
 _atom_site_symmetry_multiplicity
 _atom_site_fract_x
 _atom_site_fract_y
 _atom_site_fract_z
 _atom_site_occupancy
  Er  Er0  1  0.696519  0.696523  0.393042  1
  Er  Er1  1  0.303493  0.696485  0.999982  1
  Er  Er2  1  0.696483  0.303488  0.999977  1
  Er  Er3  1  0.457087  0.210379  0.246773  1
  Er  Er4  1  0.542870  0.789568  0.753218  1
  Er  Er5  1  0.963668  0.210349  0.753228  1
  Er  Er6  1  0.210347  0.963663  0.753226  1
  Er  Er7  1  0.036406  0.789690  0.246784  1
  Er  Er8  1  0.789695  0.036405  0.246783  1
  Er  Er9  1  0.210377  0.457088  0.246773  1
  Er  Er10  1  0.789573  0.542874  0.753221  1
  Tm  Tm11  1  0.303539  0.303541  0.607086  1
  Mn  Mn12  1  0.393587  0.393590  0.999949  1
  Mn  Mn13  1  0.606357  0.606356  0.999948  1
  In  In14  1  0.999999  0.999996  0.000000  1
  In  In15  1  0.499990  0.000008  0.500002  1
  In  In16  1  0.000012  0.499995  0.500007  1
