# generated using pymatgen
data_Ac8Yb3Ho9Ge16
_symmetry_space_group_name_H-M   'P 1'
_cell_length_a   7.82233900
_cell_length_b   8.10438910
_cell_length_c   15.23609600
_cell_angle_alpha   90.00000000
_cell_angle_beta   90.00000000
_cell_angle_gamma   89.99119820
_symmetry_Int_Tables_number   1
_chemical_formula_structural   Ac8Yb3Ho9Ge16
_chemical_formula_sum   'Ac8 Yb3 Ho9 Ge16'
_cell_volume   965.89654378
_cell_formula_units_Z   1
loop_
 _symmetry_equiv_pos_site_id
 _symmetry_equiv_pos_as_xyz
  1  'x, y, z'
loop_
 _atom_site_type_symbol
 _atom_site_label
 _atom_site_symmetry_multiplicity
 _atom_site_fract_x
 _atom_site_fract_y
 _atom_site_fract_z
 _atom_site_occupancy
  Ac  Ac0  1  0.505276  0.675287  0.599015  1
  Ac  Ac1  1  0.009334  0.825537  0.902542  1
  Ac  Ac2  1  0.490271  0.323636  0.097777  1
  Ac  Ac3  1  0.989130  0.179977  0.403131  1
  Ac  Ac4  1  0.490271  0.323636  0.402223  1
  Ac  Ac5  1  0.989130  0.179977  0.096869  1
  Ac  Ac6  1  0.505276  0.675287  0.900985  1
  Ac  Ac7  1  0.009334  0.825537  0.597458  1
  Yb  Yb8  1  0.328757  0.998891  0.750000  1
  Yb  Yb9  1  0.171367  0.497651  0.250000  1
  Yb  Yb10  1  0.671028  0.000696  0.250000  1
  Ho  Ho11  1  0.667572  0.169508  0.625437  1
  Ho  Ho12  1  0.169922  0.329618  0.875969  1
  Ho  Ho13  1  0.333953  0.826242  0.123576  1
  Ho  Ho14  1  0.834109  0.671035  0.377819  1
  Ho  Ho15  1  0.333953  0.826242  0.376424  1
  Ho  Ho16  1  0.834109  0.671035  0.122181  1
  Ho  Ho17  1  0.667572  0.169508  0.874563  1
  Ho  Ho18  1  0.169922  0.329618  0.624031  1
  Ho  Ho19  1  0.831123  0.501171  0.750000  1
  Ge  Ge20  1  0.661617  0.958565  0.461531  1
  Ge  Ge21  1  0.167345  0.541244  0.039291  1
  Ge  Ge22  1  0.339184  0.041260  0.961543  1
  Ge  Ge23  1  0.832643  0.460136  0.543688  1
  Ge  Ge24  1  0.339184  0.041260  0.538457  1
  Ge  Ge25  1  0.832643  0.460136  0.956312  1
  Ge  Ge26  1  0.661617  0.958565  0.038469  1
  Ge  Ge27  1  0.167345  0.541244  0.460709  1
  Ge  Ge28  1  0.468626  0.370227  0.750000  1
  Ge  Ge29  1  0.965654  0.137108  0.750000  1
  Ge  Ge30  1  0.540892  0.627474  0.250000  1
  Ge  Ge31  1  0.038996  0.871871  0.250000  1
  Ge  Ge32  1  0.707569  0.871362  0.750000  1
  Ge  Ge33  1  0.194997  0.620858  0.750000  1
  Ge  Ge34  1  0.289028  0.114841  0.250000  1
  Ge  Ge35  1  0.791250  0.383759  0.250000  1
