# generated using pymatgen
data_Nd4Co12Si4B3C
_symmetry_space_group_name_H-M   'P 1'
_cell_length_a   5.20450000
_cell_length_b   5.20449895
_cell_length_c   12.92614600
_cell_angle_alpha   90.00000000
_cell_angle_beta   90.00000000
_cell_angle_gamma   120.00000668
_symmetry_Int_Tables_number   1
_chemical_formula_structural   Nd4Co12Si4B3C
_chemical_formula_sum   'Nd4 Co12 Si4 B3 C1'
_cell_volume   303.21982825
_cell_formula_units_Z   1
loop_
 _symmetry_equiv_pos_site_id
 _symmetry_equiv_pos_as_xyz
  1  'x, y, z'
loop_
 _atom_site_type_symbol
 _atom_site_label
 _atom_site_symmetry_multiplicity
 _atom_site_fract_x
 _atom_site_fract_y
 _atom_site_fract_z
 _atom_site_occupancy
  Nd  Nd0  1  0.666667  0.333333  0.250493  1
  Nd  Nd1  1  0.666667  0.333333  0.749507  1
  Nd  Nd2  1  0.666667  0.333333  0.000000  1
  Nd  Nd3  1  0.666667  0.333333  0.500000  1
  Co  Co4  1  0.671713  0.835857  0.104404  1
  Co  Co5  1  0.666197  0.833098  0.608913  1
  Co  Co6  1  0.164143  0.835857  0.104404  1
  Co  Co7  1  0.166902  0.833098  0.608913  1
  Co  Co8  1  0.164143  0.328287  0.104404  1
  Co  Co9  1  0.166902  0.333803  0.608913  1
  Co  Co10  1  0.671713  0.835857  0.895596  1
  Co  Co11  1  0.666197  0.833098  0.391087  1
  Co  Co12  1  0.164143  0.835857  0.895596  1
  Co  Co13  1  0.166902  0.833098  0.391087  1
  Co  Co14  1  0.164143  0.328287  0.895596  1
  Co  Co15  1  0.166902  0.333803  0.391087  1
  Si  Si16  1  0.000000  0.000000  0.750231  1
  Si  Si17  1  0.000000  0.000000  0.249769  1
  Si  Si18  1  0.333333  0.666667  0.247882  1
  Si  Si19  1  0.333333  0.666667  0.752118  1
  B  B20  1  0.000000  0.000000  0.500000  1
  B  B21  1  0.333333  0.666667  0.000000  1
  B  B22  1  0.333333  0.666667  0.500000  1
  C  C23  1  0.000000  0.000000  0.000000  1
