# generated using pymatgen
data_Ho2Tm4MnTe2
_symmetry_space_group_name_H-M   'P 1'
_cell_length_a   4.06755100
_cell_length_b   8.17098521
_cell_length_c   8.19408173
_cell_angle_alpha   119.90680011
_cell_angle_beta   90.00000000
_cell_angle_gamma   90.00000000
_symmetry_Int_Tables_number   1
_chemical_formula_structural   Ho2Tm4MnTe2
_chemical_formula_sum   'Ho2 Tm4 Mn1 Te2'
_cell_volume   236.07252949
_cell_formula_units_Z   1
loop_
 _symmetry_equiv_pos_site_id
 _symmetry_equiv_pos_as_xyz
  1  'x, y, z'
loop_
 _atom_site_type_symbol
 _atom_site_label
 _atom_site_symmetry_multiplicity
 _atom_site_fract_x
 _atom_site_fract_y
 _atom_site_fract_z
 _atom_site_occupancy
  Ho  Ho0  1  0.500000  0.391550  0.391563  1
  Ho  Ho1  1  0.500000  0.999985  0.608437  1
  Tm  Tm2  1  0.500000  0.610300  0.000000  1
  Tm  Tm3  1  0.000000  0.235583  0.000000  1
  Tm  Tm4  1  0.000000  0.764200  0.764914  1
  Tm  Tm5  1  0.000000  0.999286  0.235086  1
  Mn  Mn6  1  0.500000  0.998413  0.000000  1
  Te  Te7  1  0.000000  0.333763  0.666943  1
  Te  Te8  1  0.000000  0.666820  0.333057  1
