# generated using pymatgen
data_Er3Co7(P3Rh)2
_symmetry_space_group_name_H-M   'P 1'
_cell_length_a   3.70872000
_cell_length_b   10.65045000
_cell_length_c   12.34918300
_cell_angle_alpha   90.00000000
_cell_angle_beta   90.00000000
_cell_angle_gamma   90.00000000
_symmetry_Int_Tables_number   1
_chemical_formula_structural   Er3Co7(P3Rh)2
_chemical_formula_sum   'Er6 Co14 P12 Rh4'
_cell_volume   487.78700989
_cell_formula_units_Z   2
loop_
 _symmetry_equiv_pos_site_id
 _symmetry_equiv_pos_as_xyz
  1  'x, y, z'
loop_
 _atom_site_type_symbol
 _atom_site_label
 _atom_site_symmetry_multiplicity
 _atom_site_fract_x
 _atom_site_fract_y
 _atom_site_fract_z
 _atom_site_occupancy
  Er  Er0  1  0.000000  0.500000  0.520257  1
  Er  Er1  1  0.500000  0.000000  0.479743  1
  Er  Er2  1  0.500000  0.813856  0.205818  1
  Er  Er3  1  0.500000  0.186144  0.205818  1
  Er  Er4  1  0.000000  0.686144  0.794182  1
  Er  Er5  1  0.000000  0.313856  0.794182  1
  Co  Co6  1  0.000000  0.500000  0.987791  1
  Co  Co7  1  0.500000  0.000000  0.012209  1
  Co  Co8  1  0.500000  0.332060  0.993566  1
  Co  Co9  1  0.500000  0.667940  0.993566  1
  Co  Co10  1  0.000000  0.167940  0.006434  1
  Co  Co11  1  0.000000  0.832060  0.006434  1
  Co  Co12  1  0.500000  0.300143  0.429993  1
  Co  Co13  1  0.500000  0.699857  0.429993  1
  Co  Co14  1  0.000000  0.199857  0.570007  1
  Co  Co15  1  0.000000  0.800143  0.570007  1
  Co  Co16  1  0.500000  0.879928  0.709570  1
  Co  Co17  1  0.500000  0.120072  0.709570  1
  Co  Co18  1  0.000000  0.620072  0.290430  1
  Co  Co19  1  0.000000  0.379928  0.290430  1
  P  P20  1  0.500000  0.500000  0.889217  1
  P  P21  1  0.000000  0.000000  0.110783  1
  P  P22  1  0.500000  0.500000  0.350654  1
  P  P23  1  0.000000  0.000000  0.649346  1
  P  P24  1  0.500000  0.302873  0.613727  1
  P  P25  1  0.500000  0.697127  0.613727  1
  P  P26  1  0.000000  0.197127  0.386273  1
  P  P27  1  0.000000  0.802873  0.386273  1
  P  P28  1  0.500000  0.844260  0.894139  1
  P  P29  1  0.500000  0.155740  0.894139  1
  P  P30  1  0.000000  0.655740  0.105861  1
  P  P31  1  0.000000  0.344260  0.105861  1
  Rh  Rh32  1  0.500000  0.500000  0.160049  1
  Rh  Rh33  1  0.000000  0.000000  0.839951  1
  Rh  Rh34  1  0.500000  0.500000  0.703031  1
  Rh  Rh35  1  0.000000  0.000000  0.296969  1
