# generated using pymatgen
data_Hf18MnCrCoRe7
_symmetry_space_group_name_H-M   'P 1'
_cell_length_a   8.57623800
_cell_length_b   8.57623752
_cell_length_c   8.44822700
_cell_angle_alpha   90.00000000
_cell_angle_beta   90.00000000
_cell_angle_gamma   119.99999414
_symmetry_Int_Tables_number   1
_chemical_formula_structural   Hf18MnCrCoRe7
_chemical_formula_sum   'Hf18 Mn1 Cr1 Co1 Re7'
_cell_volume   538.13328729
_cell_formula_units_Z   1
loop_
 _symmetry_equiv_pos_site_id
 _symmetry_equiv_pos_as_xyz
  1  'x, y, z'
loop_
 _atom_site_type_symbol
 _atom_site_label
 _atom_site_symmetry_multiplicity
 _atom_site_fract_x
 _atom_site_fract_y
 _atom_site_fract_z
 _atom_site_occupancy
  Hf  Hf0  1  0.199125  0.800875  0.443039  1
  Hf  Hf1  1  0.199125  0.398251  0.443039  1
  Hf  Hf2  1  0.601749  0.800875  0.443039  1
  Hf  Hf3  1  0.801348  0.198652  0.558314  1
  Hf  Hf4  1  0.801348  0.602694  0.558314  1
  Hf  Hf5  1  0.397306  0.198652  0.558314  1
  Hf  Hf6  1  0.801074  0.198926  0.940708  1
  Hf  Hf7  1  0.801074  0.602147  0.940708  1
  Hf  Hf8  1  0.397853  0.198926  0.940708  1
  Hf  Hf9  1  0.200432  0.799568  0.057876  1
  Hf  Hf10  1  0.200432  0.400865  0.057876  1
  Hf  Hf11  1  0.599135  0.799568  0.057876  1
  Hf  Hf12  1  0.539957  0.460043  0.250005  1
  Hf  Hf13  1  0.539957  0.079913  0.250005  1
  Hf  Hf14  1  0.920087  0.460043  0.250005  1
  Hf  Hf15  1  0.459070  0.540930  0.750069  1
  Hf  Hf16  1  0.459070  0.918141  0.750069  1
  Hf  Hf17  1  0.081859  0.540930  0.750069  1
  Mn  Mn18  1  0.333333  0.666667  0.251323  1
  Cr  Cr19  1  0.000000  0.000000  0.497137  1
  Co  Co20  1  0.666667  0.333333  0.750220  1
  Re  Re21  1  0.890006  0.109994  0.254654  1
  Re  Re22  1  0.890006  0.780012  0.254654  1
  Re  Re23  1  0.219988  0.109994  0.254654  1
  Re  Re24  1  0.109773  0.890227  0.745358  1
  Re  Re25  1  0.109773  0.219545  0.745358  1
  Re  Re26  1  0.780455  0.890227  0.745358  1
  Re  Re27  1  0.000000  0.000000  0.001254  1
