# generated using pymatgen
data_TmLu5(Sc2Si3)2
_symmetry_space_group_name_H-M   'P 1'
_cell_length_a   8.14427600
_cell_length_b   8.14866995
_cell_length_c   5.95291400
_cell_angle_alpha   90.00000000
_cell_angle_beta   90.00000000
_cell_angle_gamma   119.98218048
_symmetry_Int_Tables_number   1
_chemical_formula_structural   TmLu5(Sc2Si3)2
_chemical_formula_sum   'Tm1 Lu5 Sc4 Si6'
_cell_volume   342.19795151
_cell_formula_units_Z   1
loop_
 _symmetry_equiv_pos_site_id
 _symmetry_equiv_pos_as_xyz
  1  'x, y, z'
loop_
 _atom_site_type_symbol
 _atom_site_label
 _atom_site_symmetry_multiplicity
 _atom_site_fract_x
 _atom_site_fract_y
 _atom_site_fract_z
 _atom_site_occupancy
  Tm  Tm0  1  0.756439  0.000000  0.750000  1
  Lu  Lu1  1  0.756228  0.756006  0.250000  1
  Lu  Lu2  1  0.000222  0.243994  0.250000  1
  Lu  Lu3  1  0.000060  0.756151  0.750000  1
  Lu  Lu4  1  0.243909  0.243849  0.750000  1
  Lu  Lu5  1  0.243544  0.000000  0.250000  1
  Sc  Sc6  1  0.666631  0.333410  0.000062  1
  Sc  Sc7  1  0.333220  0.666590  0.499938  1
  Sc  Sc8  1  0.333220  0.666590  0.000062  1
  Sc  Sc9  1  0.666631  0.333410  0.499938  1
  Si  Si10  1  0.397655  0.000000  0.750000  1
  Si  Si11  1  0.398015  0.397974  0.250000  1
  Si  Si12  1  0.000040  0.602026  0.250000  1
  Si  Si13  1  0.000339  0.398489  0.750000  1
  Si  Si14  1  0.601851  0.601511  0.750000  1
  Si  Si15  1  0.601997  0.000000  0.250000  1
