# generated using pymatgen
data_Sm3DyZn4(Ga7Pd3)2
_symmetry_space_group_name_H-M   'P 1'
_cell_length_a   7.65777213
_cell_length_b   7.69021352
_cell_length_c   9.54932900
_cell_angle_alpha   90.00000000
_cell_angle_beta   90.00000000
_cell_angle_gamma   119.32664105
_symmetry_Int_Tables_number   1
_chemical_formula_structural   Sm3DyZn4(Ga7Pd3)2
_chemical_formula_sum   'Sm3 Dy1 Zn4 Ga14 Pd6'
_cell_volume   490.28803502
_cell_formula_units_Z   1
loop_
 _symmetry_equiv_pos_site_id
 _symmetry_equiv_pos_as_xyz
  1  'x, y, z'
loop_
 _atom_site_type_symbol
 _atom_site_label
 _atom_site_symmetry_multiplicity
 _atom_site_fract_x
 _atom_site_fract_y
 _atom_site_fract_z
 _atom_site_occupancy
  Sm  Sm0  1  0.995613  0.670122  0.250000  1
  Sm  Sm1  1  0.004323  0.329680  0.750000  1
  Sm  Sm2  1  0.672620  0.998133  0.250000  1
  Dy  Dy3  1  0.326841  0.001387  0.750000  1
  Zn  Zn4  1  0.139091  0.138110  0.250000  1
  Zn  Zn5  1  0.861849  0.862096  0.750000  1
  Zn  Zn6  1  0.342321  0.543728  0.250000  1
  Zn  Zn7  1  0.656974  0.455308  0.750000  1
  Ga  Ga8  1  0.010317  0.336716  0.084638  1
  Ga  Ga9  1  0.991118  0.664581  0.914490  1
  Ga  Ga10  1  0.991118  0.664581  0.585510  1
  Ga  Ga11  1  0.332949  0.002227  0.417285  1
  Ga  Ga12  1  0.010317  0.336716  0.415362  1
  Ga  Ga13  1  0.665581  0.997623  0.584587  1
  Ga  Ga14  1  0.665581  0.997623  0.915413  1
  Ga  Ga15  1  0.332949  0.002227  0.082715  1
  Ga  Ga16  1  0.337075  0.332756  0.564047  1
  Ga  Ga17  1  0.662939  0.666061  0.437285  1
  Ga  Ga18  1  0.662939  0.666061  0.062715  1
  Ga  Ga19  1  0.337075  0.332756  0.935953  1
  Ga  Ga20  1  0.537976  0.341652  0.250000  1
  Ga  Ga21  1  0.461683  0.658701  0.750000  1
  Pd  Pd22  1  0.675126  0.325753  0.003213  1
  Pd  Pd23  1  0.324991  0.674554  0.996150  1
  Pd  Pd24  1  0.324991  0.674554  0.503850  1
  Pd  Pd25  1  0.675126  0.325753  0.496787  1
  Pd  Pd26  1  0.000258  0.000271  0.999609  1
  Pd  Pd27  1  0.000258  0.000271  0.500391  1
