# generated using pymatgen
data_Ca3Tb(Sn5Pd3)2
_symmetry_space_group_name_H-M   'P 1'
_cell_length_a   13.73654010
_cell_length_b   13.73654036
_cell_length_c   7.47958416
_cell_angle_alpha   89.97646029
_cell_angle_beta   90.02354023
_cell_angle_gamma   161.15501002
_symmetry_Int_Tables_number   1
_chemical_formula_structural   Ca3Tb(Sn5Pd3)2
_chemical_formula_sum   'Ca3 Tb1 Sn10 Pd6'
_cell_volume   455.87593305
_cell_formula_units_Z   1
loop_
 _symmetry_equiv_pos_site_id
 _symmetry_equiv_pos_as_xyz
  1  'x, y, z'
loop_
 _atom_site_type_symbol
 _atom_site_label
 _atom_site_symmetry_multiplicity
 _atom_site_fract_x
 _atom_site_fract_y
 _atom_site_fract_z
 _atom_site_occupancy
  Ca  Ca0  1  0.173739  0.826261  0.756584  1
  Ca  Ca1  1  0.825915  0.174085  0.254545  1
  Ca  Ca2  1  0.477148  0.522852  0.734041  1
  Tb  Tb3  1  0.522360  0.477640  0.235597  1
  Sn  Sn4  1  0.881418  0.118582  0.730467  1
  Sn  Sn5  1  0.118423  0.881577  0.227083  1
  Sn  Sn6  1  0.703867  0.296133  0.053392  1
  Sn  Sn7  1  0.296862  0.703138  0.554794  1
  Sn  Sn8  1  0.597735  0.402265  0.612013  1
  Sn  Sn9  1  0.402649  0.597351  0.111368  1
  Sn  Sn10  1  0.953077  0.046923  0.396877  1
  Sn  Sn11  1  0.046690  0.953310  0.898982  1
  Sn  Sn12  1  0.290158  0.709842  0.977211  1
  Sn  Sn13  1  0.709764  0.290236  0.479089  1
  Pd  Pd14  1  0.050562  0.949438  0.512611  1
  Pd  Pd15  1  0.950473  0.049527  0.019548  1
  Pd  Pd16  1  0.777470  0.222530  0.770530  1
  Pd  Pd17  1  0.221964  0.778036  0.272510  1
  Pd  Pd18  1  0.395194  0.604806  0.476086  1
  Pd  Pd19  1  0.604531  0.395469  0.982667  1
