# generated using pymatgen
data_Er3Tm(Tc3Ir)2
_symmetry_space_group_name_H-M   'P 1'
_cell_length_a   5.22327900
_cell_length_b   5.22327849
_cell_length_c   9.21136000
_cell_angle_alpha   90.00000000
_cell_angle_beta   90.00000000
_cell_angle_gamma   119.99999692
_symmetry_Int_Tables_number   1
_chemical_formula_structural   Er3Tm(Tc3Ir)2
_chemical_formula_sum   'Er3 Tm1 Tc6 Ir2'
_cell_volume   217.64104704
_cell_formula_units_Z   1
loop_
 _symmetry_equiv_pos_site_id
 _symmetry_equiv_pos_as_xyz
  1  'x, y, z'
loop_
 _atom_site_type_symbol
 _atom_site_label
 _atom_site_symmetry_multiplicity
 _atom_site_fract_x
 _atom_site_fract_y
 _atom_site_fract_z
 _atom_site_occupancy
  Er  Er0  1  0.333333  0.666667  0.434965  1
  Er  Er1  1  0.666667  0.333333  0.564898  1
  Er  Er2  1  0.666667  0.333333  0.935163  1
  Tm  Tm3  1  0.333333  0.666667  0.065085  1
  Tc  Tc4  1  0.829257  0.170743  0.249777  1
  Tc  Tc5  1  0.829257  0.658514  0.249777  1
  Tc  Tc6  1  0.341486  0.170743  0.249777  1
  Tc  Tc7  1  0.170784  0.829216  0.750145  1
  Tc  Tc8  1  0.170784  0.341568  0.750145  1
  Tc  Tc9  1  0.658432  0.829216  0.750145  1
  Ir  Ir10  1  0.000000  0.000000  0.500000  1
  Ir  Ir11  1  0.000000  0.000000  0.000122  1
