# generated using pymatgen
data_DyEr15(In3Ru)2
_symmetry_space_group_name_H-M   'P 1'
_cell_length_a   10.32318200
_cell_length_b   10.31836933
_cell_length_c   7.01612491
_cell_angle_alpha   89.94309202
_cell_angle_beta   90.00000000
_cell_angle_gamma   120.01542375
_symmetry_Int_Tables_number   1
_chemical_formula_structural   DyEr15(In3Ru)2
_chemical_formula_sum   'Dy1 Er15 In6 Ru2'
_cell_volume   647.11995505
_cell_formula_units_Z   1
loop_
 _symmetry_equiv_pos_site_id
 _symmetry_equiv_pos_as_xyz
  1  'x, y, z'
loop_
 _atom_site_type_symbol
 _atom_site_label
 _atom_site_symmetry_multiplicity
 _atom_site_fract_x
 _atom_site_fract_y
 _atom_site_fract_z
 _atom_site_occupancy
  Dy  Dy0  1  0.532854  0.065706  0.793928  1
  Er  Er1  1  0.933952  0.467100  0.794371  1
  Er  Er2  1  0.533148  0.467100  0.794371  1
  Er  Er3  1  0.466606  0.933212  0.294081  1
  Er  Er4  1  0.066380  0.533253  0.294429  1
  Er  Er5  1  0.466873  0.533253  0.294429  1
  Er  Er6  1  0.822892  0.645783  0.498157  1
  Er  Er7  1  0.353788  0.177100  0.497893  1
  Er  Er8  1  0.823313  0.177100  0.497893  1
  Er  Er9  1  0.177196  0.354393  0.998307  1
  Er  Er10  1  0.646113  0.822768  0.998527  1
  Er  Er11  1  0.176655  0.822768  0.998527  1
  Er  Er12  1  0.666925  0.333849  0.173256  1
  Er  Er13  1  0.333033  0.666066  0.672965  1
  Er  Er14  1  0.999995  0.999988  0.778105  1
  Er  Er15  1  0.999919  0.999837  0.278242  1
  In  In16  1  0.837075  0.674151  0.039728  1
  In  In17  1  0.325623  0.163048  0.039855  1
  In  In18  1  0.837423  0.163048  0.039855  1
  In  In19  1  0.162943  0.325886  0.539583  1
  In  In20  1  0.674136  0.836964  0.539754  1
  In  In21  1  0.162829  0.836964  0.539754  1
  Ru  Ru22  1  0.666955  0.333908  0.569802  1
  Ru  Ru23  1  0.333377  0.666754  0.070094  1
