# generated using pymatgen
data_EuZn10Pt
_symmetry_space_group_name_H-M   'P 1'
_cell_length_a   8.34392412
_cell_length_b   8.34392345
_cell_length_c   8.34392327
_cell_angle_alpha   100.56497046
_cell_angle_beta   99.02351233
_cell_angle_gamma   131.28536972
_symmetry_Int_Tables_number   1
_chemical_formula_structural   EuZn10Pt
_chemical_formula_sum   'Eu2 Zn20 Pt2'
_cell_volume   397.61228117
_cell_formula_units_Z   2
loop_
 _symmetry_equiv_pos_site_id
 _symmetry_equiv_pos_as_xyz
  1  'x, y, z'
loop_
 _atom_site_type_symbol
 _atom_site_label
 _atom_site_symmetry_multiplicity
 _atom_site_fract_x
 _atom_site_fract_y
 _atom_site_fract_z
 _atom_site_occupancy
  Eu  Eu0  1  0.994978  0.994978  0.000000  1
  Eu  Eu1  1  0.255022  0.755022  0.500000  1
  Zn  Zn2  1  0.740373  0.240373  0.500000  1
  Zn  Zn3  1  0.509627  0.509627  0.000000  1
  Zn  Zn4  1  0.125000  0.375000  0.750000  1
  Zn  Zn5  1  0.625000  0.375000  0.250000  1
  Zn  Zn6  1  0.182057  0.510259  0.084911  1
  Zn  Zn7  1  0.182057  0.097146  0.671797  1
  Zn  Zn8  1  0.761108  0.932979  0.583147  1
  Zn  Zn9  1  0.761108  0.177961  0.828129  1
  Zn  Zn10  1  0.425348  0.510259  0.328203  1
  Zn  Zn11  1  0.425348  0.097146  0.915089  1
  Zn  Zn12  1  0.349832  0.932979  0.171871  1
  Zn  Zn13  1  0.349832  0.177961  0.416853  1
  Zn  Zn14  1  0.067943  0.239741  0.415089  1
  Zn  Zn15  1  0.067943  0.652854  0.828203  1
  Zn  Zn16  1  0.488892  0.817021  0.916853  1
  Zn  Zn17  1  0.488892  0.572039  0.671871  1
  Zn  Zn18  1  0.824652  0.239741  0.171797  1
  Zn  Zn19  1  0.824652  0.652854  0.584911  1
  Zn  Zn20  1  0.900168  0.817021  0.328129  1
  Zn  Zn21  1  0.900168  0.572039  0.083147  1
  Pt  Pt22  1  0.625000  0.875000  0.250000  1
  Pt  Pt23  1  0.625000  0.375000  0.750000  1
