# generated using pymatgen
data_Dy3Al3Zn2Cu
_symmetry_space_group_name_H-M   'P 1'
_cell_length_a   6.95191000
_cell_length_b   6.95191029
_cell_length_c   4.28333100
_cell_angle_alpha   90.00000000
_cell_angle_beta   90.00000000
_cell_angle_gamma   119.99999862
_symmetry_Int_Tables_number   1
_chemical_formula_structural   Dy3Al3Zn2Cu
_chemical_formula_sum   'Dy3 Al3 Zn2 Cu1'
_cell_volume   179.27534807
_cell_formula_units_Z   1
loop_
 _symmetry_equiv_pos_site_id
 _symmetry_equiv_pos_as_xyz
  1  'x, y, z'
loop_
 _atom_site_type_symbol
 _atom_site_label
 _atom_site_symmetry_multiplicity
 _atom_site_fract_x
 _atom_site_fract_y
 _atom_site_fract_z
 _atom_site_occupancy
  Dy  Dy0  1  0.000000  0.411026  0.500000  1
  Dy  Dy1  1  0.588974  0.588974  0.500000  1
  Dy  Dy2  1  0.411026  0.000000  0.500000  1
  Al  Al3  1  0.000000  0.766599  0.000000  1
  Al  Al4  1  0.233401  0.233401  0.000000  1
  Al  Al5  1  0.766599  0.000000  0.000000  1
  Zn  Zn6  1  0.333333  0.666667  0.000000  1
  Zn  Zn7  1  0.666667  0.333333  0.000000  1
  Cu  Cu8  1  0.000000  0.000000  0.500000  1
