# generated using pymatgen
data_CaPr3(RuO6)2
_symmetry_space_group_name_H-M   'P 1'
_cell_length_a   10.17097481
_cell_length_b   10.17097429
_cell_length_c   5.65997999
_cell_angle_alpha   75.54916280
_cell_angle_beta   75.54916116
_cell_angle_gamma   69.27015763
_symmetry_Int_Tables_number   1
_chemical_formula_structural   CaPr3(RuO6)2
_chemical_formula_sum   'Ca2 Pr6 Ru4 O24'
_cell_volume   521.81655420
_cell_formula_units_Z   2
loop_
 _symmetry_equiv_pos_site_id
 _symmetry_equiv_pos_as_xyz
  1  'x, y, z'
loop_
 _atom_site_type_symbol
 _atom_site_label
 _atom_site_symmetry_multiplicity
 _atom_site_fract_x
 _atom_site_fract_y
 _atom_site_fract_z
 _atom_site_occupancy
  Ca  Ca0  1  0.627965  0.372035  0.750000  1
  Ca  Ca1  1  0.372035  0.627965  0.250000  1
  Pr  Pr2  1  0.112432  0.887568  0.750000  1
  Pr  Pr3  1  0.887568  0.112432  0.250000  1
  Pr  Pr4  1  0.712179  0.936377  0.869432  1
  Pr  Pr5  1  0.287821  0.063623  0.130568  1
  Pr  Pr6  1  0.063623  0.287821  0.630568  1
  Pr  Pr7  1  0.936377  0.712179  0.369432  1
  Ru  Ru8  1  0.500230  0.795528  0.539172  1
  Ru  Ru9  1  0.499770  0.204472  0.460828  1
  Ru  Ru10  1  0.204472  0.499770  0.960828  1
  Ru  Ru11  1  0.795528  0.500230  0.039172  1
  O  O12  1  0.686508  0.165894  0.590038  1
  O  O13  1  0.313492  0.834106  0.409962  1
  O  O14  1  0.834106  0.313492  0.909962  1
  O  O15  1  0.165894  0.686508  0.090038  1
  O  O16  1  0.388343  0.831098  0.832017  1
  O  O17  1  0.611657  0.168902  0.167983  1
  O  O18  1  0.168902  0.611657  0.667983  1
  O  O19  1  0.831098  0.388343  0.332017  1
  O  O20  1  0.671972  0.788004  0.616414  1
  O  O21  1  0.328028  0.211996  0.383586  1
  O  O22  1  0.211996  0.328028  0.883586  1
  O  O23  1  0.788004  0.671972  0.116414  1
  O  O24  1  0.471351  0.077554  0.745995  1
  O  O25  1  0.528649  0.922446  0.254005  1
  O  O26  1  0.922446  0.528649  0.754005  1
  O  O27  1  0.077554  0.471351  0.245995  1
  O  O28  1  0.544279  0.613892  0.511416  1
  O  O29  1  0.455721  0.386108  0.488584  1
  O  O30  1  0.386108  0.455721  0.988584  1
  O  O31  1  0.613892  0.544279  0.011416  1
  O  O32  1  0.889983  0.923909  0.070035  1
  O  O33  1  0.110017  0.076091  0.929965  1
  O  O34  1  0.076091  0.110017  0.429965  1
  O  O35  1  0.923909  0.889983  0.570035  1
