# generated using pymatgen
data_Th8Cr(Si4Ni)3
_symmetry_space_group_name_H-M   'P 1'
_cell_length_a   8.09036900
_cell_length_b   8.09035932
_cell_length_c   8.51382800
_cell_angle_alpha   89.99969547
_cell_angle_beta   90.00028328
_cell_angle_gamma   120.00010907
_symmetry_Int_Tables_number   1
_chemical_formula_structural   Th8Cr(Si4Ni)3
_chemical_formula_sum   'Th8 Cr1 Si12 Ni3'
_cell_volume   482.60427804
_cell_formula_units_Z   1
loop_
 _symmetry_equiv_pos_site_id
 _symmetry_equiv_pos_as_xyz
  1  'x, y, z'
loop_
 _atom_site_type_symbol
 _atom_site_label
 _atom_site_symmetry_multiplicity
 _atom_site_fract_x
 _atom_site_fract_y
 _atom_site_fract_z
 _atom_site_occupancy
  Th  Th0  1  0.999989  0.999988  0.248075  1
  Th  Th1  1  0.999993  0.999996  0.751778  1
  Th  Th2  1  0.998279  0.499122  0.253704  1
  Th  Th3  1  0.500832  0.499116  0.253674  1
  Th  Th4  1  0.501394  0.002819  0.746235  1
  Th  Th5  1  0.500844  0.001708  0.253656  1
  Th  Th6  1  0.501381  0.498563  0.746223  1
  Th  Th7  1  0.997155  0.498564  0.746171  1
  Cr  Cr8  1  0.666471  0.333093  0.498799  1
  Si  Si9  1  0.170787  0.341542  0.999600  1
  Si  Si10  1  0.658495  0.829262  0.999599  1
  Si  Si11  1  0.170638  0.341239  0.500418  1
  Si  Si12  1  0.341735  0.170871  0.000255  1
  Si  Si13  1  0.170802  0.829260  0.999600  1
  Si  Si14  1  0.658811  0.829416  0.500419  1
  Si  Si15  1  0.829176  0.658323  0.000255  1
  Si  Si16  1  0.335693  0.167855  0.499745  1
  Si  Si17  1  0.170645  0.829415  0.500418  1
  Si  Si18  1  0.832179  0.664327  0.499745  1
  Si  Si19  1  0.829160  0.170875  0.000254  1
  Si  Si20  1  0.832178  0.167868  0.499745  1
  Ni  Ni21  1  0.333337  0.666716  0.999217  1
  Ni  Ni22  1  0.333326  0.666758  0.501506  1
  Ni  Ni23  1  0.666701  0.333304  0.000910  1
