# generated using pymatgen
data_DyZrTa3Si4
_symmetry_space_group_name_H-M   'P 1'
_cell_length_a   6.95990695
_cell_length_b   6.96035468
_cell_length_c   12.86936732
_cell_angle_alpha   90.02904405
_cell_angle_beta   90.04294539
_cell_angle_gamma   89.87029945
_symmetry_Int_Tables_number   1
_chemical_formula_structural   DyZrTa3Si4
_chemical_formula_sum   'Dy4 Zr4 Ta12 Si16'
_cell_volume   623.43432547
_cell_formula_units_Z   4
loop_
 _symmetry_equiv_pos_site_id
 _symmetry_equiv_pos_as_xyz
  1  'x, y, z'
loop_
 _atom_site_type_symbol
 _atom_site_label
 _atom_site_symmetry_multiplicity
 _atom_site_fract_x
 _atom_site_fract_y
 _atom_site_fract_z
 _atom_site_occupancy
  Dy  Dy0  1  0.997899  0.659221  0.032066  1
  Dy  Dy1  1  0.003024  0.338447  0.530662  1
  Dy  Dy2  1  0.660571  0.997827  0.969897  1
  Dy  Dy3  1  0.161692  0.502756  0.780562  1
  Zr  Zr4  1  0.841812  0.502076  0.282614  1
  Zr  Zr5  1  0.497964  0.159716  0.219438  1
  Zr  Zr6  1  0.504084  0.844595  0.717249  1
  Zr  Zr7  1  0.344053  0.996615  0.467857  1
  Ta  Ta8  1  0.347830  0.506956  0.374836  1
  Ta  Ta9  1  0.845276  0.996328  0.373506  1
  Ta  Ta10  1  0.005677  0.154201  0.128661  1
  Ta  Ta11  1  0.992297  0.847496  0.623508  1
  Ta  Ta12  1  0.651633  0.492397  0.875156  1
  Ta  Ta13  1  0.503551  0.345412  0.621730  1
  Ta  Ta14  1  0.494370  0.651719  0.127102  1
  Ta  Ta15  1  0.154835  0.004156  0.873136  1
  Ta  Ta16  1  0.667596  0.671896  0.498922  1
  Ta  Ta17  1  0.828439  0.166942  0.748848  1
  Ta  Ta18  1  0.169350  0.831346  0.251336  1
  Ta  Ta19  1  0.330851  0.329941  0.001440  1
  Si  Si20  1  0.044139  0.705045  0.435851  1
  Si  Si21  1  0.956300  0.294198  0.936901  1
  Si  Si22  1  0.700520  0.044662  0.562662  1
  Si  Si23  1  0.202893  0.454757  0.187699  1
  Si  Si24  1  0.793080  0.543716  0.685899  1
  Si  Si25  1  0.456238  0.201300  0.813018  1
  Si  Si26  1  0.543975  0.799225  0.313904  1
  Si  Si27  1  0.296743  0.957553  0.064893  1
  Si  Si28  1  0.863680  0.794593  0.817356  1
  Si  Si29  1  0.136426  0.206073  0.321482  1
  Si  Si30  1  0.791782  0.867211  0.182060  1
  Si  Si31  1  0.296933  0.638930  0.569960  1
  Si  Si32  1  0.704705  0.364627  0.073472  1
  Si  Si33  1  0.632213  0.293199  0.426598  1
  Si  Si34  1  0.367749  0.705871  0.930810  1
  Si  Si35  1  0.209819  0.128995  0.678911  1
