# generated using pymatgen
data_Cs4Rb2In2BiSb3
_symmetry_space_group_name_H-M   'P 1'
_cell_length_a   10.27799979
_cell_length_b   10.28171789
_cell_length_c   10.27800130
_cell_angle_alpha   129.38707634
_cell_angle_beta   135.42941852
_cell_angle_gamma   69.69321987
_symmetry_Int_Tables_number   1
_chemical_formula_structural   Cs4Rb2In2BiSb3
_chemical_formula_sum   'Cs4 Rb2 In2 Bi1 Sb3'
_cell_volume   577.96856165
_cell_formula_units_Z   1
loop_
 _symmetry_equiv_pos_site_id
 _symmetry_equiv_pos_as_xyz
  1  'x, y, z'
loop_
 _atom_site_type_symbol
 _atom_site_label
 _atom_site_symmetry_multiplicity
 _atom_site_fract_x
 _atom_site_fract_y
 _atom_site_fract_z
 _atom_site_occupancy
  Cs  Cs0  1  0.673292  0.460832  0.787541  1
  Cs  Cs1  1  0.825388  0.113290  0.287902  1
  Cs  Cs2  1  0.174162  0.886097  0.711936  1
  Cs  Cs3  1  0.326216  0.538026  0.211809  1
  Rb  Rb4  1  0.748101  0.001912  0.750092  1
  Rb  Rb5  1  0.251820  0.001912  0.253812  1
  In  In6  1  0.253373  0.498822  0.749951  1
  In  In7  1  0.748871  0.498822  0.245448  1
  Bi  Bi8  1  0.905142  0.596271  0.691130  1
  Sb  Sb9  1  0.408023  0.219946  0.811923  1
  Sb  Sb10  1  0.592887  0.779818  0.186932  1
  Sb  Sb11  1  0.092725  0.404249  0.311524  1
