# generated using pymatgen
data_AlGaPt6
_symmetry_space_group_name_H-M   'P 1'
_cell_length_a   5.53026000
_cell_length_b   5.53026000
_cell_length_c   7.98783000
_cell_angle_alpha   90.00000000
_cell_angle_beta   90.00000000
_cell_angle_gamma   90.00000000
_symmetry_Int_Tables_number   1
_chemical_formula_structural   AlGaPt6
_chemical_formula_sum   'Al2 Ga2 Pt12'
_cell_volume   244.29800079
_cell_formula_units_Z   2
loop_
 _symmetry_equiv_pos_site_id
 _symmetry_equiv_pos_as_xyz
  1  'x, y, z'
loop_
 _atom_site_type_symbol
 _atom_site_label
 _atom_site_symmetry_multiplicity
 _atom_site_fract_x
 _atom_site_fract_y
 _atom_site_fract_z
 _atom_site_occupancy
  Al  Al0  1  0.500000  0.000000  0.760506  1
  Al  Al1  1  0.000000  0.500000  0.760506  1
  Ga  Ga2  1  0.500000  0.000000  0.240644  1
  Ga  Ga3  1  0.000000  0.500000  0.240644  1
  Pt  Pt4  1  0.274091  0.225909  0.996995  1
  Pt  Pt5  1  0.774091  0.274091  0.996995  1
  Pt  Pt6  1  0.225909  0.725909  0.996995  1
  Pt  Pt7  1  0.725909  0.774091  0.996995  1
  Pt  Pt8  1  0.000000  0.000000  0.252570  1
  Pt  Pt9  1  0.500000  0.500000  0.252570  1
  Pt  Pt10  1  0.693221  0.193221  0.502698  1
  Pt  Pt11  1  0.193221  0.306779  0.502698  1
  Pt  Pt12  1  0.806779  0.693221  0.502698  1
  Pt  Pt13  1  0.306779  0.806779  0.502698  1
  Pt  Pt14  1  0.000000  0.000000  0.746895  1
  Pt  Pt15  1  0.500000  0.500000  0.746895  1
