# generated using pymatgen
data_TbLu3(ZnSn)4
_symmetry_space_group_name_H-M   'P 1'
_cell_length_a   4.51113400
_cell_length_b   4.51113344
_cell_length_c   15.32958100
_cell_angle_alpha   90.00000000
_cell_angle_beta   90.00000000
_cell_angle_gamma   120.00000409
_symmetry_Int_Tables_number   1
_chemical_formula_structural   TbLu3(ZnSn)4
_chemical_formula_sum   'Tb1 Lu3 Zn4 Sn4'
_cell_volume   270.16699985
_cell_formula_units_Z   1
loop_
 _symmetry_equiv_pos_site_id
 _symmetry_equiv_pos_as_xyz
  1  'x, y, z'
loop_
 _atom_site_type_symbol
 _atom_site_label
 _atom_site_symmetry_multiplicity
 _atom_site_fract_x
 _atom_site_fract_y
 _atom_site_fract_z
 _atom_site_occupancy
  Tb  Tb0  1  0.000000  0.000000  0.000000  1
  Lu  Lu1  1  0.000000  0.000000  0.252456  1
  Lu  Lu2  1  0.000000  0.000000  0.747544  1
  Lu  Lu3  1  0.000000  0.000000  0.500000  1
  Zn  Zn4  1  0.333333  0.666667  0.162025  1
  Zn  Zn5  1  0.666667  0.333333  0.837975  1
  Zn  Zn6  1  0.666667  0.333333  0.660191  1
  Zn  Zn7  1  0.333333  0.666667  0.339809  1
  Sn  Sn8  1  0.333333  0.666667  0.610627  1
  Sn  Sn9  1  0.666667  0.333333  0.389373  1
  Sn  Sn10  1  0.666667  0.333333  0.116029  1
  Sn  Sn11  1  0.333333  0.666667  0.883971  1
