# generated using pymatgen
data_Cd3FeP6N13
_symmetry_space_group_name_H-M   'P 1'
_cell_length_a   7.12922004
_cell_length_b   7.22332173
_cell_length_c   7.22332250
_cell_angle_alpha   109.73361219
_cell_angle_beta   109.20753718
_cell_angle_gamma   109.20754218
_symmetry_Int_Tables_number   1
_chemical_formula_structural   Cd3FeP6N13
_chemical_formula_sum   'Cd3 Fe1 P6 N13'
_cell_volume   287.27445742
_cell_formula_units_Z   1
loop_
 _symmetry_equiv_pos_site_id
 _symmetry_equiv_pos_as_xyz
  1  'x, y, z'
loop_
 _atom_site_type_symbol
 _atom_site_label
 _atom_site_symmetry_multiplicity
 _atom_site_fract_x
 _atom_site_fract_y
 _atom_site_fract_z
 _atom_site_occupancy
  Cd  Cd0  1  0.995445  0.000000  0.716064  1
  Cd  Cd1  1  0.995445  0.716064  0.000000  1
  Cd  Cd2  1  0.279382  0.283936  0.283936  1
  Fe  Fe3  1  0.675257  0.000000  0.000000  1
  P  P4  1  0.256620  0.750052  0.501798  1
  P  P5  1  0.754822  0.248254  0.498202  1
  P  P6  1  0.754822  0.498202  0.248254  1
  P  P7  1  0.256620  0.501798  0.750052  1
  P  P8  1  0.506568  0.751746  0.249948  1
  P  P9  1  0.506568  0.249948  0.751746  1
  N  N10  1  0.942942  0.000000  0.000000  1
  N  N11  1  0.717421  0.267445  0.267445  1
  N  N12  1  0.282222  0.722837  0.278572  1
  N  N13  1  0.300146  0.566408  0.566408  1
  N  N14  1  0.559385  0.555735  0.277163  1
  N  N15  1  0.449976  0.732555  0.000000  1
  N  N16  1  0.003650  0.721428  0.444265  1
  N  N17  1  0.559385  0.277163  0.555735  1
  N  N18  1  0.733739  0.000000  0.433592  1
  N  N19  1  0.449976  0.000000  0.732555  1
  N  N20  1  0.733739  0.433592  0.000000  1
  N  N21  1  0.282222  0.278572  0.722837  1
  N  N22  1  0.003650  0.444265  0.721428  1
