# generated using pymatgen
data_Zr8Ni9(P4Ru)3
_symmetry_space_group_name_H-M   'P 1'
_cell_length_a   3.67291800
_cell_length_b   10.16350395
_cell_length_c   12.38501866
_cell_angle_alpha   90.16714044
_cell_angle_beta   90.00000000
_cell_angle_gamma   90.00000000
_symmetry_Int_Tables_number   1
_chemical_formula_structural   Zr8Ni9(P4Ru)3
_chemical_formula_sum   'Zr8 Ni9 P12 Ru3'
_cell_volume   462.32726939
_cell_formula_units_Z   1
loop_
 _symmetry_equiv_pos_site_id
 _symmetry_equiv_pos_as_xyz
  1  'x, y, z'
loop_
 _atom_site_type_symbol
 _atom_site_label
 _atom_site_symmetry_multiplicity
 _atom_site_fract_x
 _atom_site_fract_y
 _atom_site_fract_z
 _atom_site_occupancy
  Zr  Zr0  1  0.250000  0.343240  0.995211  1
  Zr  Zr1  1  0.250000  0.161376  0.495742  1
  Zr  Zr2  1  0.750000  0.656095  0.004191  1
  Zr  Zr3  1  0.750000  0.840002  0.504098  1
  Zr  Zr4  1  0.250000  0.423028  0.706787  1
  Zr  Zr5  1  0.250000  0.075560  0.208897  1
  Zr  Zr6  1  0.750000  0.577579  0.288059  1
  Zr  Zr7  1  0.750000  0.925792  0.790893  1
  Ni  Ni8  1  0.750000  0.399001  0.519659  1
  Ni  Ni9  1  0.250000  0.134348  0.719325  1
  Ni  Ni10  1  0.250000  0.365704  0.219458  1
  Ni  Ni11  1  0.750000  0.866514  0.280907  1
  Ni  Ni12  1  0.750000  0.633922  0.779660  1
  Ni  Ni13  1  0.250000  0.765015  0.171492  1
  Ni  Ni14  1  0.250000  0.735430  0.670103  1
  Ni  Ni15  1  0.750000  0.235320  0.828344  1
  Ni  Ni16  1  0.750000  0.271919  0.333783  1
  P  P17  1  0.250000  0.105413  0.896634  1
  P  P18  1  0.250000  0.393441  0.397067  1
  P  P19  1  0.750000  0.894032  0.103149  1
  P  P20  1  0.750000  0.602266  0.603305  1
  P  P21  1  0.250000  0.731700  0.853655  1
  P  P22  1  0.250000  0.766871  0.356170  1
  P  P23  1  0.750000  0.268276  0.145405  1
  P  P24  1  0.750000  0.233779  0.643958  1
  P  P25  1  0.250000  0.552496  0.129141  1
  P  P26  1  0.250000  0.948529  0.628405  1
  P  P27  1  0.750000  0.448038  0.869749  1
  P  P28  1  0.750000  0.054220  0.370904  1
  Ru  Ru29  1  0.250000  0.899444  0.984058  1
  Ru  Ru30  1  0.250000  0.592227  0.486960  1
  Ru  Ru31  1  0.750000  0.099420  0.014828  1
