# generated using pymatgen
data_Y3Nb(Ni4P3)2
_symmetry_space_group_name_H-M   'P 1'
_cell_length_a   3.77477800
_cell_length_b   10.71615500
_cell_length_c   12.37948200
_cell_angle_alpha   90.00000000
_cell_angle_beta   90.00000000
_cell_angle_gamma   90.00000000
_symmetry_Int_Tables_number   1
_chemical_formula_structural   Y3Nb(Ni4P3)2
_chemical_formula_sum   'Y6 Nb2 Ni16 P12'
_cell_volume   500.76374032
_cell_formula_units_Z   2
loop_
 _symmetry_equiv_pos_site_id
 _symmetry_equiv_pos_as_xyz
  1  'x, y, z'
loop_
 _atom_site_type_symbol
 _atom_site_label
 _atom_site_symmetry_multiplicity
 _atom_site_fract_x
 _atom_site_fract_y
 _atom_site_fract_z
 _atom_site_occupancy
  Y  Y0  1  0.000000  0.500000  0.525553  1
  Y  Y1  1  0.500000  0.000000  0.474447  1
  Y  Y2  1  0.500000  0.819428  0.206503  1
  Y  Y3  1  0.500000  0.180572  0.206503  1
  Y  Y4  1  0.000000  0.680572  0.793497  1
  Y  Y5  1  0.000000  0.319428  0.793497  1
  Nb  Nb6  1  0.500000  0.500000  0.154214  1
  Nb  Nb7  1  0.000000  0.000000  0.845786  1
  Ni  Ni8  1  0.500000  0.500000  0.701398  1
  Ni  Ni9  1  0.000000  0.000000  0.298602  1
  Ni  Ni10  1  0.000000  0.500000  0.984275  1
  Ni  Ni11  1  0.500000  0.000000  0.015725  1
  Ni  Ni12  1  0.500000  0.333757  0.987921  1
  Ni  Ni13  1  0.500000  0.666243  0.987921  1
  Ni  Ni14  1  0.000000  0.166243  0.012079  1
  Ni  Ni15  1  0.000000  0.833757  0.012079  1
  Ni  Ni16  1  0.500000  0.300830  0.429601  1
  Ni  Ni17  1  0.500000  0.699170  0.429601  1
  Ni  Ni18  1  0.000000  0.199170  0.570399  1
  Ni  Ni19  1  0.000000  0.800830  0.570399  1
  Ni  Ni20  1  0.500000  0.878142  0.707121  1
  Ni  Ni21  1  0.500000  0.121858  0.707121  1
  Ni  Ni22  1  0.000000  0.621858  0.292879  1
  Ni  Ni23  1  0.000000  0.378142  0.292879  1
  P  P24  1  0.500000  0.500000  0.878951  1
  P  P25  1  0.000000  0.000000  0.121049  1
  P  P26  1  0.500000  0.500000  0.353249  1
  P  P27  1  0.000000  0.000000  0.646751  1
  P  P28  1  0.500000  0.314065  0.614594  1
  P  P29  1  0.500000  0.685935  0.614594  1
  P  P30  1  0.000000  0.185935  0.385406  1
  P  P31  1  0.000000  0.814065  0.385406  1
  P  P32  1  0.500000  0.842162  0.893350  1
  P  P33  1  0.500000  0.157838  0.893350  1
  P  P34  1  0.000000  0.657838  0.106650  1
  P  P35  1  0.000000  0.342162  0.106650  1
