# generated using pymatgen
data_Zr10ZnSn3GeSb3
_symmetry_space_group_name_H-M   'P 1'
_cell_length_a   8.68930800
_cell_length_b   8.68930759
_cell_length_c   5.90794800
_cell_angle_alpha   90.00000000
_cell_angle_beta   90.00000000
_cell_angle_gamma   120.00000155
_symmetry_Int_Tables_number   1
_chemical_formula_structural   Zr10ZnSn3GeSb3
_chemical_formula_sum   'Zr10 Zn1 Sn3 Ge1 Sb3'
_cell_volume   386.31151324
_cell_formula_units_Z   1
loop_
 _symmetry_equiv_pos_site_id
 _symmetry_equiv_pos_as_xyz
  1  'x, y, z'
loop_
 _atom_site_type_symbol
 _atom_site_label
 _atom_site_symmetry_multiplicity
 _atom_site_fract_x
 _atom_site_fract_y
 _atom_site_fract_z
 _atom_site_occupancy
  Zr  Zr0  1  0.666667  0.333333  0.001746  1
  Zr  Zr1  1  0.333333  0.666667  0.001746  1
  Zr  Zr2  1  0.333333  0.666667  0.498234  1
  Zr  Zr3  1  0.666667  0.333333  0.498234  1
  Zr  Zr4  1  0.738388  0.738388  0.752570  1
  Zr  Zr5  1  0.261612  0.000000  0.752570  1
  Zr  Zr6  1  0.000000  0.261612  0.752570  1
  Zr  Zr7  1  0.268807  0.268807  0.247888  1
  Zr  Zr8  1  0.731193  0.000000  0.247888  1
  Zr  Zr9  1  0.000000  0.731193  0.247888  1
  Zn  Zn10  1  0.000000  0.000000  0.491045  1
  Sn  Sn11  1  0.613585  0.613585  0.252533  1
  Sn  Sn12  1  0.386415  0.000000  0.252533  1
  Sn  Sn13  1  0.000000  0.386415  0.252533  1
  Ge  Ge14  1  0.000000  0.000000  0.008141  1
  Sb  Sb15  1  0.391931  0.391931  0.747294  1
  Sb  Sb16  1  0.608069  0.000000  0.747294  1
  Sb  Sb17  1  0.000000  0.608069  0.747294  1
