# generated using pymatgen
data_Ho2AsPd7Pt
_symmetry_space_group_name_H-M   'P 1'
_cell_length_a   4.12257500
_cell_length_b   4.12584600
_cell_length_c   11.21266200
_cell_angle_alpha   90.00000000
_cell_angle_beta   90.00000000
_cell_angle_gamma   90.00000000
_symmetry_Int_Tables_number   1
_chemical_formula_structural   Ho2AsPd7Pt
_chemical_formula_sum   'Ho2 As1 Pd7 Pt1'
_cell_volume   190.71739657
_cell_formula_units_Z   1
loop_
 _symmetry_equiv_pos_site_id
 _symmetry_equiv_pos_as_xyz
  1  'x, y, z'
loop_
 _atom_site_type_symbol
 _atom_site_label
 _atom_site_symmetry_multiplicity
 _atom_site_fract_x
 _atom_site_fract_y
 _atom_site_fract_z
 _atom_site_occupancy
  Ho  Ho0  1  0.500000  0.500000  0.819613  1
  Ho  Ho1  1  0.500000  0.500000  0.180387  1
  As  As2  1  0.000000  0.000000  0.500000  1
  Pd  Pd3  1  0.500000  0.000000  0.000000  1
  Pd  Pd4  1  0.500000  0.000000  0.632116  1
  Pd  Pd5  1  0.000000  0.500000  0.632204  1
  Pd  Pd6  1  0.500000  0.000000  0.367884  1
  Pd  Pd7  1  0.000000  0.500000  0.367796  1
  Pd  Pd8  1  0.000000  0.000000  0.817844  1
  Pd  Pd9  1  0.000000  0.000000  0.182156  1
  Pt  Pt10  1  0.000000  0.500000  0.000000  1
