# generated using pymatgen
data_Tb3Th11Tc6
_symmetry_space_group_name_H-M   'P 1'
_cell_length_a   9.85453730
_cell_length_b   9.96219537
_cell_length_c   6.36991047
_cell_angle_alpha   89.88981647
_cell_angle_beta   90.17626965
_cell_angle_gamma   120.35435349
_symmetry_Int_Tables_number   1
_chemical_formula_structural   Tb3Th11Tc6
_chemical_formula_sum   'Tb3 Th11 Tc6'
_cell_volume   539.62407978
_cell_formula_units_Z   1
loop_
 _symmetry_equiv_pos_site_id
 _symmetry_equiv_pos_as_xyz
  1  'x, y, z'
loop_
 _atom_site_type_symbol
 _atom_site_label
 _atom_site_symmetry_multiplicity
 _atom_site_fract_x
 _atom_site_fract_y
 _atom_site_fract_z
 _atom_site_occupancy
  Tb  Tb0  1  0.459242  0.536273  0.294638  1
  Tb  Tb1  1  0.071448  0.533970  0.297644  1
  Tb  Tb2  1  0.927384  0.463452  0.795869  1
  Th  Th3  1  0.248602  0.126203  0.510316  1
  Th  Th4  1  0.542221  0.079482  0.798104  1
  Th  Th5  1  0.749825  0.873753  0.011409  1
  Th  Th6  1  0.666179  0.333741  0.272307  1
  Th  Th7  1  0.123863  0.871590  0.006714  1
  Th  Th8  1  0.461840  0.921853  0.300668  1
  Th  Th9  1  0.540351  0.463422  0.796632  1
  Th  Th10  1  0.878506  0.127731  0.512175  1
  Th  Th11  1  0.123914  0.250404  0.009760  1
  Th  Th12  1  0.876301  0.751145  0.509134  1
  Th  Th13  1  0.333474  0.665752  0.768417  1
  Tc  Tc14  1  0.811441  0.635529  0.048775  1
  Tc  Tc15  1  0.811501  0.176552  0.051160  1
  Tc  Tc16  1  0.632345  0.818278  0.550408  1
  Tc  Tc17  1  0.369365  0.186605  0.044513  1
  Tc  Tc18  1  0.182960  0.361838  0.557688  1
  Tc  Tc19  1  0.189239  0.822429  0.547664  1
