# generated using pymatgen
data_CaErLu2(B6Ru)2
_symmetry_space_group_name_H-M   'P 1'
_cell_length_a   3.60897500
_cell_length_b   9.07897686
_cell_length_c   11.47740317
_cell_angle_alpha   89.83604972
_cell_angle_beta   90.00000000
_cell_angle_gamma   90.00000000
_symmetry_Int_Tables_number   1
_chemical_formula_structural   CaErLu2(B6Ru)2
_chemical_formula_sum   'Ca2 Er2 Lu4 B24 Ru4'
_cell_volume   376.06476311
_cell_formula_units_Z   2
loop_
 _symmetry_equiv_pos_site_id
 _symmetry_equiv_pos_as_xyz
  1  'x, y, z'
loop_
 _atom_site_type_symbol
 _atom_site_label
 _atom_site_symmetry_multiplicity
 _atom_site_fract_x
 _atom_site_fract_y
 _atom_site_fract_z
 _atom_site_occupancy
  Ca  Ca0  1  0.000000  0.323573  0.414812  1
  Ca  Ca1  1  0.000000  0.676427  0.585188  1
  Er  Er2  1  0.000000  0.821940  0.086047  1
  Er  Er3  1  0.000000  0.178060  0.913953  1
  Lu  Lu4  1  0.000000  0.942139  0.369505  1
  Lu  Lu5  1  0.000000  0.057861  0.630495  1
  Lu  Lu6  1  0.000000  0.442915  0.130073  1
  Lu  Lu7  1  0.000000  0.557085  0.869927  1
  B  B8  1  0.500000  0.554660  0.431692  1
  B  B9  1  0.500000  0.445340  0.568308  1
  B  B10  1  0.500000  0.053821  0.066350  1
  B  B11  1  0.500000  0.946179  0.933650  1
  B  B12  1  0.500000  0.749680  0.416987  1
  B  B13  1  0.500000  0.250320  0.583013  1
  B  B14  1  0.500000  0.249429  0.080644  1
  B  B15  1  0.500000  0.750571  0.919356  1
  B  B16  1  0.500000  0.792395  0.263712  1
  B  B17  1  0.500000  0.207605  0.736288  1
  B  B18  1  0.500000  0.290763  0.233538  1
  B  B19  1  0.500000  0.709237  0.766462  1
  B  B20  1  0.500000  0.631106  0.183830  1
  B  B21  1  0.500000  0.368894  0.816170  1
  B  B22  1  0.500000  0.129755  0.313777  1
  B  B23  1  0.500000  0.870245  0.686223  1
  B  B24  1  0.500000  0.982388  0.211475  1
  B  B25  1  0.500000  0.017612  0.788525  1
  B  B26  1  0.500000  0.483596  0.286747  1
  B  B27  1  0.500000  0.516404  0.713253  1
  B  B28  1  0.500000  0.601945  0.027862  1
  B  B29  1  0.500000  0.398055  0.972138  1
  B  B30  1  0.500000  0.097726  0.473172  1
  B  B31  1  0.500000  0.902274  0.526828  1
  Ru  Ru32  1  0.000000  0.641160  0.316883  1
  Ru  Ru33  1  0.000000  0.358840  0.683117  1
  Ru  Ru34  1  0.000000  0.137115  0.177725  1
  Ru  Ru35  1  0.000000  0.862885  0.822275  1
