# generated using pymatgen
data_Ti3Fe2Si3Ir
_symmetry_space_group_name_H-M   'P 1'
_cell_length_a   7.18706931
_cell_length_b   7.18707079
_cell_length_c   7.18706979
_cell_angle_alpha   127.77402911
_cell_angle_beta   120.38908469
_cell_angle_gamma   83.19917416
_symmetry_Int_Tables_number   1
_chemical_formula_structural   Ti3Fe2Si3Ir
_chemical_formula_sum   'Ti6 Fe4 Si6 Ir2'
_cell_volume   242.94171291
_cell_formula_units_Z   2
loop_
 _symmetry_equiv_pos_site_id
 _symmetry_equiv_pos_as_xyz
  1  'x, y, z'
loop_
 _atom_site_type_symbol
 _atom_site_label
 _atom_site_symmetry_multiplicity
 _atom_site_fract_x
 _atom_site_fract_y
 _atom_site_fract_z
 _atom_site_occupancy
  Ti  Ti0  1  0.748307  0.085302  0.836996  1
  Ti  Ti1  1  0.478706  0.968187  0.989480  1
  Ti  Ti2  1  0.521294  0.510774  0.489480  1
  Ti  Ti3  1  0.950874  0.906130  0.455256  1
  Ti  Ti4  1  0.251693  0.088689  0.336996  1
  Ti  Ti5  1  0.049126  0.504383  0.955256  1
  Fe  Fe6  1  0.910911  0.252223  0.409191  1
  Fe  Fe7  1  0.656967  0.498279  0.909191  1
  Fe  Fe8  1  0.343033  0.252223  0.841313  1
  Fe  Fe9  1  0.089089  0.498279  0.341313  1
  Si  Si10  1  0.282083  0.517802  0.735719  1
  Si  Si11  1  0.163639  0.178330  0.001700  1
  Si  Si12  1  0.676629  0.178330  0.514691  1
  Si  Si13  1  0.323371  0.838061  0.501700  1
  Si  Si14  1  0.717917  0.453637  0.235719  1
  Si  Si15  1  0.836361  0.838061  0.014691  1
  Ir  Ir16  1  0.500000  0.744554  0.244554  1
  Ir  Ir17  1  0.000000  0.744554  0.744554  1
