# generated using pymatgen
data_Tb4Lu6SiBi5
_symmetry_space_group_name_H-M   'P 1'
_cell_length_a   8.04417600
_cell_length_b   9.28025900
_cell_length_c   11.92663800
_cell_angle_alpha   90.00000000
_cell_angle_beta   90.00000000
_cell_angle_gamma   90.00000000
_symmetry_Int_Tables_number   1
_chemical_formula_structural   Tb4Lu6SiBi5
_chemical_formula_sum   'Tb8 Lu12 Si2 Bi10'
_cell_volume   890.34781794
_cell_formula_units_Z   2
loop_
 _symmetry_equiv_pos_site_id
 _symmetry_equiv_pos_as_xyz
  1  'x, y, z'
loop_
 _atom_site_type_symbol
 _atom_site_label
 _atom_site_symmetry_multiplicity
 _atom_site_fract_x
 _atom_site_fract_y
 _atom_site_fract_z
 _atom_site_occupancy
  Tb  Tb0  1  0.171773  0.750000  0.712054  1
  Tb  Tb1  1  0.671773  0.750000  0.787946  1
  Tb  Tb2  1  0.813724  0.250000  0.280544  1
  Tb  Tb3  1  0.313724  0.250000  0.219456  1
  Tb  Tb4  1  0.351386  0.750000  0.205291  1
  Tb  Tb5  1  0.851386  0.750000  0.294709  1
  Tb  Tb6  1  0.651061  0.250000  0.783078  1
  Tb  Tb7  1  0.151061  0.250000  0.716922  1
  Lu  Lu8  1  0.039382  0.750000  0.988402  1
  Lu  Lu9  1  0.539382  0.750000  0.511598  1
  Lu  Lu10  1  0.982504  0.250000  0.008640  1
  Lu  Lu11  1  0.482504  0.250000  0.491360  1
  Lu  Lu12  1  0.312279  0.451998  0.940581  1
  Lu  Lu13  1  0.812279  0.048002  0.559419  1
  Lu  Lu14  1  0.681835  0.926284  0.054408  1
  Lu  Lu15  1  0.181835  0.573716  0.445592  1
  Lu  Lu16  1  0.681835  0.573716  0.054408  1
  Lu  Lu17  1  0.181835  0.926284  0.445592  1
  Lu  Lu18  1  0.312279  0.048002  0.940581  1
  Lu  Lu19  1  0.812279  0.451998  0.559419  1
  Si  Si20  1  0.411376  0.750000  0.964286  1
  Si  Si21  1  0.911376  0.750000  0.535714  1
  Bi  Bi22  1  0.435712  0.001522  0.672489  1
  Bi  Bi23  1  0.935712  0.498478  0.827511  1
  Bi  Bi24  1  0.561165  0.504228  0.327029  1
  Bi  Bi25  1  0.061165  0.995772  0.172971  1
  Bi  Bi26  1  0.561165  0.995772  0.327029  1
  Bi  Bi27  1  0.061165  0.504228  0.172971  1
  Bi  Bi28  1  0.435712  0.498478  0.672489  1
  Bi  Bi29  1  0.935712  0.001522  0.827511  1
  Bi  Bi30  1  0.596812  0.250000  0.042179  1
  Bi  Bi31  1  0.096812  0.250000  0.457821  1
