# generated using pymatgen
data_ZrGaFe4
_symmetry_space_group_name_H-M   'P 1'
_cell_length_a   4.85147423
_cell_length_b   4.85147408
_cell_length_c   4.85147500
_cell_angle_alpha   60.00000055
_cell_angle_beta   60.00000160
_cell_angle_gamma   60.00000002
_symmetry_Int_Tables_number   1
_chemical_formula_structural   ZrGaFe4
_chemical_formula_sum   'Zr1 Ga1 Fe4'
_cell_volume   80.74325473
_cell_formula_units_Z   1
loop_
 _symmetry_equiv_pos_site_id
 _symmetry_equiv_pos_as_xyz
  1  'x, y, z'
loop_
 _atom_site_type_symbol
 _atom_site_label
 _atom_site_symmetry_multiplicity
 _atom_site_fract_x
 _atom_site_fract_y
 _atom_site_fract_z
 _atom_site_occupancy
  Zr  Zr0  1  0.250000  0.250000  0.250000  1
  Ga  Ga1  1  0.000000  0.000000  0.000000  1
  Fe  Fe2  1  0.625815  0.625815  0.122554  1
  Fe  Fe3  1  0.625815  0.122554  0.625815  1
  Fe  Fe4  1  0.625815  0.625815  0.625815  1
  Fe  Fe5  1  0.122554  0.625815  0.625815  1
