# generated using pymatgen
data_La6TbRh3
_symmetry_space_group_name_H-M   'P 1'
_cell_length_a   10.26087000
_cell_length_b   10.26087129
_cell_length_c   6.44686000
_cell_angle_alpha   90.00000000
_cell_angle_beta   90.00000000
_cell_angle_gamma   120.00000228
_symmetry_Int_Tables_number   1
_chemical_formula_structural   La6TbRh3
_chemical_formula_sum   'La12 Tb2 Rh6'
_cell_volume   587.82396290
_cell_formula_units_Z   2
loop_
 _symmetry_equiv_pos_site_id
 _symmetry_equiv_pos_as_xyz
  1  'x, y, z'
loop_
 _atom_site_type_symbol
 _atom_site_label
 _atom_site_symmetry_multiplicity
 _atom_site_fract_x
 _atom_site_fract_y
 _atom_site_fract_z
 _atom_site_occupancy
  La  La0  1  0.873479  0.746957  0.764680  1
  La  La1  1  0.253043  0.126521  0.764680  1
  La  La2  1  0.873479  0.126521  0.764680  1
  La  La3  1  0.126521  0.253043  0.264680  1
  La  La4  1  0.746957  0.873479  0.264680  1
  La  La5  1  0.126521  0.873479  0.264680  1
  La  La6  1  0.457529  0.915060  0.594582  1
  La  La7  1  0.084940  0.542471  0.594582  1
  La  La8  1  0.457529  0.542471  0.594582  1
  La  La9  1  0.542471  0.084940  0.094582  1
  La  La10  1  0.915060  0.457529  0.094582  1
  La  La11  1  0.542471  0.457529  0.094582  1
  Tb  Tb12  1  0.666667  0.333333  0.568320  1
  Tb  Tb13  1  0.333333  0.666667  0.068320  1
  Rh  Rh14  1  0.190328  0.380654  0.853806  1
  Rh  Rh15  1  0.619346  0.809672  0.853806  1
  Rh  Rh16  1  0.190328  0.809672  0.853806  1
  Rh  Rh17  1  0.809672  0.619346  0.353806  1
  Rh  Rh18  1  0.380654  0.190328  0.353806  1
  Rh  Rh19  1  0.809672  0.190328  0.353806  1
