# generated using pymatgen
data_TbTa(SnRu2)2
_symmetry_space_group_name_H-M   'P 1'
_cell_length_a   4.59599100
_cell_length_b   6.50691400
_cell_length_c   13.81897700
_cell_angle_alpha   90.00001710
_cell_angle_beta   90.00100449
_cell_angle_gamma   89.99997873
_symmetry_Int_Tables_number   1
_chemical_formula_structural   TbTa(SnRu2)2
_chemical_formula_sum   'Tb3 Ta3 Sn6 Ru12'
_cell_volume   413.26643169
_cell_formula_units_Z   3
loop_
 _symmetry_equiv_pos_site_id
 _symmetry_equiv_pos_as_xyz
  1  'x, y, z'
loop_
 _atom_site_type_symbol
 _atom_site_label
 _atom_site_symmetry_multiplicity
 _atom_site_fract_x
 _atom_site_fract_y
 _atom_site_fract_z
 _atom_site_occupancy
  Tb  Tb0  1  0.999997  0.000006  0.997015  1
  Tb  Tb1  1  0.500003  0.499994  0.166663  1
  Tb  Tb2  1  0.999995  0.000007  0.336323  1
  Ta  Ta3  1  0.499999  0.500002  0.501062  1
  Ta  Ta4  1  0.999980  0.999996  0.666669  1
  Ta  Ta5  1  0.499963  0.500004  0.832272  1
  Sn  Sn6  1  0.000004  0.499999  0.999523  1
  Sn  Sn7  1  0.500001  0.000000  0.166672  1
  Sn  Sn8  1  0.999991  0.499999  0.333809  1
  Sn  Sn9  1  0.500005  0.000002  0.503129  1
  Sn  Sn10  1  0.999992  0.499997  0.666658  1
  Sn  Sn11  1  0.499980  0.000002  0.830206  1
  Ru  Ru12  1  0.500009  0.261390  0.986024  1
  Ru  Ru13  1  0.500009  0.738612  0.986024  1
  Ru  Ru14  1  0.000020  0.247188  0.166666  1
  Ru  Ru15  1  0.000020  0.752810  0.166666  1
  Ru  Ru16  1  0.500006  0.261381  0.347307  1
  Ru  Ru17  1  0.500006  0.738621  0.347306  1
  Ru  Ru18  1  0.999994  0.258077  0.510530  1
  Ru  Ru19  1  0.999994  0.741923  0.510530  1
  Ru  Ru20  1  0.500009  0.246427  0.666668  1
  Ru  Ru21  1  0.500009  0.753573  0.666669  1
  Ru  Ru22  1  0.000006  0.258070  0.822804  1
  Ru  Ru23  1  0.000007  0.741930  0.822805  1
