# generated using pymatgen
data_Pr2Ga5Ru3
_symmetry_space_group_name_H-M   'P 1'
_cell_length_a   8.69710930
_cell_length_b   8.69710930
_cell_length_c   8.69710933
_cell_angle_alpha   140.55041717
_cell_angle_beta   110.21798967
_cell_angle_gamma   83.23618515
_symmetry_Int_Tables_number   1
_chemical_formula_structural   Pr2Ga5Ru3
_chemical_formula_sum   'Pr4 Ga10 Ru6'
_cell_volume   379.78120380
_cell_formula_units_Z   2
loop_
 _symmetry_equiv_pos_site_id
 _symmetry_equiv_pos_as_xyz
  1  'x, y, z'
loop_
 _atom_site_type_symbol
 _atom_site_label
 _atom_site_symmetry_multiplicity
 _atom_site_fract_x
 _atom_site_fract_y
 _atom_site_fract_z
 _atom_site_occupancy
  Pr  Pr0  1  0.869340  0.640161  0.229179  1
  Pr  Pr1  1  0.130660  0.359839  0.770821  1
  Pr  Pr2  1  0.410981  0.140161  0.270821  1
  Pr  Pr3  1  0.589019  0.859839  0.729179  1
  Ga  Ga4  1  0.500000  0.750000  0.250000  1
  Ga  Ga5  1  0.500000  0.250000  0.750000  1
  Ga  Ga6  1  0.203117  0.953117  0.750000  1
  Ga  Ga7  1  0.796883  0.546883  0.750000  1
  Ga  Ga8  1  0.796883  0.046883  0.250000  1
  Ga  Ga9  1  0.203117  0.453117  0.250000  1
  Ga  Ga10  1  0.092897  0.913250  0.179646  1
  Ga  Ga11  1  0.907103  0.086750  0.820354  1
  Ga  Ga12  1  0.733603  0.413250  0.320354  1
  Ga  Ga13  1  0.266397  0.586750  0.679646  1
  Ru  Ru14  1  0.000000  0.750000  0.750000  1
  Ru  Ru15  1  0.000000  0.250000  0.250000  1
  Ru  Ru16  1  0.270779  0.850399  0.420381  1
  Ru  Ru17  1  0.729221  0.149601  0.579619  1
  Ru  Ru18  1  0.430017  0.350399  0.079619  1
  Ru  Ru19  1  0.569983  0.649601  0.920381  1
