# generated using pymatgen
data_Yb3Th(Pt2O7)2
_symmetry_space_group_name_H-M   'P 1'
_cell_length_a   7.30073973
_cell_length_b   7.29706897
_cell_length_c   7.30073800
_cell_angle_alpha   59.98335677
_cell_angle_beta   59.99999880
_cell_angle_gamma   59.98336502
_symmetry_Int_Tables_number   1
_chemical_formula_structural   Yb3Th(Pt2O7)2
_chemical_formula_sum   'Yb3 Th1 Pt4 O14'
_cell_volume   274.95258580
_cell_formula_units_Z   1
loop_
 _symmetry_equiv_pos_site_id
 _symmetry_equiv_pos_as_xyz
  1  'x, y, z'
loop_
 _atom_site_type_symbol
 _atom_site_label
 _atom_site_symmetry_multiplicity
 _atom_site_fract_x
 _atom_site_fract_y
 _atom_site_fract_z
 _atom_site_occupancy
  Yb  Yb0  1  0.125000  0.125000  0.125000  1
  Yb  Yb1  1  0.625000  0.125000  0.125000  1
  Yb  Yb2  1  0.125000  0.125000  0.625000  1
  Th  Th3  1  0.125000  0.625000  0.125000  1
  Pt  Pt4  1  0.625000  0.625000  0.125000  1
  Pt  Pt5  1  0.625000  0.125000  0.625000  1
  Pt  Pt6  1  0.125000  0.625000  0.625000  1
  Pt  Pt7  1  0.625000  0.625000  0.625000  1
  O  O8  1  0.246957  0.259130  0.246957  1
  O  O9  1  0.707667  0.292119  0.292546  1
  O  O10  1  0.707667  0.292119  0.707667  1
  O  O11  1  0.290064  0.711854  0.290064  1
  O  O12  1  0.708017  0.711854  0.290064  1
  O  O13  1  0.292546  0.292119  0.707667  1
  O  O14  1  0.959936  0.538146  0.541983  1
  O  O15  1  0.290064  0.711854  0.708017  1
  O  O16  1  0.957454  0.957881  0.542333  1
  O  O17  1  0.542333  0.957881  0.542333  1
  O  O18  1  0.541983  0.538146  0.959936  1
  O  O19  1  0.959936  0.538146  0.959936  1
  O  O20  1  0.542333  0.957881  0.957454  1
  O  O21  1  0.003043  0.990870  0.003043  1
