# generated using pymatgen
data_K(Cr5Se8)2
_symmetry_space_group_name_H-M   'P 1'
_cell_length_a   7.30849013
_cell_length_b   9.67543608
_cell_length_c   9.80750894
_cell_angle_alpha   72.61855255
_cell_angle_beta   68.17337916
_cell_angle_gamma   79.12883669
_symmetry_Int_Tables_number   1
_chemical_formula_structural   K(Cr5Se8)2
_chemical_formula_sum   'K1 Cr10 Se16'
_cell_volume   612.04547345
_cell_formula_units_Z   1
loop_
 _symmetry_equiv_pos_site_id
 _symmetry_equiv_pos_as_xyz
  1  'x, y, z'
loop_
 _atom_site_type_symbol
 _atom_site_label
 _atom_site_symmetry_multiplicity
 _atom_site_fract_x
 _atom_site_fract_y
 _atom_site_fract_z
 _atom_site_occupancy
  K  K0  1  0.000000  0.000000  0.000000  1
  Cr  Cr1  1  0.839823  0.686118  0.475848  1
  Cr  Cr2  1  0.340796  0.685350  0.474945  1
  Cr  Cr3  1  0.659204  0.314650  0.525055  1
  Cr  Cr4  1  0.160177  0.313882  0.524152  1
  Cr  Cr5  1  0.816090  0.410489  0.163386  1
  Cr  Cr6  1  0.316357  0.406709  0.163306  1
  Cr  Cr7  1  0.683643  0.593291  0.836694  1
  Cr  Cr8  1  0.183910  0.589511  0.836614  1
  Cr  Cr9  1  0.500000  0.000000  0.500000  1
  Cr  Cr10  1  0.000000  0.000000  0.500000  1
  Se  Se11  1  0.788604  0.151366  0.346573  1
  Se  Se12  1  0.288852  0.151040  0.346563  1
  Se  Se13  1  0.711148  0.848960  0.653437  1
  Se  Se14  1  0.211396  0.848634  0.653427  1
  Se  Se15  1  0.958722  0.476117  0.344210  1
  Se  Se16  1  0.459586  0.476270  0.343733  1
  Se  Se17  1  0.540414  0.523730  0.656267  1
  Se  Se18  1  0.041278  0.523883  0.655790  1
  Se  Se19  1  0.630323  0.827879  0.324308  1
  Se  Se20  1  0.129863  0.827695  0.324505  1
  Se  Se21  1  0.870137  0.172305  0.675495  1
  Se  Se22  1  0.369677  0.172121  0.675692  1
  Se  Se23  1  0.338448  0.656622  0.993038  1
  Se  Se24  1  0.840651  0.659245  0.991874  1
  Se  Se25  1  0.159349  0.340755  0.008126  1
  Se  Se26  1  0.661552  0.343378  0.006962  1
