# generated using pymatgen
data_SrSb12(IrOs)2
_symmetry_space_group_name_H-M   'P 1'
_cell_length_a   8.18244209
_cell_length_b   8.16412427
_cell_length_c   8.18244101
_cell_angle_alpha   109.47538877
_cell_angle_beta   109.55475926
_cell_angle_gamma   109.47425597
_symmetry_Int_Tables_number   1
_chemical_formula_structural   SrSb12(IrOs)2
_chemical_formula_sum   'Sr1 Sb12 Ir2 Os2'
_cell_volume   420.30641201
_cell_formula_units_Z   1
loop_
 _symmetry_equiv_pos_site_id
 _symmetry_equiv_pos_as_xyz
  1  'x, y, z'
loop_
 _atom_site_type_symbol
 _atom_site_label
 _atom_site_symmetry_multiplicity
 _atom_site_fract_x
 _atom_site_fract_y
 _atom_site_fract_z
 _atom_site_occupancy
  Sr  Sr0  1  0.000000  0.000000  0.000000  1
  Sb  Sb1  1  0.841981  0.657124  0.502280  1
  Sb  Sb2  1  0.158019  0.342876  0.497720  1
  Sb  Sb3  1  0.154845  0.657124  0.815143  1
  Sb  Sb4  1  0.845155  0.342876  0.184857  1
  Sb  Sb5  1  0.660637  0.502728  0.842091  1
  Sb  Sb6  1  0.339363  0.497272  0.157909  1
  Sb  Sb7  1  0.657040  0.812022  0.154982  1
  Sb  Sb8  1  0.342960  0.187978  0.845018  1
  Sb  Sb9  1  0.502343  0.842651  0.657754  1
  Sb  Sb10  1  0.497657  0.157349  0.342246  1
  Sb  Sb11  1  0.184896  0.842651  0.340308  1
  Sb  Sb12  1  0.815104  0.157349  0.659692  1
  Ir  Ir13  1  0.500000  0.000000  0.000000  1
  Ir  Ir14  1  0.000000  0.000000  0.500000  1
  Os  Os15  1  0.500000  0.500000  0.500000  1
  Os  Os16  1  0.000000  0.500000  0.000000  1
