# generated using pymatgen
data_LaPPt2Rh
_symmetry_space_group_name_H-M   'P 1'
_cell_length_a   4.07461400
_cell_length_b   4.15228100
_cell_length_c   5.42852100
_cell_angle_alpha   90.00000000
_cell_angle_beta   90.00000000
_cell_angle_gamma   90.00000000
_symmetry_Int_Tables_number   1
_chemical_formula_structural   LaPPt2Rh
_chemical_formula_sum   'La1 P1 Pt2 Rh1'
_cell_volume   91.84483354
_cell_formula_units_Z   1
loop_
 _symmetry_equiv_pos_site_id
 _symmetry_equiv_pos_as_xyz
  1  'x, y, z'
loop_
 _atom_site_type_symbol
 _atom_site_label
 _atom_site_symmetry_multiplicity
 _atom_site_fract_x
 _atom_site_fract_y
 _atom_site_fract_z
 _atom_site_occupancy
  La  La0  1  0.500000  0.500000  0.701563  1
  P  P1  1  0.000000  0.000000  0.975214  1
  Pt  Pt2  1  0.000000  0.500000  0.193192  1
  Pt  Pt3  1  0.000000  0.000000  0.550764  1
  Rh  Rh4  1  0.500000  0.000000  0.187467  1
