# generated using pymatgen
data_EuCd10Ag
_symmetry_space_group_name_H-M   'P 1'
_cell_length_a   7.70258726
_cell_length_b   9.31076950
_cell_length_c   9.36324837
_cell_angle_alpha   99.45626716
_cell_angle_beta   114.28780363
_cell_angle_gamma   66.45728457
_symmetry_Int_Tables_number   1
_chemical_formula_structural   EuCd10Ag
_chemical_formula_sum   'Eu2 Cd20 Ag2'
_cell_volume   561.12280731
_cell_formula_units_Z   2
loop_
 _symmetry_equiv_pos_site_id
 _symmetry_equiv_pos_as_xyz
  1  'x, y, z'
loop_
 _atom_site_type_symbol
 _atom_site_label
 _atom_site_symmetry_multiplicity
 _atom_site_fract_x
 _atom_site_fract_y
 _atom_site_fract_z
 _atom_site_occupancy
  Eu  Eu0  1  0.000273  0.000000  0.000546  1
  Eu  Eu1  1  0.249727  0.500000  0.499454  1
  Cd  Cd2  1  0.494708  0.000000  0.989416  1
  Cd  Cd3  1  0.899230  0.679443  0.076671  1
  Cd  Cd4  1  0.177441  0.320557  0.076672  1
  Cd  Cd5  1  0.342189  0.583513  0.177253  1
  Cd  Cd6  1  0.835065  0.416487  0.177254  1
  Cd  Cd7  1  0.625000  0.250000  0.250000  1
  Cd  Cd8  1  0.625001  0.750000  0.250001  1
  Cd  Cd9  1  0.907811  0.916488  0.322746  1
  Cd  Cd10  1  0.414935  0.083513  0.322746  1
  Cd  Cd11  1  0.350770  0.820558  0.423328  1
  Cd  Cd12  1  0.072559  0.179443  0.423328  1
  Cd  Cd13  1  0.755292  0.500000  0.510584  1
  Cd  Cd14  1  0.757469  0.175364  0.587219  1
  Cd  Cd15  1  0.829751  0.824636  0.587219  1
  Cd  Cd16  1  0.495372  0.079925  0.678002  1
  Cd  Cd17  1  0.182630  0.920074  0.678002  1
  Cd  Cd18  1  0.754629  0.420074  0.821999  1
  Cd  Cd19  1  0.067370  0.579926  0.821999  1
  Cd  Cd20  1  0.420249  0.675365  0.912781  1
  Cd  Cd21  1  0.492532  0.324635  0.912782  1
  Ag  Ag22  1  0.125000  0.250001  0.750000  1
  Ag  Ag23  1  0.625000  0.750000  0.750000  1
