# generated using pymatgen
data_HfTaSnB2Ru5
_symmetry_space_group_name_H-M   'P 1'
_cell_length_a   9.46571094
_cell_length_b   9.46571195
_cell_length_c   3.09422000
_cell_angle_alpha   90.00000000
_cell_angle_beta   90.00000000
_cell_angle_gamma   90.56642256
_symmetry_Int_Tables_number   1
_chemical_formula_structural   HfTaSnB2Ru5
_chemical_formula_sum   'Hf2 Ta2 Sn2 B4 Ru10'
_cell_volume   277.22761491
_cell_formula_units_Z   2
loop_
 _symmetry_equiv_pos_site_id
 _symmetry_equiv_pos_as_xyz
  1  'x, y, z'
loop_
 _atom_site_type_symbol
 _atom_site_label
 _atom_site_symmetry_multiplicity
 _atom_site_fract_x
 _atom_site_fract_y
 _atom_site_fract_z
 _atom_site_occupancy
  Hf  Hf0  1  0.823605  0.676395  0.000000  1
  Hf  Hf1  1  0.176395  0.323605  0.000000  1
  Ta  Ta2  1  0.323588  0.823588  0.000000  1
  Ta  Ta3  1  0.676412  0.176412  0.000000  1
  Sn  Sn4  1  0.500000  0.500000  0.000000  1
  Sn  Sn5  1  0.000000  0.000000  0.000000  1
  B  B6  1  0.621783  0.878217  0.000000  1
  B  B7  1  0.378217  0.121783  0.000000  1
  B  B8  1  0.121945  0.621945  0.000000  1
  B  B9  1  0.878055  0.378055  0.000000  1
  Ru  Ru10  1  0.564034  0.724076  0.500000  1
  Ru  Ru11  1  0.435966  0.275924  0.500000  1
  Ru  Ru12  1  0.076730  0.780870  0.500000  1
  Ru  Ru13  1  0.923270  0.219130  0.500000  1
  Ru  Ru14  1  0.280870  0.576730  0.500000  1
  Ru  Ru15  1  0.719130  0.423270  0.500000  1
  Ru  Ru16  1  0.224076  0.064034  0.500000  1
  Ru  Ru17  1  0.775924  0.935966  0.500000  1
  Ru  Ru18  1  0.500000  0.000000  0.500000  1
  Ru  Ru19  1  0.000000  0.500000  0.500000  1
