# generated using pymatgen
data_PrNdEr6(Si3Rh)4
_symmetry_space_group_name_H-M   'P 1'
_cell_length_a   8.18467100
_cell_length_b   8.18467074
_cell_length_c   7.98356800
_cell_angle_alpha   90.00000000
_cell_angle_beta   90.00000000
_cell_angle_gamma   119.99999700
_symmetry_Int_Tables_number   1
_chemical_formula_structural   PrNdEr6(Si3Rh)4
_chemical_formula_sum   'Pr1 Nd1 Er6 Si12 Rh4'
_cell_volume   463.15900622
_cell_formula_units_Z   1
loop_
 _symmetry_equiv_pos_site_id
 _symmetry_equiv_pos_as_xyz
  1  'x, y, z'
loop_
 _atom_site_type_symbol
 _atom_site_label
 _atom_site_symmetry_multiplicity
 _atom_site_fract_x
 _atom_site_fract_y
 _atom_site_fract_z
 _atom_site_occupancy
  Pr  Pr0  1  0.000000  0.000000  0.250000  1
  Nd  Nd1  1  0.000000  0.000000  0.750000  1
  Er  Er2  1  0.491974  0.508026  0.250000  1
  Er  Er3  1  0.491974  0.983947  0.250000  1
  Er  Er4  1  0.016053  0.508026  0.250000  1
  Er  Er5  1  0.508010  0.491990  0.750000  1
  Er  Er6  1  0.983978  0.491990  0.750000  1
  Er  Er7  1  0.508010  0.016022  0.750000  1
  Si  Si8  1  0.831281  0.168719  0.502865  1
  Si  Si9  1  0.831281  0.662563  0.502865  1
  Si  Si10  1  0.337437  0.168719  0.502865  1
  Si  Si11  1  0.831281  0.168719  0.997135  1
  Si  Si12  1  0.831281  0.662563  0.997135  1
  Si  Si13  1  0.337437  0.168719  0.997135  1
  Si  Si14  1  0.168746  0.831254  0.002257  1
  Si  Si15  1  0.662510  0.831254  0.002257  1
  Si  Si16  1  0.168746  0.337490  0.002257  1
  Si  Si17  1  0.168746  0.831254  0.497743  1
  Si  Si18  1  0.662510  0.831254  0.497743  1
  Si  Si19  1  0.168746  0.337490  0.497743  1
  Rh  Rh20  1  0.666667  0.333333  0.464848  1
  Rh  Rh21  1  0.666667  0.333333  0.035152  1
  Rh  Rh22  1  0.333333  0.666667  0.964626  1
  Rh  Rh23  1  0.333333  0.666667  0.535374  1
