# generated using pymatgen
data_La4HoSn3
_symmetry_space_group_name_H-M   'P 1'
_cell_length_a   9.47362689
_cell_length_b   9.47362702
_cell_length_c   9.47362711
_cell_angle_alpha   96.23902891
_cell_angle_beta   96.23902651
_cell_angle_gamma   141.50356367
_symmetry_Int_Tables_number   1
_chemical_formula_structural   La4HoSn3
_chemical_formula_sum   'La8 Ho2 Sn6'
_cell_volume   499.66869507
_cell_formula_units_Z   2
loop_
 _symmetry_equiv_pos_site_id
 _symmetry_equiv_pos_as_xyz
  1  'x, y, z'
loop_
 _atom_site_type_symbol
 _atom_site_label
 _atom_site_symmetry_multiplicity
 _atom_site_fract_x
 _atom_site_fract_y
 _atom_site_fract_z
 _atom_site_occupancy
  La  La0  1  0.911216  0.223043  0.134259  1
  La  La1  1  0.223043  0.088784  0.311827  1
  La  La2  1  0.776957  0.911216  0.688173  1
  La  La3  1  0.088784  0.776957  0.865741  1
  La  La4  1  0.723043  0.411216  0.134259  1
  La  La5  1  0.276957  0.588784  0.865741  1
  La  La6  1  0.588784  0.723043  0.311827  1
  La  La7  1  0.411216  0.276957  0.688173  1
  Ho  Ho8  1  0.750000  0.250000  0.500000  1
  Ho  Ho9  1  0.250000  0.750000  0.500000  1
  Sn  Sn10  1  0.750000  0.750000  0.000000  1
  Sn  Sn11  1  0.250000  0.250000  0.000000  1
  Sn  Sn12  1  0.845708  0.654292  0.500000  1
  Sn  Sn13  1  0.654292  0.154292  0.808585  1
  Sn  Sn14  1  0.345708  0.845708  0.191415  1
  Sn  Sn15  1  0.154292  0.345708  0.500000  1
