# generated using pymatgen
data_Tm10Hg5Pt4Pb3
_symmetry_space_group_name_H-M   'P 1'
_cell_length_a   3.57183400
_cell_length_b   8.08244406
_cell_length_c   18.24729637
_cell_angle_alpha   90.23016448
_cell_angle_beta   90.00000000
_cell_angle_gamma   90.00000000
_symmetry_Int_Tables_number   1
_chemical_formula_structural   Tm10Hg5Pt4Pb3
_chemical_formula_sum   'Tm10 Hg5 Pt4 Pb3'
_cell_volume   526.77965790
_cell_formula_units_Z   1
loop_
 _symmetry_equiv_pos_site_id
 _symmetry_equiv_pos_as_xyz
  1  'x, y, z'
loop_
 _atom_site_type_symbol
 _atom_site_label
 _atom_site_symmetry_multiplicity
 _atom_site_fract_x
 _atom_site_fract_y
 _atom_site_fract_z
 _atom_site_occupancy
  Tm  Tm0  1  0.000000  0.104456  0.413228  1
  Tm  Tm1  1  0.000000  0.894589  0.585395  1
  Tm  Tm2  1  0.000000  0.398396  0.915745  1
  Tm  Tm3  1  0.000000  0.612943  0.087136  1
  Tm  Tm4  1  0.000000  0.233707  0.213471  1
  Tm  Tm5  1  0.000000  0.754051  0.783421  1
  Tm  Tm6  1  0.000000  0.251946  0.718233  1
  Tm  Tm7  1  0.000000  0.750874  0.277092  1
  Tm  Tm8  1  0.000000  0.002997  0.006683  1
  Tm  Tm9  1  0.000000  0.498828  0.499456  1
  Hg  Hg10  1  0.500000  0.920277  0.142957  1
  Hg  Hg11  1  0.500000  0.292797  0.062783  1
  Hg  Hg12  1  0.500000  0.711541  0.939964  1
  Hg  Hg13  1  0.500000  0.208149  0.561223  1
  Hg  Hg14  1  0.500000  0.790409  0.437727  1
  Pt  Pt15  1  0.500000  0.027530  0.301354  1
  Pt  Pt16  1  0.500000  0.971599  0.697151  1
  Pt  Pt17  1  0.500000  0.473146  0.803539  1
  Pt  Pt18  1  0.500000  0.522919  0.197096  1
  Pb  Pb19  1  0.500000  0.423441  0.353549  1
  Pb  Pb20  1  0.500000  0.577782  0.646027  1
  Pb  Pb21  1  0.500000  0.077624  0.856771  1
