# generated using pymatgen
data_Eu2Mn(SeF)2
_symmetry_space_group_name_H-M   'P 1'
_cell_length_a   4.04951200
_cell_length_b   4.04892700
_cell_length_c   9.38521700
_cell_angle_alpha   90.00000000
_cell_angle_beta   90.00000000
_cell_angle_gamma   90.00000000
_symmetry_Int_Tables_number   1
_chemical_formula_structural   Eu2Mn(SeF)2
_chemical_formula_sum   'Eu2 Mn1 Se2 F2'
_cell_volume   153.88169295
_cell_formula_units_Z   1
loop_
 _symmetry_equiv_pos_site_id
 _symmetry_equiv_pos_as_xyz
  1  'x, y, z'
loop_
 _atom_site_type_symbol
 _atom_site_label
 _atom_site_symmetry_multiplicity
 _atom_site_fract_x
 _atom_site_fract_y
 _atom_site_fract_z
 _atom_site_occupancy
  Eu  Eu0  1  0.000000  0.500001  0.342107  1
  Eu  Eu1  1  0.500001  0.000000  0.657926  1
  Mn  Mn2  1  0.000000  0.000000  0.000090  1
  Se  Se3  1  0.500001  0.000000  0.178750  1
  Se  Se4  1  0.000000  0.500001  0.821174  1
  F  F5  1  0.000000  0.000000  0.500020  1
  F  F6  1  0.500001  0.500001  0.499932  1
