# generated using pymatgen
data_Tb4Dy2CoP12Ir2Ru15
_symmetry_space_group_name_H-M   'P 1'
_cell_length_a   3.95239600
_cell_length_b   11.16073400
_cell_length_c   12.58836200
_cell_angle_alpha   90.00000000
_cell_angle_beta   90.00000000
_cell_angle_gamma   90.00000000
_symmetry_Int_Tables_number   1
_chemical_formula_structural   Tb4Dy2CoP12Ir2Ru15
_chemical_formula_sum   'Tb4 Dy2 Co1 P12 Ir2 Ru15'
_cell_volume   555.29329800
_cell_formula_units_Z   1
loop_
 _symmetry_equiv_pos_site_id
 _symmetry_equiv_pos_as_xyz
  1  'x, y, z'
loop_
 _atom_site_type_symbol
 _atom_site_label
 _atom_site_symmetry_multiplicity
 _atom_site_fract_x
 _atom_site_fract_y
 _atom_site_fract_z
 _atom_site_occupancy
  Tb  Tb0  1  0.000000  0.500000  0.522841  1
  Tb  Tb1  1  0.500000  0.000000  0.476623  1
  Tb  Tb2  1  0.000000  0.683100  0.795811  1
  Tb  Tb3  1  0.000000  0.316900  0.795811  1
  Dy  Dy4  1  0.500000  0.818885  0.204609  1
  Dy  Dy5  1  0.500000  0.181115  0.204609  1
  Co  Co6  1  0.500000  0.000000  0.013988  1
  P  P7  1  0.500000  0.500000  0.883059  1
  P  P8  1  0.000000  0.000000  0.117061  1
  P  P9  1  0.500000  0.500000  0.337535  1
  P  P10  1  0.000000  0.000000  0.661050  1
  P  P11  1  0.500000  0.301211  0.617007  1
  P  P12  1  0.500000  0.698789  0.617007  1
  P  P13  1  0.000000  0.198549  0.383062  1
  P  P14  1  0.000000  0.801451  0.383062  1
  P  P15  1  0.500000  0.851449  0.897832  1
  P  P16  1  0.500000  0.148551  0.897832  1
  P  P17  1  0.000000  0.655548  0.103351  1
  P  P18  1  0.000000  0.344452  0.103351  1
  Ir  Ir19  1  0.500000  0.500000  0.693130  1
  Ir  Ir20  1  0.000000  0.000000  0.305530  1
  Ru  Ru21  1  0.500000  0.500000  0.154160  1
  Ru  Ru22  1  0.000000  0.000000  0.845280  1
  Ru  Ru23  1  0.000000  0.500000  0.985066  1
  Ru  Ru24  1  0.500000  0.328386  0.990589  1
  Ru  Ru25  1  0.500000  0.671614  0.990589  1
  Ru  Ru26  1  0.000000  0.163148  0.010347  1
  Ru  Ru27  1  0.000000  0.836852  0.010347  1
  Ru  Ru28  1  0.500000  0.300382  0.429437  1
  Ru  Ru29  1  0.500000  0.699618  0.429437  1
  Ru  Ru30  1  0.000000  0.198996  0.570625  1
  Ru  Ru31  1  0.000000  0.801004  0.570625  1
  Ru  Ru32  1  0.500000  0.878610  0.715255  1
  Ru  Ru33  1  0.500000  0.121390  0.715255  1
  Ru  Ru34  1  0.000000  0.622454  0.284418  1
  Ru  Ru35  1  0.000000  0.377546  0.284418  1
