# generated using pymatgen
data_Ho5CuSe4
_symmetry_space_group_name_H-M   'P 1'
_cell_length_a   7.01218418
_cell_length_b   7.01218425
_cell_length_c   7.01218450
_cell_angle_alpha   99.68048498
_cell_angle_beta   99.68048548
_cell_angle_gamma   131.58209263
_symmetry_Int_Tables_number   1
_chemical_formula_structural   Ho5CuSe4
_chemical_formula_sum   'Ho5 Cu1 Se4'
_cell_volume   235.22657569
_cell_formula_units_Z   1
loop_
 _symmetry_equiv_pos_site_id
 _symmetry_equiv_pos_as_xyz
  1  'x, y, z'
loop_
 _atom_site_type_symbol
 _atom_site_label
 _atom_site_symmetry_multiplicity
 _atom_site_fract_x
 _atom_site_fract_y
 _atom_site_fract_z
 _atom_site_occupancy
  Ho  Ho0  1  0.401638  0.789104  0.190742  1
  Ho  Ho1  1  0.000000  0.000000  0.000000  1
  Ho  Ho2  1  0.598362  0.210896  0.809258  1
  Ho  Ho3  1  0.210896  0.401638  0.612532  1
  Ho  Ho4  1  0.789104  0.598362  0.387468  1
  Cu  Cu5  1  0.500000  0.500000  0.000000  1
  Se  Se6  1  0.094307  0.695430  0.789737  1
  Se  Se7  1  0.695430  0.905693  0.601122  1
  Se  Se8  1  0.304570  0.094307  0.398878  1
  Se  Se9  1  0.905693  0.304570  0.210263  1
