# generated using pymatgen
data_TmLu5Al16(SiOs)8
_symmetry_space_group_name_H-M   'P 1'
_cell_length_a   8.66264933
_cell_length_b   8.66264921
_cell_length_c   9.37484100
_cell_angle_alpha   90.00000000
_cell_angle_beta   90.00000000
_cell_angle_gamma   120.09121922
_symmetry_Int_Tables_number   1
_chemical_formula_structural   TmLu5Al16(SiOs)8
_chemical_formula_sum   'Tm1 Lu5 Al16 Si8 Os8'
_cell_volume   608.68986936
_cell_formula_units_Z   1
loop_
 _symmetry_equiv_pos_site_id
 _symmetry_equiv_pos_as_xyz
  1  'x, y, z'
loop_
 _atom_site_type_symbol
 _atom_site_label
 _atom_site_symmetry_multiplicity
 _atom_site_fract_x
 _atom_site_fract_y
 _atom_site_fract_z
 _atom_site_occupancy
  Tm  Tm0  1  0.804540  0.195460  0.750000  1
  Lu  Lu1  1  0.193368  0.390055  0.250000  1
  Lu  Lu2  1  0.806843  0.610373  0.750000  1
  Lu  Lu3  1  0.609945  0.806632  0.250000  1
  Lu  Lu4  1  0.389627  0.193157  0.750000  1
  Lu  Lu5  1  0.196108  0.803892  0.250000  1
  Al  Al6  1  0.165433  0.328843  0.578840  1
  Al  Al7  1  0.834671  0.671112  0.420983  1
  Al  Al8  1  0.671157  0.834567  0.578840  1
  Al  Al9  1  0.834671  0.671112  0.079017  1
  Al  Al10  1  0.328888  0.165329  0.420983  1
  Al  Al11  1  0.165433  0.328843  0.921160  1
  Al  Al12  1  0.164454  0.835546  0.578856  1
  Al  Al13  1  0.328888  0.165329  0.079017  1
  Al  Al14  1  0.835502  0.164498  0.420917  1
  Al  Al15  1  0.671157  0.834567  0.921160  1
  Al  Al16  1  0.835502  0.164498  0.079083  1
  Al  Al17  1  0.164454  0.835546  0.921144  1
  Al  Al18  1  0.564800  0.435200  0.250000  1
  Al  Al19  1  0.435369  0.564631  0.750000  1
  Al  Al20  1  0.000260  0.999740  0.250000  1
  Al  Al21  1  0.999890  0.000110  0.750000  1
  Si  Si22  1  0.334880  0.665120  0.042444  1
  Si  Si23  1  0.664897  0.335103  0.957998  1
  Si  Si24  1  0.664897  0.335103  0.542002  1
  Si  Si25  1  0.334880  0.665120  0.457556  1
  Si  Si26  1  0.563293  0.123720  0.250000  1
  Si  Si27  1  0.436369  0.876240  0.750000  1
  Si  Si28  1  0.876280  0.436707  0.250000  1
  Si  Si29  1  0.123760  0.563631  0.750000  1
  Os  Os30  1  0.499749  0.999812  0.000128  1
  Os  Os31  1  0.000188  0.500251  0.000128  1
  Os  Os32  1  0.499749  0.999812  0.499872  1
  Os  Os33  1  0.499953  0.500047  0.000014  1
  Os  Os34  1  0.000188  0.500251  0.499872  1
  Os  Os35  1  0.499953  0.500047  0.499986  1
  Os  Os36  1  0.000002  0.999998  0.000004  1
  Os  Os37  1  0.000002  0.999998  0.499996  1
