# generated using pymatgen
data_Sc12Co(OsBr8)2
_symmetry_space_group_name_H-M   'P 1'
_cell_length_a   8.90615369
_cell_length_b   11.60659758
_cell_length_c   12.34708800
_cell_angle_alpha   117.08011959
_cell_angle_beta   101.10572192
_cell_angle_gamma   100.76806518
_symmetry_Int_Tables_number   1
_chemical_formula_structural   Sc12Co(OsBr8)2
_chemical_formula_sum   'Sc12 Co1 Os2 Br16'
_cell_volume   1058.64195923
_cell_formula_units_Z   1
loop_
 _symmetry_equiv_pos_site_id
 _symmetry_equiv_pos_as_xyz
  1  'x, y, z'
loop_
 _atom_site_type_symbol
 _atom_site_label
 _atom_site_symmetry_multiplicity
 _atom_site_fract_x
 _atom_site_fract_y
 _atom_site_fract_z
 _atom_site_occupancy
  Sc  Sc0  1  0.090240  0.272811  0.359985  1
  Sc  Sc1  1  0.916253  0.730880  0.642094  1
  Sc  Sc2  1  0.782966  0.535720  0.328943  1
  Sc  Sc3  1  0.220443  0.464932  0.668241  1
  Sc  Sc4  1  0.276258  0.727198  0.640174  1
  Sc  Sc5  1  0.727243  0.269127  0.357580  1
  Sc  Sc6  1  0.145331  0.534616  0.332136  1
  Sc  Sc7  1  0.859973  0.464874  0.670553  1
  Sc  Sc8  1  0.404584  0.360131  0.276361  1
  Sc  Sc9  1  0.592003  0.639857  0.724094  1
  Sc  Sc10  1  0.458247  0.312329  0.520053  1
  Sc  Sc11  1  0.539072  0.687359  0.480180  1
  Co  Co12  1  0.340891  0.499872  0.499743  1
  Os  Os13  1  0.002536  0.500009  0.499943  1
  Os  Os14  1  0.659333  0.500009  0.500418  1
  Br  Br15  1  0.389542  0.729523  0.866469  1
  Br  Br16  1  0.607493  0.269391  0.132077  1
  Br  Br17  1  0.184993  0.945989  0.772478  1
  Br  Br18  1  0.821537  0.054077  0.226461  1
  Br  Br19  1  0.338248  0.111885  0.263050  1
  Br  Br20  1  0.648974  0.887877  0.737157  1
  Br  Br21  1  0.548468  0.438161  0.784982  1
  Br  Br22  1  0.440319  0.561591  0.215096  1
  Br  Br23  1  0.305630  0.813414  0.465191  1
  Br  Br24  1  0.694686  0.187305  0.534509  1
  Br  Br25  1  0.169398  0.184969  0.531987  1
  Br  Br26  1  0.829625  0.814381  0.468290  1
  Br  Br27  1  0.932184  0.570173  0.172396  1
  Br  Br28  1  0.074681  0.430206  0.827885  1
  Br  Br29  1  0.915384  0.729786  0.867932  1
  Br  Br30  1  0.083465  0.271545  0.133539  1
