# generated using pymatgen
data_Tm4Co5P12Rh11W4
_symmetry_space_group_name_H-M   'P 1'
_cell_length_a   3.83948600
_cell_length_b   10.72265054
_cell_length_c   12.34564151
_cell_angle_alpha   89.79977994
_cell_angle_beta   90.00000000
_cell_angle_gamma   90.00000000
_symmetry_Int_Tables_number   1
_chemical_formula_structural   Tm4Co5P12Rh11W4
_chemical_formula_sum   'Tm4 Co5 P12 Rh11 W4'
_cell_volume   508.26037312
_cell_formula_units_Z   1
loop_
 _symmetry_equiv_pos_site_id
 _symmetry_equiv_pos_as_xyz
  1  'x, y, z'
loop_
 _atom_site_type_symbol
 _atom_site_label
 _atom_site_symmetry_multiplicity
 _atom_site_fract_x
 _atom_site_fract_y
 _atom_site_fract_z
 _atom_site_occupancy
  Tm  Tm0  1  0.250000  0.580109  0.710156  1
  Tm  Tm1  1  0.250000  0.916133  0.206972  1
  Tm  Tm2  1  0.750000  0.416861  0.291977  1
  Tm  Tm3  1  0.750000  0.086209  0.792668  1
  Co  Co4  1  0.750000  0.386232  0.803398  1
  Co  Co5  1  0.250000  0.464915  0.933210  1
  Co  Co6  1  0.250000  0.036052  0.437383  1
  Co  Co7  1  0.750000  0.535976  0.062809  1
  Co  Co8  1  0.750000  0.964710  0.563223  1
  P  P9  1  0.250000  0.423135  0.107120  1
  P  P10  1  0.250000  0.080243  0.609915  1
  P  P11  1  0.750000  0.568996  0.886516  1
  P  P12  1  0.750000  0.921651  0.390971  1
  P  P13  1  0.250000  0.274125  0.869443  1
  P  P14  1  0.250000  0.231678  0.372203  1
  P  P15  1  0.750000  0.730045  0.126529  1
  P  P16  1  0.750000  0.768709  0.628540  1
  P  P17  1  0.250000  0.597155  0.391153  1
  P  P18  1  0.250000  0.902810  0.889946  1
  P  P19  1  0.750000  0.401042  0.617941  1
  P  P20  1  0.750000  0.099017  0.108710  1
  Rh  Rh21  1  0.250000  0.404854  0.485810  1
  Rh  Rh22  1  0.250000  0.097441  0.983659  1
  Rh  Rh23  1  0.750000  0.593725  0.517338  1
  Rh  Rh24  1  0.750000  0.905250  0.013703  1
  Rh  Rh25  1  0.250000  0.229755  0.180379  1
  Rh  Rh26  1  0.250000  0.275239  0.682692  1
  Rh  Rh27  1  0.750000  0.767523  0.818667  1
  Rh  Rh28  1  0.750000  0.728862  0.319100  1
  Rh  Rh29  1  0.250000  0.892545  0.699500  1
  Rh  Rh30  1  0.250000  0.608729  0.199573  1
  Rh  Rh31  1  0.750000  0.108597  0.300893  1
  W  W32  1  0.250000  0.706516  0.983999  1
  W  W33  1  0.250000  0.792615  0.485868  1
  W  W34  1  0.750000  0.294399  0.011895  1
  W  W35  1  0.750000  0.208143  0.516142  1
