# generated using pymatgen
data_LiSc4Si8Tc5
_symmetry_space_group_name_H-M   'P 1'
_cell_length_a   6.64010500
_cell_length_b   6.63274662
_cell_length_c   12.41940409
_cell_angle_alpha   90.35799907
_cell_angle_beta   90.00000000
_cell_angle_gamma   90.00000000
_symmetry_Int_Tables_number   1
_chemical_formula_structural   LiSc4Si8Tc5
_chemical_formula_sum   'Li2 Sc8 Si16 Tc10'
_cell_volume   546.96638219
_cell_formula_units_Z   2
loop_
 _symmetry_equiv_pos_site_id
 _symmetry_equiv_pos_as_xyz
  1  'x, y, z'
loop_
 _atom_site_type_symbol
 _atom_site_label
 _atom_site_symmetry_multiplicity
 _atom_site_fract_x
 _atom_site_fract_y
 _atom_site_fract_z
 _atom_site_occupancy
  Li  Li0  1  0.333056  0.335490  0.001342  1
  Li  Li1  1  0.833056  0.164510  0.748658  1
  Sc  Sc2  1  0.008084  0.659103  0.035208  1
  Sc  Sc3  1  0.998567  0.342015  0.529446  1
  Sc  Sc4  1  0.347970  0.991912  0.465634  1
  Sc  Sc5  1  0.163959  0.498258  0.782198  1
  Sc  Sc6  1  0.847970  0.508088  0.284366  1
  Sc  Sc7  1  0.498567  0.157985  0.220554  1
  Sc  Sc8  1  0.508084  0.840897  0.714792  1
  Sc  Sc9  1  0.663959  0.001742  0.967802  1
  Si  Si10  1  0.021206  0.735620  0.441528  1
  Si  Si11  1  0.618189  0.308830  0.433867  1
  Si  Si12  1  0.367959  0.703635  0.928978  1
  Si  Si13  1  0.200436  0.128804  0.683000  1
  Si  Si14  1  0.305344  0.624474  0.571592  1
  Si  Si15  1  0.700436  0.371196  0.067000  1
  Si  Si16  1  0.805344  0.875526  0.178408  1
  Si  Si17  1  0.118189  0.191170  0.316133  1
  Si  Si18  1  0.965004  0.298458  0.935070  1
  Si  Si19  1  0.731477  0.024676  0.556003  1
  Si  Si20  1  0.231477  0.475324  0.193997  1
  Si  Si21  1  0.792057  0.533686  0.683925  1
  Si  Si22  1  0.465004  0.201542  0.814930  1
  Si  Si23  1  0.521206  0.764380  0.308472  1
  Si  Si24  1  0.292057  0.966314  0.066075  1
  Si  Si25  1  0.867959  0.796365  0.821022  1
  Tc  Tc26  1  0.669439  0.670629  0.497362  1
  Tc  Tc27  1  0.169439  0.829371  0.252638  1
  Tc  Tc28  1  0.018893  0.825451  0.637874  1
  Tc  Tc29  1  0.999750  0.173490  0.123634  1
  Tc  Tc30  1  0.803925  0.023714  0.359473  1
  Tc  Tc31  1  0.303925  0.476286  0.390527  1
  Tc  Tc32  1  0.654682  0.501492  0.873375  1
  Tc  Tc33  1  0.499750  0.326510  0.626366  1
  Tc  Tc34  1  0.518893  0.674549  0.112126  1
  Tc  Tc35  1  0.154682  0.998508  0.876625  1
