# generated using pymatgen
data_Yb3Pa5CdPt8Pb3
_symmetry_space_group_name_H-M   'P 1'
_cell_length_a   7.90605748
_cell_length_b   7.92524452
_cell_length_c   7.26421201
_cell_angle_alpha   89.99827279
_cell_angle_beta   90.06052016
_cell_angle_gamma   92.28528913
_symmetry_Int_Tables_number   1
_chemical_formula_structural   Yb3Pa5CdPt8Pb3
_chemical_formula_sum   'Yb3 Pa5 Cd1 Pt8 Pb3'
_cell_volume   454.79466368
_cell_formula_units_Z   1
loop_
 _symmetry_equiv_pos_site_id
 _symmetry_equiv_pos_as_xyz
  1  'x, y, z'
loop_
 _atom_site_type_symbol
 _atom_site_label
 _atom_site_symmetry_multiplicity
 _atom_site_fract_x
 _atom_site_fract_y
 _atom_site_fract_z
 _atom_site_occupancy
  Yb  Yb0  1  0.177592  0.826648  0.502843  1
  Yb  Yb1  1  0.835766  0.160831  0.999178  1
  Yb  Yb2  1  0.163315  0.839561  0.998767  1
  Pa  Pa3  1  0.679816  0.676821  0.999692  1
  Pa  Pa4  1  0.335830  0.334619  0.500371  1
  Pa  Pa5  1  0.826079  0.173968  0.500330  1
  Pa  Pa6  1  0.661804  0.665329  0.499887  1
  Pa  Pa7  1  0.324300  0.319726  0.999319  1
  Cd  Cd8  1  0.494631  0.995485  0.751213  1
  Pt  Pt9  1  0.857042  0.874187  0.731777  1
  Pt  Pt10  1  0.130850  0.136906  0.734809  1
  Pt  Pt11  1  0.623759  0.361474  0.754567  1
  Pt  Pt12  1  0.630022  0.370062  0.243363  1
  Pt  Pt13  1  0.380987  0.619485  0.233199  1
  Pt  Pt14  1  0.127917  0.137994  0.266440  1
  Pt  Pt15  1  0.863533  0.871338  0.267755  1
  Pt  Pt16  1  0.386245  0.623880  0.767670  1
  Pb  Pb17  1  0.493473  0.996180  0.248517  1
  Pb  Pb18  1  0.002840  0.507583  0.753037  1
  Pb  Pb19  1  0.004200  0.507921  0.247266  1
