# generated using pymatgen
data_DyEr19CoBi8Ir3
_symmetry_space_group_name_H-M   'P 1'
_cell_length_a   7.94167329
_cell_length_b   8.95780900
_cell_length_c   12.42084727
_cell_angle_alpha   90.00000000
_cell_angle_beta   90.20975594
_cell_angle_gamma   90.00000000
_symmetry_Int_Tables_number   1
_chemical_formula_structural   DyEr19CoBi8Ir3
_chemical_formula_sum   'Dy1 Er19 Co1 Bi8 Ir3'
_cell_volume   883.61306039
_cell_formula_units_Z   1
loop_
 _symmetry_equiv_pos_site_id
 _symmetry_equiv_pos_as_xyz
  1  'x, y, z'
loop_
 _atom_site_type_symbol
 _atom_site_label
 _atom_site_symmetry_multiplicity
 _atom_site_fract_x
 _atom_site_fract_y
 _atom_site_fract_z
 _atom_site_occupancy
  Dy  Dy0  1  0.657795  0.750000  0.700036  1
  Er  Er1  1  0.338450  0.250000  0.292962  1
  Er  Er2  1  0.161277  0.250000  0.793154  1
  Er  Er3  1  0.838898  0.750000  0.206740  1
  Er  Er4  1  0.123287  0.750000  0.808300  1
  Er  Er5  1  0.875220  0.250000  0.191310  1
  Er  Er6  1  0.624382  0.250000  0.691329  1
  Er  Er7  1  0.380890  0.750000  0.314649  1
  Er  Er8  1  0.556530  0.750000  0.997568  1
  Er  Er9  1  0.446494  0.250000  0.001191  1
  Er  Er10  1  0.055353  0.250000  0.501461  1
  Er  Er11  1  0.946684  0.750000  0.498402  1
  Er  Er12  1  0.825699  0.457133  0.933021  1
  Er  Er13  1  0.175418  0.542194  0.066874  1
  Er  Er14  1  0.325359  0.543839  0.565694  1
  Er  Er15  1  0.175418  0.957806  0.066874  1
  Er  Er16  1  0.672885  0.464419  0.435556  1
  Er  Er17  1  0.825699  0.042867  0.933021  1
  Er  Er18  1  0.672885  0.035581  0.435556  1
  Er  Er19  1  0.325359  0.956161  0.565694  1
  Co  Co20  1  0.567631  0.750000  0.492037  1
  Bi  Bi21  1  0.932769  0.008930  0.672074  1
  Bi  Bi22  1  0.066193  0.990881  0.327662  1
  Bi  Bi23  1  0.433820  0.990765  0.826593  1
  Bi  Bi24  1  0.066193  0.509119  0.327662  1
  Bi  Bi25  1  0.565712  0.008007  0.173598  1
  Bi  Bi26  1  0.932769  0.491070  0.672074  1
  Bi  Bi27  1  0.565712  0.491993  0.173598  1
  Bi  Bi28  1  0.433820  0.509235  0.826593  1
  Ir  Ir29  1  0.929236  0.750000  0.991865  1
  Ir  Ir30  1  0.072277  0.250000  0.008934  1
  Ir  Ir31  1  0.429887  0.250000  0.507916  1
