# generated using pymatgen
data_SrCr2(SeO3)4
_symmetry_space_group_name_H-M   'P 1'
_cell_length_a   6.93993455
_cell_length_b   9.34475225
_cell_length_c   9.26760472
_cell_angle_alpha   68.63111815
_cell_angle_beta   95.74948197
_cell_angle_gamma   89.65283195
_symmetry_Int_Tables_number   1
_chemical_formula_structural   SrCr2(SeO3)4
_chemical_formula_sum   'Sr2 Cr4 Se8 O24'
_cell_volume   556.30097723
_cell_formula_units_Z   2
loop_
 _symmetry_equiv_pos_site_id
 _symmetry_equiv_pos_as_xyz
  1  'x, y, z'
loop_
 _atom_site_type_symbol
 _atom_site_label
 _atom_site_symmetry_multiplicity
 _atom_site_fract_x
 _atom_site_fract_y
 _atom_site_fract_z
 _atom_site_occupancy
  Sr  Sr0  1  0.009191  0.531308  0.480486  1
  Sr  Sr1  1  0.009214  0.031387  0.980450  1
  Cr  Cr2  1  0.000120  0.749929  0.750835  1
  Cr  Cr3  1  0.499823  0.749814  0.249648  1
  Cr  Cr4  1  0.000131  0.249924  0.250822  1
  Cr  Cr5  1  0.499817  0.249820  0.749649  1
  Se  Se6  1  0.553154  0.129036  0.131562  1
  Se  Se7  1  0.553150  0.629035  0.631565  1
  Se  Se8  1  0.446754  0.870971  0.869294  1
  Se  Se9  1  0.446757  0.370977  0.369272  1
  Se  Se10  1  0.798849  0.097162  0.577639  1
  Se  Se11  1  0.798855  0.597164  0.077640  1
  Se  Se12  1  0.200598  0.904598  0.420871  1
  Se  Se13  1  0.200597  0.404602  0.920878  1
  O  O14  1  0.714784  0.724613  0.711904  1
  O  O15  1  0.714791  0.224613  0.211902  1
  O  O16  1  0.286146  0.274530  0.288595  1
  O  O17  1  0.286140  0.774513  0.788640  1
  O  O18  1  0.989583  0.184897  0.480083  1
  O  O19  1  0.989583  0.684894  0.980084  1
  O  O20  1  0.011723  0.811670  0.519600  1
  O  O21  1  0.011712  0.311674  0.019588  1
  O  O22  1  0.654190  0.624306  0.465377  1
  O  O23  1  0.654188  0.124314  0.965377  1
  O  O24  1  0.345265  0.376652  0.534711  1
  O  O25  1  0.345272  0.876671  0.034720  1
  O  O26  1  0.927831  0.962539  0.743527  1
  O  O27  1  0.927873  0.462533  0.243524  1
  O  O28  1  0.071667  0.036083  0.254809  1
  O  O29  1  0.071650  0.536095  0.754803  1
  O  O30  1  0.594159  0.944588  0.267582  1
  O  O31  1  0.594156  0.444584  0.767581  1
  O  O32  1  0.400286  0.055485  0.734117  1
  O  O33  1  0.400301  0.555489  0.234106  1
  O  O34  1  0.751155  0.233682  0.658602  1
  O  O35  1  0.751157  0.733675  0.158610  1
  O  O36  1  0.250593  0.762678  0.346681  1
  O  O37  1  0.250586  0.262693  0.846666  1
