# generated using pymatgen
data_NdEr5(Al3Os)8
_symmetry_space_group_name_H-M   'P 1'
_cell_length_a   8.82752000
_cell_length_b   8.80377511
_cell_length_c   9.60563900
_cell_angle_alpha   90.00000000
_cell_angle_beta   90.00000000
_cell_angle_gamma   120.08926038
_symmetry_Int_Tables_number   1
_chemical_formula_structural   NdEr5(Al3Os)8
_chemical_formula_sum   'Nd1 Er5 Al24 Os8'
_cell_volume   645.91179466
_cell_formula_units_Z   1
loop_
 _symmetry_equiv_pos_site_id
 _symmetry_equiv_pos_as_xyz
  1  'x, y, z'
loop_
 _atom_site_type_symbol
 _atom_site_label
 _atom_site_symmetry_multiplicity
 _atom_site_fract_x
 _atom_site_fract_y
 _atom_site_fract_z
 _atom_site_occupancy
  Nd  Nd0  1  0.190445  0.380890  0.250000  1
  Er  Er1  1  0.807114  0.614228  0.750000  1
  Er  Er2  1  0.612267  0.805520  0.250000  1
  Er  Er3  1  0.387501  0.194561  0.750000  1
  Er  Er4  1  0.193252  0.805520  0.250000  1
  Er  Er5  1  0.807060  0.194561  0.750000  1
  Al  Al6  1  0.333698  0.667397  0.015605  1
  Al  Al7  1  0.667103  0.334205  0.980417  1
  Al  Al8  1  0.667103  0.334205  0.519583  1
  Al  Al9  1  0.333698  0.667397  0.484395  1
  Al  Al10  1  0.163038  0.326077  0.578415  1
  Al  Al11  1  0.837153  0.674307  0.425235  1
  Al  Al12  1  0.674384  0.837802  0.576039  1
  Al  Al13  1  0.837153  0.674307  0.074765  1
  Al  Al14  1  0.327287  0.161932  0.426332  1
  Al  Al15  1  0.163038  0.326077  0.921585  1
  Al  Al16  1  0.163419  0.837802  0.576039  1
  Al  Al17  1  0.327287  0.161932  0.073668  1
  Al  Al18  1  0.834645  0.161932  0.426332  1
  Al  Al19  1  0.674384  0.837802  0.923961  1
  Al  Al20  1  0.834645  0.161932  0.073668  1
  Al  Al21  1  0.163419  0.837802  0.923961  1
  Al  Al22  1  0.560747  0.121495  0.250000  1
  Al  Al23  1  0.439373  0.878747  0.750000  1
  Al  Al24  1  0.875172  0.438684  0.250000  1
  Al  Al25  1  0.121924  0.562087  0.750000  1
  Al  Al26  1  0.563511  0.438684  0.250000  1
  Al  Al27  1  0.440163  0.562087  0.750000  1
  Al  Al28  1  0.996072  0.992144  0.250000  1
  Al  Al29  1  0.001100  0.002198  0.750000  1
  Os  Os30  1  0.500409  0.000817  0.999262  1
  Os  Os31  1  0.999376  0.500858  0.998971  1
  Os  Os32  1  0.500409  0.000817  0.500738  1
  Os  Os33  1  0.501481  0.500858  0.998971  1
  Os  Os34  1  0.999376  0.500858  0.501029  1
  Os  Os35  1  0.501481  0.500858  0.501029  1
  Os  Os36  1  0.000155  0.000312  0.999716  1
  Os  Os37  1  0.000155  0.000312  0.500284  1
