# generated using pymatgen
data_Ho8Ti3Si16Mo5W4
_symmetry_space_group_name_H-M   'P 1'
_cell_length_a   6.89374209
_cell_length_b   6.89687026
_cell_length_c   12.78379250
_cell_angle_alpha   89.96565527
_cell_angle_beta   89.98094417
_cell_angle_gamma   89.86869817
_symmetry_Int_Tables_number   1
_chemical_formula_structural   Ho8Ti3Si16Mo5W4
_chemical_formula_sum   'Ho8 Ti3 Si16 Mo5 W4'
_cell_volume   607.80680516
_cell_formula_units_Z   1
loop_
 _symmetry_equiv_pos_site_id
 _symmetry_equiv_pos_as_xyz
  1  'x, y, z'
loop_
 _atom_site_type_symbol
 _atom_site_label
 _atom_site_symmetry_multiplicity
 _atom_site_fract_x
 _atom_site_fract_y
 _atom_site_fract_z
 _atom_site_occupancy
  Ho  Ho0  1  0.339462  0.001663  0.468508  1
  Ho  Ho1  1  0.496822  0.838773  0.719158  1
  Ho  Ho2  1  0.499840  0.161571  0.217584  1
  Ho  Ho3  1  0.838862  0.497070  0.280846  1
  Ho  Ho4  1  0.161687  0.499132  0.782520  1
  Ho  Ho5  1  0.659583  0.999798  0.968840  1
  Ho  Ho6  1  0.001664  0.339518  0.531474  1
  Ho  Ho7  1  0.999824  0.659844  0.031306  1
  Ti  Ti8  1  0.169647  0.832265  0.248676  1
  Ti  Ti9  1  0.831530  0.169855  0.751117  1
  Ti  Ti10  1  0.669518  0.669614  0.499962  1
  Si  Si11  1  0.200798  0.129604  0.683170  1
  Si  Si12  1  0.373368  0.697316  0.933946  1
  Si  Si13  1  0.628845  0.299258  0.433413  1
  Si  Si14  1  0.697964  0.373534  0.066328  1
  Si  Si15  1  0.299161  0.628992  0.566598  1
  Si  Si16  1  0.797239  0.871709  0.183840  1
  Si  Si17  1  0.129436  0.200770  0.316759  1
  Si  Si18  1  0.871875  0.796835  0.815813  1
  Si  Si19  1  0.289029  0.962450  0.061970  1
  Si  Si20  1  0.539541  0.790953  0.313827  1
  Si  Si21  1  0.458323  0.210076  0.814736  1
  Si  Si22  1  0.790808  0.540078  0.686276  1
  Si  Si23  1  0.210295  0.459107  0.185639  1
  Si  Si24  1  0.709202  0.041156  0.563803  1
  Si  Si25  1  0.962855  0.288280  0.937582  1
  Si  Si26  1  0.041270  0.709246  0.436095  1
  Mo  Mo27  1  0.156722  0.001788  0.873398  1
  Mo  Mo28  1  0.495633  0.665561  0.124644  1
  Mo  Mo29  1  0.505579  0.340134  0.624404  1
  Mo  Mo30  1  0.665294  0.495321  0.875553  1
  Mo  Mo31  1  0.340028  0.505289  0.375453  1
  W  W32  1  0.330561  0.331037  0.000580  1
  W  W33  1  0.840552  0.993681  0.374435  1
  W  W34  1  0.003259  0.157655  0.126176  1
  W  W35  1  0.993920  0.841064  0.625570  1
