# generated using pymatgen
data_Tb12DyHo3CdCo4Hg3
_symmetry_space_group_name_H-M   'P 1'
_cell_length_a   9.53242622
_cell_length_b   9.52330461
_cell_length_c   9.52656100
_cell_angle_alpha   59.98869158
_cell_angle_beta   60.02035505
_cell_angle_gamma   59.99283960
_symmetry_Int_Tables_number   1
_chemical_formula_structural   Tb12DyHo3CdCo4Hg3
_chemical_formula_sum   'Tb12 Dy1 Ho3 Cd1 Co4 Hg3'
_cell_volume   611.53088488
_cell_formula_units_Z   1
loop_
 _symmetry_equiv_pos_site_id
 _symmetry_equiv_pos_as_xyz
  1  'x, y, z'
loop_
 _atom_site_type_symbol
 _atom_site_label
 _atom_site_symmetry_multiplicity
 _atom_site_fract_x
 _atom_site_fract_y
 _atom_site_fract_z
 _atom_site_occupancy
  Tb  Tb0  1  0.939251  0.560139  0.561799  1
  Tb  Tb1  1  0.543008  0.152374  0.152309  1
  Tb  Tb2  1  0.151855  0.153700  0.539984  1
  Tb  Tb3  1  0.938152  0.938474  0.561687  1
  Tb  Tb4  1  0.313427  0.687966  0.310174  1
  Tb  Tb5  1  0.561903  0.939179  0.938326  1
  Tb  Tb6  1  0.561903  0.939179  0.560590  1
  Tb  Tb7  1  0.690000  0.687935  0.311032  1
  Tb  Tb8  1  0.562420  0.559286  0.939147  1
  Tb  Tb9  1  0.939251  0.560139  0.938810  1
  Tb  Tb10  1  0.313427  0.687966  0.688432  1
  Tb  Tb11  1  0.151855  0.153700  0.154461  1
  Dy  Dy12  1  0.313196  0.311486  0.687658  1
  Ho  Ho13  1  0.151860  0.540570  0.153785  1
  Ho  Ho14  1  0.689583  0.311784  0.687818  1
  Ho  Ho15  1  0.689583  0.311784  0.310815  1
  Cd  Cd16  1  0.241538  0.919605  0.919429  1
  Co  Co17  1  0.358009  0.359663  0.922797  1
  Co  Co18  1  0.358282  0.921952  0.359883  1
  Co  Co19  1  0.921611  0.359223  0.359584  1
  Co  Co20  1  0.358009  0.359663  0.359533  1
  Hg  Hg21  1  0.917015  0.252287  0.915350  1
  Hg  Hg22  1  0.917431  0.915970  0.915740  1
  Hg  Hg23  1  0.917431  0.915970  0.250857  1
