# generated using pymatgen
data_Ba6Fe3IrO14
_symmetry_space_group_name_H-M   'P 1'
_cell_length_a   11.25625710
_cell_length_b   11.25625653
_cell_length_c   5.74377414
_cell_angle_alpha   90.00073739
_cell_angle_beta   90.00073115
_cell_angle_gamma   150.33453774
_symmetry_Int_Tables_number   1
_chemical_formula_structural   Ba6Fe3IrO14
_chemical_formula_sum   'Ba6 Fe3 Ir1 O14'
_cell_volume   360.19151648
_cell_formula_units_Z   1
loop_
 _symmetry_equiv_pos_site_id
 _symmetry_equiv_pos_as_xyz
  1  'x, y, z'
loop_
 _atom_site_type_symbol
 _atom_site_label
 _atom_site_symmetry_multiplicity
 _atom_site_fract_x
 _atom_site_fract_y
 _atom_site_fract_z
 _atom_site_occupancy
  Ba  Ba0  1  0.185036  0.814964  0.000000  1
  Ba  Ba1  1  0.817375  0.182625  0.000000  1
  Ba  Ba2  1  0.318861  0.681139  0.500000  1
  Ba  Ba3  1  0.996074  0.003926  0.000000  1
  Ba  Ba4  1  0.684415  0.315585  0.500000  1
  Ba  Ba5  1  0.496364  0.503636  0.500000  1
  Fe  Fe6  1  0.897469  0.102531  0.500000  1
  Fe  Fe7  1  0.404131  0.595869  0.000000  1
  Fe  Fe8  1  0.594561  0.405439  0.000000  1
  Ir  Ir9  1  0.095626  0.904374  0.500000  1
  O  O10  1  0.150074  0.338775  0.255339  1
  O  O11  1  0.335274  0.142537  0.254494  1
  O  O12  1  0.661225  0.849926  0.744661  1
  O  O13  1  0.340016  0.147327  0.740521  1
  O  O14  1  0.806260  0.193740  0.500000  1
  O  O15  1  0.852673  0.659984  0.259479  1
  O  O16  1  0.188165  0.811835  0.500000  1
  O  O17  1  0.685827  0.314173  0.000000  1
  O  O18  1  0.661014  0.849703  0.255695  1
  O  O19  1  0.312575  0.687425  0.000000  1
  O  O20  1  0.007213  0.992787  0.500000  1
  O  O21  1  0.857463  0.664726  0.745506  1
  O  O22  1  0.502015  0.497985  0.000000  1
  O  O23  1  0.150297  0.338986  0.744305  1
