# generated using pymatgen
data_TbPr16Dy3Si16
_symmetry_space_group_name_H-M   'P 1'
_cell_length_a   7.84464714
_cell_length_b   7.84464714
_cell_length_c   15.36874908
_cell_angle_alpha   89.99183565
_cell_angle_beta   90.00816435
_cell_angle_gamma   89.97992943
_symmetry_Int_Tables_number   1
_chemical_formula_structural   TbPr16Dy3Si16
_chemical_formula_sum   'Tb1 Pr16 Dy3 Si16'
_cell_volume   945.76951508
_cell_formula_units_Z   1
loop_
 _symmetry_equiv_pos_site_id
 _symmetry_equiv_pos_as_xyz
  1  'x, y, z'
loop_
 _atom_site_type_symbol
 _atom_site_label
 _atom_site_symmetry_multiplicity
 _atom_site_fract_x
 _atom_site_fract_y
 _atom_site_fract_z
 _atom_site_occupancy
  Tb  Tb0  1  0.308813  0.308813  0.000000  1
  Pr  Pr1  1  0.378778  0.013255  0.445040  1
  Pr  Pr2  1  0.486719  0.878816  0.695050  1
  Pr  Pr3  1  0.513363  0.121203  0.195127  1
  Pr  Pr4  1  0.878816  0.486719  0.304950  1
  Pr  Pr5  1  0.121203  0.513363  0.804873  1
  Pr  Pr6  1  0.621218  0.986699  0.945021  1
  Pr  Pr7  1  0.013255  0.378778  0.554960  1
  Pr  Pr8  1  0.986699  0.621218  0.054979  1
  Pr  Pr9  1  0.124894  0.976041  0.878723  1
  Pr  Pr10  1  0.524045  0.624975  0.128800  1
  Pr  Pr11  1  0.476123  0.374998  0.628739  1
  Pr  Pr12  1  0.624975  0.524045  0.871200  1
  Pr  Pr13  1  0.374998  0.476123  0.371261  1
  Pr  Pr14  1  0.875096  0.023919  0.378744  1
  Pr  Pr15  1  0.976041  0.124894  0.121277  1
  Pr  Pr16  1  0.023919  0.875096  0.621256  1
  Dy  Dy17  1  0.190707  0.809174  0.250007  1
  Dy  Dy18  1  0.809174  0.190707  0.749993  1
  Dy  Dy19  1  0.690717  0.690717  0.500000  1
  Si  Si20  1  0.187540  0.172111  0.708906  1
  Si  Si21  1  0.327912  0.688080  0.958926  1
  Si  Si22  1  0.672174  0.312497  0.458971  1
  Si  Si23  1  0.688080  0.327912  0.041074  1
  Si  Si24  1  0.312497  0.672174  0.541029  1
  Si  Si25  1  0.812495  0.827910  0.208940  1
  Si  Si26  1  0.172111  0.187540  0.291094  1
  Si  Si27  1  0.827910  0.812495  0.791060  1
  Si  Si28  1  0.286695  0.920601  0.063499  1
  Si  Si29  1  0.579078  0.786740  0.313480  1
  Si  Si30  1  0.421124  0.213129  0.813099  1
  Si  Si31  1  0.786740  0.579078  0.686520  1
  Si  Si32  1  0.213129  0.421124  0.186901  1
  Si  Si33  1  0.713290  0.079069  0.563457  1
  Si  Si34  1  0.920601  0.286695  0.936501  1
  Si  Si35  1  0.079069  0.713290  0.436543  1
