# generated using pymatgen
data_Lu20Bi10IrRu
_symmetry_space_group_name_H-M   'P 1'
_cell_length_a   7.87663733
_cell_length_b   9.36091800
_cell_length_c   11.96881034
_cell_angle_alpha   90.00000000
_cell_angle_beta   89.93469459
_cell_angle_gamma   90.00000000
_symmetry_Int_Tables_number   1
_chemical_formula_structural   Lu20Bi10IrRu
_chemical_formula_sum   'Lu20 Bi10 Ir1 Ru1'
_cell_volume   882.49040709
_cell_formula_units_Z   1
loop_
 _symmetry_equiv_pos_site_id
 _symmetry_equiv_pos_as_xyz
  1  'x, y, z'
loop_
 _atom_site_type_symbol
 _atom_site_label
 _atom_site_symmetry_multiplicity
 _atom_site_fract_x
 _atom_site_fract_y
 _atom_site_fract_z
 _atom_site_occupancy
  Lu  Lu0  1  0.055801  0.250000  0.506583  1
  Lu  Lu1  1  0.988528  0.750000  0.493775  1
  Lu  Lu2  1  0.487628  0.750000  0.006988  1
  Lu  Lu3  1  0.559085  0.250000  0.994441  1
  Lu  Lu4  1  0.356585  0.250000  0.300589  1
  Lu  Lu5  1  0.649005  0.750000  0.721819  1
  Lu  Lu6  1  0.149861  0.750000  0.777860  1
  Lu  Lu7  1  0.856591  0.250000  0.200169  1
  Lu  Lu8  1  0.141625  0.250000  0.800451  1
  Lu  Lu9  1  0.813611  0.750000  0.223308  1
  Lu  Lu10  1  0.313817  0.750000  0.277338  1
  Lu  Lu11  1  0.638312  0.250000  0.697265  1
  Lu  Lu12  1  0.183276  0.072554  0.059266  1
  Lu  Lu13  1  0.819771  0.971321  0.935928  1
  Lu  Lu14  1  0.320279  0.973375  0.563084  1
  Lu  Lu15  1  0.819771  0.528679  0.935928  1
  Lu  Lu16  1  0.682625  0.072333  0.441278  1
  Lu  Lu17  1  0.183276  0.427446  0.059266  1
  Lu  Lu18  1  0.682625  0.427667  0.441278  1
  Lu  Lu19  1  0.320279  0.526625  0.563084  1
  Bi  Bi20  1  0.592324  0.750000  0.461242  1
  Bi  Bi21  1  0.091471  0.750000  0.038591  1
  Bi  Bi22  1  0.059369  0.998481  0.324116  1
  Bi  Bi23  1  0.926660  0.999343  0.670557  1
  Bi  Bi24  1  0.427445  0.999518  0.830387  1
  Bi  Bi25  1  0.926660  0.500657  0.670557  1
  Bi  Bi26  1  0.559531  0.998859  0.175602  1
  Bi  Bi27  1  0.059369  0.501519  0.324116  1
  Bi  Bi28  1  0.559531  0.501141  0.175602  1
  Bi  Bi29  1  0.427445  0.500482  0.830387  1
  Ir  Ir30  1  0.924664  0.250000  0.980875  1
  Ru  Ru31  1  0.423182  0.250000  0.518271  1
