# generated using pymatgen
data_Ho3Er5Lu2(In2Pt)4
_symmetry_space_group_name_H-M   'P 1'
_cell_length_a   3.62484100
_cell_length_b   8.07649021
_cell_length_c   18.09742651
_cell_angle_alpha   89.96370017
_cell_angle_beta   90.00000000
_cell_angle_gamma   90.00000000
_symmetry_Int_Tables_number   1
_chemical_formula_structural   Ho3Er5Lu2(In2Pt)4
_chemical_formula_sum   'Ho3 Er5 Lu2 In8 Pt4'
_cell_volume   529.82002235
_cell_formula_units_Z   1
loop_
 _symmetry_equiv_pos_site_id
 _symmetry_equiv_pos_as_xyz
  1  'x, y, z'
loop_
 _atom_site_type_symbol
 _atom_site_label
 _atom_site_symmetry_multiplicity
 _atom_site_fract_x
 _atom_site_fract_y
 _atom_site_fract_z
 _atom_site_occupancy
  Ho  Ho0  1  0.000000  0.743186  0.279978  1
  Ho  Ho1  1  0.000000  0.000023  0.999951  1
  Ho  Ho2  1  0.000000  0.500034  0.500017  1
  Er  Er3  1  0.000000  0.383185  0.914628  1
  Er  Er4  1  0.000000  0.616705  0.085240  1
  Er  Er5  1  0.000000  0.243143  0.220893  1
  Er  Er6  1  0.000000  0.756913  0.779092  1
  Er  Er7  1  0.000000  0.256610  0.720155  1
  Lu  Lu8  1  0.000000  0.116429  0.414168  1
  Lu  Lu9  1  0.000000  0.883708  0.585963  1
  In  In10  1  0.500000  0.421524  0.352006  1
  In  In11  1  0.500000  0.578222  0.648047  1
  In  In12  1  0.500000  0.076206  0.851048  1
  In  In13  1  0.500000  0.923928  0.148846  1
  In  In14  1  0.500000  0.292197  0.066704  1
  In  In15  1  0.500000  0.707669  0.933222  1
  In  In16  1  0.500000  0.205252  0.565469  1
  In  In17  1  0.500000  0.794817  0.434778  1
  Pt  Pt18  1  0.500000  0.026576  0.305219  1
  Pt  Pt19  1  0.500000  0.974311  0.694860  1
  Pt  Pt20  1  0.500000  0.474788  0.803539  1
  Pt  Pt21  1  0.500000  0.524573  0.196173  1
