# generated using pymatgen
data_Tb6Y4Si5Ge
_symmetry_space_group_name_H-M   'P 1'
_cell_length_a   8.49220009
_cell_length_b   8.49449571
_cell_length_c   6.40913300
_cell_angle_alpha   90.00000000
_cell_angle_beta   90.00000000
_cell_angle_gamma   119.97431590
_symmetry_Int_Tables_number   1
_chemical_formula_structural   Tb6Y4Si5Ge
_chemical_formula_sum   'Tb6 Y4 Si5 Ge1'
_cell_volume   400.49774689
_cell_formula_units_Z   1
loop_
 _symmetry_equiv_pos_site_id
 _symmetry_equiv_pos_as_xyz
  1  'x, y, z'
loop_
 _atom_site_type_symbol
 _atom_site_label
 _atom_site_symmetry_multiplicity
 _atom_site_fract_x
 _atom_site_fract_y
 _atom_site_fract_z
 _atom_site_occupancy
  Tb  Tb0  1  0.998912  0.755892  0.750000  1
  Tb  Tb1  1  0.757523  0.999989  0.750000  1
  Tb  Tb2  1  0.333194  0.665805  0.499340  1
  Tb  Tb3  1  0.667340  0.334168  0.000658  1
  Tb  Tb4  1  0.667340  0.334168  0.499342  1
  Tb  Tb5  1  0.333194  0.665805  0.000660  1
  Y  Y6  1  0.999948  0.243318  0.250000  1
  Y  Y7  1  0.756570  0.756635  0.250000  1
  Y  Y8  1  0.243050  0.244149  0.750000  1
  Y  Y9  1  0.242995  0.000012  0.250000  1
  Si  Si10  1  0.394176  0.394124  0.250000  1
  Si  Si11  1  0.000085  0.605929  0.250000  1
  Si  Si12  1  0.000041  0.394240  0.750000  1
  Si  Si13  1  0.605608  0.605658  0.750000  1
  Si  Si14  1  0.605989  0.000029  0.250000  1
  Ge  Ge15  1  0.394034  0.000080  0.750000  1
