# generated using pymatgen
data_Pr2Tm4CoI10
_symmetry_space_group_name_H-M   'P 1'
_cell_length_a   7.74619108
_cell_length_b   9.75143689
_cell_length_c   9.77500579
_cell_angle_alpha   106.82406806
_cell_angle_beta   96.00679231
_cell_angle_gamma   105.22759576
_symmetry_Int_Tables_number   1
_chemical_formula_structural   Pr2Tm4CoI10
_chemical_formula_sum   'Pr2 Tm4 Co1 I10'
_cell_volume   668.77683906
_cell_formula_units_Z   1
loop_
 _symmetry_equiv_pos_site_id
 _symmetry_equiv_pos_as_xyz
  1  'x, y, z'
loop_
 _atom_site_type_symbol
 _atom_site_label
 _atom_site_symmetry_multiplicity
 _atom_site_fract_x
 _atom_site_fract_y
 _atom_site_fract_z
 _atom_site_occupancy
  Pr  Pr0  1  0.885591  0.957275  0.231244  1
  Pr  Pr1  1  0.114409  0.042725  0.768756  1
  Tm  Tm2  1  0.028831  0.722099  0.916462  1
  Tm  Tm3  1  0.971169  0.277901  0.083538  1
  Tm  Tm4  1  0.662766  0.879108  0.841271  1
  Tm  Tm5  1  0.337234  0.120892  0.158729  1
  Co  Co6  1  0.000000  0.000000  0.000000  1
  I  I7  1  0.653706  0.555056  0.732337  1
  I  I8  1  0.346294  0.444944  0.267663  1
  I  I9  1  0.731764  0.910912  0.544916  1
  I  I10  1  0.268236  0.089088  0.455084  1
  I  I11  1  0.081917  0.379796  0.826042  1
  I  I12  1  0.918083  0.620204  0.173958  1
  I  I13  1  0.446254  0.817207  0.088328  1
  I  I14  1  0.553746  0.182793  0.911672  1
  I  I15  1  0.229858  0.738752  0.661644  1
  I  I16  1  0.770142  0.261248  0.338356  1
