# generated using pymatgen
data_Be8V3W
_symmetry_space_group_name_H-M   'P 1'
_cell_length_a   4.39376300
_cell_length_b   4.39376466
_cell_length_c   7.11188300
_cell_angle_alpha   90.00000000
_cell_angle_beta   90.00000000
_cell_angle_gamma   119.99999506
_symmetry_Int_Tables_number   1
_chemical_formula_structural   Be8V3W
_chemical_formula_sum   'Be8 V3 W1'
_cell_volume   118.90186728
_cell_formula_units_Z   1
loop_
 _symmetry_equiv_pos_site_id
 _symmetry_equiv_pos_as_xyz
  1  'x, y, z'
loop_
 _atom_site_type_symbol
 _atom_site_label
 _atom_site_symmetry_multiplicity
 _atom_site_fract_x
 _atom_site_fract_y
 _atom_site_fract_z
 _atom_site_occupancy
  Be  Be0  1  0.000000  0.000000  0.999056  1
  Be  Be1  1  0.000000  0.000000  0.501866  1
  Be  Be2  1  0.828968  0.657936  0.251353  1
  Be  Be3  1  0.171172  0.828828  0.748534  1
  Be  Be4  1  0.657657  0.828828  0.748534  1
  Be  Be5  1  0.342064  0.171032  0.251353  1
  Be  Be6  1  0.828968  0.171032  0.251353  1
  Be  Be7  1  0.171172  0.342343  0.748534  1
  V  V8  1  0.666667  0.333333  0.567800  1
  V  V9  1  0.666667  0.333333  0.931286  1
  V  V10  1  0.333333  0.666667  0.435158  1
  W  W11  1  0.333333  0.666667  0.065175  1
