# generated using pymatgen
data_Ti12InS16
_symmetry_space_group_name_H-M   'P 1'
_cell_length_a   6.80714359
_cell_length_b   9.52536992
_cell_length_c   10.11078332
_cell_angle_alpha   118.13916772
_cell_angle_beta   109.62207433
_cell_angle_gamma   90.01542739
_symmetry_Int_Tables_number   1
_chemical_formula_structural   Ti12InS16
_chemical_formula_sum   'Ti12 In1 S16'
_cell_volume   534.50507999
_cell_formula_units_Z   1
loop_
 _symmetry_equiv_pos_site_id
 _symmetry_equiv_pos_as_xyz
  1  'x, y, z'
loop_
 _atom_site_type_symbol
 _atom_site_label
 _atom_site_symmetry_multiplicity
 _atom_site_fract_x
 _atom_site_fract_y
 _atom_site_fract_z
 _atom_site_occupancy
  Ti  Ti0  1  0.557418  0.354547  0.866402  1
  Ti  Ti1  1  0.059397  0.355236  0.866801  1
  Ti  Ti2  1  0.369840  0.133253  0.488387  1
  Ti  Ti3  1  0.867108  0.133928  0.487599  1
  Ti  Ti4  1  0.447176  0.512301  0.646629  1
  Ti  Ti5  1  0.948328  0.511548  0.645053  1
  Ti  Ti6  1  0.940603  0.644764  0.133199  1
  Ti  Ti7  1  0.442582  0.645453  0.133598  1
  Ti  Ti8  1  0.132892  0.866072  0.512401  1
  Ti  Ti9  1  0.630160  0.866747  0.511613  1
  Ti  Ti10  1  0.051672  0.488452  0.354947  1
  Ti  Ti11  1  0.552824  0.487699  0.353371  1
  In  In12  1  0.000000  0.000000  0.000000  1
  S  S13  1  0.971744  0.050427  0.692813  1
  S  S14  1  0.471785  0.050665  0.693287  1
  S  S15  1  0.804015  0.306526  0.356880  1
  S  S16  1  0.304578  0.306977  0.357424  1
  S  S17  1  0.100883  0.643469  0.949899  1
  S  S18  1  0.600192  0.642799  0.949582  1
  S  S19  1  0.528215  0.949335  0.306713  1
  S  S20  1  0.028256  0.949573  0.307187  1
  S  S21  1  0.695422  0.693023  0.642576  1
  S  S22  1  0.195985  0.693474  0.643120  1
  S  S23  1  0.399808  0.357201  0.050418  1
  S  S24  1  0.899117  0.356531  0.050101  1
  S  S25  1  0.792000  0.667100  0.333566  1
  S  S26  1  0.291525  0.666225  0.332932  1
  S  S27  1  0.708475  0.333775  0.667068  1
  S  S28  1  0.208000  0.332900  0.666434  1
