# generated using pymatgen
data_AcAlPt4
_symmetry_space_group_name_H-M   'P 1'
_cell_length_a   5.79765400
_cell_length_b   5.36890720
_cell_length_c   4.41716900
_cell_angle_alpha   90.00000000
_cell_angle_beta   90.00000000
_cell_angle_gamma   122.67878420
_symmetry_Int_Tables_number   1
_chemical_formula_structural   AcAlPt4
_chemical_formula_sum   'Ac1 Al1 Pt4'
_cell_volume   115.72976980
_cell_formula_units_Z   1
loop_
 _symmetry_equiv_pos_site_id
 _symmetry_equiv_pos_as_xyz
  1  'x, y, z'
loop_
 _atom_site_type_symbol
 _atom_site_label
 _atom_site_symmetry_multiplicity
 _atom_site_fract_x
 _atom_site_fract_y
 _atom_site_fract_z
 _atom_site_occupancy
  Ac  Ac0  1  0.000000  0.000000  0.000000  1
  Al  Al1  1  0.500000  0.000000  0.500000  1
  Pt  Pt2  1  0.341240  0.682480  0.000000  1
  Pt  Pt3  1  0.658760  0.317520  0.000000  1
  Pt  Pt4  1  0.500000  0.500000  0.500000  1
  Pt  Pt5  1  0.000000  0.500000  0.500000  1
