# generated using pymatgen
data_CdTcI18
_symmetry_space_group_name_H-M   'P 1'
_cell_length_a   10.24380703
_cell_length_b   10.24366447
_cell_length_c   10.24539986
_cell_angle_alpha   92.64467176
_cell_angle_beta   92.64766856
_cell_angle_gamma   92.65471906
_symmetry_Int_Tables_number   1
_chemical_formula_structural   CdTcI18
_chemical_formula_sum   'Cd1 Tc1 I18'
_cell_volume   1071.53530153
_cell_formula_units_Z   1
loop_
 _symmetry_equiv_pos_site_id
 _symmetry_equiv_pos_as_xyz
  1  'x, y, z'
loop_
 _atom_site_type_symbol
 _atom_site_label
 _atom_site_symmetry_multiplicity
 _atom_site_fract_x
 _atom_site_fract_y
 _atom_site_fract_z
 _atom_site_occupancy
  Cd  Cd0  1  0.000000  0.000000  0.000000  1
  Tc  Tc1  1  0.500000  0.500000  0.500000  1
  I  I2  1  0.746030  0.134296  0.607313  1
  I  I3  1  0.985936  0.037446  0.709715  1
  I  I4  1  0.607230  0.746087  0.134284  1
  I  I5  1  0.962542  0.290398  0.014073  1
  I  I6  1  0.709604  0.985944  0.037292  1
  I  I7  1  0.037458  0.709602  0.985927  1
  I  I8  1  0.014064  0.962554  0.290285  1
  I  I9  1  0.865741  0.392737  0.253849  1
  I  I10  1  0.290396  0.014056  0.962708  1
  I  I11  1  0.253970  0.865704  0.392687  1
  I  I12  1  0.134259  0.607263  0.746151  1
  I  I13  1  0.392770  0.253913  0.865716  1
  I  I14  1  0.767322  0.525321  0.496811  1
  I  I15  1  0.525460  0.496856  0.767203  1
  I  I16  1  0.232678  0.474679  0.503189  1
  I  I17  1  0.474540  0.503144  0.232797  1
  I  I18  1  0.496909  0.767291  0.525328  1
  I  I19  1  0.503091  0.232709  0.474672  1
