# generated using pymatgen
data_Ho2Si5IrRh2
_symmetry_space_group_name_H-M   'P 1'
_cell_length_a   8.15515452
_cell_length_b   8.12998727
_cell_length_c   8.12998681
_cell_angle_alpha   138.37134474
_cell_angle_beta   104.77856986
_cell_angle_gamma   89.80923872
_symmetry_Int_Tables_number   1
_chemical_formula_structural   Ho2Si5IrRh2
_chemical_formula_sum   'Ho4 Si10 Ir2 Rh4'
_cell_volume   331.17832745
_cell_formula_units_Z   2
loop_
 _symmetry_equiv_pos_site_id
 _symmetry_equiv_pos_as_xyz
  1  'x, y, z'
loop_
 _atom_site_type_symbol
 _atom_site_label
 _atom_site_symmetry_multiplicity
 _atom_site_fract_x
 _atom_site_fract_y
 _atom_site_fract_z
 _atom_site_occupancy
  Ho  Ho0  1  0.638592  0.868914  0.769679  1
  Ho  Ho1  1  0.361408  0.131086  0.230321  1
  Ho  Ho2  1  0.097657  0.367879  0.729778  1
  Ho  Ho3  1  0.902343  0.632121  0.270222  1
  Si  Si4  1  0.275794  0.028359  0.750757  1
  Si  Si5  1  0.724206  0.971641  0.249243  1
  Si  Si6  1  0.724206  0.474963  0.752565  1
  Si  Si7  1  0.275794  0.525037  0.247435  1
  Si  Si8  1  0.450235  0.605767  0.844468  1
  Si  Si9  1  0.549765  0.394233  0.155532  1
  Si  Si10  1  0.762846  0.106419  0.656426  1
  Si  Si11  1  0.237154  0.893581  0.343574  1
  Si  Si12  1  0.000000  0.749473  0.749473  1
  Si  Si13  1  0.000000  0.250527  0.250527  1
  Ir  Ir14  1  0.252399  0.640104  0.612295  1
  Ir  Ir15  1  0.747601  0.359896  0.387705  1
  Rh  Rh16  1  0.027662  0.139438  0.888225  1
  Rh  Rh17  1  0.972338  0.860562  0.111775  1
  Rh  Rh18  1  0.500000  0.750014  0.250014  1
  Rh  Rh19  1  0.500000  0.249986  0.749986  1
