# generated using pymatgen
data_LaIrBr
_symmetry_space_group_name_H-M   'P 1'
_cell_length_a   4.38556400
_cell_length_b   4.38556414
_cell_length_c   11.15943900
_cell_angle_alpha   90.00000000
_cell_angle_beta   90.00000000
_cell_angle_gamma   119.99999892
_symmetry_Int_Tables_number   1
_chemical_formula_structural   LaIrBr
_chemical_formula_sum   'La2 Ir2 Br2'
_cell_volume   185.87625750
_cell_formula_units_Z   2
loop_
 _symmetry_equiv_pos_site_id
 _symmetry_equiv_pos_as_xyz
  1  'x, y, z'
loop_
 _atom_site_type_symbol
 _atom_site_label
 _atom_site_symmetry_multiplicity
 _atom_site_fract_x
 _atom_site_fract_y
 _atom_site_fract_z
 _atom_site_occupancy
  La  La0  1  0.000000  0.000000  0.327882  1
  La  La1  1  0.000000  0.000000  0.672118  1
  Ir  Ir2  1  0.333333  0.666666  0.495676  1
  Ir  Ir3  1  0.666668  0.333335  0.504324  1
  Br  Br4  1  0.666668  0.333335  0.159341  1
  Br  Br5  1  0.333333  0.666666  0.840659  1
