# generated using pymatgen
data_Cs2KBi(AsSe2)6
_symmetry_space_group_name_H-M   'P 1'
_cell_length_a   10.11132100
_cell_length_b   10.11132051
_cell_length_c   8.39172500
_cell_angle_alpha   90.00000000
_cell_angle_beta   90.00000000
_cell_angle_gamma   120.00000487
_symmetry_Int_Tables_number   1
_chemical_formula_structural   Cs2KBi(AsSe2)6
_chemical_formula_sum   'Cs2 K1 Bi1 As6 Se12'
_cell_volume   743.01508116
_cell_formula_units_Z   1
loop_
 _symmetry_equiv_pos_site_id
 _symmetry_equiv_pos_as_xyz
  1  'x, y, z'
loop_
 _atom_site_type_symbol
 _atom_site_label
 _atom_site_symmetry_multiplicity
 _atom_site_fract_x
 _atom_site_fract_y
 _atom_site_fract_z
 _atom_site_occupancy
  Cs  Cs0  1  0.333333  0.666667  0.857071  1
  Cs  Cs1  1  0.666667  0.333333  0.142929  1
  K  K2  1  0.000000  0.000000  0.000000  1
  Bi  Bi3  1  0.000000  0.000000  0.500000  1
  As  As4  1  0.289225  0.838951  0.392848  1
  As  As5  1  0.161049  0.450275  0.392848  1
  As  As6  1  0.549725  0.710775  0.392848  1
  As  As7  1  0.710775  0.161049  0.607152  1
  As  As8  1  0.838951  0.549725  0.607152  1
  As  As9  1  0.450275  0.289225  0.607152  1
  Se  Se10  1  0.258472  0.042508  0.292119  1
  Se  Se11  1  0.957492  0.215965  0.292119  1
  Se  Se12  1  0.784035  0.741528  0.292119  1
  Se  Se13  1  0.741528  0.957492  0.707881  1
  Se  Se14  1  0.042508  0.784035  0.707881  1
  Se  Se15  1  0.215965  0.258472  0.707881  1
  Se  Se16  1  0.524111  0.904765  0.238508  1
  Se  Se17  1  0.095235  0.619345  0.238508  1
  Se  Se18  1  0.380655  0.475889  0.238508  1
  Se  Se19  1  0.475889  0.095235  0.761492  1
  Se  Se20  1  0.904765  0.380655  0.761492  1
  Se  Se21  1  0.619345  0.524111  0.761492  1
