# generated using pymatgen
data_Sc8Ta5Ti5NbSi16Ag
_symmetry_space_group_name_H-M   'P 1'
_cell_length_a   6.68236567
_cell_length_b   6.90594133
_cell_length_c   13.14253600
_cell_angle_alpha   90.00674513
_cell_angle_beta   89.97438036
_cell_angle_gamma   90.53163963
_symmetry_Int_Tables_number   1
_chemical_formula_structural   Sc8Ta5Ti5NbSi16Ag
_chemical_formula_sum   'Sc8 Ta5 Ti5 Nb1 Si16 Ag1'
_cell_volume   606.47591005
_cell_formula_units_Z   1
loop_
 _symmetry_equiv_pos_site_id
 _symmetry_equiv_pos_as_xyz
  1  'x, y, z'
loop_
 _atom_site_type_symbol
 _atom_site_label
 _atom_site_symmetry_multiplicity
 _atom_site_fract_x
 _atom_site_fract_y
 _atom_site_fract_z
 _atom_site_occupancy
  Sc  Sc0  1  0.499741  0.675266  0.593354  1
  Sc  Sc1  1  0.002584  0.827516  0.906972  1
  Sc  Sc2  1  0.497980  0.327241  0.096553  1
  Sc  Sc3  1  0.000079  0.172889  0.401228  1
  Sc  Sc4  1  0.497324  0.326721  0.403510  1
  Sc  Sc5  1  0.000120  0.172455  0.098984  1
  Sc  Sc6  1  0.500738  0.674225  0.906088  1
  Sc  Sc7  1  0.002369  0.824515  0.593840  1
  Ta  Ta8  1  0.837531  0.677121  0.125627  1
  Ta  Ta9  1  0.666927  0.174137  0.873247  1
  Ta  Ta10  1  0.336313  0.003956  0.750158  1
  Ta  Ta11  1  0.163483  0.508635  0.249524  1
  Ta  Ta12  1  0.664040  0.993625  0.249894  1
  Ti  Ti13  1  0.670449  0.175090  0.626415  1
  Ti  Ti14  1  0.156676  0.322366  0.873566  1
  Ti  Ti15  1  0.336304  0.824050  0.126494  1
  Ti  Ti16  1  0.835833  0.676751  0.374771  1
  Ti  Ti17  1  0.337847  0.825017  0.373247  1
  Nb  Nb18  1  0.159618  0.322766  0.626342  1
  Si  Si19  1  0.666968  0.967016  0.459345  1
  Si  Si20  1  0.167873  0.532719  0.038985  1
  Si  Si21  1  0.334307  0.034071  0.960320  1
  Si  Si22  1  0.830052  0.458524  0.530821  1
  Si  Si23  1  0.336103  0.033221  0.539525  1
  Si  Si24  1  0.830579  0.457785  0.968328  1
  Si  Si25  1  0.666630  0.967958  0.040692  1
  Si  Si26  1  0.165287  0.536628  0.458755  1
  Si  Si27  1  0.457798  0.378541  0.750334  1
  Si  Si28  1  0.963087  0.103246  0.750356  1
  Si  Si29  1  0.539487  0.617532  0.251165  1
  Si  Si30  1  0.042721  0.884403  0.251752  1
  Si  Si31  1  0.700217  0.871176  0.748142  1
  Si  Si32  1  0.213831  0.632647  0.750829  1
  Si  Si33  1  0.296319  0.135903  0.249721  1
  Si  Si34  1  0.793031  0.366002  0.250937  1
  Ag  Ag35  1  0.829750  0.518293  0.750176  1
