# generated using pymatgen
data_Y19Lu(Al3Ru)2
_symmetry_space_group_name_H-M   'P 1'
_cell_length_a   9.57204500
_cell_length_b   9.57204463
_cell_length_c   9.66284300
_cell_angle_alpha   90.00000000
_cell_angle_beta   90.00000000
_cell_angle_gamma   119.99999782
_symmetry_Int_Tables_number   1
_chemical_formula_structural   Y19Lu(Al3Ru)2
_chemical_formula_sum   'Y19 Lu1 Al6 Ru2'
_cell_volume   766.73451042
_cell_formula_units_Z   1
loop_
 _symmetry_equiv_pos_site_id
 _symmetry_equiv_pos_as_xyz
  1  'x, y, z'
loop_
 _atom_site_type_symbol
 _atom_site_label
 _atom_site_symmetry_multiplicity
 _atom_site_fract_x
 _atom_site_fract_y
 _atom_site_fract_z
 _atom_site_occupancy
  Y  Y0  1  0.000000  0.000000  0.000000  1
  Y  Y1  1  0.206153  0.793847  0.439881  1
  Y  Y2  1  0.206153  0.412306  0.439881  1
  Y  Y3  1  0.587694  0.793847  0.439881  1
  Y  Y4  1  0.793847  0.206153  0.560119  1
  Y  Y5  1  0.793847  0.587694  0.560119  1
  Y  Y6  1  0.412306  0.206153  0.560119  1
  Y  Y7  1  0.793006  0.206994  0.940155  1
  Y  Y8  1  0.793006  0.586010  0.940155  1
  Y  Y9  1  0.413990  0.206994  0.940155  1
  Y  Y10  1  0.206994  0.793006  0.059845  1
  Y  Y11  1  0.206994  0.413990  0.059845  1
  Y  Y12  1  0.586010  0.793006  0.059845  1
  Y  Y13  1  0.539949  0.460051  0.250241  1
  Y  Y14  1  0.539949  0.079896  0.250241  1
  Y  Y15  1  0.920104  0.460051  0.250241  1
  Y  Y16  1  0.460051  0.539949  0.749759  1
  Y  Y17  1  0.460051  0.920104  0.749759  1
  Y  Y18  1  0.079896  0.539949  0.749759  1
  Lu  Lu19  1  0.000000  0.000000  0.500000  1
  Al  Al20  1  0.889573  0.110427  0.251786  1
  Al  Al21  1  0.889573  0.779146  0.251786  1
  Al  Al22  1  0.220854  0.110427  0.251786  1
  Al  Al23  1  0.110427  0.889573  0.748214  1
  Al  Al24  1  0.110427  0.220854  0.748214  1
  Al  Al25  1  0.779146  0.889573  0.748214  1
  Ru  Ru26  1  0.333333  0.666667  0.250308  1
  Ru  Ru27  1  0.666667  0.333333  0.749692  1
