# generated using pymatgen
data_TbYAl20IrRu3
_symmetry_space_group_name_H-M   'P 1'
_cell_length_a   6.86059894
_cell_length_b   6.86336526
_cell_length_c   9.16357825
_cell_angle_alpha   90.06617787
_cell_angle_beta   90.06892872
_cell_angle_gamma   96.67883638
_symmetry_Int_Tables_number   1
_chemical_formula_structural   TbYAl20IrRu3
_chemical_formula_sum   'Tb1 Y1 Al20 Ir1 Ru3'
_cell_volume   428.55468285
_cell_formula_units_Z   1
loop_
 _symmetry_equiv_pos_site_id
 _symmetry_equiv_pos_as_xyz
  1  'x, y, z'
loop_
 _atom_site_type_symbol
 _atom_site_label
 _atom_site_symmetry_multiplicity
 _atom_site_fract_x
 _atom_site_fract_y
 _atom_site_fract_z
 _atom_site_occupancy
  Tb  Tb0  1  0.871062  0.127267  0.750279  1
  Y  Y1  1  0.129297  0.872499  0.249672  1
  Al  Al2  1  0.620516  0.376126  0.550900  1
  Al  Al3  1  0.379420  0.623929  0.449175  1
  Al  Al4  1  0.377207  0.623384  0.049954  1
  Al  Al5  1  0.622721  0.376681  0.950003  1
  Al  Al6  1  0.226837  0.223882  0.498737  1
  Al  Al7  1  0.773144  0.776115  0.501239  1
  Al  Al8  1  0.774186  0.774860  0.000617  1
  Al  Al9  1  0.225805  0.225154  0.999440  1
  Al  Al10  1  0.843820  0.156807  0.100183  1
  Al  Al11  1  0.156222  0.843139  0.899814  1
  Al  Al12  1  0.157936  0.845001  0.601820  1
  Al  Al13  1  0.842109  0.154919  0.398199  1
  Al  Al14  1  0.857528  0.587769  0.751523  1
  Al  Al15  1  0.142433  0.412372  0.248470  1
  Al  Al16  1  0.413124  0.141715  0.750285  1
  Al  Al17  1  0.586736  0.858325  0.249713  1
  Al  Al18  1  0.221822  0.481216  0.752331  1
  Al  Al19  1  0.778207  0.518918  0.247669  1
  Al  Al20  1  0.518450  0.779216  0.749756  1
  Al  Al21  1  0.481410  0.220744  0.250237  1
  Ir  Ir22  1  0.999994  0.499964  0.499863  1
  Ru  Ru23  1  0.999984  0.499974  0.000145  1
  Ru  Ru24  1  0.500032  0.000021  0.000143  1
  Ru  Ru25  1  0.499998  0.000005  0.499834  1
