# generated using pymatgen
data_Y4Ho2Al24Ru7Au
_symmetry_space_group_name_H-M   'P 1'
_cell_length_a   8.84942271
_cell_length_b   8.84942356
_cell_length_c   9.56243412
_cell_angle_alpha   89.87835228
_cell_angle_beta   90.12164148
_cell_angle_gamma   119.88297040
_symmetry_Int_Tables_number   1
_chemical_formula_structural   Y4Ho2Al24Ru7Au
_chemical_formula_sum   'Y4 Ho2 Al24 Ru7 Au1'
_cell_volume   649.28989936
_cell_formula_units_Z   1
loop_
 _symmetry_equiv_pos_site_id
 _symmetry_equiv_pos_as_xyz
  1  'x, y, z'
loop_
 _atom_site_type_symbol
 _atom_site_label
 _atom_site_symmetry_multiplicity
 _atom_site_fract_x
 _atom_site_fract_y
 _atom_site_fract_z
 _atom_site_occupancy
  Y  Y0  1  0.192179  0.385978  0.249689  1
  Y  Y1  1  0.807821  0.614022  0.750311  1
  Y  Y2  1  0.614022  0.807821  0.249689  1
  Y  Y3  1  0.385978  0.192179  0.750311  1
  Ho  Ho4  1  0.194279  0.805721  0.253716  1
  Ho  Ho5  1  0.805721  0.194279  0.746284  1
  Al  Al6  1  0.327742  0.672258  0.022376  1
  Al  Al7  1  0.672258  0.327742  0.977624  1
  Al  Al8  1  0.666744  0.333256  0.516660  1
  Al  Al9  1  0.333256  0.666744  0.483340  1
  Al  Al10  1  0.162077  0.324417  0.578091  1
  Al  Al11  1  0.837923  0.675583  0.421909  1
  Al  Al12  1  0.675583  0.837923  0.578091  1
  Al  Al13  1  0.849388  0.678124  0.080248  1
  Al  Al14  1  0.324417  0.162077  0.421909  1
  Al  Al15  1  0.150612  0.321876  0.919752  1
  Al  Al16  1  0.162733  0.837267  0.578283  1
  Al  Al17  1  0.321876  0.150612  0.080248  1
  Al  Al18  1  0.837267  0.162733  0.421717  1
  Al  Al19  1  0.678124  0.849388  0.919752  1
  Al  Al20  1  0.837230  0.162770  0.077480  1
  Al  Al21  1  0.162770  0.837230  0.922520  1
  Al  Al22  1  0.560307  0.121126  0.248421  1
  Al  Al23  1  0.439693  0.878874  0.751579  1
  Al  Al24  1  0.878874  0.439693  0.248421  1
  Al  Al25  1  0.121126  0.560307  0.751579  1
  Al  Al26  1  0.564064  0.435936  0.255901  1
  Al  Al27  1  0.435936  0.564064  0.744099  1
  Al  Al28  1  0.999972  0.000028  0.250165  1
  Al  Al29  1  0.000028  0.999972  0.749835  1
  Ru  Ru30  1  0.500000  0.000000  0.000000  1
  Ru  Ru31  1  0.000000  0.500000  0.000000  1
  Ru  Ru32  1  0.500000  0.000000  0.500000  1
  Ru  Ru33  1  0.000000  0.500000  0.500000  1
  Ru  Ru34  1  0.500000  0.500000  0.500000  1
  Ru  Ru35  1  0.000000  0.000000  0.000000  1
  Ru  Ru36  1  0.000000  0.000000  0.500000  1
  Au  Au37  1  0.500000  0.500000  0.000000  1
