# generated using pymatgen
data_Dy4Er4Sc12Si15Sn
_symmetry_space_group_name_H-M   'P 1'
_cell_length_a   7.12101294
_cell_length_b   7.41058496
_cell_length_c   14.05420114
_cell_angle_alpha   90.01901686
_cell_angle_beta   89.59343053
_cell_angle_gamma   90.04038068
_symmetry_Int_Tables_number   1
_chemical_formula_structural   Dy4Er4Sc12Si15Sn
_chemical_formula_sum   'Dy4 Er4 Sc12 Si15 Sn1'
_cell_volume   741.63354550
_cell_formula_units_Z   1
loop_
 _symmetry_equiv_pos_site_id
 _symmetry_equiv_pos_as_xyz
  1  'x, y, z'
loop_
 _atom_site_type_symbol
 _atom_site_label
 _atom_site_symmetry_multiplicity
 _atom_site_fract_x
 _atom_site_fract_y
 _atom_site_fract_z
 _atom_site_occupancy
  Dy  Dy0  1  0.010840  0.176287  0.096303  1
  Dy  Dy1  1  0.988811  0.824639  0.904777  1
  Dy  Dy2  1  0.489661  0.676258  0.904843  1
  Dy  Dy3  1  0.990008  0.830123  0.598122  1
  Er  Er4  1  0.510300  0.323642  0.096727  1
  Er  Er5  1  0.004944  0.169940  0.398941  1
  Er  Er6  1  0.512765  0.319829  0.399458  1
  Er  Er7  1  0.501932  0.684979  0.599880  1
  Sc  Sc8  1  0.163455  0.502328  0.755088  1
  Sc  Sc9  1  0.836121  0.497206  0.249137  1
  Sc  Sc10  1  0.336261  0.003017  0.249320  1
  Sc  Sc11  1  0.665304  0.997149  0.751792  1
  Sc  Sc12  1  0.344047  0.162564  0.630930  1
  Sc  Sc13  1  0.663149  0.824902  0.372397  1
  Sc  Sc14  1  0.162413  0.683692  0.368892  1
  Sc  Sc15  1  0.666390  0.822847  0.124264  1
  Sc  Sc16  1  0.824152  0.323610  0.626671  1
  Sc  Sc17  1  0.331758  0.176053  0.875755  1
  Sc  Sc18  1  0.832114  0.323337  0.875782  1
  Sc  Sc19  1  0.167760  0.676611  0.125083  1
  Si  Si20  1  0.036064  0.117852  0.751386  1
  Si  Si21  1  0.962122  0.886074  0.246735  1
  Si  Si22  1  0.464536  0.613959  0.248441  1
  Si  Si23  1  0.533931  0.386583  0.752289  1
  Si  Si24  1  0.287731  0.869344  0.752413  1
  Si  Si25  1  0.711159  0.127820  0.247470  1
  Si  Si26  1  0.211470  0.371649  0.249155  1
  Si  Si27  1  0.789970  0.628612  0.751544  1
  Si  Si28  1  0.829289  0.538444  0.458616  1
  Si  Si29  1  0.337053  0.964230  0.460229  1
  Si  Si30  1  0.840600  0.534556  0.039454  1
  Si  Si31  1  0.663346  0.037261  0.537605  1
  Si  Si32  1  0.158017  0.464806  0.961820  1
  Si  Si33  1  0.657995  0.035673  0.961119  1
  Si  Si34  1  0.340680  0.965624  0.039804  1
  Sn  Sn35  1  0.173851  0.458501  0.537757  1
