# generated using pymatgen
data_Ca9La3(GaIr)8
_symmetry_space_group_name_H-M   'P 1'
_cell_length_a   5.76111109
_cell_length_b   7.96228543
_cell_length_c   13.97031507
_cell_angle_alpha   90.27220146
_cell_angle_beta   89.87884703
_cell_angle_gamma   90.05908781
_symmetry_Int_Tables_number   1
_chemical_formula_structural   Ca9La3(GaIr)8
_chemical_formula_sum   'Ca9 La3 Ga8 Ir8'
_cell_volume   640.83185870
_cell_formula_units_Z   1
loop_
 _symmetry_equiv_pos_site_id
 _symmetry_equiv_pos_as_xyz
  1  'x, y, z'
loop_
 _atom_site_type_symbol
 _atom_site_label
 _atom_site_symmetry_multiplicity
 _atom_site_fract_x
 _atom_site_fract_y
 _atom_site_fract_z
 _atom_site_occupancy
  Ca  Ca0  1  0.855290  0.398370  0.597984  1
  Ca  Ca1  1  0.853545  0.391842  0.901286  1
  Ca  Ca2  1  0.852863  0.107758  0.098793  1
  Ca  Ca3  1  0.147941  0.890818  0.598869  1
  Ca  Ca4  1  0.141900  0.605485  0.404644  1
  Ca  Ca5  1  0.371685  0.256586  0.250941  1
  Ca  Ca6  1  0.373171  0.246208  0.746851  1
  Ca  Ca7  1  0.627495  0.754622  0.250925  1
  Ca  Ca8  1  0.629819  0.742365  0.747855  1
  La  La9  1  0.150703  0.599341  0.094380  1
  La  La10  1  0.150658  0.901949  0.904185  1
  La  La11  1  0.851048  0.103074  0.408274  1
  Ga  Ga12  1  0.398150  0.250053  0.999967  1
  Ga  Ga13  1  0.603285  0.747057  0.501372  1
  Ga  Ga14  1  0.619639  0.750271  0.999274  1
  Ga  Ga15  1  0.387349  0.253051  0.502263  1
  Ga  Ga16  1  0.844377  0.410073  0.251429  1
  Ga  Ga17  1  0.847680  0.089767  0.747161  1
  Ga  Ga18  1  0.152300  0.910706  0.249102  1
  Ga  Ga19  1  0.153671  0.588740  0.749441  1
  Ir  Ir20  1  0.642394  0.475691  0.094290  1
  Ir  Ir21  1  0.639498  0.025029  0.903800  1
  Ir  Ir22  1  0.359979  0.976187  0.405104  1
  Ir  Ir23  1  0.360857  0.528123  0.594593  1
  Ir  Ir24  1  0.350538  0.529996  0.908178  1
  Ir  Ir25  1  0.352322  0.968366  0.090829  1
  Ir  Ir26  1  0.644479  0.029922  0.590995  1
  Ir  Ir27  1  0.637365  0.468552  0.407216  1
