# generated using pymatgen
data_Dy3Ho(Tm3Ir2)2
_symmetry_space_group_name_H-M   'P 1'
_cell_length_a   6.43275923
_cell_length_b   7.17393811
_cell_length_c   8.43355966
_cell_angle_alpha   96.68968137
_cell_angle_beta   112.38549872
_cell_angle_gamma   89.97819712
_symmetry_Int_Tables_number   1
_chemical_formula_structural   Dy3Ho(Tm3Ir2)2
_chemical_formula_sum   'Dy3 Ho1 Tm6 Ir4'
_cell_volume   357.00479279
_cell_formula_units_Z   1
loop_
 _symmetry_equiv_pos_site_id
 _symmetry_equiv_pos_as_xyz
  1  'x, y, z'
loop_
 _atom_site_type_symbol
 _atom_site_label
 _atom_site_symmetry_multiplicity
 _atom_site_fract_x
 _atom_site_fract_y
 _atom_site_fract_z
 _atom_site_occupancy
  Dy  Dy0  1  0.971570  0.919094  0.184642  1
  Dy  Dy1  1  0.787157  0.580984  0.815440  1
  Dy  Dy2  1  0.028564  0.080959  0.815481  1
  Ho  Ho3  1  0.212796  0.418846  0.184587  1
  Tm  Tm4  1  0.652006  0.817303  0.440582  1
  Tm  Tm5  1  0.211428  0.682393  0.559132  1
  Tm  Tm6  1  0.347965  0.182733  0.559329  1
  Tm  Tm7  1  0.788343  0.317544  0.440637  1
  Tm  Tm8  1  0.427566  0.749974  0.000085  1
  Tm  Tm9  1  0.572359  0.250027  0.000050  1
  Ir  Ir10  1  0.823832  0.572884  0.220137  1
  Ir  Ir11  1  0.603118  0.926872  0.779937  1
  Ir  Ir12  1  0.176589  0.426921  0.779950  1
  Ir  Ir13  1  0.396707  0.073467  0.220010  1
