# generated using pymatgen
data_La2LuZr(Ga3Rh)6
_symmetry_space_group_name_H-M   'P 1'
_cell_length_a   7.61209149
_cell_length_b   7.59787914
_cell_length_c   9.56412300
_cell_angle_alpha   90.00000000
_cell_angle_beta   90.00000000
_cell_angle_gamma   119.62662173
_symmetry_Int_Tables_number   1
_chemical_formula_structural   La2LuZr(Ga3Rh)6
_chemical_formula_sum   'La2 Lu1 Zr1 Ga18 Rh6'
_cell_volume   480.83258708
_cell_formula_units_Z   1
loop_
 _symmetry_equiv_pos_site_id
 _symmetry_equiv_pos_as_xyz
  1  'x, y, z'
loop_
 _atom_site_type_symbol
 _atom_site_label
 _atom_site_symmetry_multiplicity
 _atom_site_fract_x
 _atom_site_fract_y
 _atom_site_fract_z
 _atom_site_occupancy
  La  La0  1  0.004542  0.330694  0.750000  1
  La  La1  1  0.330935  0.004520  0.750000  1
  Lu  Lu2  1  0.671310  0.000180  0.250000  1
  Zr  Zr3  1  0.997760  0.670167  0.250000  1
  Ga  Ga4  1  0.336898  0.552169  0.250000  1
  Ga  Ga5  1  0.662704  0.457848  0.750000  1
  Ga  Ga6  1  0.553647  0.339567  0.250000  1
  Ga  Ga7  1  0.456842  0.660938  0.750000  1
  Ga  Ga8  1  0.997756  0.338178  0.088862  1
  Ga  Ga9  1  0.994854  0.665095  0.935257  1
  Ga  Ga10  1  0.994854  0.665095  0.564743  1
  Ga  Ga11  1  0.332288  0.995423  0.411110  1
  Ga  Ga12  1  0.997756  0.338178  0.411138  1
  Ga  Ga13  1  0.664931  0.993314  0.569313  1
  Ga  Ga14  1  0.664931  0.993314  0.930687  1
  Ga  Ga15  1  0.332288  0.995423  0.088890  1
  Ga  Ga16  1  0.337522  0.337328  0.547148  1
  Ga  Ga17  1  0.672284  0.670599  0.422207  1
  Ga  Ga18  1  0.672284  0.670599  0.077793  1
  Ga  Ga19  1  0.337522  0.337328  0.952852  1
  Ga  Ga20  1  0.121735  0.121702  0.250000  1
  Ga  Ga21  1  0.868374  0.866796  0.750000  1
  Rh  Rh22  1  0.671438  0.327447  0.004466  1
  Rh  Rh23  1  0.327876  0.671634  0.004769  1
  Rh  Rh24  1  0.327876  0.671634  0.495231  1
  Rh  Rh25  1  0.671438  0.327447  0.495534  1
  Rh  Rh26  1  0.998677  0.998689  0.004962  1
  Rh  Rh27  1  0.998677  0.998689  0.495038  1
