# generated using pymatgen
data_La10Tl5Sn
_symmetry_space_group_name_H-M   'P 1'
_cell_length_a   9.68112928
_cell_length_b   9.68107736
_cell_length_c   9.58766311
_cell_angle_alpha   96.41989123
_cell_angle_beta   96.41838031
_cell_angle_gamma   141.12958527
_symmetry_Int_Tables_number   1
_chemical_formula_structural   La10Tl5Sn
_chemical_formula_sum   'La10 Tl5 Sn1'
_cell_volume   531.13606496
_cell_formula_units_Z   1
loop_
 _symmetry_equiv_pos_site_id
 _symmetry_equiv_pos_as_xyz
  1  'x, y, z'
loop_
 _atom_site_type_symbol
 _atom_site_label
 _atom_site_symmetry_multiplicity
 _atom_site_fract_x
 _atom_site_fract_y
 _atom_site_fract_z
 _atom_site_occupancy
  La  La0  1  0.753028  0.252367  0.500000  1
  La  La1  1  0.247619  0.746966  0.500003  1
  La  La2  1  0.914273  0.218485  0.132735  1
  La  La3  1  0.219137  0.088185  0.307340  1
  La  La4  1  0.780358  0.912097  0.692469  1
  La  La5  1  0.087006  0.781620  0.868656  1
  La  La6  1  0.718376  0.412977  0.131325  1
  La  La7  1  0.281534  0.585762  0.867292  1
  La  La8  1  0.587874  0.719607  0.307509  1
  La  La9  1  0.411816  0.280833  0.692688  1
  Tl  Tl10  1  0.749752  0.750256  0.999990  1
  Tl  Tl11  1  0.249747  0.250248  0.999983  1
  Tl  Tl12  1  0.839487  0.660531  0.500011  1
  Tl  Tl13  1  0.660861  0.160694  0.821542  1
  Tl  Tl14  1  0.339309  0.839160  0.178459  1
  Sn  Sn15  1  0.159820  0.340210  0.500000  1
