# generated using pymatgen
data_EuAl4Ni
_symmetry_space_group_name_H-M   'P 1'
_cell_length_a   8.14713703
_cell_length_b   8.14713681
_cell_length_c   6.59601600
_cell_angle_alpha   90.00000000
_cell_angle_beta   90.00000000
_cell_angle_gamma   150.45412907
_symmetry_Int_Tables_number   1
_chemical_formula_structural   EuAl4Ni
_chemical_formula_sum   'Eu2 Al8 Ni2'
_cell_volume   215.89596736
_cell_formula_units_Z   2
loop_
 _symmetry_equiv_pos_site_id
 _symmetry_equiv_pos_as_xyz
  1  'x, y, z'
loop_
 _atom_site_type_symbol
 _atom_site_label
 _atom_site_symmetry_multiplicity
 _atom_site_fract_x
 _atom_site_fract_y
 _atom_site_fract_z
 _atom_site_occupancy
  Eu  Eu0  1  0.117590  0.882410  0.750000  1
  Eu  Eu1  1  0.882410  0.117590  0.250000  1
  Al  Al2  1  0.922819  0.077181  0.750000  1
  Al  Al3  1  0.690032  0.309968  0.448422  1
  Al  Al4  1  0.077181  0.922819  0.250000  1
  Al  Al5  1  0.309968  0.690032  0.948422  1
  Al  Al6  1  0.500000  0.500000  0.000000  1
  Al  Al7  1  0.690032  0.309968  0.051578  1
  Al  Al8  1  0.500000  0.500000  0.500000  1
  Al  Al9  1  0.309968  0.690032  0.551578  1
  Ni  Ni10  1  0.223504  0.776496  0.250000  1
  Ni  Ni11  1  0.776496  0.223504  0.750000  1
