# generated using pymatgen
data_Er6Al7Pd3Pt13
_symmetry_space_group_name_H-M   'P 1'
_cell_length_a   8.95527132
_cell_length_b   8.95527084
_cell_length_c   8.95527044
_cell_angle_alpha   59.91795642
_cell_angle_beta   59.91795665
_cell_angle_gamma   59.91796062
_symmetry_Int_Tables_number   1
_chemical_formula_structural   Er6Al7Pd3Pt13
_chemical_formula_sum   'Er6 Al7 Pd3 Pt13'
_cell_volume   506.88819994
_cell_formula_units_Z   1
loop_
 _symmetry_equiv_pos_site_id
 _symmetry_equiv_pos_as_xyz
  1  'x, y, z'
loop_
 _atom_site_type_symbol
 _atom_site_label
 _atom_site_symmetry_multiplicity
 _atom_site_fract_x
 _atom_site_fract_y
 _atom_site_fract_z
 _atom_site_occupancy
  Er  Er0  1  0.712838  0.712838  0.287099  1
  Er  Er1  1  0.287383  0.712426  0.287383  1
  Er  Er2  1  0.712426  0.287383  0.287383  1
  Er  Er3  1  0.287383  0.287383  0.712426  1
  Er  Er4  1  0.712838  0.287099  0.712838  1
  Er  Er5  1  0.287099  0.712838  0.712838  1
  Al  Al6  1  0.999851  0.999851  0.999851  1
  Al  Al7  1  0.999716  0.999716  0.500780  1
  Al  Al8  1  0.500146  0.000170  0.500146  1
  Al  Al9  1  0.000170  0.500146  0.500146  1
  Al  Al10  1  0.500146  0.500146  0.000170  1
  Al  Al11  1  0.999716  0.500780  0.999716  1
  Al  Al12  1  0.500780  0.999716  0.999716  1
  Pd  Pd13  1  0.881475  0.881475  0.355844  1
  Pd  Pd14  1  0.881475  0.355844  0.881475  1
  Pd  Pd15  1  0.355844  0.881475  0.881475  1
  Pt  Pt16  1  0.881429  0.881429  0.881429  1
  Pt  Pt17  1  0.119202  0.119202  0.643198  1
  Pt  Pt18  1  0.119202  0.643198  0.119202  1
  Pt  Pt19  1  0.643198  0.119202  0.119202  1
  Pt  Pt20  1  0.118771  0.118771  0.118771  1
  Pt  Pt21  1  0.661925  0.661925  0.013445  1
  Pt  Pt22  1  0.661925  0.013445  0.661925  1
  Pt  Pt23  1  0.013445  0.661925  0.661925  1
  Pt  Pt24  1  0.662196  0.662196  0.662196  1
  Pt  Pt25  1  0.338098  0.338098  0.985219  1
  Pt  Pt26  1  0.338098  0.985219  0.338098  1
  Pt  Pt27  1  0.985219  0.338098  0.338098  1
  Pt  Pt28  1  0.338003  0.338003  0.338003  1
