# generated using pymatgen
data_Sm4Dy3Y(B6Ru)4
_symmetry_space_group_name_H-M   'P 1'
_cell_length_a   3.69846000
_cell_length_b   9.20274100
_cell_length_c   11.59944800
_cell_angle_alpha   90.00000494
_cell_angle_beta   90.00000000
_cell_angle_gamma   90.00000000
_symmetry_Int_Tables_number   1
_chemical_formula_structural   Sm4Dy3Y(B6Ru)4
_chemical_formula_sum   'Sm4 Dy3 Y1 B24 Ru4'
_cell_volume   394.79845810
_cell_formula_units_Z   1
loop_
 _symmetry_equiv_pos_site_id
 _symmetry_equiv_pos_as_xyz
  1  'x, y, z'
loop_
 _atom_site_type_symbol
 _atom_site_label
 _atom_site_symmetry_multiplicity
 _atom_site_fract_x
 _atom_site_fract_y
 _atom_site_fract_z
 _atom_site_occupancy
  Sm  Sm0  1  0.000000  0.323239  0.414066  1
  Sm  Sm1  1  0.000000  0.676768  0.585962  1
  Sm  Sm2  1  0.000000  0.823159  0.085898  1
  Sm  Sm3  1  0.000000  0.176823  0.914081  1
  Dy  Dy4  1  0.000000  0.056103  0.628210  1
  Dy  Dy5  1  0.000000  0.443931  0.128126  1
  Dy  Dy6  1  0.000000  0.556048  0.871861  1
  Y  Y7  1  0.000000  0.944055  0.372108  1
  B  B8  1  0.500000  0.555361  0.431638  1
  B  B9  1  0.500000  0.444635  0.568380  1
  B  B10  1  0.500000  0.055353  0.068341  1
  B  B11  1  0.500000  0.944632  0.931605  1
  B  B12  1  0.500000  0.748596  0.418548  1
  B  B13  1  0.500000  0.251305  0.581528  1
  B  B14  1  0.500000  0.248732  0.081479  1
  B  B15  1  0.500000  0.751291  0.918483  1
  B  B16  1  0.500000  0.790591  0.266609  1
  B  B17  1  0.500000  0.209393  0.733294  1
  B  B18  1  0.500000  0.290640  0.233292  1
  B  B19  1  0.500000  0.709385  0.766722  1
  B  B20  1  0.500000  0.631524  0.185207  1
  B  B21  1  0.500000  0.368442  0.814753  1
  B  B22  1  0.500000  0.131677  0.314737  1
  B  B23  1  0.500000  0.868444  0.685281  1
  B  B24  1  0.500000  0.985292  0.213287  1
  B  B25  1  0.500000  0.014673  0.786619  1
  B  B26  1  0.500000  0.485300  0.286587  1
  B  B27  1  0.500000  0.514661  0.713386  1
  B  B28  1  0.500000  0.606027  0.029106  1
  B  B29  1  0.500000  0.393973  0.970877  1
  B  B30  1  0.500000  0.106151  0.470909  1
  B  B31  1  0.500000  0.893892  0.529178  1
  Ru  Ru32  1  0.000000  0.638770  0.320355  1
  Ru  Ru33  1  0.000000  0.361068  0.679611  1
  Ru  Ru34  1  0.000000  0.138986  0.179526  1
  Ru  Ru35  1  0.000000  0.861078  0.820350  1
