# generated using pymatgen
data_CeZn2Cu3Rh
_symmetry_space_group_name_H-M   'P 1'
_cell_length_a   5.11255600
_cell_length_b   8.21010400
_cell_length_c   10.58186700
_cell_angle_alpha   90.00000000
_cell_angle_beta   90.00000000
_cell_angle_gamma   90.00000000
_symmetry_Int_Tables_number   1
_chemical_formula_structural   CeZn2Cu3Rh
_chemical_formula_sum   'Ce4 Zn8 Cu12 Rh4'
_cell_volume   444.16980882
_cell_formula_units_Z   4
loop_
 _symmetry_equiv_pos_site_id
 _symmetry_equiv_pos_as_xyz
  1  'x, y, z'
loop_
 _atom_site_type_symbol
 _atom_site_label
 _atom_site_symmetry_multiplicity
 _atom_site_fract_x
 _atom_site_fract_y
 _atom_site_fract_z
 _atom_site_occupancy
  Ce  Ce0  1  0.250000  0.271782  0.558234  1
  Ce  Ce1  1  0.750000  0.728218  0.441766  1
  Ce  Ce2  1  0.250000  0.771782  0.941766  1
  Ce  Ce3  1  0.750000  0.228218  0.058234  1
  Zn  Zn4  1  0.750000  0.347515  0.354359  1
  Zn  Zn5  1  0.250000  0.652485  0.645641  1
  Zn  Zn6  1  0.750000  0.847515  0.145641  1
  Zn  Zn7  1  0.250000  0.152485  0.854359  1
  Zn  Zn8  1  0.750000  0.691635  0.757195  1
  Zn  Zn9  1  0.250000  0.308365  0.242805  1
  Zn  Zn10  1  0.750000  0.191635  0.742805  1
  Zn  Zn11  1  0.250000  0.808365  0.257195  1
  Cu  Cu12  1  0.506852  0.559639  0.190165  1
  Cu  Cu13  1  0.006852  0.440361  0.809835  1
  Cu  Cu14  1  0.993148  0.059639  0.309835  1
  Cu  Cu15  1  0.493148  0.940361  0.690165  1
  Cu  Cu16  1  0.750000  0.587151  0.987312  1
  Cu  Cu17  1  0.250000  0.412849  0.012688  1
  Cu  Cu18  1  0.750000  0.087151  0.512688  1
  Cu  Cu19  1  0.250000  0.912849  0.487312  1
  Cu  Cu20  1  0.506852  0.059639  0.309835  1
  Cu  Cu21  1  0.006852  0.940361  0.690165  1
  Cu  Cu22  1  0.993148  0.559639  0.190165  1
  Cu  Cu23  1  0.493148  0.440361  0.809835  1
  Rh  Rh24  1  0.750000  0.951792  0.912028  1
  Rh  Rh25  1  0.250000  0.048208  0.087972  1
  Rh  Rh26  1  0.750000  0.451792  0.587972  1
  Rh  Rh27  1  0.250000  0.548208  0.412028  1
