# generated using pymatgen
data_PaMnF6
_symmetry_space_group_name_H-M   'P 1'
_cell_length_a   6.14939673
_cell_length_b   6.14939624
_cell_length_c   6.14939700
_cell_angle_alpha   60.00000128
_cell_angle_beta   60.00000394
_cell_angle_gamma   59.99999996
_symmetry_Int_Tables_number   1
_chemical_formula_structural   PaMnF6
_chemical_formula_sum   'Pa1 Mn1 F6'
_cell_volume   164.43056209
_cell_formula_units_Z   1
loop_
 _symmetry_equiv_pos_site_id
 _symmetry_equiv_pos_as_xyz
  1  'x, y, z'
loop_
 _atom_site_type_symbol
 _atom_site_label
 _atom_site_symmetry_multiplicity
 _atom_site_fract_x
 _atom_site_fract_y
 _atom_site_fract_z
 _atom_site_occupancy
  Pa  Pa0  1  0.500000  0.500000  0.500000  1
  Mn  Mn1  1  0.000000  0.000000  0.000000  1
  F  F2  1  0.754290  0.245710  0.245710  1
  F  F3  1  0.245710  0.754290  0.754290  1
  F  F4  1  0.245710  0.754290  0.245710  1
  F  F5  1  0.754290  0.245710  0.754290  1
  F  F6  1  0.245710  0.245710  0.754290  1
  F  F7  1  0.754290  0.754290  0.245710  1
