# generated using pymatgen
data_LuTa3(BOs)4
_symmetry_space_group_name_H-M   'P 1'
_cell_length_a   3.16105400
_cell_length_b   9.13561897
_cell_length_c   15.94640473
_cell_angle_alpha   90.03725590
_cell_angle_beta   90.00000000
_cell_angle_gamma   90.00000000
_symmetry_Int_Tables_number   1
_chemical_formula_structural   LuTa3(BOs)4
_chemical_formula_sum   'Lu3 Ta9 B12 Os12'
_cell_volume   460.50312643
_cell_formula_units_Z   3
loop_
 _symmetry_equiv_pos_site_id
 _symmetry_equiv_pos_as_xyz
  1  'x, y, z'
loop_
 _atom_site_type_symbol
 _atom_site_label
 _atom_site_symmetry_multiplicity
 _atom_site_fract_x
 _atom_site_fract_y
 _atom_site_fract_z
 _atom_site_occupancy
  Lu  Lu0  1  0.000000  0.320373  0.790841  1
  Lu  Lu1  1  0.000000  0.181709  0.291251  1
  Lu  Lu2  1  0.000000  0.820161  0.709208  1
  Ta  Ta3  1  0.000000  0.801694  0.494080  1
  Ta  Ta4  1  0.000000  0.197994  0.504884  1
  Ta  Ta5  1  0.000000  0.300574  0.004868  1
  Ta  Ta6  1  0.000000  0.698232  0.995703  1
  Ta  Ta7  1  0.000000  0.515184  0.594054  1
  Ta  Ta8  1  0.000000  0.484776  0.406411  1
  Ta  Ta9  1  0.000000  0.014112  0.905827  1
  Ta  Ta10  1  0.000000  0.984616  0.094314  1
  Ta  Ta11  1  0.000000  0.683941  0.204992  1
  B  B12  1  0.500000  0.603857  0.495375  1
  B  B13  1  0.500000  0.396437  0.503095  1
  B  B14  1  0.500000  0.102853  0.004047  1
  B  B15  1  0.500000  0.895503  0.998022  1
  B  B16  1  0.000000  0.607858  0.832389  1
  B  B17  1  0.000000  0.391909  0.168600  1
  B  B18  1  0.000000  0.107734  0.667683  1
  B  B19  1  0.000000  0.890903  0.333637  1
  B  B20  1  0.500000  0.713407  0.594566  1
  B  B21  1  0.500000  0.287364  0.404745  1
  B  B22  1  0.500000  0.211203  0.904794  1
  B  B23  1  0.500000  0.784517  0.099438  1
  Os  Os24  1  0.500000  0.717932  0.357036  1
  Os  Os25  1  0.500000  0.278551  0.636813  1
  Os  Os26  1  0.500000  0.222414  0.138122  1
  Os  Os27  1  0.500000  0.778290  0.864185  1
  Os  Os28  1  0.500000  0.520236  0.096133  1
  Os  Os29  1  0.500000  0.486573  0.911004  1
  Os  Os30  1  0.500000  0.011689  0.405825  1
  Os  Os31  1  0.500000  0.986286  0.590798  1
  Os  Os32  1  0.500000  0.565315  0.734893  1
  Os  Os33  1  0.500000  0.444496  0.264261  1
  Os  Os34  1  0.500000  0.065912  0.766588  1
  Os  Os35  1  0.500000  0.925394  0.231520  1
