# generated using pymatgen
data_SmHo2SbO7
_symmetry_space_group_name_H-M   'P 1'
_cell_length_a   6.48079067
_cell_length_b   6.48079134
_cell_length_c   7.57364700
_cell_angle_alpha   90.00000000
_cell_angle_beta   90.00000000
_cell_angle_gamma   109.28715297
_symmetry_Int_Tables_number   1
_chemical_formula_structural   SmHo2SbO7
_chemical_formula_sum   'Sm2 Ho4 Sb2 O14'
_cell_volume   300.24486730
_cell_formula_units_Z   2
loop_
 _symmetry_equiv_pos_site_id
 _symmetry_equiv_pos_as_xyz
  1  'x, y, z'
loop_
 _atom_site_type_symbol
 _atom_site_label
 _atom_site_symmetry_multiplicity
 _atom_site_fract_x
 _atom_site_fract_y
 _atom_site_fract_z
 _atom_site_occupancy
  Sm  Sm0  1  0.500000  0.500000  0.500000  1
  Sm  Sm1  1  0.500000  0.500000  0.000000  1
  Ho  Ho2  1  0.531338  0.000746  0.750000  1
  Ho  Ho3  1  0.000746  0.531338  0.250000  1
  Ho  Ho4  1  0.468662  0.999254  0.250000  1
  Ho  Ho5  1  0.999254  0.468662  0.750000  1
  Sb  Sb6  1  0.000000  0.000000  0.500000  1
  Sb  Sb7  1  0.000000  0.000000  0.000000  1
  O  O8  1  0.677746  0.929844  0.470590  1
  O  O9  1  0.929844  0.677746  0.529410  1
  O  O10  1  0.677746  0.929844  0.029410  1
  O  O11  1  0.929844  0.677746  0.970590  1
  O  O12  1  0.322254  0.070156  0.529410  1
  O  O13  1  0.070156  0.322254  0.470590  1
  O  O14  1  0.322254  0.070156  0.970590  1
  O  O15  1  0.070156  0.322254  0.029410  1
  O  O16  1  0.930734  0.069266  0.750000  1
  O  O17  1  0.069266  0.930734  0.250000  1
  O  O18  1  0.365275  0.634725  0.750000  1
  O  O19  1  0.634725  0.365275  0.250000  1
  O  O20  1  0.640844  0.359156  0.750000  1
  O  O21  1  0.359156  0.640844  0.250000  1
