# generated using pymatgen
data_AcLa7Np4O24
_symmetry_space_group_name_H-M   'P 1'
_cell_length_a   5.67218129
_cell_length_b   9.65412842
_cell_length_c   10.72788200
_cell_angle_alpha   90.09861347
_cell_angle_beta   90.01845487
_cell_angle_gamma   90.09441544
_symmetry_Int_Tables_number   1
_chemical_formula_structural   AcLa7Np4O24
_chemical_formula_sum   'Ac1 La7 Np4 O24'
_cell_volume   587.45676140
_cell_formula_units_Z   1
loop_
 _symmetry_equiv_pos_site_id
 _symmetry_equiv_pos_as_xyz
  1  'x, y, z'
loop_
 _atom_site_type_symbol
 _atom_site_label
 _atom_site_symmetry_multiplicity
 _atom_site_fract_x
 _atom_site_fract_y
 _atom_site_fract_z
 _atom_site_occupancy
  Ac  Ac0  1  0.531617  0.217976  0.363228  1
  La  La1  1  0.473868  0.603227  0.538956  1
  La  La2  1  0.974088  0.898470  0.462626  1
  La  La3  1  0.524755  0.101137  0.961981  1
  La  La4  1  0.026518  0.397670  0.037500  1
  La  La5  1  0.964262  0.781588  0.864463  1
  La  La6  1  0.464603  0.716104  0.133921  1
  La  La7  1  0.033223  0.284094  0.636172  1
  Np  Np8  1  0.461686  0.994390  0.649214  1
  Np  Np9  1  0.964410  0.508883  0.352607  1
  Np  Np10  1  0.536994  0.494302  0.852537  1
  Np  Np11  1  0.036424  0.002158  0.145441  1
  O  O12  1  0.249533  0.085349  0.510358  1
  O  O13  1  0.755723  0.418372  0.493746  1
  O  O14  1  0.745306  0.584679  0.992863  1
  O  O15  1  0.242718  0.912300  0.004753  1
  O  O16  1  0.732871  0.114933  0.568505  1
  O  O17  1  0.229116  0.389912  0.437854  1
  O  O18  1  0.266260  0.613776  0.934599  1
  O  O19  1  0.764827  0.882947  0.064256  1
  O  O20  1  0.588513  0.844287  0.530841  1
  O  O21  1  0.090847  0.659981  0.469371  1
  O  O22  1  0.411206  0.343115  0.969208  1
  O  O23  1  0.906945  0.155706  0.031678  1
  O  O24  1  0.181297  0.858056  0.258343  1
  O  O25  1  0.677468  0.640948  0.740586  1
  O  O26  1  0.829090  0.361740  0.239419  1
  O  O27  1  0.321263  0.140901  0.760836  1
  O  O28  1  0.835166  0.046664  0.299853  1
  O  O29  1  0.328312  0.450497  0.699894  1
  O  O30  1  0.177320  0.548295  0.199911  1
  O  O31  1  0.671294  0.949421  0.800688  1
  O  O32  1  0.320995  0.135568  0.172346  1
  O  O33  1  0.823155  0.362229  0.820803  1
  O  O34  1  0.679762  0.639727  0.319980  1
  O  O35  1  0.178563  0.860599  0.680660  1
