# generated using pymatgen
data_SrNp3F15
_symmetry_space_group_name_H-M   'P 1'
_cell_length_a   8.81680560
_cell_length_b   8.81680556
_cell_length_c   8.80434005
_cell_angle_alpha   79.44869824
_cell_angle_beta   79.44870047
_cell_angle_gamma   100.59333221
_symmetry_Int_Tables_number   1
_chemical_formula_structural   SrNp3F15
_chemical_formula_sum   'Sr2 Np6 F30'
_cell_volume   644.51829355
_cell_formula_units_Z   2
loop_
 _symmetry_equiv_pos_site_id
 _symmetry_equiv_pos_as_xyz
  1  'x, y, z'
loop_
 _atom_site_type_symbol
 _atom_site_label
 _atom_site_symmetry_multiplicity
 _atom_site_fract_x
 _atom_site_fract_y
 _atom_site_fract_z
 _atom_site_occupancy
  Sr  Sr0  1  0.174996  0.825004  0.250000  1
  Sr  Sr1  1  0.825004  0.174996  0.750000  1
  Np  Np2  1  0.751486  0.248514  0.250000  1
  Np  Np3  1  0.248514  0.751486  0.750000  1
  Np  Np4  1  0.750556  0.675852  0.678692  1
  Np  Np5  1  0.324148  0.249444  0.821308  1
  Np  Np6  1  0.249444  0.324148  0.321308  1
  Np  Np7  1  0.675852  0.750556  0.178692  1
  F  F8  1  0.473952  0.526048  0.250000  1
  F  F9  1  0.746361  0.950021  0.980525  1
  F  F10  1  0.049979  0.253639  0.519475  1
  F  F11  1  0.253639  0.049979  0.019475  1
  F  F12  1  0.950021  0.746361  0.480525  1
  F  F13  1  0.526048  0.473952  0.750000  1
  F  F14  1  0.776250  0.278722  0.006881  1
  F  F15  1  0.006561  0.278876  0.220197  1
  F  F16  1  0.775881  0.499250  0.223417  1
  F  F17  1  0.499250  0.775881  0.723417  1
  F  F18  1  0.278876  0.006561  0.720197  1
  F  F19  1  0.278722  0.776250  0.506881  1
  F  F20  1  0.223750  0.721278  0.993119  1
  F  F21  1  0.993439  0.721124  0.779803  1
  F  F22  1  0.224119  0.500750  0.776583  1
  F  F23  1  0.500750  0.224119  0.276583  1
  F  F24  1  0.721124  0.993439  0.279803  1
  F  F25  1  0.721278  0.223750  0.493119  1
  F  F26  1  0.315291  0.344442  0.054369  1
  F  F27  1  0.924855  0.800967  0.154947  1
  F  F28  1  0.828821  0.461488  0.688094  1
  F  F29  1  0.461488  0.828821  0.188094  1
  F  F30  1  0.800967  0.924855  0.654947  1
  F  F31  1  0.344442  0.315291  0.554369  1
  F  F32  1  0.684709  0.655558  0.945631  1
  F  F33  1  0.075145  0.199033  0.845053  1
  F  F34  1  0.171179  0.538512  0.311906  1
  F  F35  1  0.538512  0.171179  0.811906  1
  F  F36  1  0.199033  0.075145  0.345053  1
  F  F37  1  0.655558  0.684709  0.445631  1
