# generated using pymatgen
data_Dy4Y4Lu4Co5Bi
_symmetry_space_group_name_H-M   'P 1'
_cell_length_a   8.26997047
_cell_length_b   8.26996883
_cell_length_c   8.26996989
_cell_angle_alpha   107.07097231
_cell_angle_beta   110.57132139
_cell_angle_gamma   110.79779278
_symmetry_Int_Tables_number   1
_chemical_formula_structural   Dy4Y4Lu4Co5Bi
_chemical_formula_sum   'Dy4 Y4 Lu4 Co5 Bi1'
_cell_volume   434.82956766
_cell_formula_units_Z   1
loop_
 _symmetry_equiv_pos_site_id
 _symmetry_equiv_pos_as_xyz
  1  'x, y, z'
loop_
 _atom_site_type_symbol
 _atom_site_label
 _atom_site_symmetry_multiplicity
 _atom_site_fract_x
 _atom_site_fract_y
 _atom_site_fract_z
 _atom_site_occupancy
  Dy  Dy0  1  0.195079  0.208238  0.403317  1
  Dy  Dy1  1  0.804921  0.791762  0.596683  1
  Dy  Dy2  1  0.195079  0.791762  0.986840  1
  Dy  Dy3  1  0.804921  0.208238  0.013160  1
  Y  Y4  1  0.473420  0.289024  0.184396  1
  Y  Y5  1  0.104630  0.289024  0.815604  1
  Y  Y6  1  0.895370  0.710976  0.184396  1
  Y  Y7  1  0.526580  0.710976  0.815604  1
  Lu  Lu8  1  0.312275  0.625824  0.313549  1
  Lu  Lu9  1  0.312275  0.998728  0.686451  1
  Lu  Lu10  1  0.687725  0.374176  0.686451  1
  Lu  Lu11  1  0.687725  0.001272  0.313549  1
  Co  Co12  1  0.500000  0.612606  0.112606  1
  Co  Co13  1  0.500000  0.387394  0.887394  1
  Co  Co14  1  0.377230  0.000000  0.377230  1
  Co  Co15  1  0.622770  0.000000  0.622770  1
  Co  Co16  1  0.000000  0.000000  0.000000  1
  Bi  Bi17  1  0.000000  0.500000  0.500000  1
