# generated using pymatgen
data_Ho2Sc3Fe12Co7P12
_symmetry_space_group_name_H-M   'P 1'
_cell_length_a   11.81665272
_cell_length_b   11.81665494
_cell_length_c   3.63352400
_cell_angle_alpha   90.00000000
_cell_angle_beta   90.00000000
_cell_angle_gamma   119.86905211
_symmetry_Int_Tables_number   1
_chemical_formula_structural   Ho2Sc3Fe12Co7P12
_chemical_formula_sum   'Ho2 Sc3 Fe12 Co7 P12'
_cell_volume   439.96612469
_cell_formula_units_Z   1
loop_
 _symmetry_equiv_pos_site_id
 _symmetry_equiv_pos_as_xyz
  1  'x, y, z'
loop_
 _atom_site_type_symbol
 _atom_site_label
 _atom_site_symmetry_multiplicity
 _atom_site_fract_x
 _atom_site_fract_y
 _atom_site_fract_z
 _atom_site_occupancy
  Ho  Ho0  1  0.184770  0.999531  0.500000  1
  Ho  Ho1  1  0.999531  0.184770  0.500000  1
  Sc  Sc2  1  0.667687  0.333520  0.000000  1
  Sc  Sc3  1  0.333520  0.667687  0.000000  1
  Sc  Sc4  1  0.813470  0.813470  0.500000  1
  Fe  Fe5  1  0.874778  0.357763  0.500000  1
  Fe  Fe6  1  0.642670  0.518009  0.500000  1
  Fe  Fe7  1  0.484099  0.124938  0.500000  1
  Fe  Fe8  1  0.357763  0.874778  0.500000  1
  Fe  Fe9  1  0.518009  0.642670  0.500000  1
  Fe  Fe10  1  0.124938  0.484099  0.500000  1
  Fe  Fe11  1  0.445917  0.445917  0.000000  1
  Fe  Fe12  1  0.555640  0.998171  0.000000  1
  Fe  Fe13  1  0.998171  0.555640  0.000000  1
  Fe  Fe14  1  0.287501  0.287501  0.500000  1
  Fe  Fe15  1  0.714197  0.997624  0.500000  1
  Fe  Fe16  1  0.997624  0.714197  0.500000  1
  Co  Co17  1  0.800484  0.178650  0.000000  1
  Co  Co18  1  0.818739  0.622431  0.000000  1
  Co  Co19  1  0.380416  0.199908  0.000000  1
  Co  Co20  1  0.178650  0.800484  0.000000  1
  Co  Co21  1  0.622431  0.818739  0.000000  1
  Co  Co22  1  0.199908  0.380416  0.000000  1
  Co  Co23  1  0.998609  0.998609  0.000000  1
  P  P24  1  0.684465  0.166504  0.500000  1
  P  P25  1  0.831981  0.516042  0.500000  1
  P  P26  1  0.484964  0.316600  0.500000  1
  P  P27  1  0.166504  0.684465  0.500000  1
  P  P28  1  0.516042  0.831981  0.500000  1
  P  P29  1  0.316600  0.484964  0.500000  1
  P  P30  1  0.183765  0.183765  0.000000  1
  P  P31  1  0.816234  0.996327  0.000000  1
  P  P32  1  0.996327  0.816234  0.000000  1
  P  P33  1  0.632111  0.632111  0.000000  1
  P  P34  1  0.371472  0.000010  0.000000  1
  P  P35  1  0.000010  0.371472  0.000000  1
