# generated using pymatgen
data_Sc8Ti2Nb9Si16Tc
_symmetry_space_group_name_H-M   'P 1'
_cell_length_a   6.68197526
_cell_length_b   6.87257782
_cell_length_c   13.09437345
_cell_angle_alpha   90.04736875
_cell_angle_beta   90.02560100
_cell_angle_gamma   89.97521323
_symmetry_Int_Tables_number   1
_chemical_formula_structural   Sc8Ti2Nb9Si16Tc
_chemical_formula_sum   'Sc8 Ti2 Nb9 Si16 Tc1'
_cell_volume   601.32466808
_cell_formula_units_Z   1
loop_
 _symmetry_equiv_pos_site_id
 _symmetry_equiv_pos_as_xyz
  1  'x, y, z'
loop_
 _atom_site_type_symbol
 _atom_site_label
 _atom_site_symmetry_multiplicity
 _atom_site_fract_x
 _atom_site_fract_y
 _atom_site_fract_z
 _atom_site_occupancy
  Sc  Sc0  1  0.498375  0.673223  0.594762  1
  Sc  Sc1  1  0.000875  0.828135  0.905175  1
  Sc  Sc2  1  0.499821  0.324445  0.094415  1
  Sc  Sc3  1  0.998860  0.175228  0.405322  1
  Sc  Sc4  1  0.498590  0.326820  0.405206  1
  Sc  Sc5  1  0.998334  0.173270  0.095559  1
  Sc  Sc6  1  0.498793  0.675333  0.905326  1
  Sc  Sc7  1  0.001737  0.824645  0.594044  1
  Ti  Ti8  1  0.663631  0.172914  0.626868  1
  Ti  Ti9  1  0.164482  0.328290  0.872869  1
  Nb  Nb10  1  0.335055  0.824840  0.123938  1
  Nb  Nb11  1  0.835998  0.674513  0.376980  1
  Nb  Nb12  1  0.336818  0.825661  0.375361  1
  Nb  Nb13  1  0.837280  0.673589  0.123868  1
  Nb  Nb14  1  0.664795  0.172720  0.873965  1
  Nb  Nb15  1  0.167645  0.327202  0.626411  1
  Nb  Nb16  1  0.336805  0.005789  0.749611  1
  Nb  Nb17  1  0.162237  0.506117  0.249390  1
  Nb  Nb18  1  0.662189  0.994404  0.250287  1
  Si  Si19  1  0.668733  0.969737  0.462468  1
  Si  Si20  1  0.168785  0.530335  0.036732  1
  Si  Si21  1  0.330167  0.036815  0.959211  1
  Si  Si22  1  0.830903  0.463177  0.543720  1
  Si  Si23  1  0.333171  0.033815  0.540099  1
  Si  Si24  1  0.833267  0.465656  0.957039  1
  Si  Si25  1  0.667909  0.966298  0.039149  1
  Si  Si26  1  0.167897  0.533407  0.461382  1
  Si  Si27  1  0.467402  0.388833  0.750757  1
  Si  Si28  1  0.959291  0.115990  0.749537  1
  Si  Si29  1  0.540561  0.613576  0.249754  1
  Si  Si30  1  0.038366  0.887692  0.250362  1
  Si  Si31  1  0.705793  0.856272  0.749150  1
  Si  Si32  1  0.198550  0.635317  0.750976  1
  Si  Si33  1  0.294407  0.137753  0.250221  1
  Si  Si34  1  0.794546  0.362875  0.249831  1
  Tc  Tc35  1  0.837935  0.495313  0.750256  1
