# generated using pymatgen
data_Lu18HfTiIr12
_symmetry_space_group_name_H-M   'P 1'
_cell_length_a   6.19517500
_cell_length_b   10.63809400
_cell_length_c   10.63809400
_cell_angle_alpha   90.00000000
_cell_angle_beta   90.00000000
_cell_angle_gamma   90.00000000
_symmetry_Int_Tables_number   1
_chemical_formula_structural   Lu18HfTiIr12
_chemical_formula_sum   'Lu18 Hf1 Ti1 Ir12'
_cell_volume   701.10203187
_cell_formula_units_Z   1
loop_
 _symmetry_equiv_pos_site_id
 _symmetry_equiv_pos_as_xyz
  1  'x, y, z'
loop_
 _atom_site_type_symbol
 _atom_site_label
 _atom_site_symmetry_multiplicity
 _atom_site_fract_x
 _atom_site_fract_y
 _atom_site_fract_z
 _atom_site_occupancy
  Lu  Lu0  1  0.370748  0.836641  0.542595  1
  Lu  Lu1  1  0.872063  0.663001  0.542493  1
  Lu  Lu2  1  0.872063  0.836999  0.957507  1
  Lu  Lu3  1  0.370748  0.663359  0.957405  1
  Lu  Lu4  1  0.872257  0.536600  0.834953  1
  Lu  Lu5  1  0.373423  0.961769  0.834885  1
  Lu  Lu6  1  0.373423  0.538231  0.665115  1
  Lu  Lu7  1  0.872257  0.963400  0.665047  1
  Lu  Lu8  1  0.626577  0.165115  0.461770  1
  Lu  Lu9  1  0.127743  0.334953  0.463401  1
  Lu  Lu10  1  0.127743  0.165047  0.036600  1
  Lu  Lu11  1  0.626577  0.334885  0.038231  1
  Lu  Lu12  1  0.127937  0.457508  0.163001  1
  Lu  Lu13  1  0.629252  0.042595  0.163359  1
  Lu  Lu14  1  0.629252  0.457406  0.336641  1
  Lu  Lu15  1  0.127937  0.042493  0.336999  1
  Lu  Lu16  1  0.500000  0.750000  0.250000  1
  Lu  Lu17  1  0.000000  0.750000  0.250000  1
  Hf  Hf18  1  0.500000  0.250000  0.750000  1
  Ti  Ti19  1  0.000000  0.250000  0.750000  1
  Ir  Ir20  1  0.251658  0.904504  0.094143  1
  Ir  Ir21  1  0.748342  0.594143  0.095496  1
  Ir  Ir22  1  0.748342  0.905857  0.404504  1
  Ir  Ir23  1  0.251658  0.595496  0.405857  1
  Ir  Ir24  1  0.757215  0.106232  0.890960  1
  Ir  Ir25  1  0.242785  0.390960  0.893768  1
  Ir  Ir26  1  0.242785  0.109040  0.606232  1
  Ir  Ir27  1  0.757215  0.393768  0.609040  1
  Ir  Ir28  1  0.117646  0.750000  0.750000  1
  Ir  Ir29  1  0.618660  0.750000  0.750000  1
  Ir  Ir30  1  0.882354  0.250000  0.250000  1
  Ir  Ir31  1  0.381340  0.250000  0.250000  1
