# generated using pymatgen
data_Pr8Si13Pt3
_symmetry_space_group_name_H-M   'P 1'
_cell_length_a   8.27148500
_cell_length_b   8.27148600
_cell_length_c   8.58030200
_cell_angle_alpha   90.00000000
_cell_angle_beta   90.00000000
_cell_angle_gamma   120.00000001
_symmetry_Int_Tables_number   1
_chemical_formula_structural   Pr8Si13Pt3
_chemical_formula_sum   'Pr8 Si13 Pt3'
_cell_volume   508.39378290
_cell_formula_units_Z   1
loop_
 _symmetry_equiv_pos_site_id
 _symmetry_equiv_pos_as_xyz
  1  'x, y, z'
loop_
 _atom_site_type_symbol
 _atom_site_label
 _atom_site_symmetry_multiplicity
 _atom_site_fract_x
 _atom_site_fract_y
 _atom_site_fract_z
 _atom_site_occupancy
  Pr  Pr0  1  0.501553  0.498447  0.752315  1
  Pr  Pr1  1  0.502278  0.497722  0.247515  1
  Pr  Pr2  1  0.996896  0.498447  0.752315  1
  Pr  Pr3  1  0.995445  0.497722  0.247515  1
  Pr  Pr4  1  0.501553  0.003104  0.752315  1
  Pr  Pr5  1  0.502278  0.004555  0.247515  1
  Pr  Pr6  1  0.000000  0.000000  0.751482  1
  Pr  Pr7  1  0.000000  0.000000  0.248698  1
  Si  Si8  1  0.835088  0.164912  0.000364  1
  Si  Si9  1  0.167486  0.832514  0.999564  1
  Si  Si10  1  0.329824  0.164912  0.000364  1
  Si  Si11  1  0.167016  0.832984  0.500095  1
  Si  Si12  1  0.665026  0.832514  0.999564  1
  Si  Si13  1  0.834112  0.165888  0.499885  1
  Si  Si14  1  0.835088  0.670176  0.000364  1
  Si  Si15  1  0.665969  0.832984  0.500095  1
  Si  Si16  1  0.167486  0.334974  0.999564  1
  Si  Si17  1  0.331776  0.165888  0.499885  1
  Si  Si18  1  0.167016  0.334031  0.500095  1
  Si  Si19  1  0.834112  0.668224  0.499885  1
  Si  Si20  1  0.666667  0.333333  0.998603  1
  Pt  Pt21  1  0.333333  0.666667  0.001835  1
  Pt  Pt22  1  0.333333  0.666667  0.499028  1
  Pt  Pt23  1  0.666667  0.333333  0.501142  1
