# generated using pymatgen
data_Th3Ga3TcPdPt
_symmetry_space_group_name_H-M   'P 1'
_cell_length_a   7.41007000
_cell_length_b   7.41006889
_cell_length_c   4.03779200
_cell_angle_alpha   90.00000000
_cell_angle_beta   90.00000000
_cell_angle_gamma   120.00001390
_symmetry_Int_Tables_number   1
_chemical_formula_structural   Th3Ga3TcPdPt
_chemical_formula_sum   'Th3 Ga3 Tc1 Pd1 Pt1'
_cell_volume   192.00788774
_cell_formula_units_Z   1
loop_
 _symmetry_equiv_pos_site_id
 _symmetry_equiv_pos_as_xyz
  1  'x, y, z'
loop_
 _atom_site_type_symbol
 _atom_site_label
 _atom_site_symmetry_multiplicity
 _atom_site_fract_x
 _atom_site_fract_y
 _atom_site_fract_z
 _atom_site_occupancy
  Th  Th0  1  0.422958  0.415009  0.500000  1
  Th  Th1  1  0.584991  0.007949  0.500000  1
  Th  Th2  1  0.992051  0.577042  0.500000  1
  Ga  Ga3  1  0.760253  0.751686  0.000000  1
  Ga  Ga4  1  0.248314  0.008567  0.000000  1
  Ga  Ga5  1  0.991433  0.239747  0.000000  1
  Tc  Tc6  1  0.666667  0.333333  0.000000  1
  Pd  Pd7  1  0.000000  0.000000  0.500000  1
  Pt  Pt8  1  0.333333  0.666667  0.000000  1
