# generated using pymatgen
data_SrPr4(RhO6)2
_symmetry_space_group_name_H-M   'P 1'
_cell_length_a   7.15330405
_cell_length_b   7.15330468
_cell_length_c   7.77952404
_cell_angle_alpha   74.28718825
_cell_angle_beta   74.28718480
_cell_angle_gamma   50.78706994
_symmetry_Int_Tables_number   1
_chemical_formula_structural   SrPr4(RhO6)2
_chemical_formula_sum   'Sr1 Pr4 Rh2 O12'
_cell_volume   294.24518007
_cell_formula_units_Z   1
loop_
 _symmetry_equiv_pos_site_id
 _symmetry_equiv_pos_as_xyz
  1  'x, y, z'
loop_
 _atom_site_type_symbol
 _atom_site_label
 _atom_site_symmetry_multiplicity
 _atom_site_fract_x
 _atom_site_fract_y
 _atom_site_fract_z
 _atom_site_occupancy
  Sr  Sr0  1  0.000000  0.000000  0.500000  1
  Pr  Pr1  1  0.305686  0.305686  0.361888  1
  Pr  Pr2  1  0.694314  0.694314  0.638112  1
  Pr  Pr3  1  0.690410  0.690410  0.173672  1
  Pr  Pr4  1  0.309590  0.309590  0.826328  1
  Rh  Rh5  1  0.755577  0.244423  0.000000  1
  Rh  Rh6  1  0.244423  0.755577  0.000000  1
  O  O7  1  0.094991  0.580767  0.584745  1
  O  O8  1  0.998307  0.998307  0.167766  1
  O  O9  1  0.419233  0.905009  0.415255  1
  O  O10  1  0.499991  0.499991  0.173434  1
  O  O11  1  0.101474  0.584369  0.075517  1
  O  O12  1  0.905009  0.419233  0.415255  1
  O  O13  1  0.001693  0.001693  0.832234  1
  O  O14  1  0.580767  0.094990  0.584745  1
  O  O15  1  0.500009  0.500009  0.826566  1
  O  O16  1  0.584369  0.101474  0.075517  1
  O  O17  1  0.415631  0.898526  0.924483  1
  O  O18  1  0.898526  0.415631  0.924483  1
