# generated using pymatgen
data_TbDy(Ho2Ni)2
_symmetry_space_group_name_H-M   'P 1'
_cell_length_a   6.34095900
_cell_length_b   6.82024400
_cell_length_c   9.48155600
_cell_angle_alpha   90.00000000
_cell_angle_beta   90.00000000
_cell_angle_gamma   90.00000000
_symmetry_Int_Tables_number   1
_chemical_formula_structural   TbDy(Ho2Ni)2
_chemical_formula_sum   'Tb2 Dy2 Ho8 Ni4'
_cell_volume   410.04778636
_cell_formula_units_Z   2
loop_
 _symmetry_equiv_pos_site_id
 _symmetry_equiv_pos_as_xyz
  1  'x, y, z'
loop_
 _atom_site_type_symbol
 _atom_site_label
 _atom_site_symmetry_multiplicity
 _atom_site_fract_x
 _atom_site_fract_y
 _atom_site_fract_z
 _atom_site_occupancy
  Tb  Tb0  1  0.138731  0.467807  0.750000  1
  Tb  Tb1  1  0.361269  0.967807  0.750000  1
  Dy  Dy2  1  0.860622  0.532545  0.250000  1
  Dy  Dy3  1  0.639378  0.032545  0.250000  1
  Ho  Ho4  1  0.321398  0.677824  0.066280  1
  Ho  Ho5  1  0.178602  0.177824  0.433720  1
  Ho  Ho6  1  0.678477  0.322058  0.565648  1
  Ho  Ho7  1  0.821523  0.822058  0.934352  1
  Ho  Ho8  1  0.678477  0.322058  0.934352  1
  Ho  Ho9  1  0.821523  0.822058  0.565648  1
  Ho  Ho10  1  0.321398  0.677824  0.433720  1
  Ho  Ho11  1  0.178602  0.177824  0.066280  1
  Ni  Ni12  1  0.055166  0.891078  0.250000  1
  Ni  Ni13  1  0.444834  0.391078  0.250000  1
  Ni  Ni14  1  0.943869  0.108808  0.750000  1
  Ni  Ni15  1  0.556131  0.608808  0.750000  1
