# generated using pymatgen
data_Nd14Zn2CoPd3
_symmetry_space_group_name_H-M   'P 1'
_cell_length_a   3.84627500
_cell_length_b   12.26772429
_cell_length_c   12.26772488
_cell_angle_alpha   90.48849833
_cell_angle_beta   90.00000000
_cell_angle_gamma   90.00000000
_symmetry_Int_Tables_number   1
_chemical_formula_structural   Nd14Zn2CoPd3
_chemical_formula_sum   'Nd14 Zn2 Co1 Pd3'
_cell_volume   578.83206585
_cell_formula_units_Z   1
loop_
 _symmetry_equiv_pos_site_id
 _symmetry_equiv_pos_as_xyz
  1  'x, y, z'
loop_
 _atom_site_type_symbol
 _atom_site_label
 _atom_site_symmetry_multiplicity
 _atom_site_fract_x
 _atom_site_fract_y
 _atom_site_fract_z
 _atom_site_occupancy
  Nd  Nd0  1  0.500000  0.999349  0.500651  1
  Nd  Nd1  1  0.500000  0.506350  0.993650  1
  Nd  Nd2  1  0.000000  0.319805  0.820189  1
  Nd  Nd3  1  0.000000  0.679811  0.180195  1
  Nd  Nd4  1  0.000000  0.181247  0.318753  1
  Nd  Nd5  1  0.000000  0.815251  0.684749  1
  Nd  Nd6  1  0.500000  0.560053  0.709147  1
  Nd  Nd7  1  0.500000  0.444521  0.300952  1
  Nd  Nd8  1  0.500000  0.943136  0.196955  1
  Nd  Nd9  1  0.500000  0.054964  0.802098  1
  Nd  Nd10  1  0.500000  0.697902  0.445036  1
  Nd  Nd11  1  0.500000  0.303045  0.556864  1
  Nd  Nd12  1  0.500000  0.199048  0.055479  1
  Nd  Nd13  1  0.500000  0.790853  0.939947  1
  Zn  Zn14  1  0.000000  0.500745  0.502464  1
  Zn  Zn15  1  0.000000  0.997536  0.999255  1
  Co  Co16  1  0.000000  0.634968  0.865032  1
  Pd  Pd17  1  0.000000  0.132646  0.632506  1
  Pd  Pd18  1  0.000000  0.867494  0.367354  1
  Pd  Pd19  1  0.000000  0.371275  0.128725  1
