# generated using pymatgen
data_Tb13NdAu20
_symmetry_space_group_name_H-M   'P 1'
_cell_length_a   8.78623614
_cell_length_b   8.78625223
_cell_length_c   10.46703775
_cell_angle_alpha   89.93511808
_cell_angle_beta   89.93509115
_cell_angle_gamma   107.08047463
_symmetry_Int_Tables_number   1
_chemical_formula_structural   Tb13NdAu20
_chemical_formula_sum   'Tb13 Nd1 Au20'
_cell_volume   772.39400584
_cell_formula_units_Z   1
loop_
 _symmetry_equiv_pos_site_id
 _symmetry_equiv_pos_as_xyz
  1  'x, y, z'
loop_
 _atom_site_type_symbol
 _atom_site_label
 _atom_site_symmetry_multiplicity
 _atom_site_fract_x
 _atom_site_fract_y
 _atom_site_fract_z
 _atom_site_occupancy
  Tb  Tb0  1  0.693868  0.306274  0.999830  1
  Tb  Tb1  1  0.306274  0.693867  0.999830  1
  Tb  Tb2  1  0.806374  0.194005  0.500005  1
  Tb  Tb3  1  0.194005  0.806374  0.500005  1
  Tb  Tb4  1  0.001026  0.001026  0.999006  1
  Tb  Tb5  1  0.498764  0.498764  0.500531  1
  Tb  Tb6  1  0.003330  0.503118  0.250219  1
  Tb  Tb7  1  0.997697  0.496834  0.750592  1
  Tb  Tb8  1  0.496835  0.997698  0.750592  1
  Tb  Tb9  1  0.503119  0.003330  0.250219  1
  Tb  Tb10  1  0.313044  0.313044  0.188085  1
  Tb  Tb11  1  0.687005  0.687005  0.811548  1
  Tb  Tb12  1  0.186556  0.186556  0.688260  1
  Nd  Nd13  1  0.810003  0.810003  0.308242  1
  Au  Au14  1  0.861738  0.153566  0.208699  1
  Au  Au15  1  0.139844  0.849848  0.790204  1
  Au  Au16  1  0.639427  0.350194  0.710254  1
  Au  Au17  1  0.649951  0.361386  0.290499  1
  Au  Au18  1  0.361386  0.649951  0.290499  1
  Au  Au19  1  0.350194  0.639426  0.710254  1
  Au  Au20  1  0.849848  0.139843  0.790204  1
  Au  Au21  1  0.153566  0.861738  0.208699  1
  Au  Au22  1  0.938022  0.645097  0.002780  1
  Au  Au23  1  0.062645  0.355790  0.997394  1
  Au  Au24  1  0.559528  0.855750  0.504711  1
  Au  Au25  1  0.144564  0.437733  0.498254  1
  Au  Au26  1  0.437733  0.144564  0.498254  1
  Au  Au27  1  0.855750  0.559527  0.504711  1
  Au  Au28  1  0.355785  0.062642  0.997395  1
  Au  Au29  1  0.645097  0.938022  0.002780  1
  Au  Au30  1  0.107666  0.107666  0.399083  1
  Au  Au31  1  0.894887  0.894887  0.604046  1
  Au  Au32  1  0.393245  0.393245  0.897326  1
  Au  Au33  1  0.601228  0.601228  0.096989  1
