# generated using pymatgen
data_Sc8In3Fe
_symmetry_space_group_name_H-M   'P 1'
_cell_length_a   9.71706501
_cell_length_b   9.72285415
_cell_length_c   6.52560500
_cell_angle_alpha   90.00000000
_cell_angle_beta   90.00000000
_cell_angle_gamma   119.98507832
_symmetry_Int_Tables_number   1
_chemical_formula_structural   Sc8In3Fe
_chemical_formula_sum   'Sc16 In6 Fe2'
_cell_volume   534.00530834
_cell_formula_units_Z   2
loop_
 _symmetry_equiv_pos_site_id
 _symmetry_equiv_pos_as_xyz
  1  'x, y, z'
loop_
 _atom_site_type_symbol
 _atom_site_label
 _atom_site_symmetry_multiplicity
 _atom_site_fract_x
 _atom_site_fract_y
 _atom_site_fract_z
 _atom_site_occupancy
  Sc  Sc0  1  0.532241  0.064484  0.519682  1
  Sc  Sc1  1  0.935469  0.467716  0.519669  1
  Sc  Sc2  1  0.532243  0.467718  0.519666  1
  Sc  Sc3  1  0.467759  0.935516  0.019682  1
  Sc  Sc4  1  0.064531  0.532284  0.019669  1
  Sc  Sc5  1  0.467757  0.532282  0.019666  1
  Sc  Sc6  1  0.180803  0.361605  0.731503  1
  Sc  Sc7  1  0.638409  0.819212  0.731500  1
  Sc  Sc8  1  0.180802  0.819215  0.731506  1
  Sc  Sc9  1  0.819197  0.638395  0.231503  1
  Sc  Sc10  1  0.361591  0.180788  0.231500  1
  Sc  Sc11  1  0.819198  0.180785  0.231506  1
  Sc  Sc12  1  0.666677  0.333347  0.913755  1
  Sc  Sc13  1  0.333323  0.666653  0.413755  1
  Sc  Sc14  1  0.000013  0.000024  0.509570  1
  Sc  Sc15  1  0.999987  0.999976  0.009570  1
  In  In16  1  0.837148  0.674304  0.766371  1
  In  In17  1  0.325602  0.162772  0.766189  1
  In  In18  1  0.837163  0.162763  0.766232  1
  In  In19  1  0.162852  0.325696  0.266371  1
  In  In20  1  0.674398  0.837228  0.266189  1
  In  In21  1  0.162837  0.837237  0.266232  1
  Fe  Fe22  1  0.666672  0.333341  0.302198  1
  Fe  Fe23  1  0.333328  0.666659  0.802198  1
