# generated using pymatgen
data_Y8CuSiPd23
_symmetry_space_group_name_H-M   'P 1'
_cell_length_a   8.29765900
_cell_length_b   8.35156900
_cell_length_c   8.38218000
_cell_angle_alpha   90.00000000
_cell_angle_beta   90.00000000
_cell_angle_gamma   90.00000000
_symmetry_Int_Tables_number   1
_chemical_formula_structural   Y8CuSiPd23
_chemical_formula_sum   'Y8 Cu1 Si1 Pd23'
_cell_volume   580.87226332
_cell_formula_units_Z   1
loop_
 _symmetry_equiv_pos_site_id
 _symmetry_equiv_pos_as_xyz
  1  'x, y, z'
loop_
 _atom_site_type_symbol
 _atom_site_label
 _atom_site_symmetry_multiplicity
 _atom_site_fract_x
 _atom_site_fract_y
 _atom_site_fract_z
 _atom_site_occupancy
  Y  Y0  1  0.253494  0.251457  0.256697  1
  Y  Y1  1  0.746240  0.746137  0.746476  1
  Y  Y2  1  0.746240  0.746137  0.253524  1
  Y  Y3  1  0.746240  0.253863  0.746476  1
  Y  Y4  1  0.253494  0.251457  0.743303  1
  Y  Y5  1  0.253494  0.748543  0.256697  1
  Y  Y6  1  0.253494  0.748543  0.743303  1
  Y  Y7  1  0.746240  0.253863  0.253524  1
  Cu  Cu8  1  0.260938  0.500000  0.000000  1
  Si  Si9  1  0.999150  0.000000  0.000000  1
  Pd  Pd10  1  0.743530  0.500000  0.000000  1
  Pd  Pd11  1  0.999477  0.257110  0.500000  1
  Pd  Pd12  1  0.495027  0.260770  0.000000  1
  Pd  Pd13  1  0.999477  0.742890  0.500000  1
  Pd  Pd14  1  0.495027  0.739230  0.000000  1
  Pd  Pd15  1  0.500247  0.000000  0.257151  1
  Pd  Pd16  1  0.256814  0.000000  0.500000  1
  Pd  Pd17  1  0.500247  0.000000  0.742849  1
  Pd  Pd18  1  0.742786  0.000000  0.500000  1
  Pd  Pd19  1  0.002609  0.500000  0.256531  1
  Pd  Pd20  1  0.002609  0.500000  0.743469  1
  Pd  Pd21  1  0.252298  0.500000  0.500000  1
  Pd  Pd22  1  0.747460  0.500000  0.500000  1
  Pd  Pd23  1  0.500464  0.252713  0.500000  1
  Pd  Pd24  1  0.500464  0.747287  0.500000  1
  Pd  Pd25  1  0.496236  0.500000  0.250092  1
  Pd  Pd26  1  0.496236  0.500000  0.749908  1
  Pd  Pd27  1  0.280355  0.000000  0.000000  1
  Pd  Pd28  1  0.717618  0.000000  0.000000  1
  Pd  Pd29  1  0.006764  0.282673  0.000000  1
  Pd  Pd30  1  0.006764  0.717327  0.000000  1
  Pd  Pd31  1  0.999233  0.000000  0.279128  1
  Pd  Pd32  1  0.999233  0.000000  0.720872  1
