# generated using pymatgen
data_Ho9Lu(SiPb3)2
_symmetry_space_group_name_H-M   'P 1'
_cell_length_a   9.28223100
_cell_length_b   9.28223051
_cell_length_c   6.49808000
_cell_angle_alpha   90.00000000
_cell_angle_beta   90.00000000
_cell_angle_gamma   120.00000530
_symmetry_Int_Tables_number   1
_chemical_formula_structural   Ho9Lu(SiPb3)2
_chemical_formula_sum   'Ho9 Lu1 Si2 Pb6'
_cell_volume   484.86449565
_cell_formula_units_Z   1
loop_
 _symmetry_equiv_pos_site_id
 _symmetry_equiv_pos_as_xyz
  1  'x, y, z'
loop_
 _atom_site_type_symbol
 _atom_site_label
 _atom_site_symmetry_multiplicity
 _atom_site_fract_x
 _atom_site_fract_y
 _atom_site_fract_z
 _atom_site_occupancy
  Ho  Ho0  1  0.249037  0.999858  0.749736  1
  Ho  Ho1  1  0.750821  0.999858  0.250264  1
  Ho  Ho2  1  0.000142  0.249179  0.749736  1
  Ho  Ho3  1  0.000142  0.750963  0.250264  1
  Ho  Ho4  1  0.750821  0.750963  0.749736  1
  Ho  Ho5  1  0.249037  0.249179  0.250264  1
  Ho  Ho6  1  0.333333  0.666667  0.500000  1
  Ho  Ho7  1  0.666667  0.333333  0.500000  1
  Ho  Ho8  1  0.666667  0.333333  0.000000  1
  Lu  Lu9  1  0.333333  0.666667  0.000000  1
  Si  Si10  1  0.000000  0.000000  0.500000  1
  Si  Si11  1  0.000000  0.000000  0.000000  1
  Pb  Pb12  1  0.605298  0.999338  0.750151  1
  Pb  Pb13  1  0.394039  0.999338  0.249849  1
  Pb  Pb14  1  0.000662  0.605961  0.750151  1
  Pb  Pb15  1  0.000662  0.394702  0.249849  1
  Pb  Pb16  1  0.394039  0.394702  0.750151  1
  Pb  Pb17  1  0.605298  0.605961  0.249849  1
