# generated using pymatgen
data_Ac7Y12MgPb16
_symmetry_space_group_name_H-M   'P 1'
_cell_length_a   8.44756329
_cell_length_b   16.17553948
_cell_length_c   8.53896800
_cell_angle_alpha   89.94719045
_cell_angle_beta   89.79839592
_cell_angle_gamma   90.35942853
_symmetry_Int_Tables_number   1
_chemical_formula_structural   Ac7Y12MgPb16
_chemical_formula_sum   'Ac7 Y12 Mg1 Pb16'
_cell_volume   1166.76713377
_cell_formula_units_Z   1
loop_
 _symmetry_equiv_pos_site_id
 _symmetry_equiv_pos_as_xyz
  1  'x, y, z'
loop_
 _atom_site_type_symbol
 _atom_site_label
 _atom_site_symmetry_multiplicity
 _atom_site_fract_x
 _atom_site_fract_y
 _atom_site_fract_z
 _atom_site_occupancy
  Ac  Ac0  1  0.982827  0.902296  0.822834  1
  Ac  Ac1  1  0.516724  0.096165  0.317575  1
  Ac  Ac2  1  0.010443  0.407211  0.176529  1
  Ac  Ac3  1  0.519062  0.405249  0.320863  1
  Ac  Ac4  1  0.010728  0.094361  0.173541  1
  Ac  Ac5  1  0.485535  0.904766  0.675750  1
  Ac  Ac6  1  0.983734  0.594771  0.821501  1
  Y  Y7  1  0.644593  0.623809  0.158772  1
  Y  Y8  1  0.148332  0.875141  0.343871  1
  Y  Y9  1  0.362557  0.125519  0.842298  1
  Y  Y10  1  0.856516  0.378432  0.660978  1
  Y  Y11  1  0.365672  0.376771  0.840967  1
  Y  Y12  1  0.853820  0.123965  0.663114  1
  Y  Y13  1  0.643663  0.872839  0.158555  1
  Y  Y14  1  0.144586  0.622336  0.346318  1
  Y  Y15  1  0.475762  0.599321  0.677716  1
  Y  Y16  1  0.808500  0.747564  0.496340  1
  Y  Y17  1  0.309183  0.747640  0.003842  1
  Y  Y18  1  0.191898  0.251912  0.506207  1
  Mg  Mg19  1  0.689398  0.250938  0.991520  1
  Pb  Pb20  1  0.689268  0.459287  0.949488  1
  Pb  Pb21  1  0.191962  0.045895  0.545854  1
  Pb  Pb22  1  0.309123  0.954793  0.045446  1
  Pb  Pb23  1  0.793763  0.547290  0.464767  1
  Pb  Pb24  1  0.311093  0.545119  0.039376  1
  Pb  Pb25  1  0.809587  0.954633  0.452027  1
  Pb  Pb26  1  0.689822  0.041073  0.951490  1
  Pb  Pb27  1  0.204081  0.458769  0.548303  1
  Pb  Pb28  1  0.448419  0.747072  0.370400  1
  Pb  Pb29  1  0.951317  0.748971  0.133203  1
  Pb  Pb30  1  0.555153  0.250344  0.627606  1
  Pb  Pb31  1  0.053473  0.252084  0.868673  1
  Pb  Pb32  1  0.665657  0.744585  0.849299  1
  Pb  Pb33  1  0.177856  0.748150  0.646793  1
  Pb  Pb34  1  0.314694  0.250810  0.146168  1
  Pb  Pb35  1  0.831197  0.250119  0.362016  1
