# generated using pymatgen
data_Ho16MgCo4HgAu2
_symmetry_space_group_name_H-M   'P 1'
_cell_length_a   9.37673110
_cell_length_b   9.39530151
_cell_length_c   9.39278776
_cell_angle_alpha   60.00484045
_cell_angle_beta   59.94233016
_cell_angle_gamma   60.07891860
_symmetry_Int_Tables_number   1
_chemical_formula_structural   Ho16MgCo4HgAu2
_chemical_formula_sum   'Ho16 Mg1 Co4 Hg1 Au2'
_cell_volume   585.22931771
_cell_formula_units_Z   1
loop_
 _symmetry_equiv_pos_site_id
 _symmetry_equiv_pos_as_xyz
  1  'x, y, z'
loop_
 _atom_site_type_symbol
 _atom_site_label
 _atom_site_symmetry_multiplicity
 _atom_site_fract_x
 _atom_site_fract_y
 _atom_site_fract_z
 _atom_site_occupancy
  Ho  Ho0  1  0.346763  0.345445  0.345251  1
  Ho  Ho1  1  0.346790  0.345374  0.962515  1
  Ho  Ho2  1  0.346185  0.963156  0.345306  1
  Ho  Ho3  1  0.945231  0.351278  0.351862  1
  Ho  Ho4  1  0.807455  0.191194  0.190443  1
  Ho  Ho5  1  0.186230  0.813224  0.813612  1
  Ho  Ho6  1  0.186413  0.813103  0.186902  1
  Ho  Ho7  1  0.807617  0.191170  0.810841  1
  Ho  Ho8  1  0.187010  0.187762  0.812559  1
  Ho  Ho9  1  0.805647  0.808777  0.192845  1
  Ho  Ho10  1  0.935623  0.560361  0.562438  1
  Ho  Ho11  1  0.562594  0.931645  0.941209  1
  Ho  Ho12  1  0.562604  0.931709  0.564147  1
  Ho  Ho13  1  0.935227  0.560287  0.941847  1
  Ho  Ho14  1  0.562975  0.561522  0.937519  1
  Ho  Ho15  1  0.937839  0.936706  0.562619  1
  Mg  Mg16  1  0.303935  0.572145  0.562422  1
  Co  Co17  1  0.135377  0.143884  0.142787  1
  Co  Co18  1  0.135568  0.143812  0.577867  1
  Co  Co19  1  0.134460  0.576976  0.144271  1
  Co  Co20  1  0.575426  0.141435  0.141609  1
  Hg  Hg21  1  0.583283  0.247472  0.584613  1
  Au  Au22  1  0.585164  0.590677  0.590816  1
  Au  Au23  1  0.584584  0.590884  0.233702  1
