# generated using pymatgen
data_Nd3ClO4
_symmetry_space_group_name_H-M   'P 1'
_cell_length_a   6.47483611
_cell_length_b   6.47483620
_cell_length_c   12.23743600
_cell_angle_alpha   90.00000000
_cell_angle_beta   90.00000000
_cell_angle_gamma   142.22056728
_symmetry_Int_Tables_number   1
_chemical_formula_structural   Nd3ClO4
_chemical_formula_sum   'Nd6 Cl2 O8'
_cell_volume   314.29796063
_cell_formula_units_Z   2
loop_
 _symmetry_equiv_pos_site_id
 _symmetry_equiv_pos_as_xyz
  1  'x, y, z'
loop_
 _atom_site_type_symbol
 _atom_site_label
 _atom_site_symmetry_multiplicity
 _atom_site_fract_x
 _atom_site_fract_y
 _atom_site_fract_z
 _atom_site_occupancy
  Nd  Nd0  1  0.823226  0.176774  0.398843  1
  Nd  Nd1  1  0.176774  0.823226  0.601157  1
  Nd  Nd2  1  0.176774  0.823226  0.898843  1
  Nd  Nd3  1  0.823226  0.176774  0.101157  1
  Nd  Nd4  1  0.875429  0.124571  0.750000  1
  Nd  Nd5  1  0.124571  0.875429  0.250000  1
  Cl  Cl6  1  0.500000  0.500000  0.000000  1
  Cl  Cl7  1  0.500000  0.500000  0.500000  1
  O  O8  1  0.297023  0.702977  0.750000  1
  O  O9  1  0.702977  0.297023  0.250000  1
  O  O10  1  0.059823  0.940177  0.750000  1
  O  O11  1  0.940177  0.059823  0.250000  1
  O  O12  1  0.766713  0.233287  0.910646  1
  O  O13  1  0.233287  0.766713  0.089354  1
  O  O14  1  0.233287  0.766713  0.410646  1
  O  O15  1  0.766713  0.233287  0.589354  1
