# generated using pymatgen
data_CuOsBr6
_symmetry_space_group_name_H-M   'P 1'
_cell_length_a   6.54731591
_cell_length_b   6.54731711
_cell_length_c   6.69291741
_cell_angle_alpha   81.27442364
_cell_angle_beta   81.27443547
_cell_angle_gamma   120.00440361
_symmetry_Int_Tables_number   1
_chemical_formula_structural   CuOsBr6
_chemical_formula_sum   'Cu1 Os1 Br6'
_cell_volume   236.74487718
_cell_formula_units_Z   1
loop_
 _symmetry_equiv_pos_site_id
 _symmetry_equiv_pos_as_xyz
  1  'x, y, z'
loop_
 _atom_site_type_symbol
 _atom_site_label
 _atom_site_symmetry_multiplicity
 _atom_site_fract_x
 _atom_site_fract_y
 _atom_site_fract_z
 _atom_site_occupancy
  Cu  Cu0  1  0.166591  0.833409  0.000000  1
  Os  Os1  1  0.833547  0.166453  0.000000  1
  Br  Br2  1  0.444477  0.082526  0.223697  1
  Br  Br3  1  0.917474  0.555523  0.776303  1
  Br  Br4  1  0.207128  0.221007  0.775400  1
  Br  Br5  1  0.778993  0.792872  0.224600  1
  Br  Br6  1  0.068707  0.416917  0.223111  1
  Br  Br7  1  0.583083  0.931293  0.776889  1
