# generated using pymatgen
data_DyTh3(GaPd2)4
_symmetry_space_group_name_H-M   'P 1'
_cell_length_a   5.79926918
_cell_length_b   7.12938700
_cell_length_c   7.55326749
_cell_angle_alpha   90.00000000
_cell_angle_beta   89.79383950
_cell_angle_gamma   90.00000000
_symmetry_Int_Tables_number   1
_chemical_formula_structural   DyTh3(GaPd2)4
_chemical_formula_sum   'Dy1 Th3 Ga4 Pd8'
_cell_volume   312.28959269
_cell_formula_units_Z   1
loop_
 _symmetry_equiv_pos_site_id
 _symmetry_equiv_pos_as_xyz
  1  'x, y, z'
loop_
 _atom_site_type_symbol
 _atom_site_label
 _atom_site_symmetry_multiplicity
 _atom_site_fract_x
 _atom_site_fract_y
 _atom_site_fract_z
 _atom_site_occupancy
  Dy  Dy0  1  0.844666  0.250000  0.467235  1
  Th  Th1  1  0.345176  0.750000  0.033712  1
  Th  Th2  1  0.152192  0.750000  0.534650  1
  Th  Th3  1  0.654517  0.250000  0.963704  1
  Ga  Ga4  1  0.653882  0.750000  0.386102  1
  Ga  Ga5  1  0.847029  0.750000  0.884982  1
  Ga  Ga6  1  0.346572  0.250000  0.609637  1
  Ga  Ga7  1  0.151143  0.250000  0.122076  1
  Pd  Pd8  1  0.913346  0.551008  0.183528  1
  Pd  Pd9  1  0.583706  0.949106  0.684898  1
  Pd  Pd10  1  0.088000  0.051767  0.815024  1
  Pd  Pd11  1  0.417359  0.449918  0.315501  1
  Pd  Pd12  1  0.088000  0.448233  0.815024  1
  Pd  Pd13  1  0.417359  0.050082  0.315501  1
  Pd  Pd14  1  0.913346  0.948992  0.183528  1
  Pd  Pd15  1  0.583706  0.550894  0.684898  1
