# generated using pymatgen
data_Ho6InCuRu
_symmetry_space_group_name_H-M   'P 1'
_cell_length_a   8.40323967
_cell_length_b   8.40324083
_cell_length_c   8.40324000
_cell_angle_alpha   113.12306061
_cell_angle_beta   110.11323079
_cell_angle_gamma   105.27285463
_symmetry_Int_Tables_number   1
_chemical_formula_structural   Ho6InCuRu
_chemical_formula_sum   'Ho12 In2 Cu2 Ru2'
_cell_volume   454.63018733
_cell_formula_units_Z   2
loop_
 _symmetry_equiv_pos_site_id
 _symmetry_equiv_pos_as_xyz
  1  'x, y, z'
loop_
 _atom_site_type_symbol
 _atom_site_label
 _atom_site_symmetry_multiplicity
 _atom_site_fract_x
 _atom_site_fract_y
 _atom_site_fract_z
 _atom_site_occupancy
  Ho  Ho0  1  0.438941  0.239770  0.199172  1
  Ho  Ho1  1  0.561059  0.760230  0.800828  1
  Ho  Ho2  1  0.040599  0.239770  0.800828  1
  Ho  Ho3  1  0.959401  0.760230  0.199172  1
  Ho  Ho4  1  0.187063  0.280827  0.467891  1
  Ho  Ho5  1  0.812937  0.719173  0.532109  1
  Ho  Ho6  1  0.187063  0.719173  0.906236  1
  Ho  Ho7  1  0.812937  0.280827  0.093764  1
  Ho  Ho8  1  0.330534  0.640448  0.309915  1
  Ho  Ho9  1  0.669466  0.359552  0.690085  1
  Ho  Ho10  1  0.330534  0.020618  0.690085  1
  Ho  Ho11  1  0.669466  0.979382  0.309915  1
  In  In12  1  0.500000  0.500000  0.000000  1
  In  In13  1  0.000000  0.000000  0.000000  1
  Cu  Cu14  1  0.120084  0.620084  0.500000  1
  Cu  Cu15  1  0.879916  0.379916  0.500000  1
  Ru  Ru16  1  0.332712  0.000000  0.332712  1
  Ru  Ru17  1  0.667288  0.000000  0.667288  1
