# generated using pymatgen
data_Ho4Sc4B24Ir3W
_symmetry_space_group_name_H-M   'P 1'
_cell_length_a   3.55036700
_cell_length_b   9.01078055
_cell_length_c   11.40198898
_cell_angle_alpha   90.12699718
_cell_angle_beta   90.00000000
_cell_angle_gamma   90.00000000
_symmetry_Int_Tables_number   1
_chemical_formula_structural   Ho4Sc4B24Ir3W
_chemical_formula_sum   'Ho4 Sc4 B24 Ir3 W1'
_cell_volume   364.76672278
_cell_formula_units_Z   1
loop_
 _symmetry_equiv_pos_site_id
 _symmetry_equiv_pos_as_xyz
  1  'x, y, z'
loop_
 _atom_site_type_symbol
 _atom_site_label
 _atom_site_symmetry_multiplicity
 _atom_site_fract_x
 _atom_site_fract_y
 _atom_site_fract_z
 _atom_site_occupancy
  Ho  Ho0  1  0.500000  0.318142  0.411719  1
  Ho  Ho1  1  0.500000  0.680319  0.585459  1
  Ho  Ho2  1  0.500000  0.180228  0.915780  1
  Ho  Ho3  1  0.500000  0.821139  0.086527  1
  Sc  Sc4  1  0.500000  0.444226  0.123737  1
  Sc  Sc5  1  0.500000  0.555301  0.875693  1
  Sc  Sc6  1  0.500000  0.054641  0.625166  1
  Sc  Sc7  1  0.500000  0.947509  0.375110  1
  B  B8  1  0.000000  0.099898  0.474656  1
  B  B9  1  0.000000  0.899247  0.527893  1
  B  B10  1  0.000000  0.401314  0.971624  1
  B  B11  1  0.000000  0.600801  0.026493  1
  B  B12  1  0.000000  0.129817  0.319401  1
  B  B13  1  0.000000  0.869593  0.681276  1
  B  B14  1  0.000000  0.370257  0.818596  1
  B  B15  1  0.000000  0.629831  0.182003  1
  B  B16  1  0.000000  0.052551  0.064291  1
  B  B17  1  0.000000  0.944969  0.932931  1
  B  B18  1  0.000000  0.444953  0.566039  1
  B  B19  1  0.000000  0.554518  0.433765  1
  B  B20  1  0.000000  0.482421  0.286029  1
  B  B21  1  0.000000  0.518177  0.714940  1
  B  B22  1  0.000000  0.018296  0.784904  1
  B  B23  1  0.000000  0.978228  0.215396  1
  B  B24  1  0.000000  0.255798  0.079081  1
  B  B25  1  0.000000  0.746158  0.919624  1
  B  B26  1  0.000000  0.245862  0.580214  1
  B  B27  1  0.000000  0.754200  0.419760  1
  B  B28  1  0.000000  0.298169  0.235825  1
  B  B29  1  0.000000  0.704627  0.764555  1
  B  B30  1  0.000000  0.205391  0.735828  1
  B  B31  1  0.000000  0.794077  0.265947  1
  Ir  Ir32  1  0.500000  0.858721  0.818537  1
  Ir  Ir33  1  0.500000  0.359841  0.680796  1
  Ir  Ir34  1  0.500000  0.640838  0.319317  1
  W  W35  1  0.500000  0.139944  0.181089  1
