# generated using pymatgen
data_DyTm7(OsI4)2
_symmetry_space_group_name_H-M   'P 1'
_cell_length_a   11.28091940
_cell_length_b   11.29041371
_cell_length_c   6.12471626
_cell_angle_alpha   89.22275121
_cell_angle_beta   89.30402239
_cell_angle_gamma   88.65303871
_symmetry_Int_Tables_number   1
_chemical_formula_structural   DyTm7(OsI4)2
_chemical_formula_sum   'Dy1 Tm7 Os2 I8'
_cell_volume   779.74022533
_cell_formula_units_Z   1
loop_
 _symmetry_equiv_pos_site_id
 _symmetry_equiv_pos_as_xyz
  1  'x, y, z'
loop_
 _atom_site_type_symbol
 _atom_site_label
 _atom_site_symmetry_multiplicity
 _atom_site_fract_x
 _atom_site_fract_y
 _atom_site_fract_z
 _atom_site_occupancy
  Dy  Dy0  1  0.200713  0.915477  0.996296  1
  Tm  Tm1  1  0.804152  0.082544  0.004234  1
  Tm  Tm2  1  0.081545  0.804636  0.504590  1
  Tm  Tm3  1  0.917185  0.195632  0.495594  1
  Tm  Tm4  1  0.805838  0.922399  0.506716  1
  Tm  Tm5  1  0.193086  0.078339  0.493456  1
  Tm  Tm6  1  0.077462  0.193971  0.993340  1
  Tm  Tm7  1  0.921749  0.806383  0.006802  1
  Os  Os8  1  0.000100  0.999810  0.249870  1
  Os  Os9  1  0.999702  0.000251  0.750337  1
  I  I10  1  0.355949  0.848675  0.510697  1
  I  I11  1  0.643695  0.151442  0.488124  1
  I  I12  1  0.150389  0.642322  0.988173  1
  I  I13  1  0.848529  0.356304  0.011784  1
  I  I14  1  0.351915  0.146540  0.995983  1
  I  I15  1  0.648167  0.855225  0.004034  1
  I  I16  1  0.855239  0.648511  0.504034  1
  I  I17  1  0.144586  0.351539  0.495937  1
