# generated using pymatgen
data_DyLu3(Si5Os3)2
_symmetry_space_group_name_H-M   'P 1'
_cell_length_a   8.11018676
_cell_length_b   8.10293917
_cell_length_c   5.75329828
_cell_angle_alpha   70.67755154
_cell_angle_beta   70.63009285
_cell_angle_gamma   94.22171641
_symmetry_Int_Tables_number   1
_chemical_formula_structural   DyLu3(Si5Os3)2
_chemical_formula_sum   'Dy1 Lu3 Si10 Os6'
_cell_volume   329.37682825
_cell_formula_units_Z   1
loop_
 _symmetry_equiv_pos_site_id
 _symmetry_equiv_pos_as_xyz
  1  'x, y, z'
loop_
 _atom_site_type_symbol
 _atom_site_label
 _atom_site_symmetry_multiplicity
 _atom_site_fract_x
 _atom_site_fract_y
 _atom_site_fract_z
 _atom_site_occupancy
  Dy  Dy0  1  0.868080  0.601861  0.752433  1
  Lu  Lu1  1  0.400280  0.129316  0.747390  1
  Lu  Lu2  1  0.130143  0.399735  0.246787  1
  Lu  Lu3  1  0.600913  0.868497  0.254169  1
  Si  Si4  1  0.071000  0.261829  0.832495  1
  Si  Si5  1  0.737244  0.933073  0.667869  1
  Si  Si6  1  0.931062  0.738611  0.166606  1
  Si  Si7  1  0.261532  0.069688  0.332916  1
  Si  Si8  1  0.206408  0.794728  0.750044  1
  Si  Si9  1  0.794092  0.205730  0.250221  1
  Si  Si10  1  0.511227  0.485545  0.750870  1
  Si  Si11  1  0.486697  0.511823  0.249827  1
  Si  Si12  1  0.775336  0.224067  0.749969  1
  Si  Si13  1  0.225119  0.775416  0.249010  1
  Os  Os14  1  0.256010  0.544579  0.630356  1
  Os  Os15  1  0.455808  0.744702  0.868637  1
  Os  Os16  1  0.744391  0.455275  0.369531  1
  Os  Os17  1  0.544089  0.253588  0.131384  1
  Os  Os18  1  0.002966  0.998553  0.749609  1
  Os  Os19  1  0.997605  0.003382  0.249878  1
