# generated using pymatgen
data_Tm3Ni9As5P
_symmetry_space_group_name_H-M   'P 1'
_cell_length_a   3.85376500
_cell_length_b   10.77528500
_cell_length_c   12.57610900
_cell_angle_alpha   90.00000000
_cell_angle_beta   90.00000000
_cell_angle_gamma   90.00000000
_symmetry_Int_Tables_number   1
_chemical_formula_structural   Tm3Ni9As5P
_chemical_formula_sum   'Tm6 Ni18 As10 P2'
_cell_volume   522.22816038
_cell_formula_units_Z   2
loop_
 _symmetry_equiv_pos_site_id
 _symmetry_equiv_pos_as_xyz
  1  'x, y, z'
loop_
 _atom_site_type_symbol
 _atom_site_label
 _atom_site_symmetry_multiplicity
 _atom_site_fract_x
 _atom_site_fract_y
 _atom_site_fract_z
 _atom_site_occupancy
  Tm  Tm0  1  0.000000  0.500000  0.525462  1
  Tm  Tm1  1  0.500000  0.000000  0.474538  1
  Tm  Tm2  1  0.500000  0.821198  0.204088  1
  Tm  Tm3  1  0.500000  0.178802  0.204088  1
  Tm  Tm4  1  0.000000  0.678802  0.795912  1
  Tm  Tm5  1  0.000000  0.321198  0.795912  1
  Ni  Ni6  1  0.500000  0.500000  0.155064  1
  Ni  Ni7  1  0.000000  0.000000  0.844936  1
  Ni  Ni8  1  0.500000  0.500000  0.707663  1
  Ni  Ni9  1  0.000000  0.000000  0.292337  1
  Ni  Ni10  1  0.000000  0.500000  0.974759  1
  Ni  Ni11  1  0.500000  0.000000  0.025241  1
  Ni  Ni12  1  0.500000  0.338220  0.992767  1
  Ni  Ni13  1  0.500000  0.661780  0.992767  1
  Ni  Ni14  1  0.000000  0.161780  0.007233  1
  Ni  Ni15  1  0.000000  0.838220  0.007233  1
  Ni  Ni16  1  0.500000  0.302188  0.427599  1
  Ni  Ni17  1  0.500000  0.697812  0.427599  1
  Ni  Ni18  1  0.000000  0.197812  0.572401  1
  Ni  Ni19  1  0.000000  0.802188  0.572401  1
  Ni  Ni20  1  0.500000  0.878801  0.707189  1
  Ni  Ni21  1  0.500000  0.121199  0.707189  1
  Ni  Ni22  1  0.000000  0.621199  0.292811  1
  Ni  Ni23  1  0.000000  0.378801  0.292811  1
  As  As24  1  0.500000  0.500000  0.346453  1
  As  As25  1  0.000000  0.000000  0.653547  1
  As  As26  1  0.500000  0.316846  0.615838  1
  As  As27  1  0.500000  0.683154  0.615838  1
  As  As28  1  0.000000  0.183154  0.384162  1
  As  As29  1  0.000000  0.816846  0.384162  1
  As  As30  1  0.500000  0.846959  0.891253  1
  As  As31  1  0.500000  0.153041  0.891253  1
  As  As32  1  0.000000  0.653041  0.108747  1
  As  As33  1  0.000000  0.346959  0.108747  1
  P  P34  1  0.500000  0.500000  0.878355  1
  P  P35  1  0.000000  0.000000  0.121645  1
