# generated using pymatgen
data_SmErZr2(NiAs)4
_symmetry_space_group_name_H-M   'P 1'
_cell_length_a   4.01417200
_cell_length_b   4.01417256
_cell_length_c   14.95547400
_cell_angle_alpha   90.00000000
_cell_angle_beta   90.00000000
_cell_angle_gamma   120.00001184
_symmetry_Int_Tables_number   1
_chemical_formula_structural   SmErZr2(NiAs)4
_chemical_formula_sum   'Sm1 Er1 Zr2 Ni4 As4'
_cell_volume   208.70015783
_cell_formula_units_Z   1
loop_
 _symmetry_equiv_pos_site_id
 _symmetry_equiv_pos_as_xyz
  1  'x, y, z'
loop_
 _atom_site_type_symbol
 _atom_site_label
 _atom_site_symmetry_multiplicity
 _atom_site_fract_x
 _atom_site_fract_y
 _atom_site_fract_z
 _atom_site_occupancy
  Sm  Sm0  1  0.000000  0.000000  0.000000  1
  Er  Er1  1  0.000000  0.000000  0.500000  1
  Zr  Zr2  1  0.000000  0.000000  0.252139  1
  Zr  Zr3  1  0.000000  0.000000  0.747861  1
  Ni  Ni4  1  0.333333  0.666667  0.157909  1
  Ni  Ni5  1  0.666667  0.333333  0.842091  1
  Ni  Ni6  1  0.666667  0.333333  0.652899  1
  Ni  Ni7  1  0.333333  0.666667  0.347101  1
  As  As8  1  0.333333  0.666667  0.619912  1
  As  As9  1  0.666667  0.333333  0.380088  1
  As  As10  1  0.666667  0.333333  0.126289  1
  As  As11  1  0.333333  0.666667  0.873711  1
