# generated using pymatgen
data_Ce4TiIr3
_symmetry_space_group_name_H-M   'P 1'
_cell_length_a   10.91828500
_cell_length_b   10.91828500
_cell_length_c   5.98519000
_cell_angle_alpha   90.00000000
_cell_angle_beta   90.00000000
_cell_angle_gamma   90.00000000
_symmetry_Int_Tables_number   1
_chemical_formula_structural   Ce4TiIr3
_chemical_formula_sum   'Ce16 Ti4 Ir12'
_cell_volume   713.48819954
_cell_formula_units_Z   4
loop_
 _symmetry_equiv_pos_site_id
 _symmetry_equiv_pos_as_xyz
  1  'x, y, z'
loop_
 _atom_site_type_symbol
 _atom_site_label
 _atom_site_symmetry_multiplicity
 _atom_site_fract_x
 _atom_site_fract_y
 _atom_site_fract_z
 _atom_site_occupancy
  Ce  Ce0  1  0.279957  0.088510  0.347584  1
  Ce  Ce1  1  0.279957  0.911490  0.847584  1
  Ce  Ce2  1  0.720043  0.088510  0.847584  1
  Ce  Ce3  1  0.720043  0.911490  0.347584  1
  Ce  Ce4  1  0.588510  0.779957  0.847584  1
  Ce  Ce5  1  0.588510  0.220043  0.347584  1
  Ce  Ce6  1  0.411490  0.779957  0.347584  1
  Ce  Ce7  1  0.411490  0.220043  0.847584  1
  Ce  Ce8  1  0.220043  0.411490  0.652416  1
  Ce  Ce9  1  0.220043  0.588510  0.152416  1
  Ce  Ce10  1  0.779957  0.411490  0.152416  1
  Ce  Ce11  1  0.779957  0.588510  0.652416  1
  Ce  Ce12  1  0.911490  0.720043  0.152416  1
  Ce  Ce13  1  0.911490  0.279957  0.652416  1
  Ce  Ce14  1  0.088510  0.720043  0.652416  1
  Ce  Ce15  1  0.088510  0.279957  0.152416  1
  Ti  Ti16  1  0.000000  0.000000  0.500000  1
  Ti  Ti17  1  0.000000  0.000000  0.000000  1
  Ti  Ti18  1  0.500000  0.500000  0.000000  1
  Ti  Ti19  1  0.500000  0.500000  0.500000  1
  Ir  Ir20  1  0.859444  0.140556  0.250000  1
  Ir  Ir21  1  0.859444  0.859444  0.750000  1
  Ir  Ir22  1  0.140556  0.140556  0.750000  1
  Ir  Ir23  1  0.140556  0.859444  0.250000  1
  Ir  Ir24  1  0.640556  0.359444  0.750000  1
  Ir  Ir25  1  0.640556  0.640556  0.250000  1
  Ir  Ir26  1  0.359444  0.359444  0.250000  1
  Ir  Ir27  1  0.359444  0.640556  0.750000  1
  Ir  Ir28  1  0.500000  0.000000  0.084127  1
  Ir  Ir29  1  0.500000  0.000000  0.584127  1
  Ir  Ir30  1  0.000000  0.500000  0.915873  1
  Ir  Ir31  1  0.000000  0.500000  0.415873  1
