# generated using pymatgen
data_DyMgNi12P7
_symmetry_space_group_name_H-M   'P 1'
_cell_length_a   9.04398000
_cell_length_b   9.04398136
_cell_length_c   3.61783700
_cell_angle_alpha   90.00000000
_cell_angle_beta   90.00000000
_cell_angle_gamma   119.99999503
_symmetry_Int_Tables_number   1
_chemical_formula_structural   DyMgNi12P7
_chemical_formula_sum   'Dy1 Mg1 Ni12 P7'
_cell_volume   256.27066818
_cell_formula_units_Z   1
loop_
 _symmetry_equiv_pos_site_id
 _symmetry_equiv_pos_as_xyz
  1  'x, y, z'
loop_
 _atom_site_type_symbol
 _atom_site_label
 _atom_site_symmetry_multiplicity
 _atom_site_fract_x
 _atom_site_fract_y
 _atom_site_fract_z
 _atom_site_occupancy
  Dy  Dy0  1  0.000000  0.000000  0.000000  1
  Mg  Mg1  1  0.333333  0.666667  0.500000  1
  Ni  Ni2  1  0.103221  0.398514  0.000000  1
  Ni  Ni3  1  0.295293  0.896779  0.000000  1
  Ni  Ni4  1  0.601486  0.704707  0.000000  1
  Ni  Ni5  1  0.821009  0.609117  0.000000  1
  Ni  Ni6  1  0.788109  0.178991  0.000000  1
  Ni  Ni7  1  0.390883  0.211891  0.000000  1
  Ni  Ni8  1  0.051366  0.763406  0.500000  1
  Ni  Ni9  1  0.712041  0.948634  0.500000  1
  Ni  Ni10  1  0.236594  0.287959  0.500000  1
  Ni  Ni11  1  0.879056  0.424964  0.500000  1
  Ni  Ni12  1  0.545909  0.120944  0.500000  1
  Ni  Ni13  1  0.575036  0.454091  0.500000  1
  P  P14  1  0.079019  0.628138  0.000000  1
  P  P15  1  0.549119  0.920981  0.000000  1
  P  P16  1  0.371862  0.450881  0.000000  1
  P  P17  1  0.779069  0.738497  0.500000  1
  P  P18  1  0.959428  0.220931  0.500000  1
  P  P19  1  0.261503  0.040572  0.500000  1
  P  P20  1  0.666667  0.333333  0.000000  1
