# generated using pymatgen
data_Hf4Zr6Sn6Bi
_symmetry_space_group_name_H-M   'P 1'
_cell_length_a   5.96012600
_cell_length_b   8.67679182
_cell_length_c   8.67703600
_cell_angle_alpha   119.99950654
_cell_angle_beta   89.99987503
_cell_angle_gamma   90.00042128
_symmetry_Int_Tables_number   1
_chemical_formula_structural   Hf4Zr6Sn6Bi
_chemical_formula_sum   'Hf4 Zr6 Sn6 Bi1'
_cell_volume   388.61432835
_cell_formula_units_Z   1
loop_
 _symmetry_equiv_pos_site_id
 _symmetry_equiv_pos_as_xyz
  1  'x, y, z'
loop_
 _atom_site_type_symbol
 _atom_site_label
 _atom_site_symmetry_multiplicity
 _atom_site_fract_x
 _atom_site_fract_y
 _atom_site_fract_z
 _atom_site_occupancy
  Hf  Hf0  1  0.499997  0.333338  0.666674  1
  Hf  Hf1  1  0.499998  0.666670  0.333335  1
  Hf  Hf2  1  0.000000  0.666674  0.333333  1
  Hf  Hf3  1  0.000000  0.333343  0.666675  1
  Zr  Zr4  1  0.775971  0.270026  0.000007  1
  Zr  Zr5  1  0.775976  0.729992  0.729994  1
  Zr  Zr6  1  0.775970  0.999972  0.269995  1
  Zr  Zr7  1  0.224014  0.729979  0.000007  1
  Zr  Zr8  1  0.224039  0.270021  0.269995  1
  Zr  Zr9  1  0.224034  0.000005  0.729995  1
  Sn  Sn10  1  0.741632  0.612183  0.000012  1
  Sn  Sn11  1  0.741645  0.387842  0.387831  1
  Sn  Sn12  1  0.741655  0.999974  0.612162  1
  Sn  Sn13  1  0.258373  0.387847  0.000011  1
  Sn  Sn14  1  0.258351  0.612189  0.612176  1
  Sn  Sn15  1  0.258347  0.999975  0.387816  1
  Bi  Bi16  1  0.499994  0.999971  0.999983  1
