# generated using pymatgen
data_Ac7(LaIn2)3
_symmetry_space_group_name_H-M   'P 1'
_cell_length_a   6.48357710
_cell_length_b   9.95374387
_cell_length_c   9.94305196
_cell_angle_alpha   84.02532688
_cell_angle_beta   70.97166701
_cell_angle_gamma   70.99288623
_symmetry_Int_Tables_number   1
_chemical_formula_structural   Ac7(LaIn2)3
_chemical_formula_sum   'Ac7 La3 In6'
_cell_volume   573.54461750
_cell_formula_units_Z   1
loop_
 _symmetry_equiv_pos_site_id
 _symmetry_equiv_pos_as_xyz
  1  'x, y, z'
loop_
 _atom_site_type_symbol
 _atom_site_label
 _atom_site_symmetry_multiplicity
 _atom_site_fract_x
 _atom_site_fract_y
 _atom_site_fract_z
 _atom_site_occupancy
  Ac  Ac0  1  0.721222  0.866241  0.691315  1
  Ac  Ac1  1  0.281613  0.132842  0.303934  1
  Ac  Ac2  1  0.779903  0.304700  0.135494  1
  Ac  Ac3  1  0.218893  0.695026  0.867188  1
  Ac  Ac4  1  0.582703  0.697380  0.137214  1
  Ac  Ac5  1  0.415803  0.302589  0.865804  1
  Ac  Ac6  1  0.085019  0.134213  0.695751  1
  La  La7  1  0.915150  0.867846  0.301853  1
  La  La8  1  0.749879  0.500810  0.499339  1
  La  La9  1  0.249972  0.500810  0.499339  1
  In  In10  1  0.156096  0.503443  0.184366  1
  In  In11  1  0.841436  0.500490  0.816637  1
  In  In12  1  0.342398  0.817013  0.498191  1
  In  In13  1  0.661359  0.180137  0.497147  1
  In  In14  1  0.245944  0.998230  0.003214  1
  In  In15  1  0.752612  0.998230  0.003214  1
