# generated using pymatgen
data_Dy7Zr3(ScGa10)2
_symmetry_space_group_name_H-M   'P 1'
_cell_length_a   5.98164788
_cell_length_b   9.39517953
_cell_length_c   11.28275186
_cell_angle_alpha   90.21732209
_cell_angle_beta   90.15538441
_cell_angle_gamma   90.14083896
_symmetry_Int_Tables_number   1
_chemical_formula_structural   Dy7Zr3(ScGa10)2
_chemical_formula_sum   'Dy7 Zr3 Sc2 Ga20'
_cell_volume   634.06666324
_cell_formula_units_Z   1
loop_
 _symmetry_equiv_pos_site_id
 _symmetry_equiv_pos_as_xyz
  1  'x, y, z'
loop_
 _atom_site_type_symbol
 _atom_site_label
 _atom_site_symmetry_multiplicity
 _atom_site_fract_x
 _atom_site_fract_y
 _atom_site_fract_z
 _atom_site_occupancy
  Dy  Dy0  1  0.614785  0.992716  0.852507  1
  Dy  Dy1  1  0.111386  0.009554  0.646384  1
  Dy  Dy2  1  0.388034  0.490645  0.147959  1
  Dy  Dy3  1  0.111966  0.490412  0.644818  1
  Dy  Dy4  1  0.388242  0.009680  0.149878  1
  Dy  Dy5  1  0.887877  0.989286  0.350915  1
  Dy  Dy6  1  0.614803  0.508738  0.853166  1
  Zr  Zr7  1  0.857989  0.751080  0.075060  1
  Zr  Zr8  1  0.640402  0.749457  0.574618  1
  Zr  Zr9  1  0.144424  0.250402  0.924440  1
  Sc  Sc10  1  0.348056  0.247562  0.423816  1
  Sc  Sc11  1  0.888390  0.510781  0.352339  1
  Ga  Ga12  1  0.876033  0.053046  0.088879  1
  Ga  Ga13  1  0.623835  0.448502  0.587622  1
  Ga  Ga14  1  0.123747  0.553222  0.911490  1
  Ga  Ga15  1  0.376782  0.943196  0.411140  1
  Ga  Ga16  1  0.124945  0.947102  0.911576  1
  Ga  Ga17  1  0.371778  0.550110  0.409707  1
  Ga  Ga18  1  0.876485  0.450362  0.093880  1
  Ga  Ga19  1  0.625056  0.052957  0.588383  1
  Ga  Ga20  1  0.162136  0.745687  0.254400  1
  Ga  Ga21  1  0.335862  0.750005  0.752028  1
  Ga  Ga22  1  0.837209  0.250903  0.746486  1
  Ga  Ga23  1  0.668590  0.255516  0.253455  1
  Ga  Ga24  1  0.388433  0.750621  0.003152  1
  Ga  Ga25  1  0.109221  0.748103  0.501478  1
  Ga  Ga26  1  0.614820  0.251053  0.998833  1
  Ga  Ga27  1  0.882803  0.254220  0.491717  1
  Ga  Ga28  1  0.607909  0.743364  0.293955  1
  Ga  Ga29  1  0.896111  0.750008  0.791782  1
  Ga  Ga30  1  0.399036  0.250685  0.708894  1
  Ga  Ga31  1  0.102855  0.251025  0.205244  1
