# generated using pymatgen
data_LiCaAsPd3
_symmetry_space_group_name_H-M   'P 1'
_cell_length_a   5.12032337
_cell_length_b   5.12032265
_cell_length_c   5.12032287
_cell_angle_alpha   66.08265009
_cell_angle_beta   66.08265261
_cell_angle_gamma   66.08264835
_symmetry_Int_Tables_number   1
_chemical_formula_structural   LiCaAsPd3
_chemical_formula_sum   'Li1 Ca1 As1 Pd3'
_cell_volume   107.40962012
_cell_formula_units_Z   1
loop_
 _symmetry_equiv_pos_site_id
 _symmetry_equiv_pos_as_xyz
  1  'x, y, z'
loop_
 _atom_site_type_symbol
 _atom_site_label
 _atom_site_symmetry_multiplicity
 _atom_site_fract_x
 _atom_site_fract_y
 _atom_site_fract_z
 _atom_site_occupancy
  Li  Li0  1  0.864816  0.864816  0.864816  1
  Ca  Ca1  1  0.122259  0.122259  0.122259  1
  As  As2  1  0.503281  0.503281  0.503281  1
  Pd  Pd3  1  0.504029  0.504029  0.001585  1
  Pd  Pd4  1  0.001585  0.504029  0.504029  1
  Pd  Pd5  1  0.504029  0.001585  0.504029  1
