# generated using pymatgen
data_Hf4TiSi3N
_symmetry_space_group_name_H-M   'P 1'
_cell_length_a   7.75944100
_cell_length_b   7.75944073
_cell_length_c   5.44918400
_cell_angle_alpha   90.00000000
_cell_angle_beta   90.00000000
_cell_angle_gamma   119.99999690
_symmetry_Int_Tables_number   1
_chemical_formula_structural   Hf4TiSi3N
_chemical_formula_sum   'Hf8 Ti2 Si6 N2'
_cell_volume   284.13384824
_cell_formula_units_Z   2
loop_
 _symmetry_equiv_pos_site_id
 _symmetry_equiv_pos_as_xyz
  1  'x, y, z'
loop_
 _atom_site_type_symbol
 _atom_site_label
 _atom_site_symmetry_multiplicity
 _atom_site_fract_x
 _atom_site_fract_y
 _atom_site_fract_z
 _atom_site_occupancy
  Hf  Hf0  1  0.235795  0.000000  0.250005  1
  Hf  Hf1  1  0.764205  0.000000  0.749995  1
  Hf  Hf2  1  0.000000  0.235795  0.250005  1
  Hf  Hf3  1  0.000000  0.764205  0.749995  1
  Hf  Hf4  1  0.764205  0.764205  0.250005  1
  Hf  Hf5  1  0.235795  0.235795  0.749995  1
  Hf  Hf6  1  0.666667  0.333333  0.500000  1
  Hf  Hf7  1  0.333333  0.666667  0.500000  1
  Ti  Ti8  1  0.333333  0.666667  0.000000  1
  Ti  Ti9  1  0.666667  0.333333  0.000000  1
  Si  Si10  1  0.592212  0.000000  0.235488  1
  Si  Si11  1  0.407788  0.000000  0.764512  1
  Si  Si12  1  0.000000  0.592212  0.235488  1
  Si  Si13  1  0.000000  0.407788  0.764512  1
  Si  Si14  1  0.407788  0.407788  0.235488  1
  Si  Si15  1  0.592212  0.592212  0.764512  1
  N  N16  1  0.000000  0.000000  0.000000  1
  N  N17  1  0.000000  0.000000  0.500000  1
