# generated using pymatgen
data_Dy3Lu17(SiSb2)4
_symmetry_space_group_name_H-M   'P 1'
_cell_length_a   7.82391292
_cell_length_b   8.89220900
_cell_length_c   11.71279837
_cell_angle_alpha   90.00000000
_cell_angle_beta   90.05545425
_cell_angle_gamma   90.00000000
_symmetry_Int_Tables_number   1
_chemical_formula_structural   Dy3Lu17(SiSb2)4
_chemical_formula_sum   'Dy3 Lu17 Si4 Sb8'
_cell_volume   814.88089047
_cell_formula_units_Z   1
loop_
 _symmetry_equiv_pos_site_id
 _symmetry_equiv_pos_as_xyz
  1  'x, y, z'
loop_
 _atom_site_type_symbol
 _atom_site_label
 _atom_site_symmetry_multiplicity
 _atom_site_fract_x
 _atom_site_fract_y
 _atom_site_fract_z
 _atom_site_occupancy
  Dy  Dy0  1  0.138747  0.250000  0.206459  1
  Dy  Dy1  1  0.361521  0.250000  0.706526  1
  Dy  Dy2  1  0.638955  0.750000  0.293494  1
  Lu  Lu3  1  0.335370  0.750000  0.714628  1
  Lu  Lu4  1  0.664301  0.250000  0.285584  1
  Lu  Lu5  1  0.835513  0.250000  0.785460  1
  Lu  Lu6  1  0.163886  0.750000  0.214042  1
  Lu  Lu7  1  0.038811  0.750000  0.502233  1
  Lu  Lu8  1  0.960498  0.250000  0.498785  1
  Lu  Lu9  1  0.539560  0.250000  0.998386  1
  Lu  Lu10  1  0.460640  0.750000  0.001444  1
  Lu  Lu11  1  0.861108  0.750000  0.793523  1
  Lu  Lu12  1  0.683812  0.551957  0.565851  1
  Lu  Lu13  1  0.316410  0.448698  0.434553  1
  Lu  Lu14  1  0.183617  0.448585  0.934460  1
  Lu  Lu15  1  0.316410  0.051302  0.434553  1
  Lu  Lu16  1  0.816439  0.551546  0.064905  1
  Lu  Lu17  1  0.683812  0.948043  0.565851  1
  Lu  Lu18  1  0.816439  0.948454  0.064905  1
  Lu  Lu19  1  0.183617  0.051415  0.934460  1
  Si  Si20  1  0.083796  0.750000  0.979922  1
  Si  Si21  1  0.914442  0.250000  0.018038  1
  Si  Si22  1  0.585503  0.250000  0.518155  1
  Si  Si23  1  0.414547  0.750000  0.482090  1
  Sb  Sb24  1  0.570340  0.511886  0.827570  1
  Sb  Sb25  1  0.431592  0.489476  0.172404  1
  Sb  Sb26  1  0.067381  0.490351  0.673310  1
  Sb  Sb27  1  0.431592  0.010524  0.172404  1
  Sb  Sb28  1  0.931810  0.510877  0.327562  1
  Sb  Sb29  1  0.570340  0.988114  0.827570  1
  Sb  Sb30  1  0.931810  0.989123  0.327562  1
  Sb  Sb31  1  0.067381  0.009649  0.673310  1
