# generated using pymatgen
data_Ho17Sc3Sn16
_symmetry_space_group_name_H-M   'P 1'
_cell_length_a   7.91332459
_cell_length_b   8.07749350
_cell_length_c   15.31032500
_cell_angle_alpha   90.00000000
_cell_angle_beta   90.00000000
_cell_angle_gamma   89.90521099
_symmetry_Int_Tables_number   1
_chemical_formula_structural   Ho17Sc3Sn16
_chemical_formula_sum   'Ho17 Sc3 Sn16'
_cell_volume   978.63200061
_cell_formula_units_Z   1
loop_
 _symmetry_equiv_pos_site_id
 _symmetry_equiv_pos_as_xyz
  1  'x, y, z'
loop_
 _atom_site_type_symbol
 _atom_site_label
 _atom_site_symmetry_multiplicity
 _atom_site_fract_x
 _atom_site_fract_y
 _atom_site_fract_z
 _atom_site_occupancy
  Ho  Ho0  1  0.019909  0.180796  0.402974  1
  Ho  Ho1  1  0.365456  0.838693  0.123382  1
  Ho  Ho2  1  0.135333  0.337848  0.621794  1
  Ho  Ho3  1  0.480393  0.680741  0.903892  1
  Ho  Ho4  1  0.865236  0.661535  0.124447  1
  Ho  Ho5  1  0.135333  0.337848  0.878206  1
  Ho  Ho6  1  0.480393  0.680741  0.596108  1
  Ho  Ho7  1  0.633949  0.161424  0.622000  1
  Ho  Ho8  1  0.804317  0.497451  0.750000  1
  Ho  Ho9  1  0.865236  0.661535  0.375553  1
  Ho  Ho10  1  0.019909  0.180796  0.097026  1
  Ho  Ho11  1  0.980947  0.819980  0.904053  1
  Ho  Ho12  1  0.633949  0.161424  0.878000  1
  Ho  Ho13  1  0.520151  0.319571  0.098150  1
  Ho  Ho14  1  0.365456  0.838693  0.376618  1
  Ho  Ho15  1  0.980947  0.819980  0.595947  1
  Ho  Ho16  1  0.520151  0.319571  0.401850  1
  Sc  Sc17  1  0.197093  0.502584  0.250000  1
  Sc  Sc18  1  0.696907  0.997760  0.250000  1
  Sc  Sc19  1  0.302628  0.003959  0.750000  1
  Sn  Sn20  1  0.794021  0.462707  0.540669  1
  Sn  Sn21  1  0.706460  0.964887  0.454998  1
  Sn  Sn22  1  0.667711  0.854155  0.750000  1
  Sn  Sn23  1  0.206304  0.535453  0.455057  1
  Sn  Sn24  1  0.293926  0.034467  0.956061  1
  Sn  Sn25  1  0.828767  0.346996  0.250000  1
  Sn  Sn26  1  0.794021  0.462707  0.959331  1
  Sn  Sn27  1  0.557744  0.616953  0.250000  1
  Sn  Sn28  1  0.206304  0.535453  0.044943  1
  Sn  Sn29  1  0.436085  0.378787  0.750000  1
  Sn  Sn30  1  0.175690  0.654196  0.750000  1
  Sn  Sn31  1  0.942552  0.115349  0.750000  1
  Sn  Sn32  1  0.293926  0.034467  0.543939  1
  Sn  Sn33  1  0.706460  0.964887  0.045002  1
  Sn  Sn34  1  0.327943  0.151777  0.250000  1
  Sn  Sn35  1  0.058393  0.883833  0.250000  1
