# generated using pymatgen
data_Sr2CuReN4
_symmetry_space_group_name_H-M   'P 1'
_cell_length_a   5.86507700
_cell_length_b   6.25153416
_cell_length_c   6.82861450
_cell_angle_alpha   73.65181727
_cell_angle_beta   90.00000000
_cell_angle_gamma   90.00000000
_symmetry_Int_Tables_number   1
_chemical_formula_structural   Sr2CuReN4
_chemical_formula_sum   'Sr4 Cu2 Re2 N8'
_cell_volume   240.25315434
_cell_formula_units_Z   2
loop_
 _symmetry_equiv_pos_site_id
 _symmetry_equiv_pos_as_xyz
  1  'x, y, z'
loop_
 _atom_site_type_symbol
 _atom_site_label
 _atom_site_symmetry_multiplicity
 _atom_site_fract_x
 _atom_site_fract_y
 _atom_site_fract_z
 _atom_site_occupancy
  Sr  Sr0  1  0.250000  0.256093  0.061280  1
  Sr  Sr1  1  0.750000  0.743907  0.938720  1
  Sr  Sr2  1  0.750000  0.788442  0.430106  1
  Sr  Sr3  1  0.250000  0.211558  0.569894  1
  Cu  Cu4  1  0.750000  0.301211  0.316247  1
  Cu  Cu5  1  0.250000  0.698789  0.683753  1
  Re  Re6  1  0.250000  0.712679  0.201527  1
  Re  Re7  1  0.750000  0.287321  0.798473  1
  N  N8  1  0.502864  0.472800  0.750249  1
  N  N9  1  0.002864  0.527200  0.249751  1
  N  N10  1  0.497136  0.527200  0.249751  1
  N  N11  1  0.997136  0.472800  0.750249  1
  N  N12  1  0.750000  0.106529  0.620226  1
  N  N13  1  0.250000  0.893471  0.379774  1
  N  N14  1  0.750000  0.119871  0.070269  1
  N  N15  1  0.250000  0.880129  0.929731  1
