# generated using pymatgen
data_Pr10InGa4Bi
_symmetry_space_group_name_H-M   'P 1'
_cell_length_a   8.19530200
_cell_length_b   8.19530200
_cell_length_c   14.47474400
_cell_angle_alpha   90.00000000
_cell_angle_beta   90.00000000
_cell_angle_gamma   90.00000000
_symmetry_Int_Tables_number   1
_chemical_formula_structural   Pr10InGa4Bi
_chemical_formula_sum   'Pr20 In2 Ga8 Bi2'
_cell_volume   972.16686754
_cell_formula_units_Z   2
loop_
 _symmetry_equiv_pos_site_id
 _symmetry_equiv_pos_as_xyz
  1  'x, y, z'
loop_
 _atom_site_type_symbol
 _atom_site_label
 _atom_site_symmetry_multiplicity
 _atom_site_fract_x
 _atom_site_fract_y
 _atom_site_fract_z
 _atom_site_occupancy
  Pr  Pr0  1  0.831168  0.833204  0.607141  1
  Pr  Pr1  1  0.167622  0.833536  0.107555  1
  Pr  Pr2  1  0.166796  0.831168  0.392859  1
  Pr  Pr3  1  0.000000  0.500000  0.772796  1
  Pr  Pr4  1  0.833204  0.168832  0.392859  1
  Pr  Pr5  1  0.668832  0.666796  0.392859  1
  Pr  Pr6  1  0.666796  0.331168  0.607141  1
  Pr  Pr7  1  0.333204  0.668832  0.607141  1
  Pr  Pr8  1  0.000000  0.500000  0.224491  1
  Pr  Pr9  1  0.666464  0.667622  0.107555  1
  Pr  Pr10  1  0.667622  0.333536  0.892445  1
  Pr  Pr11  1  0.833536  0.832378  0.892445  1
  Pr  Pr12  1  0.331168  0.333204  0.392859  1
  Pr  Pr13  1  0.168832  0.166796  0.607141  1
  Pr  Pr14  1  0.832378  0.166464  0.107555  1
  Pr  Pr15  1  0.332378  0.666464  0.892445  1
  Pr  Pr16  1  0.333536  0.332378  0.107555  1
  Pr  Pr17  1  0.500000  0.000000  0.227204  1
  Pr  Pr18  1  0.166464  0.167622  0.892445  1
  Pr  Pr19  1  0.500000  0.000000  0.775509  1
  In  In20  1  0.500000  0.000000  0.000846  1
  In  In21  1  0.000000  0.500000  0.999154  1
  Ga  Ga22  1  0.624964  0.374786  0.256044  1
  Ga  Ga23  1  0.124964  0.874786  0.743956  1
  Ga  Ga24  1  0.374786  0.375036  0.743956  1
  Ga  Ga25  1  0.375036  0.625214  0.256044  1
  Ga  Ga26  1  0.874786  0.875036  0.256044  1
  Ga  Ga27  1  0.625214  0.624964  0.743956  1
  Ga  Ga28  1  0.875036  0.125214  0.743956  1
  Ga  Ga29  1  0.125214  0.124964  0.256044  1
  Bi  Bi30  1  0.000000  0.500000  0.501881  1
  Bi  Bi31  1  0.500000  0.000000  0.498119  1
