# generated using pymatgen
data_La12Tc3Ni
_symmetry_space_group_name_H-M   'P 1'
_cell_length_a   6.65818872
_cell_length_b   7.40727618
_cell_length_c   10.10008000
_cell_angle_alpha   90.00000000
_cell_angle_beta   90.00000000
_cell_angle_gamma   90.40668298
_symmetry_Int_Tables_number   1
_chemical_formula_structural   La12Tc3Ni
_chemical_formula_sum   'La12 Tc3 Ni1'
_cell_volume   498.11372849
_cell_formula_units_Z   1
loop_
 _symmetry_equiv_pos_site_id
 _symmetry_equiv_pos_as_xyz
  1  'x, y, z'
loop_
 _atom_site_type_symbol
 _atom_site_label
 _atom_site_symmetry_multiplicity
 _atom_site_fract_x
 _atom_site_fract_y
 _atom_site_fract_z
 _atom_site_occupancy
  La  La0  1  0.319098  0.664010  0.071889  1
  La  La1  1  0.171239  0.168575  0.432550  1
  La  La2  1  0.668951  0.334060  0.567924  1
  La  La3  1  0.832406  0.835684  0.930675  1
  La  La4  1  0.668951  0.334060  0.932076  1
  La  La5  1  0.832406  0.835684  0.569325  1
  La  La6  1  0.319098  0.664010  0.428111  1
  La  La7  1  0.171239  0.168575  0.067450  1
  La  La8  1  0.853327  0.556965  0.250000  1
  La  La9  1  0.637468  0.058101  0.250000  1
  La  La10  1  0.142904  0.442564  0.750000  1
  La  La11  1  0.352715  0.943591  0.750000  1
  Tc  Tc12  1  0.038903  0.876117  0.250000  1
  Tc  Tc13  1  0.456604  0.384676  0.250000  1
  Tc  Tc14  1  0.964391  0.116447  0.750000  1
  Ni  Ni15  1  0.570305  0.616883  0.750000  1
