# generated using pymatgen
data_Ho5Er5Si16Pt
_symmetry_space_group_name_H-M   'P 1'
_cell_length_a   11.07653610
_cell_length_b   11.08783637
_cell_length_c   11.07588056
_cell_angle_alpha   144.75731301
_cell_angle_beta   136.59941872
_cell_angle_gamma   57.06305904
_symmetry_Int_Tables_number   1
_chemical_formula_structural   Ho5Er5Si16Pt
_chemical_formula_sum   'Ho5 Er5 Si16 Pt1'
_cell_volume   535.07609453
_cell_formula_units_Z   1
loop_
 _symmetry_equiv_pos_site_id
 _symmetry_equiv_pos_as_xyz
  1  'x, y, z'
loop_
 _atom_site_type_symbol
 _atom_site_label
 _atom_site_symmetry_multiplicity
 _atom_site_fract_x
 _atom_site_fract_y
 _atom_site_fract_z
 _atom_site_occupancy
  Ho  Ho0  1  0.948880  0.963264  0.511722  1
  Ho  Ho1  1  0.849421  0.372008  0.019705  1
  Ho  Ho2  1  0.548487  0.563940  0.512263  1
  Ho  Ho3  1  0.248742  0.762676  0.010372  1
  Ho  Ho4  1  0.752289  0.762647  0.513933  1
  Er  Er5  1  0.051647  0.563967  0.015331  1
  Er  Er6  1  0.352187  0.372067  0.522587  1
  Er  Er7  1  0.151310  0.165859  0.520168  1
  Er  Er8  1  0.451734  0.963345  0.014513  1
  Er  Er9  1  0.645658  0.165890  0.014562  1
  Si  Si10  1  0.118378  0.077404  0.959940  1
  Si  Si11  1  0.797599  0.184851  0.386860  1
  Si  Si12  1  0.300169  0.899251  0.599062  1
  Si  Si13  1  0.399738  0.500423  0.100413  1
  Si  Si14  1  0.886454  0.847744  0.961675  1
  Si  Si15  1  0.104536  0.708982  0.605122  1
  Si  Si16  1  0.200575  0.585864  0.385513  1
  Si  Si17  1  0.697077  0.293108  0.595538  1
  Si  Si18  1  0.000451  0.432824  0.432737  1
  Si  Si19  1  0.713169  0.665819  0.952347  1
  Si  Si20  1  0.600152  0.703140  0.102302  1
  Si  Si21  1  0.001424  0.087604  0.086469  1
  Si  Si22  1  0.500637  0.391966  0.890807  1
  Si  Si23  1  0.285975  0.241372  0.955252  1
  Si  Si24  1  0.582304  0.041577  0.458780  1
  Si  Si25  1  0.414372  0.870034  0.455567  1
  Pt  Pt26  1  0.896634  0.501297  0.605375  1
