# generated using pymatgen
data_Hf16Fe3NiOs4
_symmetry_space_group_name_H-M   'P 1'
_cell_length_a   8.59016858
_cell_length_b   8.58970352
_cell_length_c   8.59210429
_cell_angle_alpha   60.08340966
_cell_angle_beta   60.08698317
_cell_angle_gamma   60.08021314
_symmetry_Int_Tables_number   1
_chemical_formula_structural   Hf16Fe3NiOs4
_chemical_formula_sum   'Hf16 Fe3 Ni1 Os4'
_cell_volume   449.14412385
_cell_formula_units_Z   1
loop_
 _symmetry_equiv_pos_site_id
 _symmetry_equiv_pos_as_xyz
  1  'x, y, z'
loop_
 _atom_site_type_symbol
 _atom_site_label
 _atom_site_symmetry_multiplicity
 _atom_site_fract_x
 _atom_site_fract_y
 _atom_site_fract_z
 _atom_site_occupancy
  Hf  Hf0  1  0.191704  0.603622  0.603704  1
  Hf  Hf1  1  0.603686  0.191724  0.603653  1
  Hf  Hf2  1  0.603756  0.603651  0.191586  1
  Hf  Hf3  1  0.600564  0.600442  0.600516  1
  Hf  Hf4  1  0.813826  0.813785  0.185995  1
  Hf  Hf5  1  0.185898  0.185900  0.815288  1
  Hf  Hf6  1  0.813882  0.185944  0.813814  1
  Hf  Hf7  1  0.185929  0.815268  0.185932  1
  Hf  Hf8  1  0.185911  0.813888  0.813865  1
  Hf  Hf9  1  0.815262  0.185960  0.185957  1
  Hf  Hf10  1  0.455930  0.455937  0.039455  1
  Hf  Hf11  1  0.049207  0.049386  0.452152  1
  Hf  Hf12  1  0.455953  0.039455  0.456004  1
  Hf  Hf13  1  0.049294  0.452073  0.049387  1
  Hf  Hf14  1  0.039371  0.455944  0.455989  1
  Hf  Hf15  1  0.452073  0.049373  0.049293  1
  Fe  Fe16  1  0.829895  0.389359  0.389267  1
  Fe  Fe17  1  0.389381  0.829876  0.389267  1
  Fe  Fe18  1  0.389345  0.389311  0.829869  1
  Ni  Ni19  1  0.389414  0.389374  0.389266  1
  Os  Os20  1  0.500863  0.833031  0.833039  1
  Os  Os21  1  0.833030  0.500860  0.833041  1
  Os  Os22  1  0.833035  0.833037  0.500861  1
  Os  Os23  1  0.832791  0.832797  0.832800  1
