# generated using pymatgen
data_Tb3Dy(Ga3Ir)6
_symmetry_space_group_name_H-M   'P 1'
_cell_length_a   7.60154409
_cell_length_b   7.60209188
_cell_length_c   9.51349600
_cell_angle_alpha   90.00000000
_cell_angle_beta   90.00000000
_cell_angle_gamma   119.94637709
_symmetry_Int_Tables_number   1
_chemical_formula_structural   Tb3Dy(Ga3Ir)6
_chemical_formula_sum   'Tb3 Dy1 Ga18 Ir6'
_cell_volume   476.36529878
_cell_formula_units_Z   1
loop_
 _symmetry_equiv_pos_site_id
 _symmetry_equiv_pos_as_xyz
  1  'x, y, z'
loop_
 _atom_site_type_symbol
 _atom_site_label
 _atom_site_symmetry_multiplicity
 _atom_site_fract_x
 _atom_site_fract_y
 _atom_site_fract_z
 _atom_site_occupancy
  Tb  Tb0  1  0.997202  0.668072  0.250000  1
  Tb  Tb1  1  0.002879  0.331997  0.750000  1
  Tb  Tb2  1  0.668080  0.997229  0.250000  1
  Dy  Dy3  1  0.332000  0.002849  0.750000  1
  Ga  Ga4  1  0.126738  0.126733  0.250000  1
  Ga  Ga5  1  0.873356  0.873244  0.750000  1
  Ga  Ga6  1  0.999501  0.333941  0.079806  1
  Ga  Ga7  1  0.000660  0.666213  0.920164  1
  Ga  Ga8  1  0.000660  0.666213  0.579836  1
  Ga  Ga9  1  0.333936  0.999476  0.420332  1
  Ga  Ga10  1  0.999501  0.333941  0.420194  1
  Ga  Ga11  1  0.665780  0.000455  0.579834  1
  Ga  Ga12  1  0.665780  0.000455  0.920166  1
  Ga  Ga13  1  0.333936  0.999476  0.079668  1
  Ga  Ga14  1  0.332852  0.332667  0.563557  1
  Ga  Ga15  1  0.667179  0.667185  0.436693  1
  Ga  Ga16  1  0.667179  0.667185  0.063307  1
  Ga  Ga17  1  0.332852  0.332667  0.936443  1
  Ga  Ga18  1  0.339021  0.546280  0.250000  1
  Ga  Ga19  1  0.660875  0.453700  0.750000  1
  Ga  Ga20  1  0.546247  0.338997  0.250000  1
  Ga  Ga21  1  0.453855  0.661130  0.750000  1
  Ir  Ir22  1  0.671322  0.328454  0.999988  1
  Ir  Ir23  1  0.328490  0.671416  0.999986  1
  Ir  Ir24  1  0.328490  0.671416  0.500014  1
  Ir  Ir25  1  0.671322  0.328454  0.500012  1
  Ir  Ir26  1  0.000153  0.000076  0.999927  1
  Ir  Ir27  1  0.000153  0.000076  0.500073  1
