# generated using pymatgen
data_Er3Lu17(Zn3Fe)2
_symmetry_space_group_name_H-M   'P 1'
_cell_length_a   9.15186200
_cell_length_b   9.15186238
_cell_length_c   9.33027700
_cell_angle_alpha   90.00000000
_cell_angle_beta   90.00000000
_cell_angle_gamma   119.99999140
_symmetry_Int_Tables_number   1
_chemical_formula_structural   Er3Lu17(Zn3Fe)2
_chemical_formula_sum   'Er3 Lu17 Zn6 Fe2'
_cell_volume   676.77475514
_cell_formula_units_Z   1
loop_
 _symmetry_equiv_pos_site_id
 _symmetry_equiv_pos_as_xyz
  1  'x, y, z'
loop_
 _atom_site_type_symbol
 _atom_site_label
 _atom_site_symmetry_multiplicity
 _atom_site_fract_x
 _atom_site_fract_y
 _atom_site_fract_z
 _atom_site_occupancy
  Er  Er0  1  0.459491  0.540416  0.750000  1
  Er  Er1  1  0.459490  0.919078  0.750000  1
  Er  Er2  1  0.080913  0.540460  0.750000  1
  Lu  Lu3  1  0.000000  0.000000  0.498697  1
  Lu  Lu4  1  0.000000  0.000000  0.001303  1
  Lu  Lu5  1  0.541340  0.458744  0.250000  1
  Lu  Lu6  1  0.541340  0.082596  0.250000  1
  Lu  Lu7  1  0.917406  0.458700  0.250000  1
  Lu  Lu8  1  0.209849  0.790158  0.437472  1
  Lu  Lu9  1  0.209849  0.419693  0.437472  1
  Lu  Lu10  1  0.580296  0.790149  0.437445  1
  Lu  Lu11  1  0.789814  0.210182  0.560141  1
  Lu  Lu12  1  0.789817  0.579635  0.560139  1
  Lu  Lu13  1  0.420384  0.210192  0.560182  1
  Lu  Lu14  1  0.789814  0.210182  0.939859  1
  Lu  Lu15  1  0.789817  0.579635  0.939861  1
  Lu  Lu16  1  0.420384  0.210192  0.939818  1
  Lu  Lu17  1  0.209849  0.790158  0.062528  1
  Lu  Lu18  1  0.209849  0.419693  0.062528  1
  Lu  Lu19  1  0.580296  0.790149  0.062555  1
  Zn  Zn20  1  0.885289  0.114703  0.250000  1
  Zn  Zn21  1  0.885284  0.770582  0.250000  1
  Zn  Zn22  1  0.229346  0.114674  0.250000  1
  Zn  Zn23  1  0.111747  0.888271  0.750000  1
  Zn  Zn24  1  0.111747  0.223474  0.750000  1
  Zn  Zn25  1  0.776588  0.888294  0.750000  1
  Fe  Fe26  1  0.333313  0.666653  0.250000  1
  Fe  Fe27  1  0.666685  0.333346  0.750000  1
