# generated using pymatgen
data_Ba2GeP3Ir4
_symmetry_space_group_name_H-M   'P 1'
_cell_length_a   7.02907833
_cell_length_b   7.02907794
_cell_length_c   5.69787600
_cell_angle_alpha   90.00000000
_cell_angle_beta   90.00000000
_cell_angle_gamma   132.21266240
_symmetry_Int_Tables_number   1
_chemical_formula_structural   Ba2GeP3Ir4
_chemical_formula_sum   'Ba2 Ge1 P3 Ir4'
_cell_volume   208.50974430
_cell_formula_units_Z   1
loop_
 _symmetry_equiv_pos_site_id
 _symmetry_equiv_pos_as_xyz
  1  'x, y, z'
loop_
 _atom_site_type_symbol
 _atom_site_label
 _atom_site_symmetry_multiplicity
 _atom_site_fract_x
 _atom_site_fract_y
 _atom_site_fract_z
 _atom_site_occupancy
  Ba  Ba0  1  0.498304  0.501696  0.500000  1
  Ba  Ba1  1  0.991002  0.008998  0.000000  1
  Ge  Ge2  1  0.134588  0.865412  0.500000  1
  P  P3  1  0.655304  0.344696  0.000000  1
  P  P4  1  0.350694  0.649306  0.000000  1
  P  P5  1  0.846394  0.153606  0.500000  1
  Ir  Ir6  1  0.502093  0.997286  0.248578  1
  Ir  Ir7  1  0.002714  0.497907  0.751422  1
  Ir  Ir8  1  0.002714  0.497907  0.248578  1
  Ir  Ir9  1  0.502093  0.997286  0.751422  1
