# generated using pymatgen
data_OsCl4F
_symmetry_space_group_name_H-M   'P 1'
_cell_length_a   8.39028774
_cell_length_b   9.44272531
_cell_length_c   10.16500734
_cell_angle_alpha   77.16834174
_cell_angle_beta   67.49059348
_cell_angle_gamma   69.27955340
_symmetry_Int_Tables_number   1
_chemical_formula_structural   OsCl4F
_chemical_formula_sum   'Os4 Cl16 F4'
_cell_volume   692.36131901
_cell_formula_units_Z   4
loop_
 _symmetry_equiv_pos_site_id
 _symmetry_equiv_pos_as_xyz
  1  'x, y, z'
loop_
 _atom_site_type_symbol
 _atom_site_label
 _atom_site_symmetry_multiplicity
 _atom_site_fract_x
 _atom_site_fract_y
 _atom_site_fract_z
 _atom_site_occupancy
  Os  Os0  1  0.988794  0.198863  0.732261  1
  Os  Os1  1  0.011206  0.801137  0.267739  1
  Os  Os2  1  0.763108  0.260317  0.168344  1
  Os  Os3  1  0.236892  0.739683  0.831656  1
  Cl  Cl4  1  0.851769  0.444218  0.689016  1
  Cl  Cl5  1  0.148231  0.555782  0.310984  1
  Cl  Cl6  1  0.638974  0.502399  0.103381  1
  Cl  Cl7  1  0.361026  0.497601  0.896619  1
  Cl  Cl8  1  0.648643  0.278880  0.402439  1
  Cl  Cl9  1  0.351357  0.721120  0.597561  1
  Cl  Cl10  1  0.115810  0.149121  0.505240  1
  Cl  Cl11  1  0.884190  0.850879  0.494760  1
  Cl  Cl12  1  0.467416  0.814859  0.831722  1
  Cl  Cl13  1  0.532584  0.185141  0.168278  1
  Cl  Cl14  1  0.025619  0.299052  0.145962  1
  Cl  Cl15  1  0.974381  0.700948  0.854038  1
  Cl  Cl16  1  0.763398  0.756458  0.264034  1
  Cl  Cl17  1  0.236602  0.243542  0.735966  1
  Cl  Cl18  1  0.259502  0.870776  0.234492  1
  Cl  Cl19  1  0.740498  0.129224  0.765508  1
  F  F20  1  0.885536  0.214967  0.953634  1
  F  F21  1  0.114464  0.785033  0.046366  1
  F  F22  1  0.103794  0.972225  0.799595  1
  F  F23  1  0.896206  0.027775  0.200405  1
