# generated using pymatgen
data_Zr24Si5As3
_symmetry_space_group_name_H-M   'P 1'
_cell_length_a   11.04243250
_cell_length_b   11.05076601
_cell_length_c   5.45362175
_cell_angle_alpha   90.00124813
_cell_angle_beta   90.05975662
_cell_angle_gamma   89.99649344
_symmetry_Int_Tables_number   1
_chemical_formula_structural   Zr24Si5As3
_chemical_formula_sum   'Zr24 Si5 As3'
_cell_volume   665.49057899
_cell_formula_units_Z   1
loop_
 _symmetry_equiv_pos_site_id
 _symmetry_equiv_pos_as_xyz
  1  'x, y, z'
loop_
 _atom_site_type_symbol
 _atom_site_label
 _atom_site_symmetry_multiplicity
 _atom_site_fract_x
 _atom_site_fract_y
 _atom_site_fract_z
 _atom_site_occupancy
  Zr  Zr0  1  0.918162  0.607618  0.534105  1
  Zr  Zr1  1  0.082113  0.392116  0.533902  1
  Zr  Zr2  1  0.892023  0.417704  0.033776  1
  Zr  Zr3  1  0.108008  0.582636  0.033752  1
  Zr  Zr4  1  0.581039  0.891874  0.962418  1
  Zr  Zr5  1  0.417975  0.107002  0.966615  1
  Zr  Zr6  1  0.606912  0.082123  0.465766  1
  Zr  Zr7  1  0.393531  0.916722  0.470225  1
  Zr  Zr8  1  0.862940  0.973625  0.719710  1
  Zr  Zr9  1  0.137149  0.026546  0.720296  1
  Zr  Zr10  1  0.526444  0.362639  0.220023  1
  Zr  Zr11  1  0.473068  0.638294  0.220722  1
  Zr  Zr12  1  0.638745  0.528366  0.780054  1
  Zr  Zr13  1  0.360509  0.474674  0.780447  1
  Zr  Zr14  1  0.972990  0.139954  0.280807  1
  Zr  Zr15  1  0.027325  0.859977  0.280373  1
  Zr  Zr16  1  0.820054  0.714306  0.008093  1
  Zr  Zr17  1  0.179847  0.285781  0.007907  1
  Zr  Zr18  1  0.785712  0.320378  0.508591  1
  Zr  Zr19  1  0.215656  0.679069  0.510279  1
  Zr  Zr20  1  0.679602  0.782856  0.492263  1
  Zr  Zr21  1  0.319454  0.216810  0.489992  1
  Zr  Zr22  1  0.716533  0.180476  0.989924  1
  Zr  Zr23  1  0.284785  0.819578  0.987621  1
  Si  Si24  1  0.458446  0.704978  0.712596  1
  Si  Si25  1  0.705511  0.541698  0.287685  1
  Si  Si26  1  0.294455  0.458159  0.287478  1
  Si  Si27  1  0.958304  0.205637  0.787530  1
  Si  Si28  1  0.041603  0.794364  0.787013  1
  As  As29  1  0.793906  0.958350  0.212924  1
  As  As30  1  0.205980  0.041071  0.213758  1
  As  As31  1  0.541220  0.294620  0.713354  1
