# generated using pymatgen
data_Hf4SiAs3Rh4
_symmetry_space_group_name_H-M   'P 1'
_cell_length_a   3.91956500
_cell_length_b   6.57783491
_cell_length_c   7.62883539
_cell_angle_alpha   89.56070591
_cell_angle_beta   90.00000000
_cell_angle_gamma   90.00000000
_symmetry_Int_Tables_number   1
_chemical_formula_structural   Hf4SiAs3Rh4
_chemical_formula_sum   'Hf4 Si1 As3 Rh4'
_cell_volume   196.68277157
_cell_formula_units_Z   1
loop_
 _symmetry_equiv_pos_site_id
 _symmetry_equiv_pos_as_xyz
  1  'x, y, z'
loop_
 _atom_site_type_symbol
 _atom_site_label
 _atom_site_symmetry_multiplicity
 _atom_site_fract_x
 _atom_site_fract_y
 _atom_site_fract_z
 _atom_site_occupancy
  Hf  Hf0  1  0.250000  0.532109  0.183892  1
  Hf  Hf1  1  0.750000  0.471251  0.815930  1
  Hf  Hf2  1  0.250000  0.024426  0.319214  1
  Hf  Hf3  1  0.750000  0.969357  0.681273  1
  Si  Si4  1  0.750000  0.736189  0.382571  1
  As  As5  1  0.250000  0.756838  0.874168  1
  As  As6  1  0.750000  0.242336  0.122977  1
  As  As7  1  0.250000  0.259307  0.620449  1
  Rh  Rh8  1  0.750000  0.848079  0.076210  1
  Rh  Rh9  1  0.250000  0.146551  0.935666  1
  Rh  Rh10  1  0.750000  0.361435  0.435131  1
  Rh  Rh11  1  0.250000  0.652122  0.552517  1
