# generated using pymatgen
data_HoErTm2(ReB6)2
_symmetry_space_group_name_H-M   'P 1'
_cell_length_a   3.65109000
_cell_length_b   9.11697500
_cell_length_c   11.49175100
_cell_angle_alpha   89.99981100
_cell_angle_beta   90.00000000
_cell_angle_gamma   90.00000000
_symmetry_Int_Tables_number   1
_chemical_formula_structural   HoErTm2(ReB6)2
_chemical_formula_sum   'Ho2 Er2 Tm4 Re4 B24'
_cell_volume   382.52472330
_cell_formula_units_Z   2
loop_
 _symmetry_equiv_pos_site_id
 _symmetry_equiv_pos_as_xyz
  1  'x, y, z'
loop_
 _atom_site_type_symbol
 _atom_site_label
 _atom_site_symmetry_multiplicity
 _atom_site_fract_x
 _atom_site_fract_y
 _atom_site_fract_z
 _atom_site_occupancy
  Ho  Ho0  1  0.000000  0.323442  0.413851  1
  Ho  Ho1  1  0.000000  0.676558  0.586149  1
  Er  Er2  1  0.000000  0.823504  0.086119  1
  Er  Er3  1  0.000000  0.176496  0.913881  1
  Tm  Tm4  1  0.000000  0.943478  0.370227  1
  Tm  Tm5  1  0.000000  0.056522  0.629773  1
  Tm  Tm6  1  0.000000  0.443496  0.129637  1
  Tm  Tm7  1  0.000000  0.556504  0.870363  1
  Re  Re8  1  0.000000  0.639224  0.320437  1
  Re  Re9  1  0.000000  0.360776  0.679563  1
  Re  Re10  1  0.000000  0.139018  0.179258  1
  Re  Re11  1  0.000000  0.860982  0.820742  1
  B  B12  1  0.500000  0.553487  0.433028  1
  B  B13  1  0.500000  0.446513  0.566972  1
  B  B14  1  0.500000  0.053364  0.066805  1
  B  B15  1  0.500000  0.946636  0.933195  1
  B  B16  1  0.500000  0.750262  0.418962  1
  B  B17  1  0.500000  0.249738  0.581038  1
  B  B18  1  0.500000  0.250198  0.080854  1
  B  B19  1  0.500000  0.749802  0.919146  1
  B  B20  1  0.500000  0.793090  0.265378  1
  B  B21  1  0.500000  0.206910  0.734622  1
  B  B22  1  0.500000  0.293010  0.234448  1
  B  B23  1  0.500000  0.706990  0.765552  1
  B  B24  1  0.500000  0.630954  0.185030  1
  B  B25  1  0.500000  0.369046  0.814970  1
  B  B26  1  0.500000  0.130824  0.314816  1
  B  B27  1  0.500000  0.869176  0.685184  1
  B  B28  1  0.500000  0.981879  0.212156  1
  B  B29  1  0.500000  0.018121  0.787844  1
  B  B30  1  0.500000  0.482018  0.287702  1
  B  B31  1  0.500000  0.517982  0.712298  1
  B  B32  1  0.500000  0.599524  0.027796  1
  B  B33  1  0.500000  0.400476  0.972204  1
  B  B34  1  0.500000  0.099326  0.472252  1
  B  B35  1  0.500000  0.900674  0.527748  1
