# generated using pymatgen
data_RbCo3NiO8
_symmetry_space_group_name_H-M   'P 1'
_cell_length_a   5.69734105
_cell_length_b   7.57306697
_cell_length_c   5.71011678
_cell_angle_alpha   91.08254399
_cell_angle_beta   120.13733268
_cell_angle_gamma   110.57534632
_symmetry_Int_Tables_number   1
_chemical_formula_structural   RbCo3NiO8
_chemical_formula_sum   'Rb1 Co3 Ni1 O8'
_cell_volume   193.58338233
_cell_formula_units_Z   1
loop_
 _symmetry_equiv_pos_site_id
 _symmetry_equiv_pos_as_xyz
  1  'x, y, z'
loop_
 _atom_site_type_symbol
 _atom_site_label
 _atom_site_symmetry_multiplicity
 _atom_site_fract_x
 _atom_site_fract_y
 _atom_site_fract_z
 _atom_site_occupancy
  Rb  Rb0  1  0.000000  0.500000  0.500000  1
  Co  Co1  1  0.000000  0.000000  0.000000  1
  Co  Co2  1  0.500000  0.000000  0.000000  1
  Co  Co3  1  0.000000  0.000000  0.500000  1
  Ni  Ni4  1  0.500000  0.000000  0.500000  1
  O  O5  1  0.580046  0.863202  0.283222  1
  O  O6  1  0.073413  0.862041  0.282597  1
  O  O7  1  0.587164  0.853756  0.812701  1
  O  O8  1  0.073874  0.858549  0.781668  1
  O  O9  1  0.926126  0.141451  0.218332  1
  O  O10  1  0.412836  0.146244  0.187299  1
  O  O11  1  0.926587  0.137959  0.717403  1
  O  O12  1  0.419954  0.136798  0.716778  1
