# generated using pymatgen
data_Ac5FePtO12
_symmetry_space_group_name_H-M   'P 1'
_cell_length_a   7.27994709
_cell_length_b   7.27994721
_cell_length_c   7.85492200
_cell_angle_alpha   74.47620104
_cell_angle_beta   74.47620076
_cell_angle_gamma   51.01814584
_symmetry_Int_Tables_number   1
_chemical_formula_structural   Ac5FePtO12
_chemical_formula_sum   'Ac5 Fe1 Pt1 O12'
_cell_volume   309.04659467
_cell_formula_units_Z   1
loop_
 _symmetry_equiv_pos_site_id
 _symmetry_equiv_pos_as_xyz
  1  'x, y, z'
loop_
 _atom_site_type_symbol
 _atom_site_label
 _atom_site_symmetry_multiplicity
 _atom_site_fract_x
 _atom_site_fract_y
 _atom_site_fract_z
 _atom_site_occupancy
  Ac  Ac0  1  0.311973  0.310114  0.354767  1
  Ac  Ac1  1  0.689886  0.688027  0.645233  1
  Ac  Ac2  1  0.692108  0.693691  0.164048  1
  Ac  Ac3  1  0.306309  0.307892  0.835952  1
  Ac  Ac4  1  0.003812  0.996188  0.500000  1
  Fe  Fe5  1  0.760794  0.239206  0.000000  1
  Pt  Pt6  1  0.242336  0.757664  0.000000  1
  O  O7  1  0.094511  0.593955  0.580143  1
  O  O8  1  0.002526  0.995218  0.170588  1
  O  O9  1  0.406045  0.905489  0.419857  1
  O  O10  1  0.492603  0.509969  0.167690  1
  O  O11  1  0.097314  0.585713  0.075644  1
  O  O12  1  0.904887  0.401888  0.421051  1
  O  O13  1  0.004782  0.997474  0.829412  1
  O  O14  1  0.598112  0.095112  0.578949  1
  O  O15  1  0.490031  0.507397  0.832310  1
  O  O16  1  0.594905  0.107222  0.072526  1
  O  O17  1  0.414287  0.902686  0.924356  1
  O  O18  1  0.892778  0.405095  0.927474  1
