# generated using pymatgen
data_Be3CoTcW
_symmetry_space_group_name_H-M   'P 1'
_cell_length_a   4.51792000
_cell_length_b   4.51792044
_cell_length_c   7.12089500
_cell_angle_alpha   90.00000000
_cell_angle_beta   90.00000000
_cell_angle_gamma   119.99999678
_symmetry_Int_Tables_number   1
_chemical_formula_structural   Be3CoTcW
_chemical_formula_sum   'Be6 Co2 Tc2 W2'
_cell_volume   125.87582878
_cell_formula_units_Z   2
loop_
 _symmetry_equiv_pos_site_id
 _symmetry_equiv_pos_as_xyz
  1  'x, y, z'
loop_
 _atom_site_type_symbol
 _atom_site_label
 _atom_site_symmetry_multiplicity
 _atom_site_fract_x
 _atom_site_fract_y
 _atom_site_fract_z
 _atom_site_occupancy
  Be  Be0  1  0.831407  0.168593  0.252487  1
  Be  Be1  1  0.831407  0.662813  0.252487  1
  Be  Be2  1  0.337187  0.168593  0.252487  1
  Be  Be3  1  0.168593  0.831407  0.747513  1
  Be  Be4  1  0.168593  0.337187  0.747513  1
  Be  Be5  1  0.662813  0.831407  0.747513  1
  Co  Co6  1  0.000000  0.000000  0.500000  1
  Co  Co7  1  0.000000  0.000000  0.000000  1
  Tc  Tc8  1  0.333333  0.666667  0.429803  1
  Tc  Tc9  1  0.666667  0.333333  0.570197  1
  W  W10  1  0.666667  0.333333  0.927799  1
  W  W11  1  0.333333  0.666667  0.072201  1
