# generated using pymatgen
data_SrMnH9
_symmetry_space_group_name_H-M   'P 1'
_cell_length_a   8.56243800
_cell_length_b   4.86114350
_cell_length_c   4.94170138
_cell_angle_alpha   61.09700686
_cell_angle_beta   90.00000000
_cell_angle_gamma   90.00000000
_symmetry_Int_Tables_number   1
_chemical_formula_structural   SrMnH9
_chemical_formula_sum   'Sr2 Mn2 H18'
_cell_volume   180.06877416
_cell_formula_units_Z   2
loop_
 _symmetry_equiv_pos_site_id
 _symmetry_equiv_pos_as_xyz
  1  'x, y, z'
loop_
 _atom_site_type_symbol
 _atom_site_label
 _atom_site_symmetry_multiplicity
 _atom_site_fract_x
 _atom_site_fract_y
 _atom_site_fract_z
 _atom_site_occupancy
  Sr  Sr0  1  0.500000  0.000000  0.000000  1
  Sr  Sr1  1  0.000000  0.000000  0.000000  1
  Mn  Mn2  1  0.250000  0.664525  0.652360  1
  Mn  Mn3  1  0.750000  0.335475  0.347640  1
  H  H4  1  0.250000  0.739458  0.924680  1
  H  H5  1  0.750000  0.260542  0.075320  1
  H  H6  1  0.250000  0.320544  0.922154  1
  H  H7  1  0.750000  0.679456  0.077846  1
  H  H8  1  0.250000  0.835633  0.299967  1
  H  H9  1  0.750000  0.164367  0.700033  1
  H  H10  1  0.353783  0.497690  0.519803  1
  H  H11  1  0.853783  0.502310  0.480197  1
  H  H12  1  0.646217  0.502310  0.480197  1
  H  H13  1  0.146217  0.497690  0.519803  1
  H  H14  1  0.354337  0.961193  0.521555  1
  H  H15  1  0.854337  0.038807  0.478445  1
  H  H16  1  0.645663  0.038807  0.478445  1
  H  H17  1  0.145663  0.961193  0.521555  1
  H  H18  1  0.412666  0.592473  0.801359  1
  H  H19  1  0.912666  0.407527  0.198641  1
  H  H20  1  0.587334  0.407527  0.198641  1
  H  H21  1  0.087334  0.592473  0.801359  1
