# generated using pymatgen
data_Y10Lu6MgAg3Rh4
_symmetry_space_group_name_H-M   'P 1'
_cell_length_a   9.48571661
_cell_length_b   9.53630377
_cell_length_c   9.53763468
_cell_angle_alpha   59.93950724
_cell_angle_beta   60.29773135
_cell_angle_gamma   60.28871828
_symmetry_Int_Tables_number   1
_chemical_formula_structural   Y10Lu6MgAg3Rh4
_chemical_formula_sum   'Y10 Lu6 Mg1 Ag3 Rh4'
_cell_volume   612.47152903
_cell_formula_units_Z   1
loop_
 _symmetry_equiv_pos_site_id
 _symmetry_equiv_pos_as_xyz
  1  'x, y, z'
loop_
 _atom_site_type_symbol
 _atom_site_label
 _atom_site_symmetry_multiplicity
 _atom_site_fract_x
 _atom_site_fract_y
 _atom_site_fract_z
 _atom_site_occupancy
  Y  Y0  1  0.434953  0.063659  0.436352  1
  Y  Y1  1  0.059316  0.438332  0.060973  1
  Y  Y2  1  0.435021  0.436322  0.063574  1
  Y  Y3  1  0.059271  0.061015  0.438360  1
  Y  Y4  1  0.183693  0.814347  0.814331  1
  Y  Y5  1  0.816044  0.184354  0.184399  1
  Y  Y6  1  0.811172  0.188817  0.812535  1
  Y  Y7  1  0.187539  0.810959  0.188369  1
  Y  Y8  1  0.811174  0.812532  0.188792  1
  Y  Y9  1  0.187538  0.188324  0.810992  1
  Lu  Lu10  1  0.598829  0.599502  0.599426  1
  Lu  Lu11  1  0.599386  0.595916  0.207514  1
  Lu  Lu12  1  0.599379  0.207763  0.595776  1
  Lu  Lu13  1  0.190523  0.604165  0.603891  1
  Lu  Lu14  1  0.057515  0.440267  0.440220  1
  Lu  Lu15  1  0.436444  0.061871  0.061951  1
  Mg  Mg16  1  0.540183  0.819580  0.820632  1
  Ag  Ag17  1  0.832027  0.833010  0.832922  1
  Ag  Ag18  1  0.834660  0.833751  0.500600  1
  Ag  Ag19  1  0.834738  0.500460  0.833950  1
  Rh  Rh20  1  0.383412  0.399090  0.398759  1
  Rh  Rh21  1  0.394318  0.391519  0.817041  1
  Rh  Rh22  1  0.394340  0.817049  0.391405  1
  Rh  Rh23  1  0.818525  0.397399  0.397235  1
