# generated using pymatgen
data_Sc2Al9ReNi2
_symmetry_space_group_name_H-M   'P 1'
_cell_length_a   7.34558124
_cell_length_b   7.34558147
_cell_length_c   9.18471400
_cell_angle_alpha   90.00000000
_cell_angle_beta   90.00000000
_cell_angle_gamma   117.67741942
_symmetry_Int_Tables_number   1
_chemical_formula_structural   Sc2Al9ReNi2
_chemical_formula_sum   'Sc4 Al18 Re2 Ni4'
_cell_volume   438.87838424
_cell_formula_units_Z   2
loop_
 _symmetry_equiv_pos_site_id
 _symmetry_equiv_pos_as_xyz
  1  'x, y, z'
loop_
 _atom_site_type_symbol
 _atom_site_label
 _atom_site_symmetry_multiplicity
 _atom_site_fract_x
 _atom_site_fract_y
 _atom_site_fract_z
 _atom_site_occupancy
  Sc  Sc0  1  0.992747  0.696862  0.250000  1
  Sc  Sc1  1  0.007253  0.303138  0.750000  1
  Sc  Sc2  1  0.696862  0.992747  0.250000  1
  Sc  Sc3  1  0.303138  0.007253  0.750000  1
  Al  Al4  1  0.995867  0.343901  0.078214  1
  Al  Al5  1  0.004133  0.656099  0.921786  1
  Al  Al6  1  0.004133  0.656099  0.578214  1
  Al  Al7  1  0.343901  0.995867  0.421786  1
  Al  Al8  1  0.995867  0.343901  0.421786  1
  Al  Al9  1  0.656099  0.004133  0.578214  1
  Al  Al10  1  0.656099  0.004133  0.921786  1
  Al  Al11  1  0.343901  0.995867  0.078214  1
  Al  Al12  1  0.345508  0.574103  0.250000  1
  Al  Al13  1  0.654492  0.425897  0.750000  1
  Al  Al14  1  0.574103  0.345508  0.250000  1
  Al  Al15  1  0.425897  0.654492  0.750000  1
  Al  Al16  1  0.334170  0.334170  0.547070  1
  Al  Al17  1  0.665830  0.665830  0.452930  1
  Al  Al18  1  0.665830  0.665830  0.047070  1
  Al  Al19  1  0.334170  0.334170  0.952930  1
  Al  Al20  1  0.143670  0.143670  0.250000  1
  Al  Al21  1  0.856330  0.856330  0.750000  1
  Re  Re22  1  0.000000  0.000000  0.000000  1
  Re  Re23  1  0.000000  0.000000  0.500000  1
  Ni  Ni24  1  0.670157  0.329843  0.000000  1
  Ni  Ni25  1  0.329843  0.670157  0.000000  1
  Ni  Ni26  1  0.329843  0.670157  0.500000  1
  Ni  Ni27  1  0.670157  0.329843  0.500000  1
