# generated using pymatgen
data_Tm2Ga9Ir2Pd
_symmetry_space_group_name_H-M   'P 1'
_cell_length_a   7.60069800
_cell_length_b   7.60069855
_cell_length_c   9.46270400
_cell_angle_alpha   90.00000000
_cell_angle_beta   90.00000000
_cell_angle_gamma   119.81493165
_symmetry_Int_Tables_number   1
_chemical_formula_structural   Tm2Ga9Ir2Pd
_chemical_formula_sum   'Tm4 Ga18 Ir4 Pd2'
_cell_volume   474.30724539
_cell_formula_units_Z   2
loop_
 _symmetry_equiv_pos_site_id
 _symmetry_equiv_pos_as_xyz
  1  'x, y, z'
loop_
 _atom_site_type_symbol
 _atom_site_label
 _atom_site_symmetry_multiplicity
 _atom_site_fract_x
 _atom_site_fract_y
 _atom_site_fract_z
 _atom_site_occupancy
  Tm  Tm0  1  0.996912  0.668919  0.750000  1
  Tm  Tm1  1  0.003088  0.331081  0.250000  1
  Tm  Tm2  1  0.668919  0.996912  0.750000  1
  Tm  Tm3  1  0.331081  0.003088  0.250000  1
  Ga  Ga4  1  0.127507  0.127507  0.750000  1
  Ga  Ga5  1  0.872493  0.872493  0.250000  1
  Ga  Ga6  1  0.998464  0.336777  0.581910  1
  Ga  Ga7  1  0.001536  0.663223  0.418090  1
  Ga  Ga8  1  0.001536  0.663223  0.081910  1
  Ga  Ga9  1  0.336777  0.998464  0.918090  1
  Ga  Ga10  1  0.998464  0.336777  0.918090  1
  Ga  Ga11  1  0.663223  0.001536  0.081910  1
  Ga  Ga12  1  0.663223  0.001536  0.418090  1
  Ga  Ga13  1  0.336777  0.998464  0.581910  1
  Ga  Ga14  1  0.334180  0.334180  0.068788  1
  Ga  Ga15  1  0.665820  0.665820  0.931212  1
  Ga  Ga16  1  0.665820  0.665820  0.568788  1
  Ga  Ga17  1  0.334180  0.334180  0.431212  1
  Ga  Ga18  1  0.337514  0.546302  0.750000  1
  Ga  Ga19  1  0.662486  0.453698  0.250000  1
  Ga  Ga20  1  0.546302  0.337514  0.750000  1
  Ga  Ga21  1  0.453698  0.662486  0.250000  1
  Ir  Ir22  1  0.671657  0.328343  0.500000  1
  Ir  Ir23  1  0.328343  0.671657  0.500000  1
  Ir  Ir24  1  0.328343  0.671657  0.000000  1
  Ir  Ir25  1  0.671657  0.328343  0.000000  1
  Pd  Pd26  1  0.000000  0.000000  0.500000  1
  Pd  Pd27  1  0.000000  0.000000  0.000000  1
