# generated using pymatgen
data_LiLuS2
_symmetry_space_group_name_H-M   'P 1'
_cell_length_a   6.57159222
_cell_length_b   6.57159155
_cell_length_c   6.57159195
_cell_angle_alpha   33.89345161
_cell_angle_beta   33.89346274
_cell_angle_gamma   33.89346022
_symmetry_Int_Tables_number   1
_chemical_formula_structural   LiLuS2
_chemical_formula_sum   'Li1 Lu1 S2'
_cell_volume   78.65381654
_cell_formula_units_Z   1
loop_
 _symmetry_equiv_pos_site_id
 _symmetry_equiv_pos_as_xyz
  1  'x, y, z'
loop_
 _atom_site_type_symbol
 _atom_site_label
 _atom_site_symmetry_multiplicity
 _atom_site_fract_x
 _atom_site_fract_y
 _atom_site_fract_z
 _atom_site_occupancy
  Li  Li0  1  0.000000  0.000000  0.000000  1
  Lu  Lu1  1  0.500000  0.500000  0.500000  1
  S  S2  1  0.248383  0.248383  0.248383  1
  S  S3  1  0.751617  0.751617  0.751617  1
