# generated using pymatgen
data_Tb3Pa(TcB4)4
_symmetry_space_group_name_H-M   'P 1'
_cell_length_a   3.62376600
_cell_length_b   5.97903869
_cell_length_c   11.57058140
_cell_angle_alpha   89.98750044
_cell_angle_beta   90.00000000
_cell_angle_gamma   90.00000000
_symmetry_Int_Tables_number   1
_chemical_formula_structural   Tb3Pa(TcB4)4
_chemical_formula_sum   'Tb3 Pa1 Tc4 B16'
_cell_volume   250.69558272
_cell_formula_units_Z   1
loop_
 _symmetry_equiv_pos_site_id
 _symmetry_equiv_pos_as_xyz
  1  'x, y, z'
loop_
 _atom_site_type_symbol
 _atom_site_label
 _atom_site_symmetry_multiplicity
 _atom_site_fract_x
 _atom_site_fract_y
 _atom_site_fract_z
 _atom_site_occupancy
  Tb  Tb0  1  0.000000  0.371338  0.650635  1
  Tb  Tb1  1  0.000000  0.126632  0.148867  1
  Tb  Tb2  1  0.000000  0.874797  0.849622  1
  Pa  Pa3  1  0.000000  0.626573  0.350617  1
  Tc  Tc4  1  0.000000  0.631577  0.089874  1
  Tc  Tc5  1  0.000000  0.366194  0.912358  1
  Tc  Tc6  1  0.000000  0.138316  0.407162  1
  Tc  Tc7  1  0.000000  0.861686  0.588786  1
  B  B8  1  0.500000  0.785956  0.185631  1
  B  B9  1  0.500000  0.212857  0.815383  1
  B  B10  1  0.500000  0.289084  0.314811  1
  B  B11  1  0.500000  0.714212  0.685986  1
  B  B12  1  0.500000  0.862951  0.031762  1
  B  B13  1  0.500000  0.136278  0.968393  1
  B  B14  1  0.500000  0.364637  0.468181  1
  B  B15  1  0.500000  0.637139  0.530900  1
  B  B16  1  0.500000  0.888337  0.453836  1
  B  B17  1  0.500000  0.113111  0.547143  1
  B  B18  1  0.500000  0.386331  0.046004  1
  B  B19  1  0.500000  0.612865  0.953261  1
  B  B20  1  0.500000  0.973312  0.308929  1
  B  B21  1  0.500000  0.024166  0.691868  1
  B  B22  1  0.500000  0.478367  0.191776  1
  B  B23  1  0.500000  0.523282  0.808211  1
