# generated using pymatgen
data_Eu6YSc(BO3)6
_symmetry_space_group_name_H-M   'P 1'
_cell_length_a   7.75788907
_cell_length_b   7.75788886
_cell_length_c   7.75788896
_cell_angle_alpha   105.10586333
_cell_angle_beta   105.10587075
_cell_angle_gamma   105.10585876
_symmetry_Int_Tables_number   1
_chemical_formula_structural   Eu6YSc(BO3)6
_chemical_formula_sum   'Eu6 Y1 Sc1 B6 O18'
_cell_volume   407.27071387
_cell_formula_units_Z   1
loop_
 _symmetry_equiv_pos_site_id
 _symmetry_equiv_pos_as_xyz
  1  'x, y, z'
loop_
 _atom_site_type_symbol
 _atom_site_label
 _atom_site_symmetry_multiplicity
 _atom_site_fract_x
 _atom_site_fract_y
 _atom_site_fract_z
 _atom_site_occupancy
  Eu  Eu0  1  0.646449  0.266463  0.160164  1
  Eu  Eu1  1  0.160164  0.646449  0.266462  1
  Eu  Eu2  1  0.733537  0.839836  0.353551  1
  Eu  Eu3  1  0.266463  0.160164  0.646449  1
  Eu  Eu4  1  0.839836  0.353551  0.733537  1
  Eu  Eu5  1  0.353551  0.733537  0.839836  1
  Y  Y6  1  0.000000  0.000000  0.000000  1
  Sc  Sc7  1  0.500000  0.500000  0.500000  1
  B  B8  1  0.295143  0.380110  0.039251  1
  B  B9  1  0.380110  0.039252  0.295143  1
  B  B10  1  0.039252  0.295143  0.380110  1
  B  B11  1  0.960748  0.704857  0.619890  1
  B  B12  1  0.619890  0.960748  0.704857  1
  B  B13  1  0.704857  0.619890  0.960748  1
  O  O14  1  0.728245  0.813628  0.020075  1
  O  O15  1  0.810446  0.547738  0.074925  1
  O  O16  1  0.979925  0.271755  0.186372  1
  O  O17  1  0.452261  0.925074  0.189554  1
  O  O18  1  0.432493  0.499612  0.217013  1
  O  O19  1  0.186372  0.979925  0.271755  1
  O  O20  1  0.499612  0.217013  0.432492  1
  O  O21  1  0.925074  0.189555  0.452261  1
  O  O22  1  0.217013  0.432493  0.499612  1
  O  O23  1  0.782987  0.567507  0.500388  1
  O  O24  1  0.074926  0.810445  0.547739  1
  O  O25  1  0.500388  0.782987  0.567508  1
  O  O26  1  0.813628  0.020075  0.728245  1
  O  O27  1  0.567507  0.500388  0.782987  1
  O  O28  1  0.547739  0.074926  0.810446  1
  O  O29  1  0.020075  0.728245  0.813628  1
  O  O30  1  0.189554  0.452262  0.925075  1
  O  O31  1  0.271755  0.186372  0.979925  1
