# generated using pymatgen
data_Tm8LuZn4
_symmetry_space_group_name_H-M   'P 1'
_cell_length_a   8.45131585
_cell_length_b   8.45131521
_cell_length_c   8.45316270
_cell_angle_alpha   95.01500179
_cell_angle_beta   94.95080928
_cell_angle_gamma   145.71489884
_symmetry_Int_Tables_number   1
_chemical_formula_structural   Tm8LuZn4
_chemical_formula_sum   'Tm8 Lu1 Zn4'
_cell_volume   325.00478651
_cell_formula_units_Z   1
loop_
 _symmetry_equiv_pos_site_id
 _symmetry_equiv_pos_as_xyz
  1  'x, y, z'
loop_
 _atom_site_type_symbol
 _atom_site_label
 _atom_site_symmetry_multiplicity
 _atom_site_fract_x
 _atom_site_fract_y
 _atom_site_fract_z
 _atom_site_occupancy
  Tm  Tm0  1  0.500143  0.499890  0.000035  1
  Tm  Tm1  1  0.111553  0.181837  0.293390  1
  Tm  Tm2  1  0.883844  0.401134  0.284979  1
  Tm  Tm3  1  0.598847  0.883958  0.482807  1
  Tm  Tm4  1  0.401039  0.115860  0.516898  1
  Tm  Tm5  1  0.116002  0.599035  0.715038  1
  Tm  Tm6  1  0.888568  0.817996  0.706566  1
  Tm  Tm7  1  0.818024  0.111495  0.929519  1
  Lu  Lu8  1  0.181934  0.888571  0.070507  1
  Zn  Zn9  1  0.392960  0.736382  0.129343  1
  Zn  Zn10  1  0.736278  0.606924  0.343205  1
  Zn  Zn11  1  0.263773  0.393057  0.656829  1
  Zn  Zn12  1  0.607030  0.263855  0.870885  1
