# generated using pymatgen
data_CeSm5(CCl5)2
_symmetry_space_group_name_H-M   'P 1'
_cell_length_a   7.28654107
_cell_length_b   8.80898985
_cell_length_c   8.89441500
_cell_angle_alpha   107.06105701
_cell_angle_beta   96.04382032
_cell_angle_gamma   104.72639277
_symmetry_Int_Tables_number   1
_chemical_formula_structural   CeSm5(CCl5)2
_chemical_formula_sum   'Ce1 Sm5 C2 Cl10'
_cell_volume   517.76887832
_cell_formula_units_Z   1
loop_
 _symmetry_equiv_pos_site_id
 _symmetry_equiv_pos_as_xyz
  1  'x, y, z'
loop_
 _atom_site_type_symbol
 _atom_site_label
 _atom_site_symmetry_multiplicity
 _atom_site_fract_x
 _atom_site_fract_y
 _atom_site_fract_z
 _atom_site_occupancy
  Ce  Ce0  1  0.603857  0.845249  0.792078  1
  Sm  Sm1  1  0.036476  0.720551  0.918625  1
  Sm  Sm2  1  0.122234  0.053300  0.769450  1
  Sm  Sm3  1  0.965646  0.280416  0.083489  1
  Sm  Sm4  1  0.880584  0.949207  0.232407  1
  Sm  Sm5  1  0.389117  0.149776  0.202109  1
  C  C6  1  0.093401  0.032737  0.046198  1
  C  C7  1  0.903779  0.966365  0.952017  1
  Cl  Cl8  1  0.185924  0.746885  0.651278  1
  Cl  Cl9  1  0.913078  0.629411  0.169841  1
  Cl  Cl10  1  0.088550  0.371983  0.831850  1
  Cl  Cl11  1  0.773003  0.924329  0.542183  1
  Cl  Cl12  1  0.235917  0.079371  0.454446  1
  Cl  Cl13  1  0.676841  0.545003  0.731746  1
  Cl  Cl14  1  0.459144  0.825020  0.087848  1
  Cl  Cl15  1  0.803240  0.250538  0.344073  1
  Cl  Cl16  1  0.328946  0.449753  0.270265  1
  Cl  Cl17  1  0.540261  0.180105  0.920098  1
