# generated using pymatgen
data_Yb3ZrCd2Pt3
_symmetry_space_group_name_H-M   'P 1'
_cell_length_a   7.41154657
_cell_length_b   7.41154640
_cell_length_c   4.34038100
_cell_angle_alpha   90.00000000
_cell_angle_beta   90.00000000
_cell_angle_gamma   121.76167177
_symmetry_Int_Tables_number   1
_chemical_formula_structural   Yb3ZrCd2Pt3
_chemical_formula_sum   'Yb3 Zr1 Cd2 Pt3'
_cell_volume   202.71674322
_cell_formula_units_Z   1
loop_
 _symmetry_equiv_pos_site_id
 _symmetry_equiv_pos_as_xyz
  1  'x, y, z'
loop_
 _atom_site_type_symbol
 _atom_site_label
 _atom_site_symmetry_multiplicity
 _atom_site_fract_x
 _atom_site_fract_y
 _atom_site_fract_z
 _atom_site_occupancy
  Yb  Yb0  1  0.411383  0.988753  0.000000  1
  Yb  Yb1  1  0.988753  0.411383  0.000000  1
  Yb  Yb2  1  0.606852  0.606852  0.000000  1
  Zr  Zr3  1  0.250053  0.250053  0.500000  1
  Cd  Cd4  1  0.748167  0.997615  0.500000  1
  Cd  Cd5  1  0.997615  0.748167  0.500000  1
  Pt  Pt6  1  0.320974  0.643452  0.500000  1
  Pt  Pt7  1  0.643452  0.320974  0.500000  1
  Pt  Pt8  1  0.032751  0.032751  0.000000  1
