# generated using pymatgen
data_Ta4Be3V2S
_symmetry_space_group_name_H-M   'P 1'
_cell_length_a   6.29179464
_cell_length_b   6.29179392
_cell_length_c   3.36784400
_cell_angle_alpha   90.00000000
_cell_angle_beta   90.00000000
_cell_angle_gamma   89.66917931
_symmetry_Int_Tables_number   1
_chemical_formula_structural   Ta4Be3V2S
_chemical_formula_sum   'Ta4 Be3 V2 S1'
_cell_volume   133.31952451
_cell_formula_units_Z   1
loop_
 _symmetry_equiv_pos_site_id
 _symmetry_equiv_pos_as_xyz
  1  'x, y, z'
loop_
 _atom_site_type_symbol
 _atom_site_label
 _atom_site_symmetry_multiplicity
 _atom_site_fract_x
 _atom_site_fract_y
 _atom_site_fract_z
 _atom_site_occupancy
  Ta  Ta0  1  0.678803  0.178803  0.500000  1
  Ta  Ta1  1  0.327795  0.827795  0.500000  1
  Ta  Ta2  1  0.177595  0.314173  0.500000  1
  Ta  Ta3  1  0.814173  0.677595  0.500000  1
  Be  Be4  1  0.875837  0.375837  0.000000  1
  Be  Be5  1  0.618733  0.884220  0.000000  1
  Be  Be6  1  0.384220  0.118733  0.000000  1
  V  V7  1  0.503476  0.500320  0.000000  1
  V  V8  1  0.000320  0.003476  0.000000  1
  S  S9  1  0.119049  0.619049  0.000000  1
