# generated using pymatgen
data_TbDy2Cd3CuPt2
_symmetry_space_group_name_H-M   'P 1'
_cell_length_a   7.73577018
_cell_length_b   7.73288624
_cell_length_c   3.72359600
_cell_angle_alpha   90.00000000
_cell_angle_beta   90.00000000
_cell_angle_gamma   119.98766697
_symmetry_Int_Tables_number   1
_chemical_formula_structural   TbDy2Cd3CuPt2
_chemical_formula_sum   'Tb1 Dy2 Cd3 Cu1 Pt2'
_cell_volume   192.92669561
_cell_formula_units_Z   1
loop_
 _symmetry_equiv_pos_site_id
 _symmetry_equiv_pos_as_xyz
  1  'x, y, z'
loop_
 _atom_site_type_symbol
 _atom_site_label
 _atom_site_symmetry_multiplicity
 _atom_site_fract_x
 _atom_site_fract_y
 _atom_site_fract_z
 _atom_site_occupancy
  Tb  Tb0  1  0.000000  0.411912  0.500000  1
  Dy  Dy1  1  0.588296  0.588197  0.500000  1
  Dy  Dy2  1  0.411704  0.999901  0.500000  1
  Cd  Cd3  1  0.000000  0.750596  0.000000  1
  Cd  Cd4  1  0.249837  0.249626  0.000000  1
  Cd  Cd5  1  0.750163  0.999790  0.000000  1
  Cu  Cu6  1  0.000000  0.999730  0.500000  1
  Pt  Pt7  1  0.333957  0.667104  0.000000  1
  Pt  Pt8  1  0.666043  0.333145  0.000000  1
