# generated using pymatgen
data_Th2GeRhI2
_symmetry_space_group_name_H-M   'P 1'
_cell_length_a   4.34823000
_cell_length_b   4.34822944
_cell_length_c   11.84112400
_cell_angle_alpha   90.00000000
_cell_angle_beta   90.00000000
_cell_angle_gamma   120.00000423
_symmetry_Int_Tables_number   1
_chemical_formula_structural   Th2GeRhI2
_chemical_formula_sum   'Th2 Ge1 Rh1 I2'
_cell_volume   193.88691608
_cell_formula_units_Z   1
loop_
 _symmetry_equiv_pos_site_id
 _symmetry_equiv_pos_as_xyz
  1  'x, y, z'
loop_
 _atom_site_type_symbol
 _atom_site_label
 _atom_site_symmetry_multiplicity
 _atom_site_fract_x
 _atom_site_fract_y
 _atom_site_fract_z
 _atom_site_occupancy
  Th  Th0  1  0.000000  0.000000  0.157320  1
  Th  Th1  1  0.000000  0.000000  0.848518  1
  Ge  Ge2  1  0.666667  0.333333  0.016755  1
  Rh  Rh3  1  0.333333  0.666667  0.979852  1
  I  I4  1  0.666667  0.333333  0.658524  1
  I  I5  1  0.333333  0.666667  0.339030  1
