# generated using pymatgen
data_Tm15Sc5AlBi11
_symmetry_space_group_name_H-M   'P 1'
_cell_length_a   8.00786383
_cell_length_b   9.29580129
_cell_length_c   11.77862369
_cell_angle_alpha   89.94614390
_cell_angle_beta   89.87694538
_cell_angle_gamma   89.94649530
_symmetry_Int_Tables_number   1
_chemical_formula_structural   Tm15Sc5AlBi11
_chemical_formula_sum   'Tm15 Sc5 Al1 Bi11'
_cell_volume   876.79219636
_cell_formula_units_Z   1
loop_
 _symmetry_equiv_pos_site_id
 _symmetry_equiv_pos_as_xyz
  1  'x, y, z'
loop_
 _atom_site_type_symbol
 _atom_site_label
 _atom_site_symmetry_multiplicity
 _atom_site_fract_x
 _atom_site_fract_y
 _atom_site_fract_z
 _atom_site_occupancy
  Tm  Tm0  1  0.353962  0.248101  0.290878  1
  Tm  Tm1  1  0.645494  0.749668  0.717058  1
  Tm  Tm2  1  0.147154  0.749039  0.783573  1
  Tm  Tm3  1  0.855035  0.249558  0.215417  1
  Tm  Tm4  1  0.188723  0.249473  0.775913  1
  Tm  Tm5  1  0.812276  0.749400  0.218681  1
  Tm  Tm6  1  0.314607  0.750570  0.280337  1
  Tm  Tm7  1  0.676591  0.249389  0.714281  1
  Tm  Tm8  1  0.804799  0.934461  0.940943  1
  Tm  Tm9  1  0.305002  0.945365  0.558847  1
  Tm  Tm10  1  0.806436  0.566018  0.941947  1
  Tm  Tm11  1  0.688294  0.071199  0.443791  1
  Tm  Tm12  1  0.195232  0.435174  0.059737  1
  Tm  Tm13  1  0.688158  0.428306  0.443999  1
  Tm  Tm14  1  0.305452  0.554573  0.559091  1
  Sc  Sc15  1  0.034865  0.249778  0.511476  1
  Sc  Sc16  1  0.979211  0.749720  0.487435  1
  Sc  Sc17  1  0.476875  0.750308  0.011967  1
  Sc  Sc18  1  0.522048  0.248250  0.989135  1
  Sc  Sc19  1  0.196895  0.069228  0.059362  1
  Al  Al20  1  0.403077  0.249973  0.541199  1
  Bi  Bi21  1  0.599026  0.749761  0.457050  1
  Bi  Bi22  1  0.101455  0.757539  0.043898  1
  Bi  Bi23  1  0.905864  0.248096  0.956432  1
  Bi  Bi24  1  0.064585  0.003416  0.327654  1
  Bi  Bi25  1  0.934319  0.995832  0.670211  1
  Bi  Bi26  1  0.433069  0.996534  0.831010  1
  Bi  Bi27  1  0.934052  0.503303  0.670512  1
  Bi  Bi28  1  0.562641  0.004177  0.168975  1
  Bi  Bi29  1  0.064681  0.496410  0.328992  1
  Bi  Bi30  1  0.565161  0.494806  0.169832  1
  Bi  Bi31  1  0.434963  0.502576  0.830370  1
