# generated using pymatgen
data_TbEu3Ga4Si3Ge
_symmetry_space_group_name_H-M   'P 1'
_cell_length_a   4.18005600
_cell_length_b   4.18005677
_cell_length_c   17.82474200
_cell_angle_alpha   90.00000000
_cell_angle_beta   90.00000000
_cell_angle_gamma   120.00000971
_symmetry_Int_Tables_number   1
_chemical_formula_structural   TbEu3Ga4Si3Ge
_chemical_formula_sum   'Tb1 Eu3 Ga4 Si3 Ge1'
_cell_volume   269.72308727
_cell_formula_units_Z   1
loop_
 _symmetry_equiv_pos_site_id
 _symmetry_equiv_pos_as_xyz
  1  'x, y, z'
loop_
 _atom_site_type_symbol
 _atom_site_label
 _atom_site_symmetry_multiplicity
 _atom_site_fract_x
 _atom_site_fract_y
 _atom_site_fract_z
 _atom_site_occupancy
  Tb  Tb0  1  0.000000  0.000000  0.501613  1
  Eu  Eu1  1  0.000000  0.000000  0.996096  1
  Eu  Eu2  1  0.000000  0.000000  0.257965  1
  Eu  Eu3  1  0.000000  0.000000  0.744031  1
  Ga  Ga4  1  0.666667  0.333333  0.370089  1
  Ga  Ga5  1  0.333333  0.666667  0.633597  1
  Ga  Ga6  1  0.333333  0.666667  0.860426  1
  Ga  Ga7  1  0.666667  0.333333  0.146240  1
  Si  Si8  1  0.333333  0.666667  0.396436  1
  Si  Si9  1  0.666667  0.333333  0.606934  1
  Si  Si10  1  0.666667  0.333333  0.877035  1
  Ge  Ge11  1  0.333333  0.666667  0.109538  1
