# generated using pymatgen
data_HoLu5(Si3Os)8
_symmetry_space_group_name_H-M   'P 1'
_cell_length_a   10.10468246
_cell_length_b   10.10468137
_cell_length_c   8.12113327
_cell_angle_alpha   89.85679216
_cell_angle_beta   90.14320559
_cell_angle_gamma   132.63726893
_symmetry_Int_Tables_number   1
_chemical_formula_structural   HoLu5(Si3Os)8
_chemical_formula_sum   'Ho1 Lu5 Si24 Os8'
_cell_volume   610.00792467
_cell_formula_units_Z   1
loop_
 _symmetry_equiv_pos_site_id
 _symmetry_equiv_pos_as_xyz
  1  'x, y, z'
loop_
 _atom_site_type_symbol
 _atom_site_label
 _atom_site_symmetry_multiplicity
 _atom_site_fract_x
 _atom_site_fract_y
 _atom_site_fract_z
 _atom_site_occupancy
  Ho  Ho0  1  0.001744  0.501744  0.750000  1
  Lu  Lu1  1  0.500112  0.500156  0.499795  1
  Lu  Lu2  1  0.000156  0.000112  0.000205  1
  Lu  Lu3  1  0.501582  0.001582  0.750000  1
  Lu  Lu4  1  0.998570  0.498570  0.250000  1
  Lu  Lu5  1  0.498484  0.998484  0.250000  1
  Si  Si6  1  0.796134  0.205243  0.499374  1
  Si  Si7  1  0.294851  0.703868  0.000234  1
  Si  Si8  1  0.203868  0.794851  0.499766  1
  Si  Si9  1  0.705243  0.296134  0.000626  1
  Si  Si10  1  0.331303  0.333052  0.832608  1
  Si  Si11  1  0.667655  0.667884  0.166994  1
  Si  Si12  1  0.167884  0.167655  0.333006  1
  Si  Si13  1  0.833052  0.831303  0.667392  1
  Si  Si14  1  0.121361  0.886595  0.729199  1
  Si  Si15  1  0.111788  0.877347  0.272466  1
  Si  Si16  1  0.614556  0.380756  0.227588  1
  Si  Si17  1  0.621690  0.386996  0.771414  1
  Si  Si18  1  0.880756  0.114556  0.272412  1
  Si  Si19  1  0.886996  0.121690  0.728586  1
  Si  Si20  1  0.386595  0.621361  0.770801  1
  Si  Si21  1  0.377347  0.611788  0.227534  1
  Si  Si22  1  0.342868  0.110231  0.504147  1
  Si  Si23  1  0.887170  0.652030  0.494100  1
  Si  Si24  1  0.389937  0.157332  0.003000  1
  Si  Si25  1  0.847269  0.612681  0.995892  1
  Si  Si26  1  0.657332  0.889937  0.497000  1
  Si  Si27  1  0.112681  0.347269  0.504108  1
  Si  Si28  1  0.610231  0.842868  0.995853  1
  Si  Si29  1  0.152030  0.387170  0.005900  1
  Os  Os30  1  0.665623  0.326552  0.499135  1
  Os  Os31  1  0.173277  0.834179  0.001824  1
  Os  Os32  1  0.334179  0.673277  0.498176  1
  Os  Os33  1  0.826552  0.165623  0.000865  1
  Os  Os34  1  0.126835  0.127410  0.628365  1
  Os  Os35  1  0.872733  0.872143  0.372235  1
  Os  Os36  1  0.372143  0.372733  0.127765  1
  Os  Os37  1  0.627410  0.626835  0.871635  1
