# generated using pymatgen
data_PuTcO7
_symmetry_space_group_name_H-M   'P 1'
_cell_length_a   5.49554400
_cell_length_b   8.23160600
_cell_length_c   14.01141700
_cell_angle_alpha   90.00000000
_cell_angle_beta   90.00000000
_cell_angle_gamma   90.00000000
_symmetry_Int_Tables_number   1
_chemical_formula_structural   PuTcO7
_chemical_formula_sum   'Pu4 Tc4 O28'
_cell_volume   633.83661407
_cell_formula_units_Z   4
loop_
 _symmetry_equiv_pos_site_id
 _symmetry_equiv_pos_as_xyz
  1  'x, y, z'
loop_
 _atom_site_type_symbol
 _atom_site_label
 _atom_site_symmetry_multiplicity
 _atom_site_fract_x
 _atom_site_fract_y
 _atom_site_fract_z
 _atom_site_occupancy
  Pu  Pu0  1  0.929727  0.447892  0.351789  1
  Pu  Pu1  1  0.429727  0.552108  0.148211  1
  Pu  Pu2  1  0.570273  0.947892  0.648211  1
  Pu  Pu3  1  0.070273  0.052108  0.851789  1
  Tc  Tc4  1  0.249168  0.534242  0.610919  1
  Tc  Tc5  1  0.749168  0.465758  0.889081  1
  Tc  Tc6  1  0.250832  0.034242  0.389081  1
  Tc  Tc7  1  0.750832  0.965758  0.110919  1
  O  O8  1  0.721608  0.621978  0.364938  1
  O  O9  1  0.221608  0.378022  0.135062  1
  O  O10  1  0.778392  0.121978  0.635062  1
  O  O11  1  0.278392  0.878022  0.864938  1
  O  O12  1  0.517638  0.432451  0.600367  1
  O  O13  1  0.017638  0.567549  0.899633  1
  O  O14  1  0.982362  0.932451  0.399633  1
  O  O15  1  0.482362  0.067549  0.100367  1
  O  O16  1  0.902784  0.977904  0.000704  1
  O  O17  1  0.402784  0.022096  0.499296  1
  O  O18  1  0.597216  0.477904  0.999296  1
  O  O19  1  0.097216  0.522096  0.500704  1
  O  O20  1  0.694667  0.757151  0.144101  1
  O  O21  1  0.194667  0.242849  0.355899  1
  O  O22  1  0.805333  0.257151  0.855899  1
  O  O23  1  0.305333  0.742849  0.644101  1
  O  O24  1  0.274958  0.190786  0.907733  1
  O  O25  1  0.774958  0.809214  0.592267  1
  O  O26  1  0.225042  0.690786  0.092267  1
  O  O27  1  0.725042  0.309214  0.407733  1
  O  O28  1  0.921129  0.059201  0.197193  1
  O  O29  1  0.421129  0.940799  0.302807  1
  O  O30  1  0.578871  0.559201  0.802807  1
  O  O31  1  0.078871  0.440799  0.697193  1
  O  O32  1  0.834579  0.929341  0.793161  1
  O  O33  1  0.334579  0.070659  0.706839  1
  O  O34  1  0.665421  0.429341  0.206839  1
  O  O35  1  0.165421  0.570659  0.293161  1
