# generated using pymatgen
data_Lu3Mg3OsAu2
_symmetry_space_group_name_H-M   'P 1'
_cell_length_a   7.53984700
_cell_length_b   7.53984671
_cell_length_c   3.93530700
_cell_angle_alpha   90.00000000
_cell_angle_beta   90.00000000
_cell_angle_gamma   119.99999687
_symmetry_Int_Tables_number   1
_chemical_formula_structural   Lu3Mg3OsAu2
_chemical_formula_sum   'Lu3 Mg3 Os1 Au2'
_cell_volume   193.74669963
_cell_formula_units_Z   1
loop_
 _symmetry_equiv_pos_site_id
 _symmetry_equiv_pos_as_xyz
  1  'x, y, z'
loop_
 _atom_site_type_symbol
 _atom_site_label
 _atom_site_symmetry_multiplicity
 _atom_site_fract_x
 _atom_site_fract_y
 _atom_site_fract_z
 _atom_site_occupancy
  Lu  Lu0  1  0.034106  0.606457  0.000000  1
  Lu  Lu1  1  0.393543  0.427648  0.000000  1
  Lu  Lu2  1  0.572352  0.965894  0.000000  1
  Mg  Mg3  1  0.999851  0.257055  0.500000  1
  Mg  Mg4  1  0.257204  0.000149  0.500000  1
  Mg  Mg5  1  0.742945  0.742796  0.500000  1
  Os  Os6  1  0.333333  0.666667  0.500000  1
  Au  Au7  1  0.000000  0.000000  0.000000  1
  Au  Au8  1  0.666667  0.333333  0.500000  1
