# generated using pymatgen
data_Y7HoCu3Si12Pd
_symmetry_space_group_name_H-M   'P 1'
_cell_length_a   8.04382800
_cell_length_b   8.04062353
_cell_length_c   8.15796161
_cell_angle_alpha   89.96147665
_cell_angle_beta   90.00000000
_cell_angle_gamma   120.01317606
_symmetry_Int_Tables_number   1
_chemical_formula_structural   Y7HoCu3Si12Pd
_chemical_formula_sum   'Y7 Ho1 Cu3 Si12 Pd1'
_cell_volume   456.88509015
_cell_formula_units_Z   1
loop_
 _symmetry_equiv_pos_site_id
 _symmetry_equiv_pos_as_xyz
  1  'x, y, z'
loop_
 _atom_site_type_symbol
 _atom_site_label
 _atom_site_symmetry_multiplicity
 _atom_site_fract_x
 _atom_site_fract_y
 _atom_site_fract_z
 _atom_site_occupancy
  Y  Y0  1  0.500520  0.001039  0.750750  1
  Y  Y1  1  0.998296  0.499141  0.249231  1
  Y  Y2  1  0.998963  0.499475  0.750756  1
  Y  Y3  1  0.500845  0.499141  0.249231  1
  Y  Y4  1  0.500512  0.499475  0.750756  1
  Y  Y5  1  0.000006  0.000012  0.249189  1
  Y  Y6  1  0.999998  0.999996  0.750894  1
  Ho  Ho7  1  0.500738  0.001475  0.249401  1
  Cu  Cu8  1  0.333534  0.667069  0.001511  1
  Cu  Cu9  1  0.666424  0.332847  0.000229  1
  Cu  Cu10  1  0.666432  0.332864  0.499135  1
  Si  Si11  1  0.169541  0.339081  0.999880  1
  Si  Si12  1  0.830931  0.661863  0.000101  1
  Si  Si13  1  0.660898  0.830530  0.000428  1
  Si  Si14  1  0.831123  0.662244  0.500221  1
  Si  Si15  1  0.338058  0.168899  0.000712  1
  Si  Si16  1  0.166283  0.332564  0.499902  1
  Si  Si17  1  0.169633  0.830530  0.000428  1
  Si  Si18  1  0.337565  0.168778  0.499696  1
  Si  Si19  1  0.830841  0.168899  0.000712  1
  Si  Si20  1  0.667909  0.834003  0.499323  1
  Si  Si21  1  0.831214  0.168778  0.499696  1
  Si  Si22  1  0.166095  0.834003  0.499323  1
  Pd  Pd23  1  0.333645  0.667291  0.498498  1
