# generated using pymatgen
data_Rb4Li2HoInAs4
_symmetry_space_group_name_H-M   'P 1'
_cell_length_a   10.56329774
_cell_length_b   10.56329869
_cell_length_c   6.71361900
_cell_angle_alpha   90.00000000
_cell_angle_beta   90.00000000
_cell_angle_gamma   101.88239060
_symmetry_Int_Tables_number   1
_chemical_formula_structural   Rb4Li2HoInAs4
_chemical_formula_sum   'Rb8 Li4 Ho2 In2 As8'
_cell_volume   733.07548596
_cell_formula_units_Z   2
loop_
 _symmetry_equiv_pos_site_id
 _symmetry_equiv_pos_as_xyz
  1  'x, y, z'
loop_
 _atom_site_type_symbol
 _atom_site_label
 _atom_site_symmetry_multiplicity
 _atom_site_fract_x
 _atom_site_fract_y
 _atom_site_fract_z
 _atom_site_occupancy
  Rb  Rb0  1  0.573129  0.926871  0.750000  1
  Rb  Rb1  1  0.926871  0.573129  0.250000  1
  Rb  Rb2  1  0.431149  0.068851  0.250000  1
  Rb  Rb3  1  0.068851  0.431149  0.750000  1
  Rb  Rb4  1  0.678486  0.326738  0.782770  1
  Rb  Rb5  1  0.821514  0.173262  0.282770  1
  Rb  Rb6  1  0.326738  0.678486  0.217230  1
  Rb  Rb7  1  0.173262  0.821514  0.717230  1
  Li  Li8  1  0.621933  0.621933  0.000000  1
  Li  Li9  1  0.878067  0.878067  0.500000  1
  Li  Li10  1  0.382682  0.382682  0.000000  1
  Li  Li11  1  0.117318  0.117318  0.500000  1
  Ho  Ho12  1  0.127132  0.127132  0.000000  1
  Ho  Ho13  1  0.372868  0.372868  0.500000  1
  In  In14  1  0.868711  0.868711  0.000000  1
  In  In15  1  0.631289  0.631289  0.500000  1
  As  As16  1  0.343554  0.156446  0.750000  1
  As  As17  1  0.156446  0.343554  0.250000  1
  As  As18  1  0.655957  0.844043  0.250000  1
  As  As19  1  0.844043  0.655957  0.750000  1
  As  As20  1  0.903723  0.089463  0.765308  1
  As  As21  1  0.596277  0.410537  0.265308  1
  As  As22  1  0.089463  0.903723  0.234692  1
  As  As23  1  0.410537  0.596277  0.734692  1
