# generated using pymatgen
data_Tb3Dy5(CdOs)2
_symmetry_space_group_name_H-M   'P 1'
_cell_length_a   9.65283633
_cell_length_b   9.65283773
_cell_length_c   9.65283700
_cell_angle_alpha   59.99999907
_cell_angle_beta   59.99999428
_cell_angle_gamma   59.99999900
_symmetry_Int_Tables_number   1
_chemical_formula_structural   Tb3Dy5(CdOs)2
_chemical_formula_sum   'Tb6 Dy10 Cd4 Os4'
_cell_volume   635.98942985
_cell_formula_units_Z   2
loop_
 _symmetry_equiv_pos_site_id
 _symmetry_equiv_pos_as_xyz
  1  'x, y, z'
loop_
 _atom_site_type_symbol
 _atom_site_label
 _atom_site_symmetry_multiplicity
 _atom_site_fract_x
 _atom_site_fract_y
 _atom_site_fract_z
 _atom_site_occupancy
  Tb  Tb0  1  0.190897  0.809103  0.809103  1
  Tb  Tb1  1  0.809103  0.190897  0.190897  1
  Tb  Tb2  1  0.809103  0.190897  0.809103  1
  Tb  Tb3  1  0.190897  0.809103  0.190897  1
  Tb  Tb4  1  0.809103  0.809103  0.190897  1
  Tb  Tb5  1  0.190897  0.190897  0.809103  1
  Dy  Dy6  1  0.596162  0.596162  0.596162  1
  Dy  Dy7  1  0.596162  0.596162  0.211514  1
  Dy  Dy8  1  0.596162  0.211514  0.596162  1
  Dy  Dy9  1  0.211514  0.596162  0.596162  1
  Dy  Dy10  1  0.059820  0.440180  0.440180  1
  Dy  Dy11  1  0.440180  0.059820  0.059820  1
  Dy  Dy12  1  0.440180  0.059820  0.440180  1
  Dy  Dy13  1  0.059820  0.440180  0.059820  1
  Dy  Dy14  1  0.440180  0.440180  0.059820  1
  Dy  Dy15  1  0.059820  0.059820  0.440180  1
  Cd  Cd16  1  0.830033  0.830033  0.830033  1
  Cd  Cd17  1  0.830033  0.830033  0.509901  1
  Cd  Cd18  1  0.830033  0.509901  0.830033  1
  Cd  Cd19  1  0.509901  0.830033  0.830033  1
  Os  Os20  1  0.389134  0.389134  0.389134  1
  Os  Os21  1  0.389134  0.389134  0.832600  1
  Os  Os22  1  0.389134  0.832600  0.389134  1
  Os  Os23  1  0.832600  0.389134  0.389134  1
