# generated using pymatgen
data_Sm(Cr3S4)2
_symmetry_space_group_name_H-M   'P 1'
_cell_length_a   6.21491901
_cell_length_b   6.21492023
_cell_length_c   6.21491987
_cell_angle_alpha   88.91580018
_cell_angle_beta   88.91579580
_cell_angle_gamma   88.91579394
_symmetry_Int_Tables_number   1
_chemical_formula_structural   Sm(Cr3S4)2
_chemical_formula_sum   'Sm1 Cr6 S8'
_cell_volume   239.92535586
_cell_formula_units_Z   1
loop_
 _symmetry_equiv_pos_site_id
 _symmetry_equiv_pos_as_xyz
  1  'x, y, z'
loop_
 _atom_site_type_symbol
 _atom_site_label
 _atom_site_symmetry_multiplicity
 _atom_site_fract_x
 _atom_site_fract_y
 _atom_site_fract_z
 _atom_site_occupancy
  Sm  Sm0  1  0.000000  0.000000  0.000000  1
  Cr  Cr1  1  0.768310  0.580600  0.437039  1
  Cr  Cr2  1  0.437039  0.768310  0.580600  1
  Cr  Cr3  1  0.580600  0.437039  0.768310  1
  Cr  Cr4  1  0.231690  0.419400  0.562961  1
  Cr  Cr5  1  0.562961  0.231690  0.419400  1
  Cr  Cr6  1  0.419400  0.562961  0.231690  1
  S  S7  1  0.751309  0.751309  0.751309  1
  S  S8  1  0.248691  0.248691  0.248691  1
  S  S9  1  0.256913  0.617700  0.873421  1
  S  S10  1  0.873421  0.256913  0.617700  1
  S  S11  1  0.617700  0.873421  0.256913  1
  S  S12  1  0.743087  0.382300  0.126579  1
  S  S13  1  0.126579  0.743087  0.382300  1
  S  S14  1  0.382300  0.126579  0.743087  1
