# generated using pymatgen
data_Tb3CeCdOs
_symmetry_space_group_name_H-M   'P 1'
_cell_length_a   9.69299483
_cell_length_b   9.69299463
_cell_length_c   9.69299500
_cell_angle_alpha   60.00000215
_cell_angle_beta   60.00000283
_cell_angle_gamma   59.99999923
_symmetry_Int_Tables_number   1
_chemical_formula_structural   Tb3CeCdOs
_chemical_formula_sum   'Tb12 Ce4 Cd4 Os4'
_cell_volume   643.96009808
_cell_formula_units_Z   4
loop_
 _symmetry_equiv_pos_site_id
 _symmetry_equiv_pos_as_xyz
  1  'x, y, z'
loop_
 _atom_site_type_symbol
 _atom_site_label
 _atom_site_symmetry_multiplicity
 _atom_site_fract_x
 _atom_site_fract_y
 _atom_site_fract_z
 _atom_site_occupancy
  Tb  Tb0  1  0.559967  0.559967  0.940033  1
  Tb  Tb1  1  0.940033  0.559967  0.940033  1
  Tb  Tb2  1  0.559967  0.940033  0.940033  1
  Tb  Tb3  1  0.940033  0.940033  0.559967  1
  Tb  Tb4  1  0.559967  0.940033  0.559967  1
  Tb  Tb5  1  0.940033  0.559967  0.559967  1
  Tb  Tb6  1  0.189719  0.189719  0.810281  1
  Tb  Tb7  1  0.810281  0.189719  0.810281  1
  Tb  Tb8  1  0.189718  0.810282  0.810281  1
  Tb  Tb9  1  0.810281  0.810282  0.189719  1
  Tb  Tb10  1  0.189718  0.810281  0.189718  1
  Tb  Tb11  1  0.810281  0.189719  0.189719  1
  Ce  Ce12  1  0.345851  0.345851  0.962449  1
  Ce  Ce13  1  0.345851  0.962449  0.345851  1
  Ce  Ce14  1  0.962449  0.345851  0.345851  1
  Ce  Ce15  1  0.345851  0.345851  0.345851  1
  Cd  Cd16  1  0.580843  0.580843  0.257472  1
  Cd  Cd17  1  0.580843  0.257472  0.580843  1
  Cd  Cd18  1  0.257472  0.580843  0.580843  1
  Cd  Cd19  1  0.580843  0.580843  0.580843  1
  Os  Os20  1  0.143328  0.143328  0.570016  1
  Os  Os21  1  0.143328  0.570016  0.143328  1
  Os  Os22  1  0.570016  0.143328  0.143328  1
  Os  Os23  1  0.143328  0.143328  0.143328  1
