# generated using pymatgen
data_Ce12TlSi5Ru6
_symmetry_space_group_name_H-M   'P 1'
_cell_length_a   7.67107200
_cell_length_b   7.67107180
_cell_length_c   9.85087500
_cell_angle_alpha   90.00000000
_cell_angle_beta   90.00000000
_cell_angle_gamma   120.00000084
_symmetry_Int_Tables_number   1
_chemical_formula_structural   Ce12TlSi5Ru6
_chemical_formula_sum   'Ce12 Tl1 Si5 Ru6'
_cell_volume   502.01598173
_cell_formula_units_Z   1
loop_
 _symmetry_equiv_pos_site_id
 _symmetry_equiv_pos_as_xyz
  1  'x, y, z'
loop_
 _atom_site_type_symbol
 _atom_site_label
 _atom_site_symmetry_multiplicity
 _atom_site_fract_x
 _atom_site_fract_y
 _atom_site_fract_z
 _atom_site_occupancy
  Ce  Ce0  1  0.000000  0.593313  0.502807  1
  Ce  Ce1  1  0.593313  0.000000  0.502807  1
  Ce  Ce2  1  0.406687  0.406687  0.502807  1
  Ce  Ce3  1  0.000000  0.417251  0.006733  1
  Ce  Ce4  1  0.417251  0.000000  0.006733  1
  Ce  Ce5  1  0.582749  0.582749  0.006733  1
  Ce  Ce6  1  0.000000  0.731635  0.179589  1
  Ce  Ce7  1  0.731635  0.000000  0.179589  1
  Ce  Ce8  1  0.268365  0.268365  0.179589  1
  Ce  Ce9  1  0.000000  0.266862  0.667480  1
  Ce  Ce10  1  0.266862  0.000000  0.667480  1
  Ce  Ce11  1  0.733138  0.733138  0.667480  1
  Tl  Tl12  1  0.000000  0.000000  0.925193  1
  Si  Si13  1  0.666667  0.333333  0.275857  1
  Si  Si14  1  0.333333  0.666667  0.275857  1
  Si  Si15  1  0.333333  0.666667  0.770813  1
  Si  Si16  1  0.666667  0.333333  0.770813  1
  Si  Si17  1  0.000000  0.000000  0.418514  1
  Ru  Ru18  1  0.000000  0.340145  0.340039  1
  Ru  Ru19  1  0.340145  0.000000  0.340039  1
  Ru  Ru20  1  0.659855  0.659855  0.340039  1
  Ru  Ru21  1  0.000000  0.642087  0.834086  1
  Ru  Ru22  1  0.642087  0.000000  0.834086  1
  Ru  Ru23  1  0.357913  0.357913  0.834086  1
