# generated using pymatgen
data_CaNd8Y11Si16
_symmetry_space_group_name_H-M   'P 1'
_cell_length_a   7.76639110
_cell_length_b   7.76639113
_cell_length_c   14.45846200
_cell_angle_alpha   90.00911109
_cell_angle_beta   89.99088891
_cell_angle_gamma   90.00515087
_symmetry_Int_Tables_number   1
_chemical_formula_structural   CaNd8Y11Si16
_chemical_formula_sum   'Ca1 Nd8 Y11 Si16'
_cell_volume   872.08858244
_cell_formula_units_Z   1
loop_
 _symmetry_equiv_pos_site_id
 _symmetry_equiv_pos_as_xyz
  1  'x, y, z'
loop_
 _atom_site_type_symbol
 _atom_site_label
 _atom_site_symmetry_multiplicity
 _atom_site_fract_x
 _atom_site_fract_y
 _atom_site_fract_z
 _atom_site_occupancy
  Ca  Ca0  1  0.314489  0.314489  0.500000  1
  Nd  Nd1  1  0.636140  0.989865  0.456012  1
  Nd  Nd2  1  0.363443  0.010327  0.956103  1
  Nd  Nd3  1  0.989865  0.636140  0.543988  1
  Nd  Nd4  1  0.490411  0.862178  0.206680  1
  Nd  Nd5  1  0.509468  0.136170  0.706010  1
  Nd  Nd6  1  0.862178  0.490411  0.793320  1
  Nd  Nd7  1  0.136170  0.509468  0.293990  1
  Nd  Nd8  1  0.010327  0.363443  0.043897  1
  Y  Y9  1  0.488590  0.364884  0.123951  1
  Y  Y10  1  0.991025  0.135101  0.625088  1
  Y  Y11  1  0.863176  0.011338  0.874163  1
  Y  Y12  1  0.135101  0.991025  0.374912  1
  Y  Y13  1  0.509882  0.634269  0.624524  1
  Y  Y14  1  0.364884  0.488590  0.876049  1
  Y  Y15  1  0.634269  0.509882  0.375476  1
  Y  Y16  1  0.011338  0.863176  0.125837  1
  Y  Y17  1  0.186540  0.815444  0.750425  1
  Y  Y18  1  0.815444  0.186540  0.249575  1
  Y  Y19  1  0.685194  0.685194  0.000000  1
  Si  Si20  1  0.288452  0.924434  0.562381  1
  Si  Si21  1  0.711505  0.067603  0.061169  1
  Si  Si22  1  0.924434  0.288452  0.437619  1
  Si  Si23  1  0.434075  0.209813  0.307800  1
  Si  Si24  1  0.567653  0.788896  0.810522  1
  Si  Si25  1  0.209813  0.434075  0.692200  1
  Si  Si26  1  0.788896  0.567653  0.189478  1
  Si  Si27  1  0.067603  0.711505  0.938831  1
  Si  Si28  1  0.799223  0.842764  0.692052  1
  Si  Si29  1  0.199989  0.158335  0.192747  1
  Si  Si30  1  0.842764  0.799223  0.307948  1
  Si  Si31  1  0.344798  0.708350  0.440036  1
  Si  Si32  1  0.657569  0.298608  0.942004  1
  Si  Si33  1  0.708350  0.344798  0.559964  1
  Si  Si34  1  0.298608  0.657569  0.057996  1
  Si  Si35  1  0.158335  0.199989  0.807253  1
