# generated using pymatgen
data_TbEr3Bi3Sb3Rh7
_symmetry_space_group_name_H-M   'P 1'
_cell_length_a   7.75153225
_cell_length_b   7.68168195
_cell_length_c   7.68168035
_cell_angle_alpha   109.09173340
_cell_angle_beta   109.81282264
_cell_angle_gamma   109.81282008
_symmetry_Int_Tables_number   1
_chemical_formula_structural   TbEr3Bi3Sb3Rh7
_chemical_formula_sum   'Tb1 Er3 Bi3 Sb3 Rh7'
_cell_volume   350.77004270
_cell_formula_units_Z   1
loop_
 _symmetry_equiv_pos_site_id
 _symmetry_equiv_pos_as_xyz
  1  'x, y, z'
loop_
 _atom_site_type_symbol
 _atom_site_label
 _atom_site_symmetry_multiplicity
 _atom_site_fract_x
 _atom_site_fract_y
 _atom_site_fract_z
 _atom_site_occupancy
  Tb  Tb0  1  0.489702  0.485656  0.485656  1
  Er  Er1  1  0.461138  0.999841  0.999841  1
  Er  Er2  1  0.005110  0.516319  0.999858  1
  Er  Er3  1  0.005110  0.999858  0.516319  1
  Bi  Bi4  1  0.986326  0.295305  0.295305  1
  Bi  Bi5  1  0.692245  0.001491  0.705161  1
  Bi  Bi6  1  0.692245  0.705161  0.001491  1
  Sb  Sb7  1  0.987525  0.663061  0.663061  1
  Sb  Sb8  1  0.323596  0.999583  0.336256  1
  Sb  Sb9  1  0.323596  0.336256  0.999583  1
  Rh  Rh10  1  0.070054  0.998523  0.998523  1
  Rh  Rh11  1  0.496331  0.754062  0.253391  1
  Rh  Rh12  1  0.744034  0.501025  0.245635  1
  Rh  Rh13  1  0.241311  0.746146  0.498688  1
  Rh  Rh14  1  0.241311  0.498688  0.746146  1
  Rh  Rh15  1  0.496331  0.253391  0.754062  1
  Rh  Rh16  1  0.744034  0.245635  0.501025  1
