# generated using pymatgen
data_Dy3ZnIn4Ru
_symmetry_space_group_name_H-M   'P 1'
_cell_length_a   7.96476500
_cell_length_b   7.96476590
_cell_length_c   3.83189300
_cell_angle_alpha   90.00000000
_cell_angle_beta   90.00000000
_cell_angle_gamma   120.00000872
_symmetry_Int_Tables_number   1
_chemical_formula_structural   Dy3ZnIn4Ru
_chemical_formula_sum   'Dy3 Zn1 In4 Ru1'
_cell_volume   210.51834601
_cell_formula_units_Z   1
loop_
 _symmetry_equiv_pos_site_id
 _symmetry_equiv_pos_as_xyz
  1  'x, y, z'
loop_
 _atom_site_type_symbol
 _atom_site_label
 _atom_site_symmetry_multiplicity
 _atom_site_fract_x
 _atom_site_fract_y
 _atom_site_fract_z
 _atom_site_occupancy
  Dy  Dy0  1  0.045981  0.293058  0.500000  1
  Dy  Dy1  1  0.706942  0.752921  0.500000  1
  Dy  Dy2  1  0.247079  0.954019  0.500000  1
  Zn  Zn3  1  0.666667  0.333333  0.500000  1
  In  In4  1  0.670516  0.071435  0.000000  1
  In  In5  1  0.928565  0.599082  0.000000  1
  In  In6  1  0.400918  0.329484  0.000000  1
  In  In7  1  0.333333  0.666667  0.000000  1
  Ru  Ru8  1  0.000000  0.000000  0.000000  1
