# generated using pymatgen
data_Tb8Dy10Sc2Si15Tc
_symmetry_space_group_name_H-M   'P 1'
_cell_length_a   7.29927068
_cell_length_b   7.76639039
_cell_length_c   14.51479400
_cell_angle_alpha   90.00000000
_cell_angle_beta   90.00000000
_cell_angle_gamma   90.19352191
_symmetry_Int_Tables_number   1
_chemical_formula_structural   Tb8Dy10Sc2Si15Tc
_chemical_formula_sum   'Tb8 Dy10 Sc2 Si15 Tc1'
_cell_volume   822.82425627
_cell_formula_units_Z   1
loop_
 _symmetry_equiv_pos_site_id
 _symmetry_equiv_pos_as_xyz
  1  'x, y, z'
loop_
 _atom_site_type_symbol
 _atom_site_label
 _atom_site_symmetry_multiplicity
 _atom_site_fract_x
 _atom_site_fract_y
 _atom_site_fract_z
 _atom_site_occupancy
  Tb  Tb0  1  0.018271  0.184506  0.098621  1
  Tb  Tb1  1  0.985208  0.825049  0.907264  1
  Tb  Tb2  1  0.482509  0.683382  0.906101  1
  Tb  Tb3  1  0.985208  0.825049  0.592736  1
  Tb  Tb4  1  0.517743  0.316949  0.098213  1
  Tb  Tb5  1  0.018271  0.184506  0.401379  1
  Tb  Tb6  1  0.517743  0.316949  0.401787  1
  Tb  Tb7  1  0.482509  0.683382  0.593899  1
  Dy  Dy8  1  0.154188  0.515795  0.750000  1
  Dy  Dy9  1  0.666628  0.987456  0.750000  1
  Dy  Dy10  1  0.311838  0.174124  0.626538  1
  Dy  Dy11  1  0.677444  0.823178  0.372381  1
  Dy  Dy12  1  0.176933  0.679728  0.371912  1
  Dy  Dy13  1  0.677444  0.823178  0.127619  1
  Dy  Dy14  1  0.833448  0.316289  0.624064  1
  Dy  Dy15  1  0.311838  0.174124  0.873462  1
  Dy  Dy16  1  0.833448  0.316289  0.875936  1
  Dy  Dy17  1  0.176933  0.679728  0.128088  1
  Sc  Sc18  1  0.839366  0.481528  0.250000  1
  Sc  Sc19  1  0.340926  0.019964  0.250000  1
  Si  Si20  1  0.979056  0.910050  0.250000  1
  Si  Si21  1  0.480798  0.591154  0.250000  1
  Si  Si22  1  0.528837  0.398038  0.750000  1
  Si  Si23  1  0.276575  0.865797  0.750000  1
  Si  Si24  1  0.717584  0.135949  0.250000  1
  Si  Si25  1  0.220089  0.364256  0.250000  1
  Si  Si26  1  0.767013  0.624459  0.750000  1
  Si  Si27  1  0.156479  0.473194  0.535340  1
  Si  Si28  1  0.847714  0.530022  0.458246  1
  Si  Si29  1  0.346433  0.970988  0.458169  1
  Si  Si30  1  0.847714  0.530022  0.041754  1
  Si  Si31  1  0.648277  0.030226  0.535733  1
  Si  Si32  1  0.156479  0.473194  0.964660  1
  Si  Si33  1  0.648277  0.030226  0.964267  1
  Si  Si34  1  0.346433  0.970988  0.041831  1
  Tc  Tc35  1  0.024343  0.090283  0.750000  1
