# generated using pymatgen
data_La2Pr2Cd2RuAu3
_symmetry_space_group_name_H-M   'P 1'
_cell_length_a   8.04494667
_cell_length_b   8.04494654
_cell_length_c   3.99645600
_cell_angle_alpha   90.00000000
_cell_angle_beta   90.00000000
_cell_angle_gamma   90.98181276
_symmetry_Int_Tables_number   1
_chemical_formula_structural   La2Pr2Cd2RuAu3
_chemical_formula_sum   'La2 Pr2 Cd2 Ru1 Au3'
_cell_volume   258.61731716
_cell_formula_units_Z   1
loop_
 _symmetry_equiv_pos_site_id
 _symmetry_equiv_pos_as_xyz
  1  'x, y, z'
loop_
 _atom_site_type_symbol
 _atom_site_label
 _atom_site_symmetry_multiplicity
 _atom_site_fract_x
 _atom_site_fract_y
 _atom_site_fract_z
 _atom_site_occupancy
  La  La0  1  0.669440  0.169440  0.500000  1
  La  La1  1  0.304516  0.804516  0.500000  1
  Pr  Pr2  1  0.175381  0.346911  0.500000  1
  Pr  Pr3  1  0.846911  0.675381  0.500000  1
  Cd  Cd4  1  0.000695  0.996836  0.000000  1
  Cd  Cd5  1  0.496836  0.500695  0.000000  1
  Ru  Ru6  1  0.140113  0.640113  0.000000  1
  Au  Au7  1  0.876469  0.376469  0.000000  1
  Au  Au8  1  0.623689  0.865950  0.000000  1
  Au  Au9  1  0.365950  0.123689  0.000000  1
