# generated using pymatgen
data_Ti6Ge6Mo2IrRh3
_symmetry_space_group_name_H-M   'P 1'
_cell_length_a   7.58555332
_cell_length_b   7.57803499
_cell_length_c   7.57939819
_cell_angle_alpha   126.55575348
_cell_angle_beta   124.46584491
_cell_angle_gamma   80.62871676
_symmetry_Int_Tables_number   1
_chemical_formula_structural   Ti6Ge6Mo2IrRh3
_chemical_formula_sum   'Ti6 Ge6 Mo2 Ir1 Rh3'
_cell_volume   278.38226440
_cell_formula_units_Z   1
loop_
 _symmetry_equiv_pos_site_id
 _symmetry_equiv_pos_as_xyz
  1  'x, y, z'
loop_
 _atom_site_type_symbol
 _atom_site_label
 _atom_site_symmetry_multiplicity
 _atom_site_fract_x
 _atom_site_fract_y
 _atom_site_fract_z
 _atom_site_occupancy
  Ti  Ti0  1  0.963334  0.730715  0.266945  1
  Ti  Ti1  1  0.036303  0.302156  0.766582  1
  Ti  Ti2  1  0.247352  0.169148  0.419636  1
  Ti  Ti3  1  0.752433  0.173217  0.921332  1
  Ti  Ti4  1  0.561802  0.349296  0.286597  1
  Ti  Ti5  1  0.437275  0.725825  0.788071  1
  Ge  Ge6  1  0.783683  0.805337  0.518638  1
  Ge  Ge7  1  0.214151  0.733039  0.020301  1
  Ge  Ge8  1  0.336628  0.069690  0.743384  1
  Ge  Ge9  1  0.664315  0.408179  0.733686  1
  Ge  Ge10  1  0.174512  0.409430  0.245116  1
  Ge  Ge11  1  0.825739  0.069375  0.233782  1
  Mo  Mo12  1  0.501273  0.497318  0.998192  1
  Mo  Mo13  1  0.000736  0.497553  0.498069  1
  Ir  Ir14  1  0.173023  0.004205  0.918837  1
  Rh  Rh15  1  0.828416  0.746021  0.832205  1
  Rh  Rh16  1  0.414304  0.746119  0.418272  1
  Rh  Rh17  1  0.584723  0.003783  0.330756  1
