# generated using pymatgen
data_Pr8Tm2Si5Pb
_symmetry_space_group_name_H-M   'P 1'
_cell_length_a   7.71282841
_cell_length_b   7.71282816
_cell_length_c   9.25482100
_cell_angle_alpha   114.62595664
_cell_angle_beta   114.62595583
_cell_angle_gamma   89.99999654
_symmetry_Int_Tables_number   1
_chemical_formula_structural   Pr8Tm2Si5Pb
_chemical_formula_sum   'Pr8 Tm2 Si5 Pb1'
_cell_volume   444.79882162
_cell_formula_units_Z   1
loop_
 _symmetry_equiv_pos_site_id
 _symmetry_equiv_pos_as_xyz
  1  'x, y, z'
loop_
 _atom_site_type_symbol
 _atom_site_label
 _atom_site_symmetry_multiplicity
 _atom_site_fract_x
 _atom_site_fract_y
 _atom_site_fract_z
 _atom_site_occupancy
  Pr  Pr0  1  0.974866  0.827513  0.281032  1
  Pr  Pr1  1  0.306167  0.453518  0.281032  1
  Pr  Pr2  1  0.827513  0.306167  0.281032  1
  Pr  Pr3  1  0.453518  0.974866  0.281032  1
  Pr  Pr4  1  0.046482  0.193833  0.718968  1
  Pr  Pr5  1  0.672487  0.525134  0.718968  1
  Pr  Pr6  1  0.193833  0.672487  0.718968  1
  Pr  Pr7  1  0.525134  0.046482  0.718968  1
  Tm  Tm8  1  0.511997  0.511997  0.023993  1
  Tm  Tm9  1  0.988003  0.988003  0.976007  1
  Si  Si10  1  0.250000  0.250000  0.500000  1
  Si  Si11  1  0.620038  0.879962  0.000000  1
  Si  Si12  1  0.379962  0.120038  0.000000  1
  Si  Si13  1  0.879962  0.379962  0.000000  1
  Si  Si14  1  0.120038  0.620038  0.000000  1
  Pb  Pb15  1  0.750000  0.750000  0.500000  1
