# generated using pymatgen
data_Tb2ErNb3(B2Ru5)2
_symmetry_space_group_name_H-M   'P 1'
_cell_length_a   9.61500507
_cell_length_b   9.61500466
_cell_length_c   3.12575400
_cell_angle_alpha   90.00000000
_cell_angle_beta   90.00000000
_cell_angle_gamma   90.54581293
_symmetry_Int_Tables_number   1
_chemical_formula_structural   Tb2ErNb3(B2Ru5)2
_chemical_formula_sum   'Tb2 Er1 Nb3 B4 Ru10'
_cell_volume   288.95758953
_cell_formula_units_Z   1
loop_
 _symmetry_equiv_pos_site_id
 _symmetry_equiv_pos_as_xyz
  1  'x, y, z'
loop_
 _atom_site_type_symbol
 _atom_site_label
 _atom_site_symmetry_multiplicity
 _atom_site_fract_x
 _atom_site_fract_y
 _atom_site_fract_z
 _atom_site_occupancy
  Tb  Tb0  1  0.823938  0.674883  0.000000  1
  Tb  Tb1  1  0.174883  0.323938  0.000000  1
  Er  Er2  1  0.325635  0.825635  0.000000  1
  Nb  Nb3  1  0.675492  0.175492  0.000000  1
  Nb  Nb4  1  0.497618  0.503497  0.000000  1
  Nb  Nb5  1  0.003497  0.997618  0.000000  1
  B  B6  1  0.623209  0.881695  0.000000  1
  B  B7  1  0.381695  0.123209  0.000000  1
  B  B8  1  0.119585  0.619585  0.000000  1
  B  B9  1  0.875438  0.375438  0.000000  1
  Ru  Ru10  1  0.569871  0.723123  0.500000  1
  Ru  Ru11  1  0.440977  0.280211  0.500000  1
  Ru  Ru12  1  0.070751  0.780493  0.500000  1
  Ru  Ru13  1  0.915189  0.213117  0.500000  1
  Ru  Ru14  1  0.280493  0.570751  0.500000  1
  Ru  Ru15  1  0.713117  0.415189  0.500000  1
  Ru  Ru16  1  0.223123  0.069871  0.500000  1
  Ru  Ru17  1  0.780211  0.940977  0.500000  1
  Ru  Ru18  1  0.509342  0.009342  0.500000  1
  Ru  Ru19  1  0.995937  0.495937  0.500000  1
