# generated using pymatgen
data_Tb7NdHf12Si15As
_symmetry_space_group_name_H-M   'P 1'
_cell_length_a   7.30099567
_cell_length_b   7.31741944
_cell_length_c   13.43814794
_cell_angle_alpha   89.65107731
_cell_angle_beta   89.94637329
_cell_angle_gamma   89.95211407
_symmetry_Int_Tables_number   1
_chemical_formula_structural   Tb7NdHf12Si15As
_chemical_formula_sum   'Tb7 Nd1 Hf12 Si15 As1'
_cell_volume   717.91175719
_cell_formula_units_Z   1
loop_
 _symmetry_equiv_pos_site_id
 _symmetry_equiv_pos_as_xyz
  1  'x, y, z'
loop_
 _atom_site_type_symbol
 _atom_site_label
 _atom_site_symmetry_multiplicity
 _atom_site_fract_x
 _atom_site_fract_y
 _atom_site_fract_z
 _atom_site_occupancy
  Tb  Tb0  1  0.005524  0.655801  0.715254  1
  Tb  Tb1  1  0.153056  0.499879  0.467133  1
  Tb  Tb2  1  0.507244  0.842051  0.033054  1
  Tb  Tb3  1  0.844578  0.503209  0.964025  1
  Tb  Tb4  1  0.495952  0.154387  0.536046  1
  Tb  Tb5  1  0.345451  0.995857  0.785205  1
  Tb  Tb6  1  0.653680  0.004057  0.284574  1
  Nd  Nd7  1  0.993601  0.343623  0.215654  1
  Hf  Hf8  1  0.174778  0.174834  0.999690  1
  Hf  Hf9  1  0.825810  0.826741  0.500721  1
  Hf  Hf10  1  0.325119  0.678000  0.249745  1
  Hf  Hf11  1  0.674849  0.325196  0.750044  1
  Hf  Hf12  1  0.150778  0.996418  0.373485  1
  Hf  Hf13  1  0.851099  0.003740  0.874048  1
  Hf  Hf14  1  0.503096  0.650436  0.625045  1
  Hf  Hf15  1  0.351683  0.496239  0.874658  1
  Hf  Hf16  1  0.494019  0.347571  0.124625  1
  Hf  Hf17  1  0.653222  0.508713  0.377847  1
  Hf  Hf18  1  0.996632  0.150256  0.625853  1
  Hf  Hf19  1  0.000926  0.846150  0.123815  1
  Si  Si20  1  0.637627  0.704857  0.816401  1
  Si  Si21  1  0.203940  0.863763  0.566338  1
  Si  Si22  1  0.137560  0.794708  0.932089  1
  Si  Si23  1  0.793067  0.135423  0.065036  1
  Si  Si24  1  0.862513  0.203486  0.434125  1
  Si  Si25  1  0.296141  0.362103  0.682977  1
  Si  Si26  1  0.699568  0.638259  0.184407  1
  Si  Si27  1  0.294060  0.036459  0.179224  1
  Si  Si28  1  0.706030  0.950915  0.685787  1
  Si  Si29  1  0.450885  0.795733  0.436290  1
  Si  Si30  1  0.207118  0.549937  0.063066  1
  Si  Si31  1  0.548972  0.204928  0.935577  1
  Si  Si32  1  0.793983  0.451440  0.565653  1
  Si  Si33  1  0.049820  0.294457  0.813915  1
  Si  Si34  1  0.950387  0.709476  0.315287  1
  As  As35  1  0.367234  0.300897  0.323305  1
