# generated using pymatgen
data_Er3Zr(SiRh2)8
_symmetry_space_group_name_H-M   'P 1'
_cell_length_a   4.12176800
_cell_length_b   9.03599244
_cell_length_c   11.23097484
_cell_angle_alpha   89.87387861
_cell_angle_beta   90.00000000
_cell_angle_gamma   90.00000000
_symmetry_Int_Tables_number   1
_chemical_formula_structural   Er3Zr(SiRh2)8
_chemical_formula_sum   'Er3 Zr1 Si8 Rh16'
_cell_volume   418.28838412
_cell_formula_units_Z   1
loop_
 _symmetry_equiv_pos_site_id
 _symmetry_equiv_pos_as_xyz
  1  'x, y, z'
loop_
 _atom_site_type_symbol
 _atom_site_label
 _atom_site_symmetry_multiplicity
 _atom_site_fract_x
 _atom_site_fract_y
 _atom_site_fract_z
 _atom_site_occupancy
  Er  Er0  1  0.250000  0.351954  0.325409  1
  Er  Er1  1  0.750000  0.851883  0.174426  1
  Er  Er2  1  0.750000  0.647990  0.675683  1
  Zr  Zr3  1  0.250000  0.146831  0.824750  1
  Si  Si4  1  0.250000  0.411743  0.636250  1
  Si  Si5  1  0.250000  0.088283  0.138478  1
  Si  Si6  1  0.750000  0.588507  0.363244  1
  Si  Si7  1  0.750000  0.914096  0.862251  1
  Si  Si8  1  0.250000  0.616364  0.057537  1
  Si  Si9  1  0.250000  0.883051  0.558405  1
  Si  Si10  1  0.750000  0.385213  0.940866  1
  Si  Si11  1  0.750000  0.116458  0.441174  1
  Rh  Rh12  1  0.250000  0.615993  0.501365  1
  Rh  Rh13  1  0.250000  0.887886  0.001030  1
  Rh  Rh14  1  0.750000  0.383967  0.501265  1
  Rh  Rh15  1  0.750000  0.118929  0.994018  1
  Rh  Rh16  1  0.250000  0.684466  0.267908  1
  Rh  Rh17  1  0.250000  0.818394  0.768697  1
  Rh  Rh18  1  0.750000  0.303925  0.734416  1
  Rh  Rh19  1  0.750000  0.184533  0.229402  1
  Rh  Rh20  1  0.250000  0.171249  0.562208  1
  Rh  Rh21  1  0.250000  0.326482  0.057291  1
  Rh  Rh22  1  0.750000  0.828388  0.442898  1
  Rh  Rh23  1  0.750000  0.673119  0.940316  1
  Rh  Rh24  1  0.250000  0.007830  0.345233  1
  Rh  Rh25  1  0.250000  0.489486  0.841421  1
  Rh  Rh26  1  0.750000  0.997510  0.658519  1
  Rh  Rh27  1  0.750000  0.505472  0.155541  1
