# generated using pymatgen
data_La4Pb3N2
_symmetry_space_group_name_H-M   'P 1'
_cell_length_a   8.02311300
_cell_length_b   11.36775400
_cell_length_c   11.80890600
_cell_angle_alpha   90.00000000
_cell_angle_beta   90.00000000
_cell_angle_gamma   90.00000000
_symmetry_Int_Tables_number   1
_chemical_formula_structural   La4Pb3N2
_chemical_formula_sum   'La16 Pb12 N8'
_cell_volume   1077.02861352
_cell_formula_units_Z   4
loop_
 _symmetry_equiv_pos_site_id
 _symmetry_equiv_pos_as_xyz
  1  'x, y, z'
loop_
 _atom_site_type_symbol
 _atom_site_label
 _atom_site_symmetry_multiplicity
 _atom_site_fract_x
 _atom_site_fract_y
 _atom_site_fract_z
 _atom_site_occupancy
  La  La0  1  0.248986  0.250000  0.020627  1
  La  La1  1  0.637097  0.054024  0.107385  1
  La  La2  1  0.637097  0.445977  0.107385  1
  La  La3  1  0.392962  0.750000  0.160338  1
  La  La4  1  0.892961  0.750000  0.339662  1
  La  La5  1  0.137096  0.054024  0.392615  1
  La  La6  1  0.137096  0.445977  0.392615  1
  La  La7  1  0.748985  0.250000  0.479374  1
  La  La8  1  0.251015  0.750000  0.520627  1
  La  La9  1  0.862904  0.554024  0.607386  1
  La  La10  1  0.862904  0.945976  0.607386  1
  La  La11  1  0.107039  0.250000  0.660338  1
  La  La12  1  0.607038  0.250000  0.839662  1
  La  La13  1  0.362903  0.554024  0.892614  1
  La  La14  1  0.362903  0.945976  0.892614  1
  La  La15  1  0.751014  0.750000  0.979373  1
  Pb  Pb16  1  0.056330  0.544343  0.117624  1
  Pb  Pb17  1  0.056330  0.955658  0.117624  1
  Pb  Pb18  1  0.932429  0.250000  0.211242  1
  Pb  Pb19  1  0.432429  0.250000  0.288759  1
  Pb  Pb20  1  0.556330  0.544343  0.382376  1
  Pb  Pb21  1  0.556330  0.955658  0.382376  1
  Pb  Pb22  1  0.443670  0.044343  0.617624  1
  Pb  Pb23  1  0.443670  0.455657  0.617624  1
  Pb  Pb24  1  0.567571  0.750000  0.711241  1
  Pb  Pb25  1  0.067571  0.750000  0.788759  1
  Pb  Pb26  1  0.943670  0.044343  0.882376  1
  Pb  Pb27  1  0.943670  0.455657  0.882376  1
  N  N28  1  0.539989  0.622800  0.044682  1
  N  N29  1  0.539989  0.877200  0.044682  1
  N  N30  1  0.039990  0.622800  0.455318  1
  N  N31  1  0.039990  0.877200  0.455318  1
  N  N32  1  0.960010  0.122800  0.544682  1
  N  N33  1  0.960010  0.377200  0.544682  1
  N  N34  1  0.460011  0.122800  0.955318  1
  N  N35  1  0.460011  0.377200  0.955318  1
