# generated using pymatgen
data_Li2Y9Tm9Tl2(Cd2Ru)2
_symmetry_space_group_name_H-M   'P 1'
_cell_length_a   9.42858700
_cell_length_b   9.42858687
_cell_length_c   9.66664600
_cell_angle_alpha   90.00000000
_cell_angle_beta   90.00000000
_cell_angle_gamma   119.99999695
_symmetry_Int_Tables_number   1
_chemical_formula_structural   Li2Y9Tm9Tl2(Cd2Ru)2
_chemical_formula_sum   'Li2 Y9 Tm9 Tl2 Cd4 Ru2'
_cell_volume   744.21715914
_cell_formula_units_Z   1
loop_
 _symmetry_equiv_pos_site_id
 _symmetry_equiv_pos_as_xyz
  1  'x, y, z'
loop_
 _atom_site_type_symbol
 _atom_site_label
 _atom_site_symmetry_multiplicity
 _atom_site_fract_x
 _atom_site_fract_y
 _atom_site_fract_z
 _atom_site_occupancy
  Li  Li0  1  0.000214  0.000107  0.500209  1
  Li  Li1  1  0.000232  0.000116  0.999566  1
  Y  Y2  1  0.207298  0.792739  0.058937  1
  Y  Y3  1  0.207298  0.414560  0.058937  1
  Y  Y4  1  0.585831  0.792915  0.059739  1
  Y  Y5  1  0.539459  0.456965  0.251505  1
  Y  Y6  1  0.539459  0.082495  0.251505  1
  Y  Y7  1  0.917351  0.458676  0.251558  1
  Y  Y8  1  0.458625  0.541972  0.747907  1
  Y  Y9  1  0.458625  0.916652  0.747907  1
  Y  Y10  1  0.083140  0.541570  0.747878  1
  Tm  Tm11  1  0.209307  0.790992  0.441441  1
  Tm  Tm12  1  0.209307  0.418316  0.441441  1
  Tm  Tm13  1  0.582096  0.791048  0.440794  1
  Tm  Tm14  1  0.791048  0.208891  0.559203  1
  Tm  Tm15  1  0.791048  0.582156  0.559203  1
  Tm  Tm16  1  0.418004  0.209001  0.559009  1
  Tm  Tm17  1  0.790264  0.209707  0.940162  1
  Tm  Tm18  1  0.790264  0.580556  0.940162  1
  Tm  Tm19  1  0.419629  0.209814  0.940235  1
  Tl  Tl20  1  0.891472  0.111983  0.250571  1
  Tl  Tl21  1  0.891472  0.779490  0.250571  1
  Cd  Cd22  1  0.218232  0.109117  0.250664  1
  Cd  Cd23  1  0.107571  0.892331  0.749593  1
  Cd  Cd24  1  0.107571  0.215239  0.749593  1
  Cd  Cd25  1  0.785219  0.892609  0.749613  1
  Ru  Ru26  1  0.333836  0.666919  0.252757  1
  Ru  Ru27  1  0.666128  0.333063  0.749342  1
