# generated using pymatgen
data_La4Dy2FeBr10
_symmetry_space_group_name_H-M   'P 1'
_cell_length_a   7.67455665
_cell_length_b   9.33618617
_cell_length_c   9.61865822
_cell_angle_alpha   108.06263800
_cell_angle_beta   107.05681605
_cell_angle_gamma   95.43893063
_symmetry_Int_Tables_number   1
_chemical_formula_structural   La4Dy2FeBr10
_chemical_formula_sum   'La4 Dy2 Fe1 Br10'
_cell_volume   613.18455113
_cell_formula_units_Z   1
loop_
 _symmetry_equiv_pos_site_id
 _symmetry_equiv_pos_as_xyz
  1  'x, y, z'
loop_
 _atom_site_type_symbol
 _atom_site_label
 _atom_site_symmetry_multiplicity
 _atom_site_fract_x
 _atom_site_fract_y
 _atom_site_fract_z
 _atom_site_occupancy
  La  La0  1  0.120578  0.777020  0.049358  1
  La  La1  1  0.626749  0.807210  0.849925  1
  La  La2  1  0.881365  0.224282  0.957112  1
  La  La3  1  0.978870  0.106516  0.313059  1
  Dy  Dy4  1  0.357469  0.176894  0.129374  1
  Dy  Dy5  1  0.031479  0.907332  0.708584  1
  Fe  Fe6  1  0.000144  0.998453  0.001741  1
  Br  Br7  1  0.440810  0.084078  0.825574  1
  Br  Br8  1  0.752063  0.541186  0.919912  1
  Br  Br9  1  0.257291  0.447348  0.085844  1
  Br  Br10  1  0.917768  0.165917  0.637229  1
  Br  Br11  1  0.667739  0.733584  0.541612  1
  Br  Br12  1  0.545779  0.924282  0.172111  1
  Br  Br13  1  0.090603  0.831339  0.381603  1
  Br  Br14  1  0.767371  0.346103  0.249849  1
  Br  Br15  1  0.192883  0.651582  0.735998  1
  Br  Br16  1  0.371038  0.276876  0.441115  1
