# generated using pymatgen
data_Nb4Co6SiW
_symmetry_space_group_name_H-M   'P 1'
_cell_length_a   4.90218600
_cell_length_b   4.90218720
_cell_length_c   7.72166600
_cell_angle_alpha   90.00000000
_cell_angle_beta   90.00000000
_cell_angle_gamma   119.99999188
_symmetry_Int_Tables_number   1
_chemical_formula_structural   Nb4Co6SiW
_chemical_formula_sum   'Nb4 Co6 Si1 W1'
_cell_volume   160.70202780
_cell_formula_units_Z   1
loop_
 _symmetry_equiv_pos_site_id
 _symmetry_equiv_pos_as_xyz
  1  'x, y, z'
loop_
 _atom_site_type_symbol
 _atom_site_label
 _atom_site_symmetry_multiplicity
 _atom_site_fract_x
 _atom_site_fract_y
 _atom_site_fract_z
 _atom_site_occupancy
  Nb  Nb0  1  0.666667  0.333333  0.919529  1
  Nb  Nb1  1  0.333333  0.666667  0.453598  1
  Nb  Nb2  1  0.666667  0.333333  0.546402  1
  Nb  Nb3  1  0.333333  0.666667  0.080471  1
  Co  Co4  1  0.172286  0.827714  0.761378  1
  Co  Co5  1  0.655428  0.827714  0.761378  1
  Co  Co6  1  0.827714  0.172286  0.238622  1
  Co  Co7  1  0.172286  0.344572  0.761378  1
  Co  Co8  1  0.827714  0.655428  0.238622  1
  Co  Co9  1  0.344572  0.172286  0.238622  1
  Si  Si10  1  0.000000  0.000000  0.000000  1
  W  W11  1  0.000000  0.000000  0.500000  1
