# generated using pymatgen
data_Li2PuHf2N5
_symmetry_space_group_name_H-M   'P 1'
_cell_length_a   5.87078745
_cell_length_b   5.87078696
_cell_length_c   10.18882861
_cell_angle_alpha   86.09568536
_cell_angle_beta   86.09568541
_cell_angle_gamma   43.42637870
_symmetry_Int_Tables_number   1
_chemical_formula_structural   Li2PuHf2N5
_chemical_formula_sum   'Li4 Pu2 Hf4 N10'
_cell_volume   240.75248508
_cell_formula_units_Z   2
loop_
 _symmetry_equiv_pos_site_id
 _symmetry_equiv_pos_as_xyz
  1  'x, y, z'
loop_
 _atom_site_type_symbol
 _atom_site_label
 _atom_site_symmetry_multiplicity
 _atom_site_fract_x
 _atom_site_fract_y
 _atom_site_fract_z
 _atom_site_occupancy
  Li  Li0  1  0.632804  0.632804  0.454115  1
  Li  Li1  1  0.443455  0.443455  0.821375  1
  Li  Li2  1  0.556545  0.556545  0.178625  1
  Li  Li3  1  0.367196  0.367196  0.545885  1
  Pu  Pu4  1  0.140747  0.140747  0.954663  1
  Pu  Pu5  1  0.859253  0.859253  0.045337  1
  Hf  Hf6  1  0.052673  0.052673  0.639562  1
  Hf  Hf7  1  0.947327  0.947327  0.360438  1
  Hf  Hf8  1  0.753560  0.753560  0.729451  1
  Hf  Hf9  1  0.246440  0.246440  0.270549  1
  N  N10  1  0.580776  0.580776  0.652553  1
  N  N11  1  0.419224  0.419224  0.347447  1
  N  N12  1  0.876952  0.876952  0.563829  1
  N  N13  1  0.051275  0.051275  0.153634  1
  N  N14  1  0.948725  0.948725  0.846366  1
  N  N15  1  0.123048  0.123048  0.436171  1
  N  N16  1  0.316517  0.316517  0.052971  1
  N  N17  1  0.683483  0.683483  0.947029  1
  N  N18  1  0.769549  0.769549  0.242103  1
  N  N19  1  0.230451  0.230451  0.757897  1
