# generated using pymatgen
data_TmZnNi3Ag
_symmetry_space_group_name_H-M   'P 1'
_cell_length_a   5.01331232
_cell_length_b   5.01331220
_cell_length_c   4.93125593
_cell_angle_alpha   59.44800278
_cell_angle_beta   59.44799429
_cell_angle_gamma   59.99999654
_symmetry_Int_Tables_number   1
_chemical_formula_structural   TmZnNi3Ag
_chemical_formula_sum   'Tm1 Zn1 Ni3 Ag1'
_cell_volume   86.89957777
_cell_formula_units_Z   1
loop_
 _symmetry_equiv_pos_site_id
 _symmetry_equiv_pos_as_xyz
  1  'x, y, z'
loop_
 _atom_site_type_symbol
 _atom_site_label
 _atom_site_symmetry_multiplicity
 _atom_site_fract_x
 _atom_site_fract_y
 _atom_site_fract_z
 _atom_site_occupancy
  Tm  Tm0  1  0.246380  0.246380  0.260861  1
  Zn  Zn1  1  0.627078  0.627078  0.118766  1
  Ni  Ni2  1  0.626584  0.124418  0.622414  1
  Ni  Ni3  1  0.124418  0.626584  0.622414  1
  Ni  Ni4  1  0.626584  0.626584  0.622414  1
  Ag  Ag5  1  0.998956  0.998956  0.003130  1
