# generated using pymatgen
data_Hf12Ti4Mn3Ir5
_symmetry_space_group_name_H-M   'P 1'
_cell_length_a   8.53970298
_cell_length_b   8.53970253
_cell_length_c   8.47425685
_cell_angle_alpha   59.74420056
_cell_angle_beta   59.74420454
_cell_angle_gamma   60.00000079
_symmetry_Int_Tables_number   1
_chemical_formula_structural   Hf12Ti4Mn3Ir5
_chemical_formula_sum   'Hf12 Ti4 Mn3 Ir5'
_cell_volume   435.29344222
_cell_formula_units_Z   1
loop_
 _symmetry_equiv_pos_site_id
 _symmetry_equiv_pos_as_xyz
  1  'x, y, z'
loop_
 _atom_site_type_symbol
 _atom_site_label
 _atom_site_symmetry_multiplicity
 _atom_site_fract_x
 _atom_site_fract_y
 _atom_site_fract_z
 _atom_site_occupancy
  Hf  Hf0  1  0.433793  0.816257  0.816158  1
  Hf  Hf1  1  0.816956  0.426090  0.439997  1
  Hf  Hf2  1  0.816257  0.433793  0.816158  1
  Hf  Hf3  1  0.426090  0.816956  0.439997  1
  Hf  Hf4  1  0.816956  0.816956  0.439997  1
  Hf  Hf5  1  0.433793  0.433793  0.816158  1
  Hf  Hf6  1  0.569029  0.182894  0.179048  1
  Hf  Hf7  1  0.181424  0.569798  0.567354  1
  Hf  Hf8  1  0.182894  0.569029  0.179048  1
  Hf  Hf9  1  0.569798  0.181424  0.567354  1
  Hf  Hf10  1  0.181424  0.181424  0.567354  1
  Hf  Hf11  1  0.569029  0.569029  0.179048  1
  Ti  Ti12  1  0.991391  0.991391  0.525827  1
  Ti  Ti13  1  0.997009  0.515602  0.990381  1
  Ti  Ti14  1  0.515602  0.997009  0.990381  1
  Ti  Ti15  1  0.997009  0.997009  0.990381  1
  Mn  Mn16  1  0.787130  0.137649  0.788091  1
  Mn  Mn17  1  0.137649  0.787130  0.788091  1
  Mn  Mn18  1  0.787130  0.787130  0.788091  1
  Ir  Ir19  1  0.209185  0.209185  0.872443  1
  Ir  Ir20  1  0.208042  0.874521  0.209394  1
  Ir  Ir21  1  0.874521  0.208042  0.209394  1
  Ir  Ir22  1  0.208042  0.208042  0.209394  1
  Ir  Ir23  1  0.789847  0.789847  0.130460  1
