# generated using pymatgen
data_La4DyHo5Ru4
_symmetry_space_group_name_H-M   'P 1'
_cell_length_a   6.49240689
_cell_length_b   7.23361147
_cell_length_c   8.78549881
_cell_angle_alpha   96.32647998
_cell_angle_beta   111.83693329
_cell_angle_gamma   90.03346348
_symmetry_Int_Tables_number   1
_chemical_formula_structural   La4DyHo5Ru4
_chemical_formula_sum   'La4 Dy1 Ho5 Ru4'
_cell_volume   380.27371036
_cell_formula_units_Z   1
loop_
 _symmetry_equiv_pos_site_id
 _symmetry_equiv_pos_as_xyz
  1  'x, y, z'
loop_
 _atom_site_type_symbol
 _atom_site_label
 _atom_site_symmetry_multiplicity
 _atom_site_fract_x
 _atom_site_fract_y
 _atom_site_fract_z
 _atom_site_occupancy
  La  La0  1  0.978931  0.911342  0.193946  1
  La  La1  1  0.783841  0.588645  0.805237  1
  La  La2  1  0.021018  0.088963  0.805790  1
  La  La3  1  0.215815  0.411204  0.194933  1
  Dy  Dy4  1  0.636142  0.814847  0.431073  1
  Ho  Ho5  1  0.205635  0.684324  0.569393  1
  Ho  Ho6  1  0.364093  0.185122  0.569208  1
  Ho  Ho7  1  0.794679  0.315585  0.430705  1
  Ho  Ho8  1  0.425779  0.749717  0.999445  1
  Ho  Ho9  1  0.574016  0.250251  0.000316  1
  Ru  Ru10  1  0.826000  0.581452  0.225049  1
  Ru  Ru11  1  0.600568  0.919203  0.775740  1
  Ru  Ru12  1  0.174085  0.418408  0.774742  1
  Ru  Ru13  1  0.399397  0.080939  0.224423  1
