# generated using pymatgen
data_Ca3Be(AsPd4)5
_symmetry_space_group_name_H-M   'P 1'
_cell_length_a   8.89162936
_cell_length_b   8.81219480
_cell_length_c   8.81219506
_cell_angle_alpha   60.59726886
_cell_angle_beta   59.70136172
_cell_angle_gamma   59.70136539
_symmetry_Int_Tables_number   1
_chemical_formula_structural   Ca3Be(AsPd4)5
_chemical_formula_sum   'Ca3 Be1 As5 Pd20'
_cell_volume   488.16125313
_cell_formula_units_Z   1
loop_
 _symmetry_equiv_pos_site_id
 _symmetry_equiv_pos_as_xyz
  1  'x, y, z'
loop_
 _atom_site_type_symbol
 _atom_site_label
 _atom_site_symmetry_multiplicity
 _atom_site_fract_x
 _atom_site_fract_y
 _atom_site_fract_z
 _atom_site_occupancy
  Ca  Ca0  1  0.248648  0.251352  0.251352  1
  Ca  Ca1  1  0.748648  0.751352  0.751352  1
  Ca  Ca2  1  0.997911  0.002089  0.002089  1
  Be  Be3  1  0.730693  0.269307  0.269307  1
  As  As4  1  0.263700  0.736300  0.736300  1
  As  As5  1  0.264963  0.735037  0.266205  1
  As  As6  1  0.733795  0.266205  0.735037  1
  As  As7  1  0.264963  0.266205  0.735037  1
  As  As8  1  0.733795  0.735037  0.266205  1
  Pd  Pd9  1  0.394383  0.379512  0.379512  1
  Pd  Pd10  1  0.616622  0.615976  0.615976  1
  Pd  Pd11  1  0.384024  0.383378  0.848572  1
  Pd  Pd12  1  0.384024  0.848572  0.383378  1
  Pd  Pd13  1  0.620488  0.605617  0.153407  1
  Pd  Pd14  1  0.620488  0.153407  0.605617  1
  Pd  Pd15  1  0.846593  0.379512  0.379512  1
  Pd  Pd16  1  0.151428  0.615976  0.615976  1
  Pd  Pd17  1  0.346609  0.000992  0.000992  1
  Pd  Pd18  1  0.651408  0.000992  0.000992  1
  Pd  Pd19  1  0.999008  0.348592  0.653391  1
  Pd  Pd20  1  0.999008  0.653391  0.348592  1
  Pd  Pd21  1  0.988919  0.341726  0.011081  1
  Pd  Pd22  1  0.658274  0.011081  0.341726  1
  Pd  Pd23  1  0.000518  0.648312  0.999482  1
  Pd  Pd24  1  0.351688  0.999482  0.648312  1
  Pd  Pd25  1  0.988919  0.011081  0.341726  1
  Pd  Pd26  1  0.000518  0.999482  0.648312  1
  Pd  Pd27  1  0.658274  0.341726  0.011081  1
  Pd  Pd28  1  0.351688  0.648312  0.999482  1
