# generated using pymatgen
data_LuTh13Au20
_symmetry_space_group_name_H-M   'P 1'
_cell_length_a   8.93911513
_cell_length_b   8.93911380
_cell_length_c   10.77686976
_cell_angle_alpha   89.97421278
_cell_angle_beta   89.97430535
_cell_angle_gamma   106.16489989
_symmetry_Int_Tables_number   1
_chemical_formula_structural   LuTh13Au20
_chemical_formula_sum   'Lu1 Th13 Au20'
_cell_volume   827.10908317
_cell_formula_units_Z   1
loop_
 _symmetry_equiv_pos_site_id
 _symmetry_equiv_pos_as_xyz
  1  'x, y, z'
loop_
 _atom_site_type_symbol
 _atom_site_label
 _atom_site_symmetry_multiplicity
 _atom_site_fract_x
 _atom_site_fract_y
 _atom_site_fract_z
 _atom_site_occupancy
  Lu  Lu0  1  0.000000  0.000000  0.000000  1
  Th  Th1  1  0.692724  0.307280  0.999996  1
  Th  Th2  1  0.307276  0.692720  0.000004  1
  Th  Th3  1  0.809651  0.190353  0.500000  1
  Th  Th4  1  0.190349  0.809647  0.500000  1
  Th  Th5  1  0.500000  0.500000  0.500000  1
  Th  Th6  1  0.001995  0.502388  0.248649  1
  Th  Th7  1  0.998005  0.497612  0.751351  1
  Th  Th8  1  0.497605  0.998001  0.751352  1
  Th  Th9  1  0.502395  0.001999  0.248648  1
  Th  Th10  1  0.303976  0.303972  0.191451  1
  Th  Th11  1  0.696024  0.696028  0.808549  1
  Th  Th12  1  0.192189  0.192188  0.696497  1
  Th  Th13  1  0.807811  0.807812  0.303503  1
  Au  Au14  1  0.862363  0.147156  0.203836  1
  Au  Au15  1  0.137637  0.852844  0.796164  1
  Au  Au16  1  0.644098  0.349752  0.708483  1
  Au  Au17  1  0.650248  0.355903  0.291516  1
  Au  Au18  1  0.355902  0.650248  0.291517  1
  Au  Au19  1  0.349752  0.644097  0.708484  1
  Au  Au20  1  0.852844  0.137636  0.796162  1
  Au  Au21  1  0.147156  0.862364  0.203838  1
  Au  Au22  1  0.939577  0.653116  0.003249  1
  Au  Au23  1  0.060423  0.346884  0.996751  1
  Au  Au24  1  0.560813  0.855173  0.501511  1
  Au  Au25  1  0.144829  0.439187  0.498489  1
  Au  Au26  1  0.439187  0.144827  0.498489  1
  Au  Au27  1  0.855171  0.560813  0.501511  1
  Au  Au28  1  0.346884  0.060422  0.996752  1
  Au  Au29  1  0.653116  0.939578  0.003248  1
  Au  Au30  1  0.100630  0.100629  0.400613  1
  Au  Au31  1  0.899370  0.899371  0.599387  1
  Au  Au32  1  0.401426  0.401426  0.899829  1
  Au  Au33  1  0.598574  0.598574  0.100171  1
