# generated using pymatgen
data_La3Ho11Au20
_symmetry_space_group_name_H-M   'P 1'
_cell_length_a   8.81213758
_cell_length_b   8.81213659
_cell_length_c   10.47249500
_cell_angle_alpha   89.92487033
_cell_angle_beta   89.92487034
_cell_angle_gamma   107.13479949
_symmetry_Int_Tables_number   1
_chemical_formula_structural   La3Ho11Au20
_chemical_formula_sum   'La3 Ho11 Au20'
_cell_volume   777.13095575
_cell_formula_units_Z   1
loop_
 _symmetry_equiv_pos_site_id
 _symmetry_equiv_pos_as_xyz
  1  'x, y, z'
loop_
 _atom_site_type_symbol
 _atom_site_label
 _atom_site_symmetry_multiplicity
 _atom_site_fract_x
 _atom_site_fract_y
 _atom_site_fract_z
 _atom_site_occupancy
  La  La0  1  0.692107  0.692107  0.806980  1
  La  La1  1  0.190685  0.190685  0.690999  1
  La  La2  1  0.810194  0.810194  0.307606  1
  Ho  Ho3  1  0.694922  0.304555  0.000226  1
  Ho  Ho4  1  0.304555  0.694922  0.000226  1
  Ho  Ho5  1  0.804072  0.195751  0.500168  1
  Ho  Ho6  1  0.195751  0.804072  0.500168  1
  Ho  Ho7  1  0.001755  0.001755  0.001321  1
  Ho  Ho8  1  0.498586  0.498586  0.498074  1
  Ho  Ho9  1  0.004310  0.501629  0.250086  1
  Ho  Ho10  1  0.996754  0.496350  0.750358  1
  Ho  Ho11  1  0.496350  0.996754  0.750358  1
  Ho  Ho12  1  0.501629  0.004310  0.250086  1
  Ho  Ho13  1  0.313775  0.313775  0.188358  1
  Au  Au14  1  0.859569  0.155470  0.207898  1
  Au  Au15  1  0.139555  0.844679  0.793435  1
  Au  Au16  1  0.638093  0.344848  0.708196  1
  Au  Au17  1  0.649588  0.359554  0.290339  1
  Au  Au18  1  0.359554  0.649588  0.290339  1
  Au  Au19  1  0.344848  0.638093  0.708196  1
  Au  Au20  1  0.844679  0.139555  0.793435  1
  Au  Au21  1  0.155470  0.859569  0.207898  1
  Au  Au22  1  0.940098  0.643945  0.006778  1
  Au  Au23  1  0.063294  0.355023  0.997619  1
  Au  Au24  1  0.558338  0.855180  0.505503  1
  Au  Au25  1  0.143559  0.440607  0.494104  1
  Au  Au26  1  0.440607  0.143559  0.494104  1
  Au  Au27  1  0.855180  0.558338  0.505503  1
  Au  Au28  1  0.355023  0.063294  0.997619  1
  Au  Au29  1  0.643945  0.940098  0.006778  1
  Au  Au30  1  0.107107  0.107107  0.394587  1
  Au  Au31  1  0.900559  0.900559  0.597118  1
  Au  Au32  1  0.397161  0.397161  0.904773  1
  Au  Au33  1  0.598329  0.598329  0.100766  1
