# generated using pymatgen
data_Be7Cu4SiRu4
_symmetry_space_group_name_H-M   'P 1'
_cell_length_a   5.35098201
_cell_length_b   5.35091201
_cell_length_c   5.88547000
_cell_angle_alpha   90.00251746
_cell_angle_beta   90.00214364
_cell_angle_gamma   89.99267598
_symmetry_Int_Tables_number   1
_chemical_formula_structural   Be7Cu4SiRu4
_chemical_formula_sum   'Be7 Cu4 Si1 Ru4'
_cell_volume   168.51650640
_cell_formula_units_Z   1
loop_
 _symmetry_equiv_pos_site_id
 _symmetry_equiv_pos_as_xyz
  1  'x, y, z'
loop_
 _atom_site_type_symbol
 _atom_site_label
 _atom_site_symmetry_multiplicity
 _atom_site_fract_x
 _atom_site_fract_y
 _atom_site_fract_z
 _atom_site_occupancy
  Be  Be0  1  0.499968  0.999983  0.249809  1
  Be  Be1  1  0.999977  0.499983  0.250268  1
  Be  Be2  1  0.999983  0.000007  0.250303  1
  Be  Be3  1  0.000011  0.500003  0.749752  1
  Be  Be4  1  0.000011  0.999995  0.749712  1
  Be  Be5  1  0.500020  0.499989  0.750254  1
  Be  Be6  1  0.500014  0.000008  0.750184  1
  Cu  Cu7  1  0.245337  0.754760  0.990858  1
  Cu  Cu8  1  0.754743  0.245294  0.509104  1
  Cu  Cu9  1  0.245235  0.754731  0.509094  1
  Cu  Cu10  1  0.754704  0.245245  0.990851  1
  Si  Si11  1  0.499993  0.500005  0.249797  1
  Ru  Ru12  1  0.249778  0.250006  0.999296  1
  Ru  Ru13  1  0.749672  0.749854  0.500717  1
  Ru  Ru14  1  0.250344  0.250142  0.500714  1
  Ru  Ru15  1  0.750204  0.750000  0.999287  1
