# generated using pymatgen
data_Tb3Ni6B2Ru
_symmetry_space_group_name_H-M   'P 1'
_cell_length_a   5.09759200
_cell_length_b   5.09759185
_cell_length_c   14.61792200
_cell_angle_alpha   90.00000000
_cell_angle_beta   90.00000000
_cell_angle_gamma   120.00000096
_symmetry_Int_Tables_number   1
_chemical_formula_structural   Tb3Ni6B2Ru
_chemical_formula_sum   'Tb6 Ni12 B4 Ru2'
_cell_volume   328.96250514
_cell_formula_units_Z   2
loop_
 _symmetry_equiv_pos_site_id
 _symmetry_equiv_pos_as_xyz
  1  'x, y, z'
loop_
 _atom_site_type_symbol
 _atom_site_label
 _atom_site_symmetry_multiplicity
 _atom_site_fract_x
 _atom_site_fract_y
 _atom_site_fract_z
 _atom_site_occupancy
  Tb  Tb0  1  0.333333  0.666667  0.470574  1
  Tb  Tb1  1  0.666667  0.333333  0.970574  1
  Tb  Tb2  1  0.666667  0.333333  0.529426  1
  Tb  Tb3  1  0.333333  0.666667  0.029426  1
  Tb  Tb4  1  0.666667  0.333333  0.750000  1
  Tb  Tb5  1  0.333333  0.666667  0.250000  1
  Ni  Ni6  1  0.835316  0.164684  0.346557  1
  Ni  Ni7  1  0.835316  0.670631  0.346557  1
  Ni  Ni8  1  0.835316  0.670631  0.153443  1
  Ni  Ni9  1  0.164684  0.835316  0.653443  1
  Ni  Ni10  1  0.670631  0.835316  0.653443  1
  Ni  Ni11  1  0.329369  0.164684  0.153443  1
  Ni  Ni12  1  0.835316  0.164684  0.153443  1
  Ni  Ni13  1  0.164684  0.329369  0.846557  1
  Ni  Ni14  1  0.164684  0.835316  0.846557  1
  Ni  Ni15  1  0.164684  0.329369  0.653443  1
  Ni  Ni16  1  0.670631  0.835316  0.846557  1
  Ni  Ni17  1  0.329369  0.164684  0.346557  1
  B  B18  1  0.666667  0.333333  0.250000  1
  B  B19  1  0.333333  0.666667  0.750000  1
  B  B20  1  0.000000  0.000000  0.750000  1
  B  B21  1  0.000000  0.000000  0.250000  1
  Ru  Ru22  1  0.000000  0.000000  0.000000  1
  Ru  Ru23  1  0.000000  0.000000  0.500000  1
