# generated using pymatgen
data_CeY3Ho4(B6Os)4
_symmetry_space_group_name_H-M   'P 1'
_cell_length_a   3.66689700
_cell_length_b   9.16903219
_cell_length_c   11.54400701
_cell_angle_alpha   90.05727639
_cell_angle_beta   90.00000000
_cell_angle_gamma   90.00000000
_symmetry_Int_Tables_number   1
_chemical_formula_structural   CeY3Ho4(B6Os)4
_chemical_formula_sum   'Ce1 Y3 Ho4 B24 Os4'
_cell_volume   388.13121658
_cell_formula_units_Z   1
loop_
 _symmetry_equiv_pos_site_id
 _symmetry_equiv_pos_as_xyz
  1  'x, y, z'
loop_
 _atom_site_type_symbol
 _atom_site_label
 _atom_site_symmetry_multiplicity
 _atom_site_fract_x
 _atom_site_fract_y
 _atom_site_fract_z
 _atom_site_occupancy
  Ce  Ce0  1  0.000000  0.323025  0.413353  1
  Y  Y1  1  0.000000  0.679425  0.587033  1
  Y  Y2  1  0.000000  0.821409  0.085615  1
  Y  Y3  1  0.000000  0.178124  0.913710  1
  Ho  Ho4  1  0.000000  0.943705  0.373514  1
  Ho  Ho5  1  0.000000  0.054806  0.627080  1
  Ho  Ho6  1  0.000000  0.444363  0.125850  1
  Ho  Ho7  1  0.000000  0.556207  0.873868  1
  B  B8  1  0.500000  0.554783  0.432066  1
  B  B9  1  0.500000  0.445995  0.568116  1
  B  B10  1  0.500000  0.053831  0.067256  1
  B  B11  1  0.500000  0.945772  0.932840  1
  B  B12  1  0.500000  0.748911  0.419685  1
  B  B13  1  0.500000  0.251639  0.581153  1
  B  B14  1  0.500000  0.248034  0.079584  1
  B  B15  1  0.500000  0.751858  0.919839  1
  B  B16  1  0.500000  0.791374  0.266386  1
  B  B17  1  0.500000  0.208636  0.734335  1
  B  B18  1  0.500000  0.290748  0.232472  1
  B  B19  1  0.500000  0.708848  0.767030  1
  B  B20  1  0.500000  0.632341  0.184600  1
  B  B21  1  0.500000  0.368138  0.815053  1
  B  B22  1  0.500000  0.131209  0.314071  1
  B  B23  1  0.500000  0.868042  0.685603  1
  B  B24  1  0.500000  0.982847  0.212884  1
  B  B25  1  0.500000  0.016339  0.786845  1
  B  B26  1  0.500000  0.484782  0.285963  1
  B  B27  1  0.500000  0.516442  0.714171  1
  B  B28  1  0.500000  0.609186  0.029915  1
  B  B29  1  0.500000  0.390825  0.969744  1
  B  B30  1  0.500000  0.106971  0.470507  1
  B  B31  1  0.500000  0.891047  0.530005  1
  Os  Os32  1  0.000000  0.638130  0.320978  1
  Os  Os33  1  0.000000  0.362012  0.678287  1
  Os  Os34  1  0.000000  0.137968  0.179479  1
  Os  Os35  1  0.000000  0.862226  0.821109  1
