# generated using pymatgen
data_La16MgIn3(RuRh)2
_symmetry_space_group_name_H-M   'P 1'
_cell_length_a   10.11651429
_cell_length_b   10.13848438
_cell_length_c   10.16486325
_cell_angle_alpha   59.68884660
_cell_angle_beta   59.78948996
_cell_angle_gamma   59.81142375
_symmetry_Int_Tables_number   1
_chemical_formula_structural   La16MgIn3(RuRh)2
_chemical_formula_sum   'La16 Mg1 In3 Ru2 Rh2'
_cell_volume   733.24390439
_cell_formula_units_Z   1
loop_
 _symmetry_equiv_pos_site_id
 _symmetry_equiv_pos_as_xyz
  1  'x, y, z'
loop_
 _atom_site_type_symbol
 _atom_site_label
 _atom_site_symmetry_multiplicity
 _atom_site_fract_x
 _atom_site_fract_y
 _atom_site_fract_z
 _atom_site_occupancy
  La  La0  1  0.345906  0.344654  0.348054  1
  La  La1  1  0.347545  0.345697  0.959153  1
  La  La2  1  0.347373  0.959568  0.346533  1
  La  La3  1  0.958201  0.346470  0.347994  1
  La  La4  1  0.811095  0.192013  0.192257  1
  La  La5  1  0.186394  0.815798  0.808155  1
  La  La6  1  0.188267  0.814907  0.188940  1
  La  La7  1  0.809891  0.191853  0.804613  1
  La  La8  1  0.187903  0.189337  0.810944  1
  La  La9  1  0.804924  0.806124  0.194299  1
  La  La10  1  0.940552  0.560091  0.562495  1
  La  La11  1  0.558988  0.939466  0.939896  1
  La  La12  1  0.558970  0.940395  0.561913  1
  La  La13  1  0.939247  0.559395  0.939576  1
  La  La14  1  0.560788  0.560960  0.940846  1
  La  La15  1  0.940212  0.940031  0.559890  1
  Mg  Mg16  1  0.274528  0.574729  0.574774  1
  In  In17  1  0.580095  0.580066  0.580016  1
  In  In18  1  0.578944  0.580335  0.259488  1
  In  In19  1  0.579063  0.259199  0.580707  1
  Ru  Ru20  1  0.139512  0.137922  0.136440  1
  Ru  Ru21  1  0.140215  0.138522  0.583960  1
  Rh  Rh22  1  0.141583  0.580854  0.139134  1
  Rh  Rh23  1  0.579806  0.141616  0.139925  1
