# generated using pymatgen
data_CaDyNi7
_symmetry_space_group_name_H-M   'P 1'
_cell_length_a   4.93521945
_cell_length_b   4.93521837
_cell_length_c   12.41567878
_cell_angle_alpha   78.53616066
_cell_angle_beta   78.53616171
_cell_angle_gamma   60.00000201
_symmetry_Int_Tables_number   1
_chemical_formula_structural   CaDyNi7
_chemical_formula_sum   'Ca2 Dy2 Ni14'
_cell_volume   254.89713352
_cell_formula_units_Z   2
loop_
 _symmetry_equiv_pos_site_id
 _symmetry_equiv_pos_as_xyz
  1  'x, y, z'
loop_
 _atom_site_type_symbol
 _atom_site_label
 _atom_site_symmetry_multiplicity
 _atom_site_fract_x
 _atom_site_fract_y
 _atom_site_fract_z
 _atom_site_occupancy
  Ca  Ca0  1  0.851254  0.851254  0.446238  1
  Ca  Ca1  1  0.148746  0.148746  0.553762  1
  Dy  Dy2  1  0.948201  0.948201  0.155395  1
  Dy  Dy3  1  0.051799  0.051799  0.844605  1
  Ni  Ni4  1  0.500000  0.500000  0.500000  1
  Ni  Ni5  1  0.721511  0.721511  0.835467  1
  Ni  Ni6  1  0.278489  0.278489  0.164533  1
  Ni  Ni7  1  0.612273  0.612273  0.163180  1
  Ni  Ni8  1  0.387727  0.387727  0.836820  1
  Ni  Ni9  1  0.000000  0.500000  0.000000  1
  Ni  Ni10  1  0.500000  0.000000  0.000000  1
  Ni  Ni11  1  0.500000  0.500000  0.000000  1
  Ni  Ni12  1  0.391888  0.391888  0.326237  1
  Ni  Ni13  1  0.889988  0.391888  0.326237  1
  Ni  Ni14  1  0.391888  0.889988  0.326237  1
  Ni  Ni15  1  0.608112  0.608112  0.673763  1
  Ni  Ni16  1  0.110012  0.608112  0.673763  1
  Ni  Ni17  1  0.608112  0.110012  0.673763  1
