# generated using pymatgen
data_Tb2Ho2Tm(ReO6)2
_symmetry_space_group_name_H-M   'P 1'
_cell_length_a   6.82112615
_cell_length_b   6.82112619
_cell_length_c   7.52824893
_cell_angle_alpha   73.95009626
_cell_angle_beta   73.95010451
_cell_angle_gamma   49.19110459
_symmetry_Int_Tables_number   1
_chemical_formula_structural   Tb2Ho2Tm(ReO6)2
_chemical_formula_sum   'Tb2 Ho2 Tm1 Re2 O12'
_cell_volume   252.56623635
_cell_formula_units_Z   1
loop_
 _symmetry_equiv_pos_site_id
 _symmetry_equiv_pos_as_xyz
  1  'x, y, z'
loop_
 _atom_site_type_symbol
 _atom_site_label
 _atom_site_symmetry_multiplicity
 _atom_site_fract_x
 _atom_site_fract_y
 _atom_site_fract_z
 _atom_site_occupancy
  Tb  Tb0  1  0.803375  0.803375  0.357830  1
  Tb  Tb1  1  0.196625  0.196625  0.642170  1
  Ho  Ho2  1  0.185352  0.185352  0.175398  1
  Ho  Ho3  1  0.814648  0.814648  0.824602  1
  Tm  Tm4  1  0.500000  0.500000  0.500000  1
  Re  Re5  1  0.286286  0.713714  0.000000  1
  Re  Re6  1  0.713714  0.286286  0.000000  1
  O  O7  1  0.413568  0.917648  0.916248  1
  O  O8  1  0.082352  0.586432  0.083752  1
  O  O9  1  0.586432  0.082352  0.083752  1
  O  O10  1  0.917648  0.413568  0.916248  1
  O  O11  1  0.599352  0.096936  0.575186  1
  O  O12  1  0.903064  0.400648  0.424814  1
  O  O13  1  0.400648  0.903064  0.424814  1
  O  O14  1  0.000158  0.000158  0.823039  1
  O  O15  1  0.999842  0.999842  0.176961  1
  O  O16  1  0.499224  0.499224  0.792031  1
  O  O17  1  0.500776  0.500776  0.207969  1
  O  O18  1  0.096936  0.599352  0.575186  1
