# generated using pymatgen
data_MnV(FeBr4)4
_symmetry_space_group_name_H-M   'P 1'
_cell_length_a   10.46426282
_cell_length_b   10.46426307
_cell_length_c   12.53909400
_cell_angle_alpha   54.82490506
_cell_angle_beta   54.82490408
_cell_angle_gamma   48.55126675
_symmetry_Int_Tables_number   1
_chemical_formula_structural   MnV(FeBr4)4
_chemical_formula_sum   'Mn1 V1 Fe4 Br16'
_cell_volume   797.60394246
_cell_formula_units_Z   1
loop_
 _symmetry_equiv_pos_site_id
 _symmetry_equiv_pos_as_xyz
  1  'x, y, z'
loop_
 _atom_site_type_symbol
 _atom_site_label
 _atom_site_symmetry_multiplicity
 _atom_site_fract_x
 _atom_site_fract_y
 _atom_site_fract_z
 _atom_site_occupancy
  Mn  Mn0  1  0.001266  0.998734  0.750000  1
  V  V1  1  0.979347  0.020653  0.250000  1
  Fe  Fe2  1  0.316557  0.844208  0.470266  1
  Fe  Fe3  1  0.155792  0.683443  0.029734  1
  Fe  Fe4  1  0.688844  0.153138  0.518656  1
  Fe  Fe5  1  0.846862  0.311156  0.981344  1
  Br  Br6  1  0.617905  0.692343  0.437266  1
  Br  Br7  1  0.307657  0.382095  0.062734  1
  Br  Br8  1  0.390334  0.299874  0.544479  1
  Br  Br9  1  0.700126  0.609666  0.955521  1
  Br  Br10  1  0.165886  0.135511  0.484021  1
  Br  Br11  1  0.864489  0.834114  0.015979  1
  Br  Br12  1  0.849934  0.860165  0.501588  1
  Br  Br13  1  0.139835  0.150066  0.998412  1
  Br  Br14  1  0.284049  0.866031  0.284512  1
  Br  Br15  1  0.133969  0.715951  0.215488  1
  Br  Br16  1  0.692271  0.144615  0.712758  1
  Br  Br17  1  0.855385  0.307729  0.787242  1
  Br  Br18  1  0.157761  0.704922  0.684828  1
  Br  Br19  1  0.295078  0.842239  0.815172  1
  Br  Br20  1  0.850520  0.293866  0.301475  1
  Br  Br21  1  0.706134  0.149480  0.198525  1
