# generated using pymatgen
data_Tb2Dy3Y2RhI12
_symmetry_space_group_name_H-M   'P 1'
_cell_length_a   9.81395730
_cell_length_b   9.81319979
_cell_length_c   9.81376401
_cell_angle_alpha   106.91185133
_cell_angle_beta   106.89772298
_cell_angle_gamma   106.94644091
_symmetry_Int_Tables_number   1
_chemical_formula_structural   Tb2Dy3Y2RhI12
_chemical_formula_sum   'Tb2 Dy3 Y2 Rh1 I12'
_cell_volume   788.85086505
_cell_formula_units_Z   1
loop_
 _symmetry_equiv_pos_site_id
 _symmetry_equiv_pos_as_xyz
  1  'x, y, z'
loop_
 _atom_site_type_symbol
 _atom_site_label
 _atom_site_symmetry_multiplicity
 _atom_site_fract_x
 _atom_site_fract_y
 _atom_site_fract_z
 _atom_site_occupancy
  Tb  Tb0  1  0.022782  0.295931  0.094800  1
  Tb  Tb1  1  0.295902  0.094680  0.022859  1
  Dy  Dy2  1  0.977061  0.704814  0.905631  1
  Dy  Dy3  1  0.704908  0.905386  0.977149  1
  Dy  Dy4  1  0.094462  0.022558  0.295535  1
  Y  Y5  1  0.499956  0.499971  0.499953  1
  Y  Y6  1  0.905024  0.976969  0.703555  1
  Rh  Rh7  1  0.999787  0.999532  0.000487  1
  I  I8  1  0.536397  0.837620  0.613103  1
  I  I9  1  0.837489  0.613343  0.536073  1
  I  I10  1  0.612981  0.535991  0.837037  1
  I  I11  1  0.464069  0.162771  0.387127  1
  I  I12  1  0.162805  0.386973  0.464193  1
  I  I13  1  0.387148  0.464267  0.162747  1
  I  I14  1  0.675886  0.224283  0.070506  1
  I  I15  1  0.223851  0.070357  0.675679  1
  I  I16  1  0.070573  0.676093  0.224366  1
  I  I17  1  0.324009  0.775247  0.929239  1
  I  I18  1  0.775719  0.929546  0.324854  1
  I  I19  1  0.929188  0.323668  0.775104  1
