# generated using pymatgen
data_KAgSnF6
_symmetry_space_group_name_H-M   'P 1'
_cell_length_a   6.15601500
_cell_length_b   8.53485500
_cell_length_c   12.47814500
_cell_angle_alpha   90.00000000
_cell_angle_beta   90.00000000
_cell_angle_gamma   90.00000000
_symmetry_Int_Tables_number   1
_chemical_formula_structural   KAgSnF6
_chemical_formula_sum   'K4 Ag4 Sn4 F24'
_cell_volume   655.61041564
_cell_formula_units_Z   4
loop_
 _symmetry_equiv_pos_site_id
 _symmetry_equiv_pos_as_xyz
  1  'x, y, z'
loop_
 _atom_site_type_symbol
 _atom_site_label
 _atom_site_symmetry_multiplicity
 _atom_site_fract_x
 _atom_site_fract_y
 _atom_site_fract_z
 _atom_site_occupancy
  K  K0  1  0.038580  0.756685  0.456436  1
  K  K1  1  0.538580  0.256685  0.043564  1
  K  K2  1  0.461420  0.756685  0.956436  1
  K  K3  1  0.961420  0.256685  0.543564  1
  Ag  Ag4  1  0.443895  0.499496  0.651598  1
  Ag  Ag5  1  0.556105  0.999496  0.348402  1
  Ag  Ag6  1  0.943895  0.999496  0.848402  1
  Ag  Ag7  1  0.056105  0.499496  0.151598  1
  Sn  Sn8  1  0.450556  0.999480  0.635176  1
  Sn  Sn9  1  0.049444  0.999480  0.135176  1
  Sn  Sn10  1  0.549444  0.499480  0.364824  1
  Sn  Sn11  1  0.950556  0.499480  0.864824  1
  F  F12  1  0.654848  0.278077  0.376515  1
  F  F13  1  0.174089  0.072613  0.704249  1
  F  F14  1  0.778000  0.954380  0.050063  1
  F  F15  1  0.439447  0.721196  0.360654  1
  F  F16  1  0.345152  0.778077  0.623485  1
  F  F17  1  0.560553  0.221196  0.639346  1
  F  F18  1  0.080907  0.450734  0.720954  1
  F  F19  1  0.278000  0.454380  0.449937  1
  F  F20  1  0.713738  0.537438  0.503935  1
  F  F21  1  0.674089  0.572613  0.795751  1
  F  F22  1  0.419093  0.450734  0.220954  1
  F  F23  1  0.919093  0.950734  0.279046  1
  F  F24  1  0.222000  0.454380  0.949937  1
  F  F25  1  0.722000  0.954380  0.550063  1
  F  F26  1  0.213738  0.037438  0.996065  1
  F  F27  1  0.939447  0.221196  0.139346  1
  F  F28  1  0.786262  0.537438  0.003935  1
  F  F29  1  0.825911  0.572613  0.295751  1
  F  F30  1  0.060553  0.721196  0.860654  1
  F  F31  1  0.325911  0.072613  0.204249  1
  F  F32  1  0.286262  0.037438  0.496065  1
  F  F33  1  0.845152  0.278077  0.876515  1
  F  F34  1  0.580907  0.950734  0.779046  1
  F  F35  1  0.154848  0.778077  0.123485  1
