# generated using pymatgen
data_CaPr3(In2Pd3)4
_symmetry_space_group_name_H-M   'P 1'
_cell_length_a   4.67371900
_cell_length_b   9.99841278
_cell_length_c   10.37573700
_cell_angle_alpha   90.04276090
_cell_angle_beta   90.00000000
_cell_angle_gamma   90.00000000
_symmetry_Int_Tables_number   1
_chemical_formula_structural   CaPr3(In2Pd3)4
_chemical_formula_sum   'Ca1 Pr3 In8 Pd12'
_cell_volume   484.85568725
_cell_formula_units_Z   1
loop_
 _symmetry_equiv_pos_site_id
 _symmetry_equiv_pos_as_xyz
  1  'x, y, z'
loop_
 _atom_site_type_symbol
 _atom_site_label
 _atom_site_symmetry_multiplicity
 _atom_site_fract_x
 _atom_site_fract_y
 _atom_site_fract_z
 _atom_site_occupancy
  Ca  Ca0  1  0.250000  0.441831  0.726643  1
  Pr  Pr1  1  0.250000  0.055629  0.230084  1
  Pr  Pr2  1  0.750000  0.556511  0.270406  1
  Pr  Pr3  1  0.750000  0.944491  0.769016  1
  In  In4  1  0.250000  0.883861  0.517735  1
  In  In5  1  0.250000  0.615560  0.011365  1
  In  In6  1  0.750000  0.116325  0.485177  1
  In  In7  1  0.750000  0.384217  0.984638  1
  In  In8  1  0.250000  0.162488  0.891973  1
  In  In9  1  0.250000  0.341526  0.397161  1
  In  In10  1  0.750000  0.841154  0.104541  1
  In  In11  1  0.750000  0.656024  0.608460  1
  Pd  Pd12  1  0.250000  0.146032  0.618909  1
  Pd  Pd13  1  0.250000  0.357236  0.121640  1
  Pd  Pd14  1  0.750000  0.856918  0.380846  1
  Pd  Pd15  1  0.750000  0.640504  0.879317  1
  Pd  Pd16  1  0.250000  0.735895  0.742300  1
  Pd  Pd17  1  0.250000  0.759171  0.241764  1
  Pd  Pd18  1  0.750000  0.260824  0.258271  1
  Pd  Pd19  1  0.750000  0.241315  0.759537  1
  Pd  Pd20  1  0.250000  0.896511  0.973950  1
  Pd  Pd21  1  0.250000  0.605373  0.475602  1
  Pd  Pd22  1  0.750000  0.106381  0.024804  1
  Pd  Pd23  1  0.750000  0.394225  0.525859  1
