# generated using pymatgen
data_Cs3RbEuBr6
_symmetry_space_group_name_H-M   'P 1'
_cell_length_a   9.94791016
_cell_length_b   9.94791084
_cell_length_c   9.94791022
_cell_angle_alpha   90.53526463
_cell_angle_beta   90.53526187
_cell_angle_gamma   90.53527297
_symmetry_Int_Tables_number   1
_chemical_formula_structural   Cs3RbEuBr6
_chemical_formula_sum   'Cs6 Rb2 Eu2 Br12'
_cell_volume   984.32469452
_cell_formula_units_Z   2
loop_
 _symmetry_equiv_pos_site_id
 _symmetry_equiv_pos_as_xyz
  1  'x, y, z'
loop_
 _atom_site_type_symbol
 _atom_site_label
 _atom_site_symmetry_multiplicity
 _atom_site_fract_x
 _atom_site_fract_y
 _atom_site_fract_z
 _atom_site_occupancy
  Cs  Cs0  1  0.750000  0.127514  0.372486  1
  Cs  Cs1  1  0.372486  0.750000  0.127514  1
  Cs  Cs2  1  0.127514  0.372486  0.750000  1
  Cs  Cs3  1  0.250000  0.872486  0.627514  1
  Cs  Cs4  1  0.627514  0.250000  0.872486  1
  Cs  Cs5  1  0.872486  0.627514  0.250000  1
  Rb  Rb6  1  0.250000  0.250000  0.250000  1
  Rb  Rb7  1  0.750000  0.750000  0.750000  1
  Eu  Eu8  1  0.000000  0.000000  0.000000  1
  Eu  Eu9  1  0.500000  0.500000  0.500000  1
  Br  Br10  1  0.447815  0.575633  0.791421  1
  Br  Br11  1  0.791421  0.447815  0.575633  1
  Br  Br12  1  0.575633  0.791421  0.447815  1
  Br  Br13  1  0.052185  0.708579  0.924367  1
  Br  Br14  1  0.924367  0.052185  0.708579  1
  Br  Br15  1  0.708579  0.924367  0.052185  1
  Br  Br16  1  0.552185  0.424367  0.208579  1
  Br  Br17  1  0.208579  0.552185  0.424367  1
  Br  Br18  1  0.424367  0.208579  0.552185  1
  Br  Br19  1  0.947815  0.291421  0.075633  1
  Br  Br20  1  0.291421  0.075633  0.947815  1
  Br  Br21  1  0.075633  0.947815  0.291421  1
