# generated using pymatgen
data_NaTl3(GaBr3)4
_symmetry_space_group_name_H-M   'P 1'
_cell_length_a   12.35767253
_cell_length_b   7.22030025
_cell_length_c   8.87324700
_cell_angle_alpha   90.51270339
_cell_angle_beta   90.82997283
_cell_angle_gamma   88.40672946
_symmetry_Int_Tables_number   1
_chemical_formula_structural   NaTl3(GaBr3)4
_chemical_formula_sum   'Na1 Tl3 Ga4 Br12'
_cell_volume   791.30723125
_cell_formula_units_Z   1
loop_
 _symmetry_equiv_pos_site_id
 _symmetry_equiv_pos_as_xyz
  1  'x, y, z'
loop_
 _atom_site_type_symbol
 _atom_site_label
 _atom_site_symmetry_multiplicity
 _atom_site_fract_x
 _atom_site_fract_y
 _atom_site_fract_z
 _atom_site_occupancy
  Na  Na0  1  0.000000  0.500000  0.000000  1
  Tl  Tl1  1  0.500000  0.000000  0.500000  1
  Tl  Tl2  1  0.500000  0.500000  0.000000  1
  Tl  Tl3  1  0.000000  0.000000  0.500000  1
  Ga  Ga4  1  0.244042  0.039787  0.967353  1
  Ga  Ga5  1  0.754032  0.847731  0.771085  1
  Ga  Ga6  1  0.755958  0.960213  0.032647  1
  Ga  Ga7  1  0.245968  0.152269  0.228915  1
  Br  Br8  1  0.761100  0.289899  0.072207  1
  Br  Br9  1  0.608089  0.651114  0.686662  1
  Br  Br10  1  0.088824  0.347762  0.293274  1
  Br  Br11  1  0.391911  0.348886  0.313338  1
  Br  Br12  1  0.087572  0.174343  0.831596  1
  Br  Br13  1  0.600724  0.862009  0.174235  1
  Br  Br14  1  0.912428  0.825657  0.168404  1
  Br  Br15  1  0.399276  0.137991  0.825765  1
  Br  Br16  1  0.238900  0.710101  0.927793  1
  Br  Br17  1  0.749953  0.108606  0.599182  1
  Br  Br18  1  0.250047  0.891394  0.400818  1
  Br  Br19  1  0.911176  0.652238  0.706726  1
