# generated using pymatgen
data_Dy5Y15Cd3Ru2Au3
_symmetry_space_group_name_H-M   'P 1'
_cell_length_a   9.62393300
_cell_length_b   9.62393285
_cell_length_c   9.67673800
_cell_angle_alpha   90.00000000
_cell_angle_beta   90.00000000
_cell_angle_gamma   120.00000395
_symmetry_Int_Tables_number   1
_chemical_formula_structural   Dy5Y15Cd3Ru2Au3
_chemical_formula_sum   'Dy5 Y15 Cd3 Ru2 Au3'
_cell_volume   776.18415339
_cell_formula_units_Z   1
loop_
 _symmetry_equiv_pos_site_id
 _symmetry_equiv_pos_as_xyz
  1  'x, y, z'
loop_
 _atom_site_type_symbol
 _atom_site_label
 _atom_site_symmetry_multiplicity
 _atom_site_fract_x
 _atom_site_fract_y
 _atom_site_fract_z
 _atom_site_occupancy
  Dy  Dy0  1  0.000000  0.000000  0.460583  1
  Dy  Dy1  1  0.000000  0.000000  0.039417  1
  Dy  Dy2  1  0.540730  0.459270  0.250000  1
  Dy  Dy3  1  0.540730  0.081458  0.250000  1
  Dy  Dy4  1  0.918542  0.459270  0.250000  1
  Y  Y5  1  0.209189  0.790811  0.440114  1
  Y  Y6  1  0.209189  0.418380  0.440114  1
  Y  Y7  1  0.581620  0.790811  0.440114  1
  Y  Y8  1  0.791815  0.208185  0.558710  1
  Y  Y9  1  0.791815  0.583627  0.558710  1
  Y  Y10  1  0.416373  0.208185  0.558710  1
  Y  Y11  1  0.791815  0.208185  0.941290  1
  Y  Y12  1  0.791815  0.583627  0.941290  1
  Y  Y13  1  0.416373  0.208185  0.941290  1
  Y  Y14  1  0.209189  0.790811  0.059886  1
  Y  Y15  1  0.209189  0.418380  0.059886  1
  Y  Y16  1  0.581620  0.790811  0.059886  1
  Y  Y17  1  0.458840  0.541160  0.750000  1
  Y  Y18  1  0.458840  0.917680  0.750000  1
  Y  Y19  1  0.082320  0.541160  0.750000  1
  Cd  Cd20  1  0.109998  0.890002  0.750000  1
  Cd  Cd21  1  0.109998  0.219996  0.750000  1
  Cd  Cd22  1  0.780004  0.890002  0.750000  1
  Ru  Ru23  1  0.333333  0.666667  0.250000  1
  Ru  Ru24  1  0.666667  0.333333  0.750000  1
  Au  Au25  1  0.869367  0.130633  0.250000  1
  Au  Au26  1  0.869367  0.738735  0.250000  1
  Au  Au27  1  0.261265  0.130633  0.250000  1
