# generated using pymatgen
data_La10Sb6PCl
_symmetry_space_group_name_H-M   'P 1'
_cell_length_a   9.61177300
_cell_length_b   9.61177274
_cell_length_c   6.83771400
_cell_angle_alpha   90.00000000
_cell_angle_beta   90.00000000
_cell_angle_gamma   120.00000435
_symmetry_Int_Tables_number   1
_chemical_formula_structural   La10Sb6PCl
_chemical_formula_sum   'La10 Sb6 P1 Cl1'
_cell_volume   547.07710939
_cell_formula_units_Z   1
loop_
 _symmetry_equiv_pos_site_id
 _symmetry_equiv_pos_as_xyz
  1  'x, y, z'
loop_
 _atom_site_type_symbol
 _atom_site_label
 _atom_site_symmetry_multiplicity
 _atom_site_fract_x
 _atom_site_fract_y
 _atom_site_fract_z
 _atom_site_occupancy
  La  La0  1  0.253156  0.253156  0.762219  1
  La  La1  1  0.000000  0.746844  0.762219  1
  La  La2  1  0.746844  0.000000  0.762219  1
  La  La3  1  0.000000  0.253156  0.237781  1
  La  La4  1  0.333333  0.666667  0.500000  1
  La  La5  1  0.746844  0.746844  0.237781  1
  La  La6  1  0.666667  0.333333  0.500000  1
  La  La7  1  0.253156  0.000000  0.237781  1
  La  La8  1  0.333333  0.666667  0.000000  1
  La  La9  1  0.666667  0.333333  0.000000  1
  Sb  Sb10  1  0.610423  0.000000  0.249458  1
  Sb  Sb11  1  0.000000  0.389577  0.750542  1
  Sb  Sb12  1  0.389577  0.000000  0.750542  1
  Sb  Sb13  1  0.610423  0.610423  0.750542  1
  Sb  Sb14  1  0.000000  0.610423  0.249458  1
  Sb  Sb15  1  0.389577  0.389577  0.249458  1
  P  P16  1  0.000000  0.000000  0.000000  1
  Cl  Cl17  1  0.000000  0.000000  0.500000  1
