# generated using pymatgen
data_Lu8Zn(Si4Pt)3
_symmetry_space_group_name_H-M   'P 1'
_cell_length_a   8.10775200
_cell_length_b   8.10775183
_cell_length_c   8.03878700
_cell_angle_alpha   90.00000000
_cell_angle_beta   90.00000000
_cell_angle_gamma   120.00000071
_symmetry_Int_Tables_number   1
_chemical_formula_structural   Lu8Zn(Si4Pt)3
_chemical_formula_sum   'Lu8 Zn1 Si12 Pt3'
_cell_volume   457.63797256
_cell_formula_units_Z   1
loop_
 _symmetry_equiv_pos_site_id
 _symmetry_equiv_pos_as_xyz
  1  'x, y, z'
loop_
 _atom_site_type_symbol
 _atom_site_label
 _atom_site_symmetry_multiplicity
 _atom_site_fract_x
 _atom_site_fract_y
 _atom_site_fract_z
 _atom_site_occupancy
  Lu  Lu0  1  0.000000  0.000000  0.250211  1
  Lu  Lu1  1  0.000000  0.000000  0.749311  1
  Lu  Lu2  1  0.501236  0.498764  0.248639  1
  Lu  Lu3  1  0.501236  0.002471  0.248639  1
  Lu  Lu4  1  0.997529  0.498764  0.248639  1
  Lu  Lu5  1  0.502033  0.497967  0.751345  1
  Lu  Lu6  1  0.995933  0.497967  0.751345  1
  Lu  Lu7  1  0.502033  0.004067  0.751345  1
  Zn  Zn8  1  0.333333  0.666667  0.502490  1
  Si  Si9  1  0.833939  0.166061  0.499984  1
  Si  Si10  1  0.833939  0.667879  0.499984  1
  Si  Si11  1  0.332121  0.166061  0.499984  1
  Si  Si12  1  0.834822  0.165178  0.000400  1
  Si  Si13  1  0.834822  0.669646  0.000400  1
  Si  Si14  1  0.330354  0.165178  0.000400  1
  Si  Si15  1  0.165544  0.834456  0.999503  1
  Si  Si16  1  0.668913  0.834456  0.999503  1
  Si  Si17  1  0.165544  0.331087  0.999503  1
  Si  Si18  1  0.165653  0.834347  0.499566  1
  Si  Si19  1  0.668694  0.834347  0.499566  1
  Si  Si20  1  0.165653  0.331306  0.499566  1
  Pt  Pt21  1  0.666667  0.333333  0.499646  1
  Pt  Pt22  1  0.666667  0.333333  0.000548  1
  Pt  Pt23  1  0.333333  0.666667  0.999480  1
