# generated using pymatgen
data_PrNd2Bi(Mo2O7)2
_symmetry_space_group_name_H-M   'P 1'
_cell_length_a   7.56079907
_cell_length_b   7.48830059
_cell_length_c   7.50571082
_cell_angle_alpha   119.38680355
_cell_angle_beta   120.35999247
_cell_angle_gamma   90.10842199
_symmetry_Int_Tables_number   1
_chemical_formula_structural   PrNd2Bi(Mo2O7)2
_chemical_formula_sum   'Pr1 Nd2 Bi1 Mo4 O14'
_cell_volume   301.33086063
_cell_formula_units_Z   1
loop_
 _symmetry_equiv_pos_site_id
 _symmetry_equiv_pos_as_xyz
  1  'x, y, z'
loop_
 _atom_site_type_symbol
 _atom_site_label
 _atom_site_symmetry_multiplicity
 _atom_site_fract_x
 _atom_site_fract_y
 _atom_site_fract_z
 _atom_site_occupancy
  Pr  Pr0  1  0.375000  0.625000  0.250000  1
  Nd  Nd1  1  0.875000  0.625000  0.250000  1
  Nd  Nd2  1  0.375000  0.125000  0.750000  1
  Bi  Bi3  1  0.375000  0.625000  0.750000  1
  Mo  Mo4  1  0.875000  0.625000  0.750000  1
  Mo  Mo5  1  0.375000  0.125000  0.250000  1
  Mo  Mo6  1  0.875000  0.125000  0.250000  1
  Mo  Mo7  1  0.875000  0.125000  0.750000  1
  O  O8  1  0.783220  0.201212  0.995843  1
  O  O9  1  0.548604  0.461469  0.498694  1
  O  O10  1  0.208295  0.206879  0.999756  1
  O  O11  1  0.955625  0.456417  0.498141  1
  O  O12  1  0.798672  0.796942  0.582448  1
  O  O13  1  0.537412  0.033885  0.084065  1
  O  O14  1  0.248929  0.751229  0.499570  1
  O  O15  1  0.951328  0.453058  0.917552  1
  O  O16  1  0.966780  0.048788  0.504157  1
  O  O17  1  0.541705  0.043121  0.500244  1
  O  O18  1  0.212588  0.216115  0.415935  1
  O  O19  1  0.501071  0.498771  0.000430  1
  O  O20  1  0.794375  0.793583  0.001859  1
  O  O21  1  0.201396  0.788531  0.001306  1
