# generated using pymatgen
data_LiY9In3Ir
_symmetry_space_group_name_H-M   'P 1'
_cell_length_a   9.59761500
_cell_length_b   9.59761576
_cell_length_c   9.65431500
_cell_angle_alpha   90.00000000
_cell_angle_beta   90.00000000
_cell_angle_gamma   120.00000081
_symmetry_Int_Tables_number   1
_chemical_formula_structural   LiY9In3Ir
_chemical_formula_sum   'Li2 Y18 In6 Ir2'
_cell_volume   770.15613048
_cell_formula_units_Z   2
loop_
 _symmetry_equiv_pos_site_id
 _symmetry_equiv_pos_as_xyz
  1  'x, y, z'
loop_
 _atom_site_type_symbol
 _atom_site_label
 _atom_site_symmetry_multiplicity
 _atom_site_fract_x
 _atom_site_fract_y
 _atom_site_fract_z
 _atom_site_occupancy
  Li  Li0  1  0.000000  0.000000  0.500000  1
  Li  Li1  1  0.000000  0.000000  0.000000  1
  Y  Y2  1  0.205523  0.794477  0.437101  1
  Y  Y3  1  0.205523  0.411049  0.437101  1
  Y  Y4  1  0.588951  0.794477  0.437101  1
  Y  Y5  1  0.794477  0.205523  0.562899  1
  Y  Y6  1  0.794477  0.588951  0.562899  1
  Y  Y7  1  0.411049  0.205523  0.562899  1
  Y  Y8  1  0.794477  0.205523  0.937101  1
  Y  Y9  1  0.794477  0.588951  0.937101  1
  Y  Y10  1  0.411049  0.205523  0.937101  1
  Y  Y11  1  0.205523  0.794477  0.062899  1
  Y  Y12  1  0.205523  0.411049  0.062899  1
  Y  Y13  1  0.588951  0.794477  0.062899  1
  Y  Y14  1  0.540630  0.459370  0.250000  1
  Y  Y15  1  0.540630  0.081261  0.250000  1
  Y  Y16  1  0.918739  0.459370  0.250000  1
  Y  Y17  1  0.459370  0.540630  0.750000  1
  Y  Y18  1  0.459370  0.918739  0.750000  1
  Y  Y19  1  0.081261  0.540630  0.750000  1
  In  In20  1  0.891230  0.108770  0.250000  1
  In  In21  1  0.891230  0.782460  0.250000  1
  In  In22  1  0.217540  0.108770  0.250000  1
  In  In23  1  0.108770  0.891230  0.750000  1
  In  In24  1  0.108770  0.217540  0.750000  1
  In  In25  1  0.782460  0.891230  0.750000  1
  Ir  Ir26  1  0.333333  0.666667  0.250000  1
  Ir  Ir27  1  0.666667  0.333333  0.750000  1
