# generated using pymatgen
data_Tb4ReB12Os
_symmetry_space_group_name_H-M   'P 1'
_cell_length_a   3.68833900
_cell_length_b   9.20257460
_cell_length_c   11.59204158
_cell_angle_alpha   90.14729388
_cell_angle_beta   90.00000000
_cell_angle_gamma   90.00000000
_symmetry_Int_Tables_number   1
_chemical_formula_structural   Tb4ReB12Os
_chemical_formula_sum   'Tb8 Re2 B24 Os2'
_cell_volume   393.45826507
_cell_formula_units_Z   2
loop_
 _symmetry_equiv_pos_site_id
 _symmetry_equiv_pos_as_xyz
  1  'x, y, z'
loop_
 _atom_site_type_symbol
 _atom_site_label
 _atom_site_symmetry_multiplicity
 _atom_site_fract_x
 _atom_site_fract_y
 _atom_site_fract_z
 _atom_site_occupancy
  Tb  Tb0  1  0.000000  0.321697  0.412421  1
  Tb  Tb1  1  0.000000  0.678303  0.587579  1
  Tb  Tb2  1  0.000000  0.825250  0.084967  1
  Tb  Tb3  1  0.000000  0.174750  0.915033  1
  Tb  Tb4  1  0.000000  0.943617  0.370654  1
  Tb  Tb5  1  0.000000  0.056383  0.629346  1
  Tb  Tb6  1  0.000000  0.442808  0.128960  1
  Tb  Tb7  1  0.000000  0.557192  0.871040  1
  Re  Re8  1  0.000000  0.138684  0.179303  1
  Re  Re9  1  0.000000  0.861316  0.820697  1
  B  B10  1  0.500000  0.554006  0.432712  1
  B  B11  1  0.500000  0.445994  0.567288  1
  B  B12  1  0.500000  0.053456  0.067104  1
  B  B13  1  0.500000  0.946544  0.932896  1
  B  B14  1  0.500000  0.748198  0.418649  1
  B  B15  1  0.500000  0.251802  0.581351  1
  B  B16  1  0.500000  0.248234  0.081083  1
  B  B17  1  0.500000  0.751766  0.918917  1
  B  B18  1  0.500000  0.790557  0.266421  1
  B  B19  1  0.500000  0.209443  0.733579  1
  B  B20  1  0.500000  0.291487  0.234090  1
  B  B21  1  0.500000  0.708513  0.765910  1
  B  B22  1  0.500000  0.631652  0.186685  1
  B  B23  1  0.500000  0.368348  0.813315  1
  B  B24  1  0.500000  0.132146  0.314220  1
  B  B25  1  0.500000  0.867854  0.685780  1
  B  B26  1  0.500000  0.984110  0.212326  1
  B  B27  1  0.500000  0.015890  0.787674  1
  B  B28  1  0.500000  0.484252  0.288078  1
  B  B29  1  0.500000  0.515748  0.711922  1
  B  B30  1  0.500000  0.604443  0.029214  1
  B  B31  1  0.500000  0.395557  0.970786  1
  B  B32  1  0.500000  0.105120  0.470989  1
  B  B33  1  0.500000  0.894880  0.529011  1
  Os  Os34  1  0.000000  0.637824  0.322058  1
  Os  Os35  1  0.000000  0.362176  0.677942  1
