# generated using pymatgen
data_Ca4Cd2PtO8
_symmetry_space_group_name_H-M   'P 1'
_cell_length_a   6.74554539
_cell_length_b   6.71905932
_cell_length_c   6.71906000
_cell_angle_alpha   60.26098149
_cell_angle_beta   59.86952522
_cell_angle_gamma   59.86951381
_symmetry_Int_Tables_number   1
_chemical_formula_structural   Ca4Cd2PtO8
_chemical_formula_sum   'Ca4 Cd2 Pt1 O8'
_cell_volume   215.33051633
_cell_formula_units_Z   1
loop_
 _symmetry_equiv_pos_site_id
 _symmetry_equiv_pos_as_xyz
  1  'x, y, z'
loop_
 _atom_site_type_symbol
 _atom_site_label
 _atom_site_symmetry_multiplicity
 _atom_site_fract_x
 _atom_site_fract_y
 _atom_site_fract_z
 _atom_site_occupancy
  Ca  Ca0  1  0.500000  0.000000  0.500000  1
  Ca  Ca1  1  0.000000  0.000000  0.500000  1
  Ca  Ca2  1  0.500000  0.500000  0.000000  1
  Ca  Ca3  1  0.000000  0.500000  0.000000  1
  Cd  Cd4  1  0.500000  0.000000  0.000000  1
  Cd  Cd5  1  0.000000  0.500000  0.500000  1
  Pt  Pt6  1  0.000000  0.000000  0.000000  1
  O  O7  1  0.776813  0.223187  0.223187  1
  O  O8  1  0.250000  0.250000  0.250000  1
  O  O9  1  0.218343  0.781657  0.218343  1
  O  O10  1  0.218343  0.218343  0.781657  1
  O  O11  1  0.781657  0.218343  0.781657  1
  O  O12  1  0.781657  0.781657  0.218343  1
  O  O13  1  0.750000  0.750000  0.750000  1
  O  O14  1  0.223187  0.776813  0.776813  1
