# generated using pymatgen
data_Dy4TmB4P8Ir19
_symmetry_space_group_name_H-M   'P 1'
_cell_length_a   12.42648501
_cell_length_b   12.39553897
_cell_length_c   3.96072600
_cell_angle_alpha   90.00000000
_cell_angle_beta   90.00000000
_cell_angle_gamma   119.67770269
_symmetry_Int_Tables_number   1
_chemical_formula_structural   Dy4TmB4P8Ir19
_chemical_formula_sum   'Dy4 Tm1 B4 P8 Ir19'
_cell_volume   530.05441332
_cell_formula_units_Z   1
loop_
 _symmetry_equiv_pos_site_id
 _symmetry_equiv_pos_as_xyz
  1  'x, y, z'
loop_
 _atom_site_type_symbol
 _atom_site_label
 _atom_site_symmetry_multiplicity
 _atom_site_fract_x
 _atom_site_fract_y
 _atom_site_fract_z
 _atom_site_occupancy
  Dy  Dy0  1  0.332661  0.666502  0.500000  1
  Dy  Dy1  1  0.182608  0.187609  0.000000  1
  Dy  Dy2  1  0.814863  0.002778  0.000000  1
  Dy  Dy3  1  0.001739  0.815737  0.000000  1
  Tm  Tm4  1  0.675095  0.331164  0.500000  1
  B  B5  1  0.304988  0.816015  0.000000  1
  B  B6  1  0.177999  0.486669  0.000000  1
  B  B7  1  0.510889  0.692590  0.000000  1
  B  B8  1  0.823428  0.303301  0.000000  1
  P  P9  1  0.487054  0.174178  0.000000  1
  P  P10  1  0.692664  0.513448  0.000000  1
  P  P11  1  0.358928  0.364789  0.500000  1
  P  P12  1  0.639574  0.000785  0.500000  1
  P  P13  1  0.006192  0.639612  0.500000  1
  P  P14  1  0.816384  0.819702  0.500000  1
  P  P15  1  0.180654  0.998656  0.500000  1
  P  P16  1  0.001902  0.186032  0.500000  1
  Ir  Ir17  1  0.199954  0.818243  0.500000  1
  Ir  Ir18  1  0.181656  0.382420  0.500000  1
  Ir  Ir19  1  0.619208  0.803481  0.500000  1
  Ir  Ir20  1  0.821418  0.201550  0.500000  1
  Ir  Ir21  1  0.376507  0.181670  0.500000  1
  Ir  Ir22  1  0.806564  0.622833  0.500000  1
  Ir  Ir23  1  0.134617  0.637542  0.000000  1
  Ir  Ir24  1  0.359817  0.499998  0.000000  1
  Ir  Ir25  1  0.497709  0.859597  0.000000  1
  Ir  Ir26  1  0.643012  0.130608  0.000000  1
  Ir  Ir27  1  0.491532  0.363576  0.000000  1
  Ir  Ir28  1  0.868695  0.497005  0.000000  1
  Ir  Ir29  1  0.539537  0.548999  0.500000  1
  Ir  Ir30  1  0.453805  0.995019  0.500000  1
  Ir  Ir31  1  0.003074  0.455535  0.500000  1
  Ir  Ir32  1  0.701143  0.706822  0.000000  1
  Ir  Ir33  1  0.293012  0.994334  0.000000  1
  Ir  Ir34  1  0.001840  0.300296  0.000000  1
  Ir  Ir35  1  0.999279  0.000907  0.500000  1
