# generated using pymatgen
data_Ho3Tm3Co17TcP12
_symmetry_space_group_name_H-M   'P 1'
_cell_length_a   3.68527000
_cell_length_b   10.48871617
_cell_length_c   12.16134820
_cell_angle_alpha   90.02074854
_cell_angle_beta   90.00000000
_cell_angle_gamma   90.00000000
_symmetry_Int_Tables_number   1
_chemical_formula_structural   Ho3Tm3Co17TcP12
_chemical_formula_sum   'Ho3 Tm3 Co17 Tc1 P12'
_cell_volume   470.08169487
_cell_formula_units_Z   1
loop_
 _symmetry_equiv_pos_site_id
 _symmetry_equiv_pos_as_xyz
  1  'x, y, z'
loop_
 _atom_site_type_symbol
 _atom_site_label
 _atom_site_symmetry_multiplicity
 _atom_site_fract_x
 _atom_site_fract_y
 _atom_site_fract_z
 _atom_site_occupancy
  Ho  Ho0  1  0.000000  0.500040  0.524786  1
  Ho  Ho1  1  0.500000  0.999961  0.477217  1
  Ho  Ho2  1  0.000000  0.682485  0.794906  1
  Tm  Tm3  1  0.500000  0.817969  0.206810  1
  Tm  Tm4  1  0.500000  0.182052  0.206755  1
  Tm  Tm5  1  0.000000  0.317282  0.795038  1
  Co  Co6  1  0.000000  0.000096  0.839570  1
  Co  Co7  1  0.500000  0.499340  0.703042  1
  Co  Co8  1  0.000000  0.000046  0.296053  1
  Co  Co9  1  0.000000  0.499671  0.987615  1
  Co  Co10  1  0.500000  0.000365  0.015178  1
  Co  Co11  1  0.500000  0.331473  0.990800  1
  Co  Co12  1  0.500000  0.668207  0.991242  1
  Co  Co13  1  0.000000  0.166513  0.005996  1
  Co  Co14  1  0.000000  0.833762  0.006317  1
  Co  Co15  1  0.500000  0.296356  0.430784  1
  Co  Co16  1  0.500000  0.703590  0.430558  1
  Co  Co17  1  0.000000  0.203256  0.569011  1
  Co  Co18  1  0.000000  0.796864  0.568544  1
  Co  Co19  1  0.500000  0.879012  0.708575  1
  Co  Co20  1  0.500000  0.121747  0.708951  1
  Co  Co21  1  0.000000  0.621525  0.291843  1
  Co  Co22  1  0.000000  0.378487  0.291912  1
  Tc  Tc23  1  0.500000  0.499882  0.157009  1
  P  P24  1  0.500000  0.499385  0.881081  1
  P  P25  1  0.000000  0.000143  0.118021  1
  P  P26  1  0.500000  0.500006  0.349744  1
  P  P27  1  0.000000  0.999996  0.655107  1
  P  P28  1  0.500000  0.311236  0.617299  1
  P  P29  1  0.500000  0.688641  0.616579  1
  P  P30  1  0.000000  0.187955  0.383411  1
  P  P31  1  0.000000  0.812129  0.383262  1
  P  P32  1  0.500000  0.849775  0.891617  1
  P  P33  1  0.500000  0.150819  0.891273  1
  P  P34  1  0.000000  0.656478  0.106981  1
  P  P35  1  0.000000  0.343456  0.107108  1
