# generated using pymatgen
data_Tb6YbCo6Sn23
_symmetry_space_group_name_H-M   'P 1'
_cell_length_a   9.73120400
_cell_length_b   9.73120324
_cell_length_c   9.96023400
_cell_angle_alpha   90.00000000
_cell_angle_beta   90.00000000
_cell_angle_gamma   120.00000257
_symmetry_Int_Tables_number   1
_chemical_formula_structural   Tb6YbCo6Sn23
_chemical_formula_sum   'Tb6 Yb1 Co6 Sn23'
_cell_volume   816.83301383
_cell_formula_units_Z   1
loop_
 _symmetry_equiv_pos_site_id
 _symmetry_equiv_pos_as_xyz
  1  'x, y, z'
loop_
 _atom_site_type_symbol
 _atom_site_label
 _atom_site_symmetry_multiplicity
 _atom_site_fract_x
 _atom_site_fract_y
 _atom_site_fract_z
 _atom_site_occupancy
  Tb  Tb0  1  0.479082  0.520918  0.305494  1
  Tb  Tb1  1  0.520918  0.479082  0.694506  1
  Tb  Tb2  1  0.479082  0.958165  0.305494  1
  Tb  Tb3  1  0.520918  0.041835  0.694506  1
  Tb  Tb4  1  0.041835  0.520918  0.305494  1
  Tb  Tb5  1  0.958165  0.479082  0.694506  1
  Yb  Yb6  1  0.000000  0.000000  0.000000  1
  Co  Co7  1  0.831828  0.168172  0.198545  1
  Co  Co8  1  0.168172  0.831828  0.801455  1
  Co  Co9  1  0.831828  0.663655  0.198545  1
  Co  Co10  1  0.168172  0.336345  0.801455  1
  Co  Co11  1  0.336345  0.168172  0.198545  1
  Co  Co12  1  0.663655  0.831828  0.801455  1
  Sn  Sn13  1  0.345351  0.000000  0.000000  1
  Sn  Sn14  1  0.654649  0.000000  0.000000  1
  Sn  Sn15  1  0.000000  0.345351  0.000000  1
  Sn  Sn16  1  0.000000  0.654649  0.000000  1
  Sn  Sn17  1  0.654649  0.654649  0.000000  1
  Sn  Sn18  1  0.345351  0.345351  0.000000  1
  Sn  Sn19  1  0.333333  0.666667  0.816319  1
  Sn  Sn20  1  0.666667  0.333333  0.183681  1
  Sn  Sn21  1  0.000000  0.000000  0.500000  1
  Sn  Sn22  1  0.781150  0.218850  0.452271  1
  Sn  Sn23  1  0.218850  0.781150  0.547729  1
  Sn  Sn24  1  0.781150  0.562300  0.452271  1
  Sn  Sn25  1  0.218850  0.437700  0.547729  1
  Sn  Sn26  1  0.437700  0.218850  0.452271  1
  Sn  Sn27  1  0.562300  0.781150  0.547729  1
  Sn  Sn28  1  0.333333  0.666667  0.116995  1
  Sn  Sn29  1  0.666667  0.333333  0.883005  1
  Sn  Sn30  1  0.116932  0.883068  0.274170  1
  Sn  Sn31  1  0.883068  0.116932  0.725830  1
  Sn  Sn32  1  0.116932  0.233866  0.274170  1
  Sn  Sn33  1  0.883068  0.766134  0.725830  1
  Sn  Sn34  1  0.766134  0.883068  0.274170  1
  Sn  Sn35  1  0.233866  0.116932  0.725830  1
