# generated using pymatgen
data_Hf4Ta3TiAs4
_symmetry_space_group_name_H-M   'P 1'
_cell_length_a   3.58956600
_cell_length_b   7.02237614
_cell_length_c   8.54151225
_cell_angle_alpha   90.18555149
_cell_angle_beta   90.00000000
_cell_angle_gamma   90.00000000
_symmetry_Int_Tables_number   1
_chemical_formula_structural   Hf4Ta3TiAs4
_chemical_formula_sum   'Hf4 Ta3 Ti1 As4'
_cell_volume   215.30718416
_cell_formula_units_Z   1
loop_
 _symmetry_equiv_pos_site_id
 _symmetry_equiv_pos_as_xyz
  1  'x, y, z'
loop_
 _atom_site_type_symbol
 _atom_site_label
 _atom_site_symmetry_multiplicity
 _atom_site_fract_x
 _atom_site_fract_y
 _atom_site_fract_z
 _atom_site_occupancy
  Hf  Hf0  1  0.250000  0.037194  0.665240  1
  Hf  Hf1  1  0.250000  0.536221  0.835912  1
  Hf  Hf2  1  0.750000  0.462203  0.165347  1
  Hf  Hf3  1  0.750000  0.961179  0.333679  1
  Ta  Ta4  1  0.250000  0.639936  0.439740  1
  Ta  Ta5  1  0.750000  0.361999  0.560346  1
  Ta  Ta6  1  0.250000  0.137852  0.060508  1
  Ti  Ti7  1  0.750000  0.864879  0.940056  1
  As  As8  1  0.250000  0.259910  0.354671  1
  As  As9  1  0.250000  0.760414  0.137719  1
  As  As10  1  0.750000  0.740308  0.650336  1
  As  As11  1  0.750000  0.237906  0.856446  1
