# generated using pymatgen
data_BaLa3(PPd3)8
_symmetry_space_group_name_H-M   'P 1'
_cell_length_a   8.58327511
_cell_length_b   8.58327511
_cell_length_c   8.58327511
_cell_angle_alpha   90.11134292
_cell_angle_beta   90.11134292
_cell_angle_gamma   90.11134292
_symmetry_Int_Tables_number   1
_chemical_formula_structural   BaLa3(PPd3)8
_chemical_formula_sum   'Ba1 La3 P8 Pd24'
_cell_volume   632.34870718
_cell_formula_units_Z   1
loop_
 _symmetry_equiv_pos_site_id
 _symmetry_equiv_pos_as_xyz
  1  'x, y, z'
loop_
 _atom_site_type_symbol
 _atom_site_label
 _atom_site_symmetry_multiplicity
 _atom_site_fract_x
 _atom_site_fract_y
 _atom_site_fract_z
 _atom_site_occupancy
  Ba  Ba0  1  0.000000  0.000000  0.000000  1
  La  La1  1  0.500000  0.500000  0.000000  1
  La  La2  1  0.500000  0.000000  0.500000  1
  La  La3  1  0.000000  0.500000  0.500000  1
  P  P4  1  0.805137  0.308358  0.191688  1
  P  P5  1  0.191688  0.805137  0.308358  1
  P  P6  1  0.692725  0.692725  0.692725  1
  P  P7  1  0.308358  0.191688  0.805137  1
  P  P8  1  0.194863  0.691642  0.808312  1
  P  P9  1  0.808312  0.194863  0.691642  1
  P  P10  1  0.307275  0.307275  0.307275  1
  P  P11  1  0.691642  0.808312  0.194863  1
  Pd  Pd12  1  0.419872  0.845724  0.161844  1
  Pd  Pd13  1  0.578682  0.346366  0.339172  1
  Pd  Pd14  1  0.078723  0.158419  0.655422  1
  Pd  Pd15  1  0.922329  0.650170  0.834470  1
  Pd  Pd16  1  0.161844  0.419872  0.845724  1
  Pd  Pd17  1  0.339172  0.578682  0.346366  1
  Pd  Pd18  1  0.655422  0.078723  0.158419  1
  Pd  Pd19  1  0.834470  0.922329  0.650170  1
  Pd  Pd20  1  0.845724  0.161844  0.419872  1
  Pd  Pd21  1  0.346366  0.339172  0.578682  1
  Pd  Pd22  1  0.158419  0.655422  0.078723  1
  Pd  Pd23  1  0.650170  0.834470  0.922329  1
  Pd  Pd24  1  0.580128  0.154276  0.838156  1
  Pd  Pd25  1  0.421318  0.653634  0.660828  1
  Pd  Pd26  1  0.921277  0.841581  0.344578  1
  Pd  Pd27  1  0.077671  0.349830  0.165530  1
  Pd  Pd28  1  0.838156  0.580128  0.154276  1
  Pd  Pd29  1  0.660828  0.421318  0.653634  1
  Pd  Pd30  1  0.344578  0.921277  0.841581  1
  Pd  Pd31  1  0.165530  0.077671  0.349830  1
  Pd  Pd32  1  0.154276  0.838156  0.580128  1
  Pd  Pd33  1  0.653634  0.660828  0.421318  1
  Pd  Pd34  1  0.841581  0.344578  0.921277  1
  Pd  Pd35  1  0.349830  0.165530  0.077671  1
