# generated using pymatgen
data_Na2Ni11P7Rh
_symmetry_space_group_name_H-M   'P 1'
_cell_length_a   9.06540902
_cell_length_b   9.10843958
_cell_length_c   3.60790000
_cell_angle_alpha   90.00000000
_cell_angle_beta   90.00000000
_cell_angle_gamma   119.83531748
_symmetry_Int_Tables_number   1
_chemical_formula_structural   Na2Ni11P7Rh
_chemical_formula_sum   'Na2 Ni11 P7 Rh1'
_cell_volume   258.42516945
_cell_formula_units_Z   1
loop_
 _symmetry_equiv_pos_site_id
 _symmetry_equiv_pos_as_xyz
  1  'x, y, z'
loop_
 _atom_site_type_symbol
 _atom_site_label
 _atom_site_symmetry_multiplicity
 _atom_site_fract_x
 _atom_site_fract_y
 _atom_site_fract_z
 _atom_site_occupancy
  Na  Na0  1  0.667149  0.333029  0.500000  1
  Na  Na1  1  0.333819  0.665243  0.000000  1
  Ni  Ni2  1  0.724533  0.881127  0.000000  1
  Ni  Ni3  1  0.940651  0.375803  0.000000  1
  Ni  Ni4  1  0.905522  0.124948  0.500000  1
  Ni  Ni5  1  0.156241  0.279376  0.000000  1
  Ni  Ni6  1  0.384316  0.436883  0.500000  1
  Ni  Ni7  1  0.118168  0.837640  0.000000  1
  Ni  Ni8  1  0.435353  0.059818  0.000000  1
  Ni  Ni9  1  0.048945  0.616685  0.500000  1
  Ni  Ni10  1  0.568798  0.951034  0.500000  1
  Ni  Ni11  1  0.625996  0.567856  0.000000  1
  Ni  Ni12  1  0.874260  0.780765  0.500000  1
  P  P13  1  0.414230  0.297623  0.000000  1
  P  P14  1  0.295453  0.882767  0.500000  1
  P  P15  1  0.707833  0.118835  0.000000  1
  P  P16  1  0.594438  0.707548  0.500000  1
  P  P17  1  0.880915  0.587122  0.000000  1
  P  P18  1  0.111966  0.405928  0.500000  1
  P  P19  1  0.999261  0.999644  0.000000  1
  Rh  Rh20  1  0.212153  0.090325  0.500000  1
