# generated using pymatgen
data_Pr(Tc2Ge)2
_symmetry_space_group_name_H-M   'P 1'
_cell_length_a   7.55514297
_cell_length_b   7.55514195
_cell_length_c   4.14187100
_cell_angle_alpha   90.00000000
_cell_angle_beta   90.00000000
_cell_angle_gamma   147.88164883
_symmetry_Int_Tables_number   1
_chemical_formula_structural   Pr(Tc2Ge)2
_chemical_formula_sum   'Pr1 Tc4 Ge2'
_cell_volume   125.69671796
_cell_formula_units_Z   1
loop_
 _symmetry_equiv_pos_site_id
 _symmetry_equiv_pos_as_xyz
  1  'x, y, z'
loop_
 _atom_site_type_symbol
 _atom_site_label
 _atom_site_symmetry_multiplicity
 _atom_site_fract_x
 _atom_site_fract_y
 _atom_site_fract_z
 _atom_site_occupancy
  Pr  Pr0  1  0.000000  0.000000  0.000000  1
  Tc  Tc1  1  0.699527  0.300475  0.000000  1
  Tc  Tc2  1  0.300475  0.699527  0.000000  1
  Tc  Tc3  1  0.805318  0.194683  0.499999  1
  Tc  Tc4  1  0.194683  0.805318  0.499999  1
  Ge  Ge5  1  0.589773  0.410229  0.499999  1
  Ge  Ge6  1  0.410229  0.589773  0.499999  1
