# generated using pymatgen
data_Ho12Th4Zn4FeCo3
_symmetry_space_group_name_H-M   'P 1'
_cell_length_a   9.39987692
_cell_length_b   9.39987757
_cell_length_c   9.39987706
_cell_angle_alpha   59.87108338
_cell_angle_beta   59.87108606
_cell_angle_gamma   59.87108624
_symmetry_Int_Tables_number   1
_chemical_formula_structural   Ho12Th4Zn4FeCo3
_chemical_formula_sum   'Ho12 Th4 Zn4 Fe1 Co3'
_cell_volume   585.57063260
_cell_formula_units_Z   1
loop_
 _symmetry_equiv_pos_site_id
 _symmetry_equiv_pos_as_xyz
  1  'x, y, z'
loop_
 _atom_site_type_symbol
 _atom_site_label
 _atom_site_symmetry_multiplicity
 _atom_site_fract_x
 _atom_site_fract_y
 _atom_site_fract_z
 _atom_site_occupancy
  Ho  Ho0  1  0.812144  0.189223  0.189223  1
  Ho  Ho1  1  0.189625  0.810094  0.810094  1
  Ho  Ho2  1  0.189223  0.812144  0.189223  1
  Ho  Ho3  1  0.810094  0.189625  0.810094  1
  Ho  Ho4  1  0.189223  0.189223  0.812144  1
  Ho  Ho5  1  0.810094  0.810094  0.189625  1
  Ho  Ho6  1  0.935245  0.564314  0.564314  1
  Ho  Ho7  1  0.562875  0.935383  0.935383  1
  Ho  Ho8  1  0.564314  0.935245  0.564314  1
  Ho  Ho9  1  0.935383  0.562875  0.935383  1
  Ho  Ho10  1  0.564314  0.564314  0.935245  1
  Ho  Ho11  1  0.935383  0.935383  0.562875  1
  Th  Th12  1  0.349452  0.349452  0.349452  1
  Th  Th13  1  0.347490  0.347490  0.955103  1
  Th  Th14  1  0.347490  0.955103  0.347490  1
  Th  Th15  1  0.955103  0.347490  0.347490  1
  Zn  Zn16  1  0.579356  0.579356  0.579356  1
  Zn  Zn17  1  0.579344  0.579344  0.260909  1
  Zn  Zn18  1  0.579344  0.260909  0.579344  1
  Zn  Zn19  1  0.260909  0.579344  0.579344  1
  Fe  Fe20  1  0.145342  0.145342  0.145342  1
  Co  Co21  1  0.144750  0.144750  0.568751  1
  Co  Co22  1  0.144750  0.568751  0.144750  1
  Co  Co23  1  0.568751  0.144750  0.144750  1
