# generated using pymatgen
data_La4Ho2FeBr10
_symmetry_space_group_name_H-M   'P 1'
_cell_length_a   7.66801307
_cell_length_b   9.38478413
_cell_length_c   9.62536898
_cell_angle_alpha   107.55293480
_cell_angle_beta   106.81175424
_cell_angle_gamma   95.35970748
_symmetry_Int_Tables_number   1
_chemical_formula_structural   La4Ho2FeBr10
_chemical_formula_sum   'La4 Ho2 Fe1 Br10'
_cell_volume   619.68420545
_cell_formula_units_Z   1
loop_
 _symmetry_equiv_pos_site_id
 _symmetry_equiv_pos_as_xyz
  1  'x, y, z'
loop_
 _atom_site_type_symbol
 _atom_site_label
 _atom_site_symmetry_multiplicity
 _atom_site_fract_x
 _atom_site_fract_y
 _atom_site_fract_z
 _atom_site_occupancy
  La  La0  1  0.121944  0.779611  0.051961  1
  La  La1  1  0.628658  0.808877  0.852799  1
  La  La2  1  0.880103  0.222942  0.955328  1
  La  La3  1  0.976622  0.105198  0.311363  1
  Ho  Ho4  1  0.354346  0.174458  0.126351  1
  Ho  Ho5  1  0.033654  0.909700  0.712088  1
  Fe  Fe6  1  0.999230  0.997860  0.001817  1
  Br  Br7  1  0.440279  0.083776  0.825516  1
  Br  Br8  1  0.756488  0.543463  0.921281  1
  Br  Br9  1  0.255048  0.442793  0.082479  1
  Br  Br10  1  0.919393  0.164319  0.636673  1
  Br  Br11  1  0.673183  0.737185  0.546275  1
  Br  Br12  1  0.545030  0.925330  0.172668  1
  Br  Br13  1  0.090911  0.832809  0.382956  1
  Br  Br14  1  0.760811  0.341511  0.244900  1
  Br  Br15  1  0.196283  0.656727  0.739773  1
  Br  Br16  1  0.368015  0.273441  0.435771  1
