# generated using pymatgen
data_La4Y12Cd4Ni3Ru
_symmetry_space_group_name_H-M   'P 1'
_cell_length_a   9.76891858
_cell_length_b   9.76891957
_cell_length_c   9.76891900
_cell_angle_alpha   59.22198797
_cell_angle_beta   59.22198453
_cell_angle_gamma   59.22197386
_symmetry_Int_Tables_number   1
_chemical_formula_structural   La4Y12Cd4Ni3Ru
_chemical_formula_sum   'La4 Y12 Cd4 Ni3 Ru1'
_cell_volume   647.52742892
_cell_formula_units_Z   1
loop_
 _symmetry_equiv_pos_site_id
 _symmetry_equiv_pos_as_xyz
  1  'x, y, z'
loop_
 _atom_site_type_symbol
 _atom_site_label
 _atom_site_symmetry_multiplicity
 _atom_site_fract_x
 _atom_site_fract_y
 _atom_site_fract_z
 _atom_site_occupancy
  La  La0  1  0.600387  0.600387  0.600387  1
  La  La1  1  0.599767  0.599767  0.202382  1
  La  La2  1  0.599767  0.202382  0.599767  1
  La  La3  1  0.202382  0.599767  0.599767  1
  Y  Y4  1  0.064002  0.436037  0.436037  1
  Y  Y5  1  0.434606  0.062921  0.062921  1
  Y  Y6  1  0.436037  0.064002  0.436037  1
  Y  Y7  1  0.062921  0.434606  0.062921  1
  Y  Y8  1  0.436037  0.436037  0.064002  1
  Y  Y9  1  0.062921  0.062921  0.434606  1
  Y  Y10  1  0.184259  0.816001  0.816001  1
  Y  Y11  1  0.811703  0.184399  0.184399  1
  Y  Y12  1  0.816001  0.184259  0.816001  1
  Y  Y13  1  0.184399  0.811703  0.184399  1
  Y  Y14  1  0.816001  0.816001  0.184259  1
  Y  Y15  1  0.184399  0.184399  0.811703  1
  Cd  Cd16  1  0.831146  0.831146  0.831146  1
  Cd  Cd17  1  0.831156  0.831156  0.502325  1
  Cd  Cd18  1  0.831156  0.502325  0.831156  1
  Cd  Cd19  1  0.502325  0.831156  0.831156  1
  Ni  Ni20  1  0.392769  0.392769  0.828817  1
  Ni  Ni21  1  0.392769  0.828817  0.392769  1
  Ni  Ni22  1  0.828817  0.392769  0.392769  1
  Ru  Ru23  1  0.394270  0.394270  0.394270  1
