# generated using pymatgen
data_Y2Er2CdInPd4
_symmetry_space_group_name_H-M   'P 1'
_cell_length_a   7.73380005
_cell_length_b   7.73412305
_cell_length_c   3.71672800
_cell_angle_alpha   90.00000000
_cell_angle_beta   90.00000000
_cell_angle_gamma   90.01269789
_symmetry_Int_Tables_number   1
_chemical_formula_structural   Y2Er2CdInPd4
_chemical_formula_sum   'Y2 Er2 Cd1 In1 Pd4'
_cell_volume   222.31296224
_cell_formula_units_Z   1
loop_
 _symmetry_equiv_pos_site_id
 _symmetry_equiv_pos_as_xyz
  1  'x, y, z'
loop_
 _atom_site_type_symbol
 _atom_site_label
 _atom_site_symmetry_multiplicity
 _atom_site_fract_x
 _atom_site_fract_y
 _atom_site_fract_z
 _atom_site_occupancy
  Y  Y0  1  0.336779  0.825249  0.500000  1
  Y  Y1  1  0.823945  0.662101  0.500000  1
  Er  Er2  1  0.175019  0.336514  0.500000  1
  Er  Er3  1  0.661587  0.176958  0.500000  1
  Cd  Cd4  1  0.001197  0.997990  0.000000  1
  In  In5  1  0.499266  0.501120  0.000000  1
  Pd  Pd6  1  0.365560  0.129957  0.000000  1
  Pd  Pd7  1  0.874128  0.361053  0.000000  1
  Pd  Pd8  1  0.126446  0.630527  0.000000  1
  Pd  Pd9  1  0.636074  0.878532  0.000000  1
