# generated using pymatgen
data_Yb3DyMnRu7
_symmetry_space_group_name_H-M   'P 1'
_cell_length_a   5.27834700
_cell_length_b   5.27834574
_cell_length_c   8.69387200
_cell_angle_alpha   90.00081861
_cell_angle_beta   89.99918277
_cell_angle_gamma   119.99652612
_symmetry_Int_Tables_number   1
_chemical_formula_structural   Yb3DyMnRu7
_chemical_formula_sum   'Yb3 Dy1 Mn1 Ru7'
_cell_volume   209.77553928
_cell_formula_units_Z   1
loop_
 _symmetry_equiv_pos_site_id
 _symmetry_equiv_pos_as_xyz
  1  'x, y, z'
loop_
 _atom_site_type_symbol
 _atom_site_label
 _atom_site_symmetry_multiplicity
 _atom_site_fract_x
 _atom_site_fract_y
 _atom_site_fract_z
 _atom_site_occupancy
  Yb  Yb0  1  0.333345  0.666655  0.427957  1
  Yb  Yb1  1  0.333358  0.666642  0.064935  1
  Yb  Yb2  1  0.666668  0.333332  0.939646  1
  Dy  Dy3  1  0.666656  0.333344  0.571498  1
  Mn  Mn4  1  0.000022  0.999978  0.500045  1
  Ru  Ru5  1  0.000017  0.999983  0.996922  1
  Ru  Ru6  1  0.170813  0.341652  0.745405  1
  Ru  Ru7  1  0.170826  0.829174  0.745410  1
  Ru  Ru8  1  0.658348  0.829187  0.745405  1
  Ru  Ru9  1  0.829629  0.659159  0.254259  1
  Ru  Ru10  1  0.829475  0.170525  0.254258  1
  Ru  Ru11  1  0.340841  0.170371  0.254259  1
