# generated using pymatgen
data_CeInNiPt3
_symmetry_space_group_name_H-M   'P 1'
_cell_length_a   5.42702703
_cell_length_b   5.42702651
_cell_length_c   5.24664193
_cell_angle_alpha   58.85600762
_cell_angle_beta   58.85601287
_cell_angle_gamma   59.99998938
_symmetry_Int_Tables_number   1
_chemical_formula_structural   CeInNiPt3
_chemical_formula_sum   'Ce1 In1 Ni1 Pt3'
_cell_volume   107.33966418
_cell_formula_units_Z   1
loop_
 _symmetry_equiv_pos_site_id
 _symmetry_equiv_pos_as_xyz
  1  'x, y, z'
loop_
 _atom_site_type_symbol
 _atom_site_label
 _atom_site_symmetry_multiplicity
 _atom_site_fract_x
 _atom_site_fract_y
 _atom_site_fract_z
 _atom_site_occupancy
  Ce  Ce0  1  0.999536  0.999536  0.001392  1
  In  In1  1  0.252857  0.252857  0.241428  1
  Ni  Ni2  1  0.624012  0.624012  0.127963  1
  Pt  Pt3  1  0.623568  0.126457  0.626406  1
  Pt  Pt4  1  0.126457  0.623568  0.626406  1
  Pt  Pt5  1  0.623568  0.623568  0.626406  1
