# generated using pymatgen
data_Dy11Y9(Hg3Ru)2
_symmetry_space_group_name_H-M   'P 1'
_cell_length_a   9.63896366
_cell_length_b   9.63736551
_cell_length_c   9.68366916
_cell_angle_alpha   90.00003550
_cell_angle_beta   90.06634579
_cell_angle_gamma   119.99423277
_symmetry_Int_Tables_number   1
_chemical_formula_structural   Dy11Y9(Hg3Ru)2
_chemical_formula_sum   'Dy11 Y9 Hg6 Ru2'
_cell_volume   779.08366067
_cell_formula_units_Z   1
loop_
 _symmetry_equiv_pos_site_id
 _symmetry_equiv_pos_as_xyz
  1  'x, y, z'
loop_
 _atom_site_type_symbol
 _atom_site_label
 _atom_site_symmetry_multiplicity
 _atom_site_fract_x
 _atom_site_fract_y
 _atom_site_fract_z
 _atom_site_occupancy
  Dy  Dy0  1  0.209829  0.790283  0.439232  1
  Dy  Dy1  1  0.209828  0.419544  0.439231  1
  Dy  Dy2  1  0.580309  0.790154  0.439421  1
  Dy  Dy3  1  0.790267  0.209805  0.560696  1
  Dy  Dy4  1  0.790268  0.580464  0.560697  1
  Dy  Dy5  1  0.419546  0.209773  0.560658  1
  Dy  Dy6  1  0.790360  0.209947  0.939245  1
  Dy  Dy7  1  0.790361  0.580415  0.939245  1
  Dy  Dy8  1  0.419589  0.209795  0.939301  1
  Dy  Dy9  1  0.209729  0.790153  0.060841  1
  Dy  Dy10  1  0.209727  0.419575  0.060841  1
  Y  Y11  1  0.000013  0.000006  0.500005  1
  Y  Y12  1  0.000291  0.000144  0.999885  1
  Y  Y13  1  0.581476  0.790737  0.059933  1
  Y  Y14  1  0.540974  0.458887  0.250105  1
  Y  Y15  1  0.540975  0.082088  0.250104  1
  Y  Y16  1  0.918069  0.459036  0.249987  1
  Y  Y17  1  0.459059  0.540883  0.749846  1
  Y  Y18  1  0.459058  0.918176  0.749846  1
  Y  Y19  1  0.081926  0.540962  0.750009  1
  Hg  Hg20  1  0.881252  0.118787  0.249969  1
  Hg  Hg21  1  0.881250  0.762465  0.249969  1
  Hg  Hg22  1  0.237506  0.118753  0.250031  1
  Hg  Hg23  1  0.118677  0.881232  0.750012  1
  Hg  Hg24  1  0.118679  0.237446  0.750012  1
  Hg  Hg25  1  0.762456  0.881228  0.750037  1
  Ru  Ru26  1  0.331898  0.665946  0.250910  1
  Ru  Ru27  1  0.666626  0.333316  0.749930  1
