# generated using pymatgen
data_DyYNi2Ag
_symmetry_space_group_name_H-M   'P 1'
_cell_length_a   7.26954056
_cell_length_b   7.26953901
_cell_length_c   3.67425300
_cell_angle_alpha   90.00000000
_cell_angle_beta   90.00000000
_cell_angle_gamma   149.48641806
_symmetry_Int_Tables_number   1
_chemical_formula_structural   DyYNi2Ag
_chemical_formula_sum   'Dy1 Y1 Ni2 Ag1'
_cell_volume   98.58855326
_cell_formula_units_Z   1
loop_
 _symmetry_equiv_pos_site_id
 _symmetry_equiv_pos_as_xyz
  1  'x, y, z'
loop_
 _atom_site_type_symbol
 _atom_site_label
 _atom_site_symmetry_multiplicity
 _atom_site_fract_x
 _atom_site_fract_y
 _atom_site_fract_z
 _atom_site_occupancy
  Dy  Dy0  1  0.365306  0.634694  0.500000  1
  Y  Y1  1  0.633188  0.366812  0.500000  1
  Ni  Ni2  1  0.801611  0.198389  0.000000  1
  Ni  Ni3  1  0.200137  0.799863  0.000000  1
  Ag  Ag4  1  0.999759  0.000241  0.000000  1
