# generated using pymatgen
data_Sc4Al23SiPd9
_symmetry_space_group_name_H-M   'P 1'
_cell_length_a   7.46395522
_cell_length_b   7.45935508
_cell_length_c   12.98934627
_cell_angle_alpha   84.50594282
_cell_angle_beta   100.98511541
_cell_angle_gamma   119.88814143
_symmetry_Int_Tables_number   1
_chemical_formula_structural   Sc4Al23SiPd9
_chemical_formula_sum   'Sc4 Al23 Si1 Pd9'
_cell_volume   615.52394883
_cell_formula_units_Z   1
loop_
 _symmetry_equiv_pos_site_id
 _symmetry_equiv_pos_as_xyz
  1  'x, y, z'
loop_
 _atom_site_type_symbol
 _atom_site_label
 _atom_site_symmetry_multiplicity
 _atom_site_fract_x
 _atom_site_fract_y
 _atom_site_fract_z
 _atom_site_occupancy
  Sc  Sc0  1  0.731401  0.999622  0.191780  1
  Sc  Sc1  1  0.262029  0.001998  0.809004  1
  Sc  Sc2  1  0.062569  0.667348  0.191693  1
  Sc  Sc3  1  0.939501  0.326054  0.809043  1
  Al  Al4  1  0.184507  0.123906  0.182982  1
  Al  Al5  1  0.984963  0.666189  0.940942  1
  Al  Al6  1  0.016387  0.334354  0.057403  1
  Al  Al7  1  0.394320  0.668396  0.816254  1
  Al  Al8  1  0.605660  0.334852  0.183348  1
  Al  Al9  1  0.887783  0.663195  0.677121  1
  Al  Al10  1  0.112287  0.334262  0.323755  1
  Al  Al11  1  0.607185  0.453680  0.815965  1
  Al  Al12  1  0.396071  0.545927  0.183448  1
  Al  Al13  1  0.231214  0.338856  0.675890  1
  Al  Al14  1  0.770442  0.662778  0.323793  1
  Al  Al15  1  0.853363  0.332425  0.560683  1
  Al  Al16  1  0.186281  0.000264  0.560559  1
  Al  Al17  1  0.813114  0.999396  0.441165  1
  Al  Al18  1  0.353377  0.996909  0.057605  1
  Al  Al19  1  0.646501  0.005183  0.940574  1
  Al  Al20  1  0.556353  0.996317  0.677713  1
  Al  Al21  1  0.440946  0.003409  0.323200  1
  Al  Al22  1  0.520555  0.666501  0.562325  1
  Al  Al23  1  0.478602  0.332955  0.436015  1
  Al  Al24  1  0.691342  0.673476  0.054137  1
  Al  Al25  1  0.317407  0.333730  0.950679  1
  Al  Al26  1  0.146110  0.666460  0.439046  1
  Si  Si27  1  0.805867  0.866706  0.815852  1
  Pd  Pd28  1  0.331357  0.673805  0.999266  1
  Pd  Pd29  1  0.546442  0.325556  0.637982  1
  Pd  Pd30  1  0.454258  0.675541  0.361794  1
  Pd  Pd31  1  0.887569  0.006232  0.644062  1
  Pd  Pd32  1  0.111101  0.991441  0.360822  1
  Pd  Pd33  1  0.673534  0.331626  0.999251  1
  Pd  Pd34  1  0.205215  0.667466  0.639214  1
  Pd  Pd35  1  0.795507  0.332351  0.361066  1
  Pd  Pd36  1  0.998881  0.000836  0.994573  1
