# generated using pymatgen
data_Ho2LuThMgCo
_symmetry_space_group_name_H-M   'P 1'
_cell_length_a   9.57527131
_cell_length_b   9.57527104
_cell_length_c   9.57748700
_cell_angle_alpha   59.99234075
_cell_angle_beta   59.99234169
_cell_angle_gamma   60.01531929
_symmetry_Int_Tables_number   1
_chemical_formula_structural   Ho2LuThMgCo
_chemical_formula_sum   'Ho8 Lu4 Th4 Mg4 Co4'
_cell_volume   620.92435747
_cell_formula_units_Z   4
loop_
 _symmetry_equiv_pos_site_id
 _symmetry_equiv_pos_as_xyz
  1  'x, y, z'
loop_
 _atom_site_type_symbol
 _atom_site_label
 _atom_site_symmetry_multiplicity
 _atom_site_fract_x
 _atom_site_fract_y
 _atom_site_fract_z
 _atom_site_occupancy
  Ho  Ho0  1  0.185488  0.185488  0.814512  1
  Ho  Ho1  1  0.814512  0.814512  0.185488  1
  Ho  Ho2  1  0.935125  0.564875  0.564875  1
  Ho  Ho3  1  0.564875  0.935125  0.935125  1
  Ho  Ho4  1  0.564875  0.935125  0.564875  1
  Ho  Ho5  1  0.935125  0.564875  0.935125  1
  Ho  Ho6  1  0.564825  0.564825  0.935175  1
  Ho  Ho7  1  0.935175  0.935175  0.564825  1
  Lu  Lu8  1  0.814021  0.185979  0.185979  1
  Lu  Lu9  1  0.185979  0.814021  0.814021  1
  Lu  Lu10  1  0.185979  0.814021  0.185979  1
  Lu  Lu11  1  0.814021  0.185979  0.814021  1
  Th  Th12  1  0.345082  0.345082  0.343969  1
  Th  Th13  1  0.345082  0.345082  0.965869  1
  Th  Th14  1  0.343969  0.965869  0.345082  1
  Th  Th15  1  0.965869  0.343969  0.345082  1
  Mg  Mg16  1  0.580327  0.580327  0.580637  1
  Mg  Mg17  1  0.580327  0.580327  0.258707  1
  Mg  Mg18  1  0.580637  0.258707  0.580327  1
  Mg  Mg19  1  0.258707  0.580637  0.580327  1
  Co  Co20  1  0.144032  0.144032  0.144684  1
  Co  Co21  1  0.144032  0.144032  0.567250  1
  Co  Co22  1  0.144684  0.567250  0.144032  1
  Co  Co23  1  0.567250  0.144684  0.144032  1
