# generated using pymatgen
data_TmTh2In3RuRh2
_symmetry_space_group_name_H-M   'P 1'
_cell_length_a   7.48240833
_cell_length_b   7.74252820
_cell_length_c   3.95532100
_cell_angle_alpha   90.00000000
_cell_angle_beta   90.00000000
_cell_angle_gamma   119.05275085
_symmetry_Int_Tables_number   1
_chemical_formula_structural   TmTh2In3RuRh2
_chemical_formula_sum   'Tm1 Th2 In3 Ru1 Rh2'
_cell_volume   200.31031619
_cell_formula_units_Z   1
loop_
 _symmetry_equiv_pos_site_id
 _symmetry_equiv_pos_as_xyz
  1  'x, y, z'
loop_
 _atom_site_type_symbol
 _atom_site_label
 _atom_site_symmetry_multiplicity
 _atom_site_fract_x
 _atom_site_fract_y
 _atom_site_fract_z
 _atom_site_occupancy
  Tm  Tm0  1  0.403469  0.996063  0.500000  1
  Th  Th1  1  0.006430  0.419903  0.500000  1
  Th  Th2  1  0.582054  0.587049  0.500000  1
  In  In3  1  0.253442  0.238103  0.000000  1
  In  In4  1  0.014923  0.762502  0.000000  1
  In  In5  1  0.731841  0.000466  0.000000  1
  Ru  Ru6  1  0.330250  0.642570  0.000000  1
  Rh  Rh7  1  0.991597  0.999874  0.500000  1
  Rh  Rh8  1  0.685995  0.353471  0.000000  1
