# generated using pymatgen
data_Ca2La2NdSi4
_symmetry_space_group_name_H-M   'P 1'
_cell_length_a   7.99714012
_cell_length_b   8.00197144
_cell_length_c   14.86504866
_cell_angle_alpha   90.16850432
_cell_angle_beta   90.02582576
_cell_angle_gamma   90.11321825
_symmetry_Int_Tables_number   1
_chemical_formula_structural   Ca2La2NdSi4
_chemical_formula_sum   'Ca8 La8 Nd4 Si16'
_cell_volume   951.25130647
_cell_formula_units_Z   4
loop_
 _symmetry_equiv_pos_site_id
 _symmetry_equiv_pos_as_xyz
  1  'x, y, z'
loop_
 _atom_site_type_symbol
 _atom_site_label
 _atom_site_symmetry_multiplicity
 _atom_site_fract_x
 _atom_site_fract_y
 _atom_site_fract_z
 _atom_site_occupancy
  Ca  Ca0  1  0.630124  0.511543  0.875524  1
  Ca  Ca1  1  0.488355  0.369349  0.624336  1
  Ca  Ca2  1  0.511765  0.631260  0.123959  1
  Ca  Ca3  1  0.130403  0.988209  0.874836  1
  Ca  Ca4  1  0.687216  0.688317  0.501113  1
  Ca  Ca5  1  0.809168  0.191218  0.750897  1
  Ca  Ca6  1  0.194326  0.807183  0.249624  1
  Ca  Ca7  1  0.313316  0.313426  0.999748  1
  La  La8  1  0.992777  0.627163  0.046590  1
  La  La9  1  0.009920  0.372383  0.546265  1
  La  La10  1  0.623899  0.991611  0.952548  1
  La  La11  1  0.128350  0.509427  0.797065  1
  La  La12  1  0.868970  0.490851  0.295160  1
  La  La13  1  0.511232  0.129654  0.204305  1
  La  La14  1  0.490376  0.873028  0.703897  1
  La  La15  1  0.370887  0.010102  0.454076  1
  Nd  Nd16  1  0.372137  0.491422  0.376399  1
  Nd  Nd17  1  0.871566  0.009125  0.374028  1
  Nd  Nd18  1  0.991258  0.126487  0.124767  1
  Nd  Nd19  1  0.007735  0.872973  0.625357  1
  Si  Si20  1  0.080472  0.712560  0.441505  1
  Si  Si21  1  0.920530  0.292814  0.942564  1
  Si  Si22  1  0.711416  0.077206  0.558054  1
  Si  Si23  1  0.207393  0.419731  0.191846  1
  Si  Si24  1  0.792722  0.581193  0.691550  1
  Si  Si25  1  0.419741  0.208074  0.808450  1
  Si  Si26  1  0.579449  0.787646  0.308993  1
  Si  Si27  1  0.288178  0.919815  0.058486  1
  Si  Si28  1  0.834418  0.795505  0.805723  1
  Si  Si29  1  0.161734  0.207013  0.305983  1
  Si  Si30  1  0.796246  0.836157  0.194336  1
  Si  Si31  1  0.294793  0.667291  0.555797  1
  Si  Si32  1  0.706323  0.333468  0.057855  1
  Si  Si33  1  0.661053  0.292272  0.442334  1
  Si  Si34  1  0.334705  0.703697  0.943735  1
  Si  Si35  1  0.207049  0.160824  0.692294  1
