# generated using pymatgen
data_Tb4Tc2Os5W
_symmetry_space_group_name_H-M   'P 1'
_cell_length_a   5.28959431
_cell_length_b   5.24340082
_cell_length_c   9.02955600
_cell_angle_alpha   90.00000000
_cell_angle_beta   90.00000000
_cell_angle_gamma   117.25437201
_symmetry_Int_Tables_number   1
_chemical_formula_structural   Tb4Tc2Os5W
_chemical_formula_sum   'Tb4 Tc2 Os5 W1'
_cell_volume   222.63573968
_cell_formula_units_Z   1
loop_
 _symmetry_equiv_pos_site_id
 _symmetry_equiv_pos_as_xyz
  1  'x, y, z'
loop_
 _atom_site_type_symbol
 _atom_site_label
 _atom_site_symmetry_multiplicity
 _atom_site_fract_x
 _atom_site_fract_y
 _atom_site_fract_z
 _atom_site_occupancy
  Tb  Tb0  1  0.329252  0.670559  0.434684  1
  Tb  Tb1  1  0.668413  0.332722  0.566065  1
  Tb  Tb2  1  0.668413  0.332722  0.933935  1
  Tb  Tb3  1  0.329252  0.670559  0.065316  1
  Tc  Tc4  1  0.166333  0.829891  0.750000  1
  Tc  Tc5  1  0.172250  0.344393  0.750000  1
  Os  Os6  1  0.998917  0.005276  0.501875  1
  Os  Os7  1  0.998917  0.005276  0.998125  1
  Os  Os8  1  0.825089  0.649570  0.250000  1
  Os  Os9  1  0.349023  0.173790  0.250000  1
  Os  Os10  1  0.654340  0.825946  0.750000  1
  W  W11  1  0.839804  0.159295  0.250000  1
