# generated using pymatgen
data_Dy15Ho3(ErBi6)2
_symmetry_space_group_name_H-M   'P 1'
_cell_length_a   8.25751116
_cell_length_b   9.51604700
_cell_length_c   12.04358400
_cell_angle_alpha   89.99937665
_cell_angle_beta   90.01114623
_cell_angle_gamma   90.00125161
_symmetry_Int_Tables_number   1
_chemical_formula_structural   Dy15Ho3(ErBi6)2
_chemical_formula_sum   'Dy15 Ho3 Er2 Bi12'
_cell_volume   946.37113546
_cell_formula_units_Z   1
loop_
 _symmetry_equiv_pos_site_id
 _symmetry_equiv_pos_as_xyz
  1  'x, y, z'
loop_
 _atom_site_type_symbol
 _atom_site_label
 _atom_site_symmetry_multiplicity
 _atom_site_fract_x
 _atom_site_fract_y
 _atom_site_fract_z
 _atom_site_occupancy
  Dy  Dy0  1  0.352537  0.750010  0.215321  1
  Dy  Dy1  1  0.852505  0.750032  0.284685  1
  Dy  Dy2  1  0.647414  0.250047  0.784746  1
  Dy  Dy3  1  0.147610  0.250134  0.715344  1
  Dy  Dy4  1  0.807323  0.063883  0.558490  1
  Dy  Dy5  1  0.692660  0.936042  0.058464  1
  Dy  Dy6  1  0.192717  0.563919  0.441529  1
  Dy  Dy7  1  0.475277  0.249969  0.488149  1
  Dy  Dy8  1  0.975387  0.250050  0.011812  1
  Dy  Dy9  1  0.524640  0.750088  0.511845  1
  Dy  Dy10  1  0.024705  0.749965  0.988190  1
  Dy  Dy11  1  0.312623  0.250013  0.218610  1
  Dy  Dy12  1  0.812599  0.250046  0.281340  1
  Dy  Dy13  1  0.687407  0.749933  0.781375  1
  Dy  Dy14  1  0.187383  0.750066  0.718619  1
  Ho  Ho15  1  0.307398  0.064152  0.941574  1
  Ho  Ho16  1  0.807463  0.435948  0.558429  1
  Ho  Ho17  1  0.307303  0.435883  0.941539  1
  Er  Er18  1  0.692605  0.564090  0.058426  1
  Er  Er19  1  0.192520  0.935894  0.441572  1
  Bi  Bi20  1  0.407278  0.749814  0.956814  1
  Bi  Bi21  1  0.907388  0.749801  0.543126  1
  Bi  Bi22  1  0.592548  0.250535  0.043105  1
  Bi  Bi23  1  0.092690  0.249579  0.456854  1
  Bi  Bi24  1  0.564826  0.995547  0.325290  1
  Bi  Bi25  1  0.064843  0.504480  0.174646  1
  Bi  Bi26  1  0.435095  0.495531  0.674782  1
  Bi  Bi27  1  0.935147  0.004491  0.825294  1
  Bi  Bi28  1  0.435010  0.004509  0.674726  1
  Bi  Bi29  1  0.935102  0.495513  0.825339  1
  Bi  Bi30  1  0.564972  0.504482  0.325235  1
  Bi  Bi31  1  0.065020  0.995553  0.174731  1
