# generated using pymatgen
data_Dy15Er4ScSn16
_symmetry_space_group_name_H-M   'P 1'
_cell_length_a   8.01337305
_cell_length_b   8.15209103
_cell_length_c   15.44452400
_cell_angle_alpha   90.00506041
_cell_angle_beta   90.00643502
_cell_angle_gamma   89.97165408
_symmetry_Int_Tables_number   1
_chemical_formula_structural   Dy15Er4ScSn16
_chemical_formula_sum   'Dy15 Er4 Sc1 Sn16'
_cell_volume   1008.92492681
_cell_formula_units_Z   1
loop_
 _symmetry_equiv_pos_site_id
 _symmetry_equiv_pos_as_xyz
  1  'x, y, z'
loop_
 _atom_site_type_symbol
 _atom_site_label
 _atom_site_symmetry_multiplicity
 _atom_site_fract_x
 _atom_site_fract_y
 _atom_site_fract_z
 _atom_site_occupancy
  Dy  Dy0  1  0.866209  0.661118  0.623904  1
  Dy  Dy1  1  0.634037  0.162284  0.377569  1
  Dy  Dy2  1  0.134395  0.338155  0.121034  1
  Dy  Dy3  1  0.634104  0.162510  0.122490  1
  Dy  Dy4  1  0.134183  0.338085  0.378445  1
  Dy  Dy5  1  0.365570  0.837668  0.623784  1
  Dy  Dy6  1  0.866534  0.660966  0.876640  1
  Dy  Dy7  1  0.519728  0.321035  0.902745  1
  Dy  Dy8  1  0.020762  0.179634  0.597431  1
  Dy  Dy9  1  0.480649  0.679516  0.404245  1
  Dy  Dy10  1  0.980167  0.820652  0.096458  1
  Dy  Dy11  1  0.480608  0.679873  0.095245  1
  Dy  Dy12  1  0.980372  0.820726  0.403491  1
  Dy  Dy13  1  0.519850  0.321397  0.597575  1
  Dy  Dy14  1  0.020525  0.179310  0.902695  1
  Er  Er15  1  0.365113  0.838016  0.875938  1
  Er  Er16  1  0.696422  0.997160  0.750158  1
  Er  Er17  1  0.802964  0.496643  0.250008  1
  Er  Er18  1  0.302791  0.003466  0.249705  1
  Sc  Sc19  1  0.197997  0.503863  0.750330  1
  Sn  Sn20  1  0.294428  0.036331  0.040768  1
  Sn  Sn21  1  0.794052  0.462889  0.458612  1
  Sn  Sn22  1  0.706175  0.962329  0.542258  1
  Sn  Sn23  1  0.206884  0.537251  0.954979  1
  Sn  Sn24  1  0.704350  0.961814  0.957806  1
  Sn  Sn25  1  0.205905  0.536322  0.544924  1
  Sn  Sn26  1  0.293952  0.036602  0.458372  1
  Sn  Sn27  1  0.793878  0.462943  0.041619  1
  Sn  Sn28  1  0.557637  0.614744  0.750453  1
  Sn  Sn29  1  0.063684  0.880106  0.750477  1
  Sn  Sn30  1  0.436677  0.382652  0.249939  1
  Sn  Sn31  1  0.937463  0.118412  0.249852  1
  Sn  Sn32  1  0.326728  0.155188  0.750145  1
  Sn  Sn33  1  0.833577  0.351101  0.750152  1
  Sn  Sn34  1  0.670474  0.850265  0.249875  1
  Sn  Sn35  1  0.171151  0.648980  0.249880  1
