# generated using pymatgen
data_Nb6Al2ZnCuN2
_symmetry_space_group_name_H-M   'P 1'
_cell_length_a   7.02897995
_cell_length_b   7.03030795
_cell_length_c   7.03017500
_cell_angle_alpha   90.00000000
_cell_angle_beta   90.00000000
_cell_angle_gamma   89.73393174
_symmetry_Int_Tables_number   1
_chemical_formula_structural   Nb6Al2ZnCuN2
_chemical_formula_sum   'Nb12 Al4 Zn2 Cu2 N4'
_cell_volume   347.39863406
_cell_formula_units_Z   2
loop_
 _symmetry_equiv_pos_site_id
 _symmetry_equiv_pos_as_xyz
  1  'x, y, z'
loop_
 _atom_site_type_symbol
 _atom_site_label
 _atom_site_symmetry_multiplicity
 _atom_site_fract_x
 _atom_site_fract_y
 _atom_site_fract_z
 _atom_site_occupancy
  Nb  Nb0  1  0.791667  0.956750  0.373980  1
  Nb  Nb1  1  0.708333  0.043250  0.873980  1
  Nb  Nb2  1  0.207679  0.456965  0.125810  1
  Nb  Nb3  1  0.292321  0.543035  0.625810  1
  Nb  Nb4  1  0.956381  0.373909  0.792162  1
  Nb  Nb5  1  0.042473  0.874258  0.708231  1
  Nb  Nb6  1  0.457527  0.125742  0.208231  1
  Nb  Nb7  1  0.543619  0.626091  0.292162  1
  Nb  Nb8  1  0.374422  0.791533  0.956594  1
  Nb  Nb9  1  0.873780  0.707644  0.042809  1
  Nb  Nb10  1  0.125578  0.208467  0.456594  1
  Nb  Nb11  1  0.626220  0.292356  0.542809  1
  Al  Al12  1  0.578471  0.430083  0.927634  1
  Al  Al13  1  0.432087  0.923106  0.574272  1
  Al  Al14  1  0.921529  0.569917  0.427634  1
  Al  Al15  1  0.067913  0.076894  0.074272  1
  Zn  Zn16  1  0.178684  0.820743  0.321199  1
  Zn  Zn17  1  0.321316  0.179257  0.821199  1
  Cu  Cu18  1  0.821073  0.321279  0.178816  1
  Cu  Cu19  1  0.678927  0.678721  0.678816  1
  N  N20  1  0.876218  0.123392  0.622262  1
  N  N21  1  0.623782  0.876608  0.122262  1
  N  N22  1  0.122226  0.622575  0.876231  1
  N  N23  1  0.377774  0.377425  0.376231  1
