# generated using pymatgen
data_Tb2GdY3Ta2O14
_symmetry_space_group_name_H-M   'P 1'
_cell_length_a   6.52534852
_cell_length_b   6.52541812
_cell_length_c   7.51029913
_cell_angle_alpha   89.94964433
_cell_angle_beta   90.00697322
_cell_angle_gamma   108.61435497
_symmetry_Int_Tables_number   1
_chemical_formula_structural   Tb2GdY3Ta2O14
_chemical_formula_sum   'Tb2 Gd1 Y3 Ta2 O14'
_cell_volume   303.06425314
_cell_formula_units_Z   1
loop_
 _symmetry_equiv_pos_site_id
 _symmetry_equiv_pos_as_xyz
  1  'x, y, z'
loop_
 _atom_site_type_symbol
 _atom_site_label
 _atom_site_symmetry_multiplicity
 _atom_site_fract_x
 _atom_site_fract_y
 _atom_site_fract_z
 _atom_site_occupancy
  Tb  Tb0  1  0.535113  0.999687  0.758549  1
  Tb  Tb1  1  0.999909  0.465115  0.742832  1
  Gd  Gd2  1  0.531856  0.531757  0.499909  1
  Y  Y3  1  0.464853  0.999977  0.257103  1
  Y  Y4  1  0.999603  0.535357  0.241436  1
  Y  Y5  1  0.461519  0.461421  0.000274  1
  Ta  Ta6  1  0.002329  0.002728  0.499611  1
  Ta  Ta7  1  0.997080  0.997424  0.000353  1
  O  O8  1  0.933673  0.066473  0.749847  1
  O  O9  1  0.639664  0.360674  0.753090  1
  O  O10  1  0.308584  0.051632  0.541899  1
  O  O11  1  0.952030  0.693303  0.957764  1
  O  O12  1  0.629773  0.370152  0.246957  1
  O  O13  1  0.919606  0.673383  0.524440  1
  O  O14  1  0.326802  0.081460  0.975705  1
  O  O15  1  0.080710  0.325927  0.025624  1
  O  O16  1  0.674269  0.920578  0.474157  1
  O  O17  1  0.370669  0.629191  0.753073  1
  O  O18  1  0.693489  0.951301  0.043372  1
  O  O19  1  0.052112  0.308336  0.456894  1
  O  O20  1  0.359599  0.640667  0.246974  1
  O  O21  1  0.066757  0.933458  0.250137  1
