# generated using pymatgen
data_Mg2TiV3(PO5)4
_symmetry_space_group_name_H-M   'P 1'
_cell_length_a   7.39499424
_cell_length_b   7.45191518
_cell_length_c   7.39150591
_cell_angle_alpha   89.78464718
_cell_angle_beta   119.79090693
_cell_angle_gamma   90.00758343
_symmetry_Int_Tables_number   1
_chemical_formula_structural   Mg2TiV3(PO5)4
_chemical_formula_sum   'Mg2 Ti1 V3 P4 O20'
_cell_volume   353.48953244
_cell_formula_units_Z   1
loop_
 _symmetry_equiv_pos_site_id
 _symmetry_equiv_pos_as_xyz
  1  'x, y, z'
loop_
 _atom_site_type_symbol
 _atom_site_label
 _atom_site_symmetry_multiplicity
 _atom_site_fract_x
 _atom_site_fract_y
 _atom_site_fract_z
 _atom_site_occupancy
  Mg  Mg0  1  0.001704  0.997902  0.002526  1
  Mg  Mg1  1  0.002925  0.500146  0.502942  1
  Ti  Ti2  1  0.266368  0.720419  0.968169  1
  V  V3  1  0.737885  0.274712  0.033685  1
  V  V4  1  0.262761  0.772938  0.473029  1
  V  V5  1  0.739509  0.226706  0.534651  1
  P  P6  1  0.248567  0.376090  0.249097  1
  P  P7  1  0.752181  0.880936  0.252128  1
  P  P8  1  0.249233  0.121068  0.750063  1
  P  P9  1  0.750499  0.622505  0.750392  1
  O  O10  1  0.260578  0.492752  0.081431  1
  O  O11  1  0.781677  0.003986  0.097411  1
  O  O12  1  0.555107  0.764654  0.130589  1
  O  O13  1  0.057268  0.248988  0.143680  1
  O  O14  1  0.229496  0.835309  0.234932  1
  O  O15  1  0.769442  0.336623  0.270665  1
  O  O16  1  0.938186  0.748544  0.353437  1
  O  O17  1  0.441975  0.256692  0.358629  1
  O  O18  1  0.219674  0.499223  0.402354  1
  O  O19  1  0.734781  0.994523  0.414287  1
  O  O20  1  0.265143  0.008616  0.586120  1
  O  O21  1  0.779638  0.498314  0.595874  1
  O  O22  1  0.560686  0.745941  0.636933  1
  O  O23  1  0.057457  0.250333  0.646533  1
  O  O24  1  0.234435  0.662575  0.723757  1
  O  O25  1  0.767203  0.164702  0.770196  1
  O  O26  1  0.943350  0.749021  0.855060  1
  O  O27  1  0.440610  0.242885  0.865305  1
  O  O28  1  0.217705  0.996302  0.903020  1
  O  O29  1  0.733959  0.506597  0.913108  1
