# generated using pymatgen
data_Sr4Y2NbPtO12
_symmetry_space_group_name_H-M   'P 1'
_cell_length_a   5.83832398
_cell_length_b   5.92888972
_cell_length_c   8.30978541
_cell_angle_alpha   90.09803141
_cell_angle_beta   90.32289018
_cell_angle_gamma   90.04844363
_symmetry_Int_Tables_number   1
_chemical_formula_structural   Sr4Y2NbPtO12
_chemical_formula_sum   'Sr4 Y2 Nb1 Pt1 O12'
_cell_volume   287.63629144
_cell_formula_units_Z   1
loop_
 _symmetry_equiv_pos_site_id
 _symmetry_equiv_pos_as_xyz
  1  'x, y, z'
loop_
 _atom_site_type_symbol
 _atom_site_label
 _atom_site_symmetry_multiplicity
 _atom_site_fract_x
 _atom_site_fract_y
 _atom_site_fract_z
 _atom_site_occupancy
  Sr  Sr0  1  0.492585  0.042327  0.752030  1
  Sr  Sr1  1  0.011961  0.538302  0.752531  1
  Sr  Sr2  1  0.507416  0.957671  0.247971  1
  Sr  Sr3  1  0.988038  0.461696  0.247469  1
  Y  Y4  1  0.500000  0.500000  0.500000  1
  Y  Y5  1  0.000000  0.000000  0.000000  1
  Nb  Nb6  1  0.000000  0.000000  0.500000  1
  Pt  Pt7  1  0.500000  0.500000  0.999999  1
  O  O8  1  0.580440  0.476496  0.764381  1
  O  O9  1  0.919937  0.975371  0.735921  1
  O  O10  1  0.419561  0.523504  0.235619  1
  O  O11  1  0.080061  0.024629  0.264079  1
  O  O12  1  0.808426  0.721018  0.454423  1
  O  O13  1  0.697288  0.227149  0.043222  1
  O  O14  1  0.191575  0.278980  0.545576  1
  O  O15  1  0.302713  0.772851  0.956778  1
  O  O16  1  0.720691  0.193574  0.459193  1
  O  O17  1  0.772763  0.701131  0.040881  1
  O  O18  1  0.279309  0.806426  0.540807  1
  O  O19  1  0.227237  0.298869  0.959120  1
