# generated using pymatgen
data_Tb2VWO7
_symmetry_space_group_name_H-M   'P 1'
_cell_length_a   7.31666430
_cell_length_b   7.25653529
_cell_length_c   7.31520112
_cell_angle_alpha   60.30410460
_cell_angle_beta   60.65737877
_cell_angle_gamma   60.22548402
_symmetry_Int_Tables_number   1
_chemical_formula_structural   Tb2VWO7
_chemical_formula_sum   'Tb4 V2 W2 O14'
_cell_volume   277.08216092
_cell_formula_units_Z   2
loop_
 _symmetry_equiv_pos_site_id
 _symmetry_equiv_pos_as_xyz
  1  'x, y, z'
loop_
 _atom_site_type_symbol
 _atom_site_label
 _atom_site_symmetry_multiplicity
 _atom_site_fract_x
 _atom_site_fract_y
 _atom_site_fract_z
 _atom_site_occupancy
  Tb  Tb0  1  0.000000  0.500000  0.500000  1
  Tb  Tb1  1  0.500000  0.000000  0.500000  1
  Tb  Tb2  1  0.500000  0.500000  0.500000  1
  Tb  Tb3  1  0.500000  0.500000  0.000000  1
  V  V4  1  0.000000  0.500000  0.000000  1
  V  V5  1  0.000000  0.000000  0.000000  1
  W  W6  1  0.500000  0.000000  0.000000  1
  W  W7  1  0.000000  0.000000  0.500000  1
  O  O8  1  0.375723  0.374199  0.375839  1
  O  O9  1  0.624277  0.625801  0.624161  1
  O  O10  1  0.088045  0.671450  0.655856  1
  O  O11  1  0.343996  0.915419  0.912016  1
  O  O12  1  0.667662  0.082179  0.667694  1
  O  O13  1  0.093971  0.076048  0.662456  1
  O  O14  1  0.662440  0.667412  0.094112  1
  O  O15  1  0.088332  0.661661  0.088288  1
  O  O16  1  0.656004  0.084581  0.087984  1
  O  O17  1  0.337560  0.332588  0.905888  1
  O  O18  1  0.906029  0.923952  0.337544  1
  O  O19  1  0.911955  0.328550  0.344144  1
  O  O20  1  0.911668  0.338339  0.911712  1
  O  O21  1  0.332338  0.917821  0.332306  1
