# generated using pymatgen
data_YbSm(NiH4)2
_symmetry_space_group_name_H-M   'P 1'
_cell_length_a   3.60932244
_cell_length_b   4.80105900
_cell_length_c   6.10447505
_cell_angle_alpha   90.00000000
_cell_angle_beta   107.14601133
_cell_angle_gamma   90.00000000
_symmetry_Int_Tables_number   1
_chemical_formula_structural   YbSm(NiH4)2
_chemical_formula_sum   'Yb1 Sm1 Ni2 H8'
_cell_volume   101.08051690
_cell_formula_units_Z   1
loop_
 _symmetry_equiv_pos_site_id
 _symmetry_equiv_pos_as_xyz
  1  'x, y, z'
loop_
 _atom_site_type_symbol
 _atom_site_label
 _atom_site_symmetry_multiplicity
 _atom_site_fract_x
 _atom_site_fract_y
 _atom_site_fract_z
 _atom_site_occupancy
  Yb  Yb0  1  0.368589  0.750000  0.237778  1
  Sm  Sm1  1  0.632627  0.249999  0.764359  1
  Ni  Ni2  1  0.902120  0.249999  0.306583  1
  Ni  Ni3  1  0.097340  0.750000  0.692512  1
  H  H4  1  0.808211  0.008009  0.115936  1
  H  H5  1  0.808211  0.491991  0.115936  1
  H  H6  1  0.414879  0.249999  0.328954  1
  H  H7  1  0.999548  0.000186  0.499040  1
  H  H8  1  0.999548  0.499814  0.499040  1
  H  H9  1  0.586842  0.750000  0.674269  1
  H  H10  1  0.191042  0.502965  0.882795  1
  H  H11  1  0.191042  0.997035  0.882795  1
