# generated using pymatgen
data_SiAs2Pd5Rh
_symmetry_space_group_name_H-M   'P 1'
_cell_length_a   6.64180187
_cell_length_b   6.64769597
_cell_length_c   3.57076400
_cell_angle_alpha   90.00000000
_cell_angle_beta   90.00000000
_cell_angle_gamma   120.02937485
_symmetry_Int_Tables_number   1
_chemical_formula_structural   SiAs2Pd5Rh
_chemical_formula_sum   'Si1 As2 Pd5 Rh1'
_cell_volume   136.49609189
_cell_formula_units_Z   1
loop_
 _symmetry_equiv_pos_site_id
 _symmetry_equiv_pos_as_xyz
  1  'x, y, z'
loop_
 _atom_site_type_symbol
 _atom_site_label
 _atom_site_symmetry_multiplicity
 _atom_site_fract_x
 _atom_site_fract_y
 _atom_site_fract_z
 _atom_site_occupancy
  Si  Si0  1  0.000000  0.988417  0.500000  1
  As  As1  1  0.326261  0.669090  0.000000  1
  As  As2  1  0.673739  0.342828  0.000000  1
  Pd  Pd3  1  0.258352  0.258888  0.000000  1
  Pd  Pd4  1  0.741648  0.000536  0.000000  1
  Pd  Pd5  1  0.000000  0.383407  0.500000  1
  Pd  Pd6  1  0.608666  0.612171  0.500000  1
  Pd  Pd7  1  0.391334  0.003504  0.500000  1
  Rh  Rh8  1  0.000000  0.741158  0.000000  1
