# generated using pymatgen
data_MnCo2(PO4)2
_symmetry_space_group_name_H-M   'P 1'
_cell_length_a   5.11231074
_cell_length_b   7.81754304
_cell_length_c   8.61719719
_cell_angle_alpha   90.00247805
_cell_angle_beta   89.99827023
_cell_angle_gamma   94.18586436
_symmetry_Int_Tables_number   1
_chemical_formula_structural   MnCo2(PO4)2
_chemical_formula_sum   'Mn2 Co4 P4 O16'
_cell_volume   343.47373584
_cell_formula_units_Z   2
loop_
 _symmetry_equiv_pos_site_id
 _symmetry_equiv_pos_as_xyz
  1  'x, y, z'
loop_
 _atom_site_type_symbol
 _atom_site_label
 _atom_site_symmetry_multiplicity
 _atom_site_fract_x
 _atom_site_fract_y
 _atom_site_fract_z
 _atom_site_occupancy
  Mn  Mn0  1  0.999956  0.500015  0.499912  1
  Mn  Mn1  1  0.499929  0.000038  0.000066  1
  Co  Co2  1  0.911091  0.386953  0.862015  1
  Co  Co3  1  0.089038  0.612952  0.137950  1
  Co  Co4  1  0.411048  0.887026  0.637965  1
  Co  Co5  1  0.588899  0.113036  0.362041  1
  P  P6  1  0.466495  0.296275  0.696509  1
  P  P7  1  0.966332  0.796230  0.803430  1
  P  P8  1  0.533675  0.703775  0.303473  1
  P  P9  1  0.033540  0.203700  0.196506  1
  O  O10  1  0.462664  0.140092  0.582382  1
  O  O11  1  0.962702  0.640042  0.917610  1
  O  O12  1  0.537430  0.859949  0.417631  1
  O  O13  1  0.037438  0.359894  0.082367  1
  O  O14  1  0.564319  0.240242  0.859854  1
  O  O15  1  0.064365  0.740287  0.640136  1
  O  O16  1  0.435661  0.759724  0.140163  1
  O  O17  1  0.935629  0.259806  0.359826  1
  O  O18  1  0.187622  0.360570  0.701314  1
  O  O19  1  0.687441  0.860446  0.798705  1
  O  O20  1  0.812536  0.639521  0.298640  1
  O  O21  1  0.312307  0.139343  0.201366  1
  O  O22  1  0.669915  0.440336  0.644974  1
  O  O23  1  0.169663  0.940349  0.855103  1
  O  O24  1  0.330304  0.559678  0.355114  1
  O  O25  1  0.830002  0.059720  0.144949  1
