# generated using pymatgen
data_Ni3Ru(AuO2)4
_symmetry_space_group_name_H-M   'P 1'
_cell_length_a   5.29076420
_cell_length_b   6.16940401
_cell_length_c   7.11407057
_cell_angle_alpha   64.19382614
_cell_angle_beta   104.46656324
_cell_angle_gamma   90.04277251
_symmetry_Int_Tables_number   1
_chemical_formula_structural   Ni3Ru(AuO2)4
_chemical_formula_sum   'Ni3 Ru1 Au4 O8'
_cell_volume   200.86364043
_cell_formula_units_Z   1
loop_
 _symmetry_equiv_pos_site_id
 _symmetry_equiv_pos_as_xyz
  1  'x, y, z'
loop_
 _atom_site_type_symbol
 _atom_site_label
 _atom_site_symmetry_multiplicity
 _atom_site_fract_x
 _atom_site_fract_y
 _atom_site_fract_z
 _atom_site_occupancy
  Ni  Ni0  1  0.999968  0.004968  0.500061  1
  Ni  Ni1  1  0.500007  0.249875  0.499988  1
  Ni  Ni2  1  0.000051  0.495077  0.499949  1
  Ru  Ru3  1  0.499994  0.749963  0.500007  1
  Au  Au4  1  0.000460  0.001999  0.996331  1
  Au  Au5  1  0.499979  0.249946  0.999993  1
  Au  Au6  1  0.999550  0.498208  0.003659  1
  Au  Au7  1  0.500001  0.749943  0.000017  1
  O  O8  1  0.881341  0.665609  0.667977  1
  O  O9  1  0.396364  0.905370  0.667860  1
  O  O10  1  0.886044  0.166568  0.666331  1
  O  O11  1  0.396488  0.425907  0.667684  1
  O  O12  1  0.118653  0.834486  0.332012  1
  O  O13  1  0.603507  0.074018  0.332300  1
  O  O14  1  0.113964  0.333514  0.333662  1
  O  O15  1  0.603634  0.594550  0.332170  1
