# generated using pymatgen
data_Ce2Fe(AsRh2)6
_symmetry_space_group_name_H-M   'P 1'
_cell_length_a   9.99278900
_cell_length_b   9.99278965
_cell_length_c   3.97897100
_cell_angle_alpha   90.00000000
_cell_angle_beta   90.00000000
_cell_angle_gamma   120.00000218
_symmetry_Int_Tables_number   1
_chemical_formula_structural   Ce2Fe(AsRh2)6
_chemical_formula_sum   'Ce2 Fe1 As6 Rh12'
_cell_volume   344.09222439
_cell_formula_units_Z   1
loop_
 _symmetry_equiv_pos_site_id
 _symmetry_equiv_pos_as_xyz
  1  'x, y, z'
loop_
 _atom_site_type_symbol
 _atom_site_label
 _atom_site_symmetry_multiplicity
 _atom_site_fract_x
 _atom_site_fract_y
 _atom_site_fract_z
 _atom_site_occupancy
  Ce  Ce0  1  0.333333  0.666667  0.248900  1
  Ce  Ce1  1  0.666667  0.333333  0.751100  1
  Fe  Fe2  1  0.000000  0.000000  0.500000  1
  As  As3  1  0.400093  0.113352  0.251969  1
  As  As4  1  0.713259  0.599907  0.251969  1
  As  As5  1  0.886648  0.286741  0.251969  1
  As  As6  1  0.599907  0.886648  0.748031  1
  As  As7  1  0.286741  0.400093  0.748031  1
  As  As8  1  0.113352  0.713259  0.748031  1
  Rh  Rh9  1  0.448055  0.381860  0.251744  1
  Rh  Rh10  1  0.933805  0.551945  0.251744  1
  Rh  Rh11  1  0.618140  0.066195  0.251744  1
  Rh  Rh12  1  0.551945  0.618140  0.748256  1
  Rh  Rh13  1  0.066195  0.448055  0.748256  1
  Rh  Rh14  1  0.381860  0.933805  0.748256  1
  Rh  Rh15  1  0.148654  0.878660  0.244185  1
  Rh  Rh16  1  0.730005  0.851346  0.244185  1
  Rh  Rh17  1  0.121340  0.269995  0.244185  1
  Rh  Rh18  1  0.851346  0.121340  0.755815  1
  Rh  Rh19  1  0.269995  0.148654  0.755815  1
  Rh  Rh20  1  0.878660  0.730005  0.755815  1
