# generated using pymatgen
data_LaAsSe2O
_symmetry_space_group_name_H-M   'P 1'
_cell_length_a   5.80917000
_cell_length_b   5.85414400
_cell_length_c   14.52607000
_cell_angle_alpha   90.00000000
_cell_angle_beta   90.00000000
_cell_angle_gamma   90.00000000
_symmetry_Int_Tables_number   1
_chemical_formula_structural   LaAsSe2O
_chemical_formula_sum   'La4 As4 Se8 O4'
_cell_volume   493.99848786
_cell_formula_units_Z   4
loop_
 _symmetry_equiv_pos_site_id
 _symmetry_equiv_pos_as_xyz
  1  'x, y, z'
loop_
 _atom_site_type_symbol
 _atom_site_label
 _atom_site_symmetry_multiplicity
 _atom_site_fract_x
 _atom_site_fract_y
 _atom_site_fract_z
 _atom_site_occupancy
  La  La0  1  0.231811  0.001808  0.084434  1
  La  La1  1  0.731812  0.498193  0.084434  1
  La  La2  1  0.231811  0.501808  0.915566  1
  La  La3  1  0.731812  0.998191  0.915566  1
  As  As4  1  0.698990  0.034397  0.355747  1
  As  As5  1  0.198990  0.465603  0.355747  1
  As  As6  1  0.698990  0.534397  0.644253  1
  As  As7  1  0.198990  0.965604  0.644253  1
  Se  Se8  1  0.227115  0.493615  0.191109  1
  Se  Se9  1  0.727116  0.006386  0.191109  1
  Se  Se10  1  0.280276  0.059990  0.385311  1
  Se  Se11  1  0.780277  0.440010  0.385311  1
  Se  Se12  1  0.280276  0.559991  0.614689  1
  Se  Se13  1  0.780277  0.940009  0.614689  1
  Se  Se14  1  0.227115  0.993614  0.808891  1
  Se  Se15  1  0.727116  0.506386  0.808891  1
  O  O16  1  0.481107  0.749823  0.001380  1
  O  O17  1  0.981107  0.750178  0.001380  1
  O  O18  1  0.481107  0.249822  0.998620  1
  O  O19  1  0.981107  0.250178  0.998620  1
