# generated using pymatgen
data_Y5TaMnO12
_symmetry_space_group_name_H-M   'P 1'
_cell_length_a   6.87501737
_cell_length_b   6.87501801
_cell_length_c   7.33614000
_cell_angle_alpha   74.46034867
_cell_angle_beta   74.46034719
_cell_angle_gamma   50.79265827
_symmetry_Int_Tables_number   1
_chemical_formula_structural   Y5TaMnO12
_chemical_formula_sum   'Y5 Ta1 Mn1 O12'
_cell_volume   256.59587878
_cell_formula_units_Z   1
loop_
 _symmetry_equiv_pos_site_id
 _symmetry_equiv_pos_as_xyz
  1  'x, y, z'
loop_
 _atom_site_type_symbol
 _atom_site_label
 _atom_site_symmetry_multiplicity
 _atom_site_fract_x
 _atom_site_fract_y
 _atom_site_fract_z
 _atom_site_occupancy
  Y  Y0  1  0.687910  0.699435  0.667624  1
  Y  Y1  1  0.688181  0.708589  0.140035  1
  Y  Y2  1  0.004587  0.995413  0.000000  1
  Y  Y3  1  0.291411  0.311819  0.859965  1
  Y  Y4  1  0.300565  0.312090  0.332376  1
  Ta  Ta5  1  0.775179  0.224821  0.500000  1
  Mn  Mn6  1  0.259960  0.740040  0.500000  1
  O  O7  1  0.400593  0.908093  0.925019  1
  O  O8  1  0.568814  0.102158  0.582483  1
  O  O9  1  0.897842  0.431186  0.417517  1
  O  O10  1  0.091907  0.599407  0.074981  1
  O  O11  1  0.010842  0.989208  0.315881  1
  O  O12  1  0.498516  0.502317  0.680888  1
  O  O13  1  0.897856  0.404430  0.925297  1
  O  O14  1  0.100074  0.578281  0.581891  1
  O  O15  1  0.421719  0.899926  0.418109  1
  O  O16  1  0.595570  0.102144  0.074703  1
  O  O17  1  0.497683  0.501484  0.319112  1
  O  O18  1  0.010792  0.989158  0.684119  1
