# generated using pymatgen
data_Re3OsO12
_symmetry_space_group_name_H-M   'P 1'
_cell_length_a   6.56006385
_cell_length_b   6.56006352
_cell_length_c   6.56006401
_cell_angle_alpha   109.47502812
_cell_angle_beta   109.47502398
_cell_angle_gamma   109.47503260
_symmetry_Int_Tables_number   1
_chemical_formula_structural   Re3OsO12
_chemical_formula_sum   'Re3 Os1 O12'
_cell_volume   217.29065999
_cell_formula_units_Z   1
loop_
 _symmetry_equiv_pos_site_id
 _symmetry_equiv_pos_as_xyz
  1  'x, y, z'
loop_
 _atom_site_type_symbol
 _atom_site_label
 _atom_site_symmetry_multiplicity
 _atom_site_fract_x
 _atom_site_fract_y
 _atom_site_fract_z
 _atom_site_occupancy
  Re  Re0  1  0.000000  0.000000  0.500000  1
  Re  Re1  1  0.000000  0.500000  0.000000  1
  Re  Re2  1  0.500000  0.000000  0.000000  1
  Os  Os3  1  0.500000  0.500000  0.500000  1
  O  O4  1  0.745506  0.760569  0.500217  1
  O  O5  1  0.742103  0.241862  0.983965  1
  O  O6  1  0.257897  0.758138  0.016035  1
  O  O7  1  0.239431  0.499783  0.254494  1
  O  O8  1  0.254494  0.239431  0.499783  1
  O  O9  1  0.758138  0.016035  0.257897  1
  O  O10  1  0.983965  0.742103  0.241862  1
  O  O11  1  0.760569  0.500217  0.745506  1
  O  O12  1  0.016035  0.257897  0.758138  1
  O  O13  1  0.241862  0.983965  0.742103  1
  O  O14  1  0.500217  0.745506  0.760569  1
  O  O15  1  0.499783  0.254494  0.239431  1
