# generated using pymatgen
data_Yb3Er(Al3Ni)6
_symmetry_space_group_name_H-M   'P 1'
_cell_length_a   7.42161155
_cell_length_b   7.41384923
_cell_length_c   9.24193300
_cell_angle_alpha   90.00000000
_cell_angle_beta   90.00000000
_cell_angle_gamma   119.32304280
_symmetry_Int_Tables_number   1
_chemical_formula_structural   Yb3Er(Al3Ni)6
_chemical_formula_sum   'Yb3 Er1 Al18 Ni6'
_cell_volume   443.36122425
_cell_formula_units_Z   1
loop_
 _symmetry_equiv_pos_site_id
 _symmetry_equiv_pos_as_xyz
  1  'x, y, z'
loop_
 _atom_site_type_symbol
 _atom_site_label
 _atom_site_symmetry_multiplicity
 _atom_site_fract_x
 _atom_site_fract_y
 _atom_site_fract_z
 _atom_site_occupancy
  Yb  Yb0  1  0.992643  0.671167  0.250000  1
  Yb  Yb1  1  0.005747  0.329257  0.750000  1
  Yb  Yb2  1  0.674324  0.995538  0.250000  1
  Er  Er3  1  0.329012  0.004024  0.750000  1
  Al  Al4  1  0.127677  0.127723  0.250000  1
  Al  Al5  1  0.876880  0.874766  0.750000  1
  Al  Al6  1  0.997985  0.335407  0.072890  1
  Al  Al7  1  0.001941  0.664772  0.926208  1
  Al  Al8  1  0.001941  0.664772  0.573792  1
  Al  Al9  1  0.335212  0.996431  0.425929  1
  Al  Al10  1  0.997985  0.335407  0.427110  1
  Al  Al11  1  0.665737  0.003130  0.573931  1
  Al  Al12  1  0.665737  0.003130  0.926069  1
  Al  Al13  1  0.335212  0.996431  0.074071  1
  Al  Al14  1  0.330724  0.330015  0.548559  1
  Al  Al15  1  0.667493  0.667862  0.454749  1
  Al  Al16  1  0.667493  0.667862  0.045251  1
  Al  Al17  1  0.330724  0.330015  0.951441  1
  Al  Al18  1  0.341071  0.555469  0.250000  1
  Al  Al19  1  0.656193  0.445562  0.750000  1
  Al  Al20  1  0.551660  0.341480  0.250000  1
  Al  Al21  1  0.448496  0.661983  0.750000  1
  Ni  Ni22  1  0.670028  0.328361  0.999725  1
  Ni  Ni23  1  0.328730  0.670824  0.998701  1
  Ni  Ni24  1  0.328730  0.670824  0.501299  1
  Ni  Ni25  1  0.670028  0.328361  0.500275  1
  Ni  Ni26  1  0.000301  0.999716  0.999770  1
  Ni  Ni27  1  0.000301  0.999716  0.500230  1
