# generated using pymatgen
data_Rb2TlSbCl6
_symmetry_space_group_name_H-M   'P 1'
_cell_length_a   7.97643662
_cell_length_b   7.97643662
_cell_length_c   8.09002400
_cell_angle_alpha   120.13135937
_cell_angle_beta   120.13135936
_cell_angle_gamma   59.71676980
_symmetry_Int_Tables_number   1
_chemical_formula_structural   Rb2TlSbCl6
_chemical_formula_sum   'Rb2 Tl1 Sb1 Cl6'
_cell_volume   362.45404232
_cell_formula_units_Z   1
loop_
 _symmetry_equiv_pos_site_id
 _symmetry_equiv_pos_as_xyz
  1  'x, y, z'
loop_
 _atom_site_type_symbol
 _atom_site_label
 _atom_site_symmetry_multiplicity
 _atom_site_fract_x
 _atom_site_fract_y
 _atom_site_fract_z
 _atom_site_occupancy
  Rb  Rb0  1  0.252152  0.252152  0.223465  1
  Rb  Rb1  1  0.747848  0.747848  0.776535  1
  Tl  Tl2  1  0.000000  0.000000  0.499999  1
  Sb  Sb3  1  0.500000  0.500000  0.000000  1
  Cl  Cl4  1  0.674742  0.204926  0.164496  1
  Cl  Cl5  1  0.204926  0.674742  0.164496  1
  Cl  Cl6  1  0.723146  0.723146  0.332970  1
  Cl  Cl7  1  0.276854  0.276854  0.667030  1
  Cl  Cl8  1  0.795073  0.325258  0.835504  1
  Cl  Cl9  1  0.325258  0.795073  0.835504  1
