# generated using pymatgen
data_Tm12Zn2Tc3
_symmetry_space_group_name_H-M   'P 1'
_cell_length_a   8.21757897
_cell_length_b   8.21757910
_cell_length_c   8.21757895
_cell_angle_alpha   110.11105994
_cell_angle_beta   110.11106580
_cell_angle_gamma   108.19898446
_symmetry_Int_Tables_number   1
_chemical_formula_structural   Tm12Zn2Tc3
_chemical_formula_sum   'Tm12 Zn2 Tc3'
_cell_volume   427.02130888
_cell_formula_units_Z   1
loop_
 _symmetry_equiv_pos_site_id
 _symmetry_equiv_pos_as_xyz
  1  'x, y, z'
loop_
 _atom_site_type_symbol
 _atom_site_label
 _atom_site_symmetry_multiplicity
 _atom_site_fract_x
 _atom_site_fract_y
 _atom_site_fract_z
 _atom_site_occupancy
  Tm  Tm0  1  0.184890  0.434157  0.249267  1
  Tm  Tm1  1  0.815110  0.565843  0.750733  1
  Tm  Tm2  1  0.184890  0.935625  0.750733  1
  Tm  Tm3  1  0.935625  0.184890  0.750733  1
  Tm  Tm4  1  0.815110  0.064375  0.249267  1
  Tm  Tm5  1  0.064375  0.815110  0.249267  1
  Tm  Tm6  1  0.434157  0.184890  0.249267  1
  Tm  Tm7  1  0.565843  0.815110  0.750733  1
  Tm  Tm8  1  0.317798  0.317798  0.635598  1
  Tm  Tm9  1  0.682202  0.682202  0.364402  1
  Tm  Tm10  1  0.682202  0.317798  0.000000  1
  Tm  Tm11  1  0.317798  0.682202  0.000000  1
  Zn  Zn12  1  0.000000  0.500000  0.500000  1
  Zn  Zn13  1  0.500000  0.000000  0.500000  1
  Tc  Tc14  1  0.336999  0.336999  0.000000  1
  Tc  Tc15  1  0.663001  0.663001  0.000000  1
  Tc  Tc16  1  0.000000  0.000000  0.000000  1
