# generated using pymatgen
data_NdHfZr2(Al3Rh)6
_symmetry_space_group_name_H-M   'P 1'
_cell_length_a   7.50151004
_cell_length_b   7.49043636
_cell_length_c   9.35067900
_cell_angle_alpha   90.00000000
_cell_angle_beta   90.00000000
_cell_angle_gamma   119.67443515
_symmetry_Int_Tables_number   1
_chemical_formula_structural   NdHfZr2(Al3Rh)6
_chemical_formula_sum   'Nd1 Hf1 Zr2 Al18 Rh6'
_cell_volume   456.50444990
_cell_formula_units_Z   1
loop_
 _symmetry_equiv_pos_site_id
 _symmetry_equiv_pos_as_xyz
  1  'x, y, z'
loop_
 _atom_site_type_symbol
 _atom_site_label
 _atom_site_symmetry_multiplicity
 _atom_site_fract_x
 _atom_site_fract_y
 _atom_site_fract_z
 _atom_site_occupancy
  Nd  Nd0  1  0.329591  0.006780  0.250000  1
  Hf  Hf1  1  0.672092  0.994776  0.750000  1
  Zr  Zr2  1  0.993643  0.671003  0.750000  1
  Zr  Zr3  1  0.005710  0.329457  0.250000  1
  Al  Al4  1  0.120547  0.122766  0.750000  1
  Al  Al5  1  0.869853  0.875577  0.250000  1
  Al  Al6  1  0.996393  0.334513  0.577952  1
  Al  Al7  1  0.998686  0.661398  0.429611  1
  Al  Al8  1  0.998686  0.661398  0.070389  1
  Al  Al9  1  0.335386  0.997269  0.916744  1
  Al  Al10  1  0.996393  0.334513  0.922048  1
  Al  Al11  1  0.669383  0.002017  0.071018  1
  Al  Al12  1  0.669383  0.002017  0.428982  1
  Al  Al13  1  0.335386  0.997269  0.583256  1
  Al  Al14  1  0.331516  0.335112  0.049219  1
  Al  Al15  1  0.668952  0.669087  0.938168  1
  Al  Al16  1  0.668952  0.669087  0.561832  1
  Al  Al17  1  0.331516  0.335112  0.450781  1
  Al  Al18  1  0.337721  0.554414  0.750000  1
  Al  Al19  1  0.669359  0.454227  0.250000  1
  Al  Al20  1  0.555938  0.339361  0.750000  1
  Al  Al21  1  0.445693  0.653572  0.250000  1
  Rh  Rh22  1  0.672708  0.327834  0.502742  1
  Rh  Rh23  1  0.329300  0.673493  0.503164  1
  Rh  Rh24  1  0.329300  0.673493  0.996836  1
  Rh  Rh25  1  0.672708  0.327834  0.997258  1
  Rh  Rh26  1  0.997603  0.998309  0.503246  1
  Rh  Rh27  1  0.997603  0.998309  0.996754  1
