# generated using pymatgen
data_Tm3Ga4Se
_symmetry_space_group_name_H-M   'P 1'
_cell_length_a   7.73755902
_cell_length_b   7.73755925
_cell_length_c   7.73755950
_cell_angle_alpha   119.15480139
_cell_angle_beta   119.15479897
_cell_angle_gamma   91.47026834
_symmetry_Int_Tables_number   1
_chemical_formula_structural   Tm3Ga4Se
_chemical_formula_sum   'Tm6 Ga8 Se2'
_cell_volume   331.63114640
_cell_formula_units_Z   2
loop_
 _symmetry_equiv_pos_site_id
 _symmetry_equiv_pos_as_xyz
  1  'x, y, z'
loop_
 _atom_site_type_symbol
 _atom_site_label
 _atom_site_symmetry_multiplicity
 _atom_site_fract_x
 _atom_site_fract_y
 _atom_site_fract_z
 _atom_site_occupancy
  Tm  Tm0  1  0.838105  0.661895  0.500000  1
  Tm  Tm1  1  0.661895  0.161895  0.823791  1
  Tm  Tm2  1  0.338105  0.838105  0.176209  1
  Tm  Tm3  1  0.161895  0.338105  0.500000  1
  Tm  Tm4  1  0.250000  0.250000  0.000000  1
  Tm  Tm5  1  0.750000  0.750000  0.000000  1
  Ga  Ga6  1  0.161911  0.951143  0.500000  1
  Ga  Ga7  1  0.451143  0.661911  0.500000  1
  Ga  Ga8  1  0.548857  0.338089  0.500000  1
  Ga  Ga9  1  0.661911  0.161911  0.210768  1
  Ga  Ga10  1  0.838089  0.048857  0.500000  1
  Ga  Ga11  1  0.048857  0.548857  0.210768  1
  Ga  Ga12  1  0.338089  0.838089  0.789232  1
  Ga  Ga13  1  0.951143  0.451143  0.789232  1
  Se  Se14  1  0.000000  0.000000  0.000000  1
  Se  Se15  1  0.500000  0.500000  0.000000  1
