# generated using pymatgen
data_Dy2Hf2NbSi4
_symmetry_space_group_name_H-M   'P 1'
_cell_length_a   7.22113800
_cell_length_b   7.22113800
_cell_length_c   13.20544200
_cell_angle_alpha   90.00000000
_cell_angle_beta   90.00000000
_cell_angle_gamma   90.00000000
_symmetry_Int_Tables_number   1
_chemical_formula_structural   Dy2Hf2NbSi4
_chemical_formula_sum   'Dy8 Hf8 Nb4 Si16'
_cell_volume   688.59558119
_cell_formula_units_Z   4
loop_
 _symmetry_equiv_pos_site_id
 _symmetry_equiv_pos_as_xyz
  1  'x, y, z'
loop_
 _atom_site_type_symbol
 _atom_site_label
 _atom_site_symmetry_multiplicity
 _atom_site_fract_x
 _atom_site_fract_y
 _atom_site_fract_z
 _atom_site_occupancy
  Dy  Dy0  1  0.497985  0.154711  0.534756  1
  Dy  Dy1  1  0.502015  0.845289  0.034756  1
  Dy  Dy2  1  0.654711  0.002015  0.284756  1
  Dy  Dy3  1  0.345289  0.997985  0.784756  1
  Dy  Dy4  1  0.845289  0.502015  0.965244  1
  Dy  Dy5  1  0.154711  0.497985  0.465244  1
  Dy  Dy6  1  0.002015  0.654711  0.715244  1
  Dy  Dy7  1  0.997985  0.345289  0.215244  1
  Hf  Hf8  1  0.493205  0.353401  0.125431  1
  Hf  Hf9  1  0.506795  0.646599  0.625431  1
  Hf  Hf10  1  0.853401  0.006795  0.875431  1
  Hf  Hf11  1  0.146599  0.993205  0.375431  1
  Hf  Hf12  1  0.646599  0.506795  0.374569  1
  Hf  Hf13  1  0.353401  0.493205  0.874569  1
  Hf  Hf14  1  0.006795  0.853401  0.124569  1
  Hf  Hf15  1  0.993205  0.146599  0.624569  1
  Nb  Nb16  1  0.676735  0.323265  0.750000  1
  Nb  Nb17  1  0.323265  0.676735  0.250000  1
  Nb  Nb18  1  0.823265  0.823265  0.500000  1
  Nb  Nb19  1  0.176735  0.176735  0.000000  1
  Si  Si20  1  0.795347  0.139067  0.067627  1
  Si  Si21  1  0.204653  0.860933  0.567627  1
  Si  Si22  1  0.639067  0.704653  0.817627  1
  Si  Si23  1  0.360933  0.295347  0.317627  1
  Si  Si24  1  0.860933  0.204653  0.432373  1
  Si  Si25  1  0.139067  0.795347  0.932373  1
  Si  Si26  1  0.704653  0.639067  0.182373  1
  Si  Si27  1  0.295347  0.360933  0.682373  1
  Si  Si28  1  0.550312  0.204296  0.935299  1
  Si  Si29  1  0.449688  0.795704  0.435299  1
  Si  Si30  1  0.704296  0.949688  0.685299  1
  Si  Si31  1  0.295704  0.050312  0.185299  1
  Si  Si32  1  0.795704  0.449688  0.564701  1
  Si  Si33  1  0.204296  0.550312  0.064701  1
  Si  Si34  1  0.949688  0.704296  0.314701  1
  Si  Si35  1  0.050312  0.295704  0.814701  1
