# generated using pymatgen
data_Hf3ZrSiAs7
_symmetry_space_group_name_H-M   'P 1'
_cell_length_a   3.68828700
_cell_length_b   6.75614349
_cell_length_c   9.07832559
_cell_angle_alpha   89.69129225
_cell_angle_beta   90.00000000
_cell_angle_gamma   90.00000000
_symmetry_Int_Tables_number   1
_chemical_formula_structural   Hf3ZrSiAs7
_chemical_formula_sum   'Hf3 Zr1 Si1 As7'
_cell_volume   226.21584617
_cell_formula_units_Z   1
loop_
 _symmetry_equiv_pos_site_id
 _symmetry_equiv_pos_as_xyz
  1  'x, y, z'
loop_
 _atom_site_type_symbol
 _atom_site_label
 _atom_site_symmetry_multiplicity
 _atom_site_fract_x
 _atom_site_fract_y
 _atom_site_fract_z
 _atom_site_occupancy
  Hf  Hf0  1  0.000000  0.273131  0.837284  1
  Hf  Hf1  1  0.500000  0.229713  0.336338  1
  Hf  Hf2  1  0.500000  0.731611  0.166686  1
  Zr  Zr3  1  0.000000  0.767335  0.659259  1
  Si  Si4  1  0.000000  0.371380  0.542679  1
  As  As5  1  0.000000  0.420693  0.147785  1
  As  As6  1  0.000000  0.919828  0.351776  1
  As  As7  1  0.500000  0.583386  0.853207  1
  As  As8  1  0.500000  0.098515  0.643553  1
  As  As9  1  0.000000  0.878027  0.957836  1
  As  As10  1  0.500000  0.603253  0.461556  1
  As  As11  1  0.500000  0.123125  0.042039  1
