# generated using pymatgen
data_Li3Nd4ZrPt4
_symmetry_space_group_name_H-M   'P 1'
_cell_length_a   4.19886800
_cell_length_b   7.24402169
_cell_length_c   8.81958401
_cell_angle_alpha   88.01962566
_cell_angle_beta   90.00000000
_cell_angle_gamma   90.00000000
_symmetry_Int_Tables_number   1
_chemical_formula_structural   Li3Nd4ZrPt4
_chemical_formula_sum   'Li3 Nd4 Zr1 Pt4'
_cell_volume   268.10233338
_cell_formula_units_Z   1
loop_
 _symmetry_equiv_pos_site_id
 _symmetry_equiv_pos_as_xyz
  1  'x, y, z'
loop_
 _atom_site_type_symbol
 _atom_site_label
 _atom_site_symmetry_multiplicity
 _atom_site_fract_x
 _atom_site_fract_y
 _atom_site_fract_z
 _atom_site_occupancy
  Li  Li0  1  0.750000  0.859812  0.932135  1
  Li  Li1  1  0.250000  0.625865  0.445197  1
  Li  Li2  1  0.750000  0.367713  0.560750  1
  Nd  Nd3  1  0.750000  0.477678  0.194227  1
  Nd  Nd4  1  0.250000  0.036815  0.674399  1
  Nd  Nd5  1  0.750000  0.954535  0.329059  1
  Nd  Nd6  1  0.250000  0.540060  0.810653  1
  Zr  Zr7  1  0.250000  0.127769  0.056204  1
  Pt  Pt8  1  0.750000  0.746142  0.620465  1
  Pt  Pt9  1  0.750000  0.253595  0.896104  1
  Pt  Pt10  1  0.250000  0.247300  0.365046  1
  Pt  Pt11  1  0.250000  0.762716  0.115761  1
