# generated using pymatgen
data_Fe3SbAs(BrO)4
_symmetry_space_group_name_H-M   'P 1'
_cell_length_a   6.42410262
_cell_length_b   7.22041668
_cell_length_c   14.66901642
_cell_angle_alpha   90.39624802
_cell_angle_beta   90.01542735
_cell_angle_gamma   63.53791338
_symmetry_Int_Tables_number   1
_chemical_formula_structural   Fe3SbAs(BrO)4
_chemical_formula_sum   'Fe6 Sb2 As2 Br8 O8'
_cell_volume   609.11254210
_cell_formula_units_Z   2
loop_
 _symmetry_equiv_pos_site_id
 _symmetry_equiv_pos_as_xyz
  1  'x, y, z'
loop_
 _atom_site_type_symbol
 _atom_site_label
 _atom_site_symmetry_multiplicity
 _atom_site_fract_x
 _atom_site_fract_y
 _atom_site_fract_z
 _atom_site_occupancy
  Fe  Fe0  1  0.744130  0.019505  0.754865  1
  Fe  Fe1  1  0.764081  0.980473  0.244892  1
  Fe  Fe2  1  0.000157  0.999983  0.999998  1
  Fe  Fe3  1  0.499822  0.000059  0.499984  1
  Fe  Fe4  1  0.256117  0.979989  0.245127  1
  Fe  Fe5  1  0.235695  0.019978  0.755124  1
  Sb  Sb6  1  0.889996  0.217918  0.556763  1
  Sb  Sb7  1  0.109787  0.782075  0.443250  1
  As  As8  1  0.594603  0.812024  0.055426  1
  As  As9  1  0.405650  0.187988  0.944578  1
  Br  Br10  1  0.123195  0.753380  0.841434  1
  Br  Br11  1  0.877047  0.246580  0.158565  1
  Br  Br12  1  0.382363  0.235685  0.335707  1
  Br  Br13  1  0.617459  0.764323  0.664291  1
  Br  Br14  1  0.154924  0.688808  0.117526  1
  Br  Br15  1  0.845743  0.311175  0.882467  1
  Br  Br16  1  0.339768  0.323197  0.619491  1
  Br  Br17  1  0.659426  0.676851  0.380489  1
  O  O18  1  0.314197  0.999761  0.999983  1
  O  O19  1  0.806118  0.999449  0.500028  1
  O  O20  1  0.686099  0.000252  0.000018  1
  O  O21  1  0.193603  0.000554  0.499983  1
  O  O22  1  0.537416  0.925383  0.166526  1
  O  O23  1  0.462777  0.074618  0.833474  1
  O  O24  1  0.959019  0.081743  0.676755  1
  O  O25  1  0.040809  0.918247  0.323256  1
