# generated using pymatgen
data_Ba3CeEuSe6
_symmetry_space_group_name_H-M   'P 1'
_cell_length_a   9.01528235
_cell_length_b   9.01528218
_cell_length_c   9.01528300
_cell_angle_alpha   90.77247853
_cell_angle_beta   90.77247851
_cell_angle_gamma   90.77247964
_symmetry_Int_Tables_number   1
_chemical_formula_structural   Ba3CeEuSe6
_chemical_formula_sum   'Ba6 Ce2 Eu2 Se12'
_cell_volume   732.51836589
_cell_formula_units_Z   2
loop_
 _symmetry_equiv_pos_site_id
 _symmetry_equiv_pos_as_xyz
  1  'x, y, z'
loop_
 _atom_site_type_symbol
 _atom_site_label
 _atom_site_symmetry_multiplicity
 _atom_site_fract_x
 _atom_site_fract_y
 _atom_site_fract_z
 _atom_site_occupancy
  Ba  Ba0  1  0.874458  0.625542  0.250000  1
  Ba  Ba1  1  0.250000  0.874458  0.625542  1
  Ba  Ba2  1  0.625542  0.250000  0.874458  1
  Ba  Ba3  1  0.750000  0.125542  0.374458  1
  Ba  Ba4  1  0.374458  0.750000  0.125542  1
  Ba  Ba5  1  0.125542  0.374458  0.750000  1
  Ce  Ce6  1  0.500000  0.500000  0.500000  1
  Ce  Ce7  1  0.000000  0.000000  0.000000  1
  Eu  Eu8  1  0.250000  0.250000  0.250000  1
  Eu  Eu9  1  0.750000  0.750000  0.750000  1
  Se  Se10  1  0.197507  0.550171  0.413007  1
  Se  Se11  1  0.413007  0.197507  0.550171  1
  Se  Se12  1  0.550171  0.413007  0.197507  1
  Se  Se13  1  0.913007  0.050171  0.697507  1
  Se  Se14  1  0.697507  0.913007  0.050171  1
  Se  Se15  1  0.050171  0.697507  0.913007  1
  Se  Se16  1  0.802493  0.449829  0.586993  1
  Se  Se17  1  0.586993  0.802493  0.449829  1
  Se  Se18  1  0.449829  0.586993  0.802493  1
  Se  Se19  1  0.086993  0.949829  0.302493  1
  Se  Se20  1  0.302493  0.086993  0.949829  1
  Se  Se21  1  0.949829  0.302493  0.086993  1
