# generated using pymatgen
data_Ca12Pd3Au
_symmetry_space_group_name_H-M   'P 1'
_cell_length_a   6.69228897
_cell_length_b   7.80869187
_cell_length_c   9.76699100
_cell_angle_alpha   90.00000000
_cell_angle_beta   90.00000000
_cell_angle_gamma   89.84748500
_symmetry_Int_Tables_number   1
_chemical_formula_structural   Ca12Pd3Au
_chemical_formula_sum   'Ca12 Pd3 Au1'
_cell_volume   510.40182667
_cell_formula_units_Z   1
loop_
 _symmetry_equiv_pos_site_id
 _symmetry_equiv_pos_as_xyz
  1  'x, y, z'
loop_
 _atom_site_type_symbol
 _atom_site_label
 _atom_site_symmetry_multiplicity
 _atom_site_fract_x
 _atom_site_fract_y
 _atom_site_fract_z
 _atom_site_occupancy
  Ca  Ca0  1  0.658153  0.169296  0.436418  1
  Ca  Ca1  1  0.162927  0.328403  0.566654  1
  Ca  Ca2  1  0.837106  0.676538  0.062762  1
  Ca  Ca3  1  0.337337  0.827385  0.934025  1
  Ca  Ca4  1  0.145839  0.033773  0.250000  1
  Ca  Ca5  1  0.643231  0.459749  0.750000  1
  Ca  Ca6  1  0.362237  0.543094  0.250000  1
  Ca  Ca7  1  0.857314  0.960044  0.750000  1
  Ca  Ca8  1  0.658153  0.169296  0.063582  1
  Ca  Ca9  1  0.162927  0.328403  0.933346  1
  Ca  Ca10  1  0.837106  0.676538  0.437238  1
  Ca  Ca11  1  0.337337  0.827385  0.565975  1
  Pd  Pd12  1  0.047599  0.622978  0.750000  1
  Pd  Pd13  1  0.549987  0.877262  0.250000  1
  Pd  Pd14  1  0.452482  0.122393  0.750000  1
  Au  Au15  1  0.950266  0.377462  0.250000  1
