# generated using pymatgen
data_Nb6Al4Co2CN
_symmetry_space_group_name_H-M   'P 1'
_cell_length_a   8.21480987
_cell_length_b   8.22832637
_cell_length_c   8.22832675
_cell_angle_alpha   60.14338752
_cell_angle_beta   60.05432204
_cell_angle_gamma   60.05432515
_symmetry_Int_Tables_number   1
_chemical_formula_structural   Nb6Al4Co2CN
_chemical_formula_sum   'Nb12 Al8 Co4 C2 N2'
_cell_volume   394.03142276
_cell_formula_units_Z   2
loop_
 _symmetry_equiv_pos_site_id
 _symmetry_equiv_pos_as_xyz
  1  'x, y, z'
loop_
 _atom_site_type_symbol
 _atom_site_label
 _atom_site_symmetry_multiplicity
 _atom_site_fract_x
 _atom_site_fract_y
 _atom_site_fract_z
 _atom_site_occupancy
  Nb  Nb0  1  0.692122  0.311498  0.686821  1
  Nb  Nb1  1  0.939004  0.560996  0.560996  1
  Nb  Nb2  1  0.560777  0.939223  0.939223  1
  Nb  Nb3  1  0.940441  0.563179  0.938502  1
  Nb  Nb4  1  0.557878  0.563179  0.938502  1
  Nb  Nb5  1  0.940441  0.938502  0.563179  1
  Nb  Nb6  1  0.692122  0.686821  0.311498  1
  Nb  Nb7  1  0.310996  0.689004  0.689004  1
  Nb  Nb8  1  0.689223  0.310777  0.310777  1
  Nb  Nb9  1  0.309559  0.311498  0.686821  1
  Nb  Nb10  1  0.557878  0.938502  0.563179  1
  Nb  Nb11  1  0.309559  0.686821  0.311498  1
  Al  Al12  1  0.332976  0.331072  0.331072  1
  Al  Al13  1  0.245118  0.918928  0.918928  1
  Al  Al14  1  0.917039  0.246791  0.919128  1
  Al  Al15  1  0.917039  0.919128  0.246791  1
  Al  Al16  1  0.332961  0.003209  0.330872  1
  Al  Al17  1  0.332961  0.330872  0.003209  1
  Al  Al18  1  0.004882  0.331072  0.331072  1
  Al  Al19  1  0.917024  0.918928  0.918928  1
  Co  Co20  1  0.125000  0.125000  0.125000  1
  Co  Co21  1  0.625000  0.125000  0.125000  1
  Co  Co22  1  0.125000  0.625000  0.125000  1
  Co  Co23  1  0.125000  0.125000  0.625000  1
  C  C24  1  0.625000  0.125000  0.625000  1
  C  C25  1  0.625000  0.625000  0.125000  1
  N  N26  1  0.625000  0.625000  0.625000  1
  N  N27  1  0.125000  0.625000  0.625000  1
