# generated using pymatgen
data_Tb3Dy3Nb2(Co4P3)4
_symmetry_space_group_name_H-M   'P 1'
_cell_length_a   3.71334900
_cell_length_b   10.64128400
_cell_length_c   12.34222800
_cell_angle_alpha   90.00114173
_cell_angle_beta   90.00000000
_cell_angle_gamma   90.00000000
_symmetry_Int_Tables_number   1
_chemical_formula_structural   Tb3Dy3Nb2(Co4P3)4
_chemical_formula_sum   'Tb3 Dy3 Nb2 Co16 P12'
_cell_volume   487.70068697
_cell_formula_units_Z   1
loop_
 _symmetry_equiv_pos_site_id
 _symmetry_equiv_pos_as_xyz
  1  'x, y, z'
loop_
 _atom_site_type_symbol
 _atom_site_label
 _atom_site_symmetry_multiplicity
 _atom_site_fract_x
 _atom_site_fract_y
 _atom_site_fract_z
 _atom_site_occupancy
  Tb  Tb0  1  0.000000  0.499948  0.526483  1
  Tb  Tb1  1  0.500000  0.000065  0.473683  1
  Tb  Tb2  1  0.500000  0.820158  0.205211  1
  Dy  Dy3  1  0.500000  0.179967  0.205149  1
  Dy  Dy4  1  0.000000  0.679877  0.794900  1
  Dy  Dy5  1  0.000000  0.320136  0.794789  1
  Nb  Nb6  1  0.500000  0.499834  0.156538  1
  Nb  Nb7  1  0.000000  0.000068  0.843383  1
  Co  Co8  1  0.500000  0.499947  0.702520  1
  Co  Co9  1  0.000000  0.000402  0.297634  1
  Co  Co10  1  0.000000  0.499790  0.985592  1
  Co  Co11  1  0.500000  0.000217  0.014060  1
  Co  Co12  1  0.500000  0.332337  0.991471  1
  Co  Co13  1  0.500000  0.667458  0.991372  1
  Co  Co14  1  0.000000  0.167761  0.008282  1
  Co  Co15  1  0.000000  0.832442  0.008166  1
  Co  Co16  1  0.500000  0.295298  0.432267  1
  Co  Co17  1  0.500000  0.704713  0.432542  1
  Co  Co18  1  0.000000  0.204800  0.567806  1
  Co  Co19  1  0.000000  0.795217  0.567991  1
  Co  Co20  1  0.500000  0.877485  0.704957  1
  Co  Co21  1  0.500000  0.122541  0.704862  1
  Co  Co22  1  0.000000  0.622157  0.295429  1
  Co  Co23  1  0.000000  0.377382  0.295092  1
  P  P24  1  0.500000  0.499900  0.882035  1
  P  P25  1  0.000000  0.000382  0.117634  1
  P  P26  1  0.500000  0.500041  0.355059  1
  P  P27  1  0.000000  0.999995  0.645016  1
  P  P28  1  0.500000  0.310442  0.615665  1
  P  P29  1  0.500000  0.689492  0.615833  1
  P  P30  1  0.000000  0.189660  0.384395  1
  P  P31  1  0.000000  0.810369  0.384779  1
  P  P32  1  0.500000  0.841411  0.893510  1
  P  P33  1  0.500000  0.158713  0.893354  1
  P  P34  1  0.000000  0.658297  0.106112  1
  P  P35  1  0.000000  0.341294  0.106429  1
