# generated using pymatgen
data_Dy4ErSc5(Si5Ir2)4
_symmetry_space_group_name_H-M   'P 1'
_cell_length_a   12.50715700
_cell_length_b   12.50715700
_cell_length_c   4.17376300
_cell_angle_alpha   90.00000000
_cell_angle_beta   90.00000000
_cell_angle_gamma   90.00000000
_symmetry_Int_Tables_number   1
_chemical_formula_structural   Dy4ErSc5(Si5Ir2)4
_chemical_formula_sum   'Dy4 Er1 Sc5 Si20 Ir8'
_cell_volume   652.89747309
_cell_formula_units_Z   1
loop_
 _symmetry_equiv_pos_site_id
 _symmetry_equiv_pos_as_xyz
  1  'x, y, z'
loop_
 _atom_site_type_symbol
 _atom_site_label
 _atom_site_symmetry_multiplicity
 _atom_site_fract_x
 _atom_site_fract_y
 _atom_site_fract_z
 _atom_site_occupancy
  Dy  Dy0  1  0.884028  0.385234  0.500000  1
  Dy  Dy1  1  0.115972  0.614766  0.500000  1
  Dy  Dy2  1  0.385234  0.115972  0.500000  1
  Dy  Dy3  1  0.614766  0.884028  0.500000  1
  Er  Er4  1  0.000000  0.000000  0.000000  1
  Sc  Sc5  1  0.500000  0.500000  0.000000  1
  Sc  Sc6  1  0.672887  0.174746  0.500000  1
  Sc  Sc7  1  0.327113  0.825254  0.500000  1
  Sc  Sc8  1  0.174746  0.327113  0.500000  1
  Sc  Sc9  1  0.825254  0.672887  0.500000  1
  Si  Si10  1  0.566612  0.068388  0.000000  1
  Si  Si11  1  0.433388  0.931612  0.000000  1
  Si  Si12  1  0.068388  0.433388  0.000000  1
  Si  Si13  1  0.931612  0.566612  0.000000  1
  Si  Si14  1  0.665705  0.699271  0.000000  1
  Si  Si15  1  0.334295  0.300729  0.000000  1
  Si  Si16  1  0.166185  0.800205  0.000000  1
  Si  Si17  1  0.833815  0.199795  0.000000  1
  Si  Si18  1  0.300729  0.665705  0.000000  1
  Si  Si19  1  0.699271  0.334295  0.000000  1
  Si  Si20  1  0.199795  0.166185  0.000000  1
  Si  Si21  1  0.800205  0.833815  0.000000  1
  Si  Si22  1  0.650614  0.506943  0.500000  1
  Si  Si23  1  0.349386  0.493057  0.500000  1
  Si  Si24  1  0.156596  0.993557  0.500000  1
  Si  Si25  1  0.843404  0.006443  0.500000  1
  Si  Si26  1  0.493057  0.650614  0.500000  1
  Si  Si27  1  0.506943  0.349386  0.500000  1
  Si  Si28  1  0.006443  0.156596  0.500000  1
  Si  Si29  1  0.993557  0.843404  0.500000  1
  Ir  Ir30  1  0.743564  0.519967  0.000000  1
  Ir  Ir31  1  0.256436  0.480033  0.000000  1
  Ir  Ir32  1  0.246722  0.979816  0.000000  1
  Ir  Ir33  1  0.753278  0.020184  0.000000  1
  Ir  Ir34  1  0.480033  0.743564  0.000000  1
  Ir  Ir35  1  0.519967  0.256436  0.000000  1
  Ir  Ir36  1  0.020184  0.246722  0.000000  1
  Ir  Ir37  1  0.979816  0.753278  0.000000  1
