# generated using pymatgen
data_Lu8Re11Si16Os
_symmetry_space_group_name_H-M   'P 1'
_cell_length_a   6.73893775
_cell_length_b   6.73893816
_cell_length_c   12.63008215
_cell_angle_alpha   89.98973430
_cell_angle_beta   90.01026433
_cell_angle_gamma   90.42579996
_symmetry_Int_Tables_number   1
_chemical_formula_structural   Lu8Re11Si16Os
_chemical_formula_sum   'Lu8 Re11 Si16 Os1'
_cell_volume   573.55766000
_cell_formula_units_Z   1
loop_
 _symmetry_equiv_pos_site_id
 _symmetry_equiv_pos_as_xyz
  1  'x, y, z'
loop_
 _atom_site_type_symbol
 _atom_site_label
 _atom_site_symmetry_multiplicity
 _atom_site_fract_x
 _atom_site_fract_y
 _atom_site_fract_z
 _atom_site_occupancy
  Lu  Lu0  1  0.006247  0.660438  0.030443  1
  Lu  Lu1  1  0.993685  0.338503  0.530678  1
  Lu  Lu2  1  0.338503  0.993685  0.469322  1
  Lu  Lu3  1  0.160184  0.492440  0.780558  1
  Lu  Lu4  1  0.840172  0.506322  0.280096  1
  Lu  Lu5  1  0.492440  0.160184  0.219442  1
  Lu  Lu6  1  0.506322  0.840172  0.719904  1
  Lu  Lu7  1  0.660438  0.006247  0.969557  1
  Re  Re8  1  0.165420  0.835203  0.249633  1
  Re  Re9  1  0.333808  0.333808  0.000000  1
  Re  Re10  1  0.028524  0.808490  0.631259  1
  Re  Re11  1  0.973725  0.191340  0.132171  1
  Re  Re12  1  0.808490  0.028524  0.368741  1
  Re  Re13  1  0.314564  0.480415  0.380935  1
  Re  Re14  1  0.684211  0.520550  0.879484  1
  Re  Re15  1  0.480415  0.314564  0.619065  1
  Re  Re16  1  0.520550  0.684211  0.120516  1
  Re  Re17  1  0.191340  0.973725  0.867829  1
  Re  Re18  1  0.835203  0.165420  0.750367  1
  Si  Si19  1  0.021027  0.728949  0.437920  1
  Si  Si20  1  0.613578  0.306704  0.434532  1
  Si  Si21  1  0.384318  0.693758  0.934504  1
  Si  Si22  1  0.195046  0.115890  0.682686  1
  Si  Si23  1  0.306704  0.613578  0.565468  1
  Si  Si24  1  0.693758  0.384318  0.065496  1
  Si  Si25  1  0.805227  0.884165  0.183242  1
  Si  Si26  1  0.115890  0.195046  0.317314  1
  Si  Si27  1  0.978751  0.271450  0.937925  1
  Si  Si28  1  0.728949  0.021027  0.562080  1
  Si  Si29  1  0.223643  0.477496  0.187667  1
  Si  Si30  1  0.775929  0.521617  0.688002  1
  Si  Si31  1  0.477496  0.223643  0.812333  1
  Si  Si32  1  0.521617  0.775929  0.311998  1
  Si  Si33  1  0.271450  0.978751  0.062075  1
  Si  Si34  1  0.884165  0.805227  0.816758  1
  Os  Os35  1  0.668211  0.668211  0.500000  1
