# generated using pymatgen
data_AlHg3Au4
_symmetry_space_group_name_H-M   'P 1'
_cell_length_a   13.53987485
_cell_length_b   13.53987319
_cell_length_c   4.58454100
_cell_angle_alpha   90.00000000
_cell_angle_beta   90.00000000
_cell_angle_gamma   167.91037493
_symmetry_Int_Tables_number   1
_chemical_formula_structural   AlHg3Au4
_chemical_formula_sum   'Al1 Hg3 Au4'
_cell_volume   176.03047455
_cell_formula_units_Z   1
loop_
 _symmetry_equiv_pos_site_id
 _symmetry_equiv_pos_as_xyz
  1  'x, y, z'
loop_
 _atom_site_type_symbol
 _atom_site_label
 _atom_site_symmetry_multiplicity
 _atom_site_fract_x
 _atom_site_fract_y
 _atom_site_fract_z
 _atom_site_occupancy
  Al  Al0  1  0.563606  0.436397  0.249999  1
  Hg  Hg1  1  0.288803  0.711200  0.249999  1
  Hg  Hg2  1  0.701020  0.298983  0.750000  1
  Hg  Hg3  1  0.423981  0.576022  0.750000  1
  Au  Au4  1  0.983050  0.016952  0.249999  1
  Au  Au5  1  0.145540  0.854463  0.249999  1
  Au  Au6  1  0.827094  0.172909  0.750000  1
  Au  Au7  1  0.066916  0.933086  0.750000  1
