# generated using pymatgen
data_BaPrUSe5
_symmetry_space_group_name_H-M   'P 1'
_cell_length_a   8.06739300
_cell_length_b   8.78713361
_cell_length_c   12.58001638
_cell_angle_alpha   89.69958710
_cell_angle_beta   90.00000000
_cell_angle_gamma   90.00000000
_symmetry_Int_Tables_number   1
_chemical_formula_structural   BaPrUSe5
_chemical_formula_sum   'Ba4 Pr4 U4 Se20'
_cell_volume   891.77579575
_cell_formula_units_Z   4
loop_
 _symmetry_equiv_pos_site_id
 _symmetry_equiv_pos_as_xyz
  1  'x, y, z'
loop_
 _atom_site_type_symbol
 _atom_site_label
 _atom_site_symmetry_multiplicity
 _atom_site_fract_x
 _atom_site_fract_y
 _atom_site_fract_z
 _atom_site_occupancy
  Ba  Ba0  1  0.052823  0.494146  0.330305  1
  Ba  Ba1  1  0.552823  0.505854  0.169695  1
  Ba  Ba2  1  0.947177  0.505854  0.669695  1
  Ba  Ba3  1  0.447177  0.494146  0.830305  1
  Pr  Pr4  1  0.040480  0.999051  0.322735  1
  Pr  Pr5  1  0.540480  0.000949  0.177265  1
  Pr  Pr6  1  0.959520  0.000949  0.677265  1
  Pr  Pr7  1  0.459520  0.999051  0.822735  1
  U  U8  1  0.064381  0.755135  0.006843  1
  U  U9  1  0.564381  0.244865  0.493157  1
  U  U10  1  0.935619  0.244865  0.993157  1
  U  U11  1  0.435619  0.755135  0.506843  1
  Se  Se12  1  0.666774  0.956558  0.413132  1
  Se  Se13  1  0.166774  0.043442  0.086868  1
  Se  Se14  1  0.333226  0.043442  0.586868  1
  Se  Se15  1  0.833226  0.956558  0.913132  1
  Se  Se16  1  0.438162  0.776574  0.005430  1
  Se  Se17  1  0.938162  0.223426  0.494570  1
  Se  Se18  1  0.561838  0.223426  0.994570  1
  Se  Se19  1  0.061838  0.776574  0.505430  1
  Se  Se20  1  0.852943  0.770436  0.186445  1
  Se  Se21  1  0.352943  0.229564  0.313555  1
  Se  Se22  1  0.147057  0.229564  0.813555  1
  Se  Se23  1  0.647057  0.770436  0.686445  1
  Se  Se24  1  0.327110  0.767898  0.293064  1
  Se  Se25  1  0.827110  0.232102  0.206936  1
  Se  Se26  1  0.672890  0.232102  0.706936  1
  Se  Se27  1  0.172890  0.767898  0.793064  1
  Se  Se28  1  0.171264  0.461691  0.071239  1
  Se  Se29  1  0.671264  0.538309  0.428761  1
  Se  Se30  1  0.828736  0.538309  0.928761  1
  Se  Se31  1  0.328736  0.461691  0.571239  1
