# generated using pymatgen
data_Ta3ZnPd12
_symmetry_space_group_name_H-M   'P 1'
_cell_length_a   5.59471800
_cell_length_b   5.59471807
_cell_length_c   9.16275400
_cell_angle_alpha   90.00000000
_cell_angle_beta   90.00000000
_cell_angle_gamma   119.99999956
_symmetry_Int_Tables_number   1
_chemical_formula_structural   Ta3ZnPd12
_chemical_formula_sum   'Ta3 Zn1 Pd12'
_cell_volume   248.37796702
_cell_formula_units_Z   1
loop_
 _symmetry_equiv_pos_site_id
 _symmetry_equiv_pos_as_xyz
  1  'x, y, z'
loop_
 _atom_site_type_symbol
 _atom_site_label
 _atom_site_symmetry_multiplicity
 _atom_site_fract_x
 _atom_site_fract_y
 _atom_site_fract_z
 _atom_site_occupancy
  Ta  Ta0  1  0.000000  0.000000  0.496433  1
  Ta  Ta1  1  0.000000  0.000000  0.003567  1
  Ta  Ta2  1  0.666667  0.333333  0.750000  1
  Zn  Zn3  1  0.333333  0.666667  0.250000  1
  Pd  Pd4  1  0.501181  0.498819  0.500968  1
  Pd  Pd5  1  0.501181  0.002361  0.500968  1
  Pd  Pd6  1  0.997639  0.498819  0.500968  1
  Pd  Pd7  1  0.501181  0.498819  0.999032  1
  Pd  Pd8  1  0.501181  0.002361  0.999032  1
  Pd  Pd9  1  0.997639  0.498819  0.999032  1
  Pd  Pd10  1  0.833424  0.666846  0.250000  1
  Pd  Pd11  1  0.333154  0.166576  0.250000  1
  Pd  Pd12  1  0.833424  0.166576  0.250000  1
  Pd  Pd13  1  0.165355  0.330709  0.750000  1
  Pd  Pd14  1  0.669291  0.834645  0.750000  1
  Pd  Pd15  1  0.165355  0.834645  0.750000  1
