# generated using pymatgen
data_Tb6TmRh3
_symmetry_space_group_name_H-M   'P 1'
_cell_length_a   9.82553300
_cell_length_b   9.82553259
_cell_length_c   6.19501400
_cell_angle_alpha   90.00000000
_cell_angle_beta   90.00000000
_cell_angle_gamma   119.99999801
_symmetry_Int_Tables_number   1
_chemical_formula_structural   Tb6TmRh3
_chemical_formula_sum   'Tb12 Tm2 Rh6'
_cell_volume   517.94679698
_cell_formula_units_Z   2
loop_
 _symmetry_equiv_pos_site_id
 _symmetry_equiv_pos_as_xyz
  1  'x, y, z'
loop_
 _atom_site_type_symbol
 _atom_site_label
 _atom_site_symmetry_multiplicity
 _atom_site_fract_x
 _atom_site_fract_y
 _atom_site_fract_z
 _atom_site_occupancy
  Tb  Tb0  1  0.123970  0.876030  0.253970  1
  Tb  Tb1  1  0.752061  0.876030  0.253970  1
  Tb  Tb2  1  0.123970  0.247939  0.253970  1
  Tb  Tb3  1  0.876030  0.123970  0.753970  1
  Tb  Tb4  1  0.247939  0.123970  0.753970  1
  Tb  Tb5  1  0.876030  0.752061  0.753970  1
  Tb  Tb6  1  0.540879  0.459121  0.444993  1
  Tb  Tb7  1  0.918241  0.459121  0.444993  1
  Tb  Tb8  1  0.540879  0.081759  0.444993  1
  Tb  Tb9  1  0.459121  0.540879  0.944993  1
  Tb  Tb10  1  0.081759  0.540879  0.944993  1
  Tb  Tb11  1  0.459121  0.918241  0.944993  1
  Tm  Tm12  1  0.333333  0.666667  0.459449  1
  Tm  Tm13  1  0.666667  0.333333  0.959449  1
  Rh  Rh14  1  0.809362  0.190638  0.178981  1
  Rh  Rh15  1  0.381276  0.190638  0.178981  1
  Rh  Rh16  1  0.809362  0.618724  0.178981  1
  Rh  Rh17  1  0.190638  0.809362  0.678981  1
  Rh  Rh18  1  0.618724  0.809362  0.678981  1
  Rh  Rh19  1  0.190638  0.381276  0.678981  1
