# generated using pymatgen
data_Y3Ho(Al3Rh)6
_symmetry_space_group_name_H-M   'P 1'
_cell_length_a   7.55733200
_cell_length_b   7.55575177
_cell_length_c   9.47625800
_cell_angle_alpha   90.00000000
_cell_angle_beta   90.00000000
_cell_angle_gamma   119.33979852
_symmetry_Int_Tables_number   1
_chemical_formula_structural   Y3Ho(Al3Rh)6
_chemical_formula_sum   'Y3 Ho1 Al18 Rh6'
_cell_volume   471.69863355
_cell_formula_units_Z   1
loop_
 _symmetry_equiv_pos_site_id
 _symmetry_equiv_pos_as_xyz
  1  'x, y, z'
loop_
 _atom_site_type_symbol
 _atom_site_label
 _atom_site_symmetry_multiplicity
 _atom_site_fract_x
 _atom_site_fract_y
 _atom_site_fract_z
 _atom_site_occupancy
  Y  Y0  1  0.005512  0.329509  0.750000  1
  Y  Y1  1  0.670553  0.994487  0.250000  1
  Y  Y2  1  0.329411  0.005402  0.750000  1
  Ho  Ho3  1  0.994611  0.670640  0.250000  1
  Al  Al4  1  0.127724  0.127359  0.250000  1
  Al  Al5  1  0.872292  0.872196  0.750000  1
  Al  Al6  1  0.001175  0.335476  0.074220  1
  Al  Al7  1  0.998800  0.664853  0.926594  1
  Al  Al8  1  0.998800  0.664853  0.573406  1
  Al  Al9  1  0.334875  0.000877  0.425811  1
  Al  Al10  1  0.001175  0.335476  0.425780  1
  Al  Al11  1  0.664839  0.998786  0.573783  1
  Al  Al12  1  0.664839  0.998786  0.926217  1
  Al  Al13  1  0.334875  0.000877  0.074189  1
  Al  Al14  1  0.333371  0.333372  0.550458  1
  Al  Al15  1  0.666879  0.666629  0.449005  1
  Al  Al16  1  0.666879  0.666629  0.050995  1
  Al  Al17  1  0.333371  0.333372  0.949542  1
  Al  Al18  1  0.338287  0.548713  0.250000  1
  Al  Al19  1  0.661470  0.451410  0.750000  1
  Al  Al20  1  0.549128  0.339169  0.250000  1
  Al  Al21  1  0.451334  0.661362  0.750000  1
  Rh  Rh22  1  0.671871  0.328268  0.000176  1
  Rh  Rh23  1  0.328159  0.671820  0.000163  1
  Rh  Rh24  1  0.328159  0.671820  0.499837  1
  Rh  Rh25  1  0.671871  0.328268  0.499824  1
  Rh  Rh26  1  0.999869  0.999795  0.000281  1
  Rh  Rh27  1  0.999869  0.999795  0.499719  1
