# generated using pymatgen
data_Tm7Co6AgSn22
_symmetry_space_group_name_H-M   'P 1'
_cell_length_a   9.61174700
_cell_length_b   9.61174668
_cell_length_c   9.96481200
_cell_angle_alpha   90.00000000
_cell_angle_beta   90.00000000
_cell_angle_gamma   119.99999765
_symmetry_Int_Tables_number   1
_chemical_formula_structural   Tm7Co6AgSn22
_chemical_formula_sum   'Tm7 Co6 Ag1 Sn22'
_cell_volume   797.26812062
_cell_formula_units_Z   1
loop_
 _symmetry_equiv_pos_site_id
 _symmetry_equiv_pos_as_xyz
  1  'x, y, z'
loop_
 _atom_site_type_symbol
 _atom_site_label
 _atom_site_symmetry_multiplicity
 _atom_site_fract_x
 _atom_site_fract_y
 _atom_site_fract_z
 _atom_site_occupancy
  Tm  Tm0  1  0.000000  0.000000  0.000000  1
  Tm  Tm1  1  0.479651  0.520349  0.306466  1
  Tm  Tm2  1  0.520349  0.479651  0.693534  1
  Tm  Tm3  1  0.479651  0.959303  0.306466  1
  Tm  Tm4  1  0.520349  0.040697  0.693534  1
  Tm  Tm5  1  0.040697  0.520349  0.306466  1
  Tm  Tm6  1  0.959303  0.479651  0.693534  1
  Co  Co7  1  0.831770  0.168230  0.197162  1
  Co  Co8  1  0.168230  0.831770  0.802838  1
  Co  Co9  1  0.831770  0.663539  0.197162  1
  Co  Co10  1  0.168230  0.336461  0.802838  1
  Co  Co11  1  0.336461  0.168230  0.197162  1
  Co  Co12  1  0.663539  0.831770  0.802838  1
  Ag  Ag13  1  0.000000  0.000000  0.500000  1
  Sn  Sn14  1  0.345748  0.000000  0.000000  1
  Sn  Sn15  1  0.654252  0.000000  0.000000  1
  Sn  Sn16  1  0.000000  0.345748  0.000000  1
  Sn  Sn17  1  0.000000  0.654252  0.000000  1
  Sn  Sn18  1  0.654252  0.654252  0.000000  1
  Sn  Sn19  1  0.345748  0.345748  0.000000  1
  Sn  Sn20  1  0.333333  0.666667  0.818310  1
  Sn  Sn21  1  0.666667  0.333333  0.181690  1
  Sn  Sn22  1  0.782579  0.217421  0.453772  1
  Sn  Sn23  1  0.217421  0.782579  0.546228  1
  Sn  Sn24  1  0.782579  0.565159  0.453772  1
  Sn  Sn25  1  0.217421  0.434841  0.546228  1
  Sn  Sn26  1  0.434841  0.217421  0.453772  1
  Sn  Sn27  1  0.565159  0.782579  0.546228  1
  Sn  Sn28  1  0.333333  0.666667  0.121494  1
  Sn  Sn29  1  0.666667  0.333333  0.878506  1
  Sn  Sn30  1  0.114613  0.885387  0.275713  1
  Sn  Sn31  1  0.885387  0.114613  0.724287  1
  Sn  Sn32  1  0.114613  0.229228  0.275713  1
  Sn  Sn33  1  0.885387  0.770772  0.724287  1
  Sn  Sn34  1  0.770772  0.885387  0.275713  1
  Sn  Sn35  1  0.229228  0.114613  0.724287  1
