# generated using pymatgen
data_Tb7Dy5InCo4Ru
_symmetry_space_group_name_H-M   'P 1'
_cell_length_a   8.32696863
_cell_length_b   8.32696935
_cell_length_c   8.32648537
_cell_angle_alpha   111.16311865
_cell_angle_beta   110.38486049
_cell_angle_gamma   106.89942112
_symmetry_Int_Tables_number   1
_chemical_formula_structural   Tb7Dy5InCo4Ru
_chemical_formula_sum   'Tb7 Dy5 In1 Co4 Ru1'
_cell_volume   443.73713379
_cell_formula_units_Z   1
loop_
 _symmetry_equiv_pos_site_id
 _symmetry_equiv_pos_as_xyz
  1  'x, y, z'
loop_
 _atom_site_type_symbol
 _atom_site_label
 _atom_site_symmetry_multiplicity
 _atom_site_fract_x
 _atom_site_fract_y
 _atom_site_fract_z
 _atom_site_occupancy
  Tb  Tb0  1  0.408981  0.215919  0.192796  1
  Tb  Tb1  1  0.591429  0.784416  0.807324  1
  Tb  Tb2  1  0.022908  0.215896  0.807324  1
  Tb  Tb3  1  0.976877  0.783814  0.192796  1
  Tb  Tb4  1  0.183190  0.286846  0.470036  1
  Tb  Tb5  1  0.816493  0.712898  0.529392  1
  Tb  Tb6  1  0.183584  0.713084  0.896669  1
  Dy  Dy7  1  0.816761  0.286572  0.103331  1
  Dy  Dy8  1  0.314681  0.621602  0.306627  1
  Dy  Dy9  1  0.685102  0.378228  0.693480  1
  Dy  Dy10  1  0.315252  0.008377  0.693480  1
  Dy  Dy11  1  0.685025  0.991946  0.306627  1
  In  In12  1  0.500200  0.499969  0.000169  1
  Co  Co13  1  0.377916  0.999881  0.377798  1
  Co  Co14  1  0.622330  0.000406  0.622736  1
  Co  Co15  1  0.111085  0.611197  0.499431  1
  Co  Co16  1  0.888234  0.388345  0.499431  1
  Ru  Ru17  1  0.999951  0.000603  0.000554  1
