# generated using pymatgen
data_Rb2MgU3Se8
_symmetry_space_group_name_H-M   'P 1'
_cell_length_a   7.06215300
_cell_length_b   8.19686300
_cell_length_c   17.75655300
_cell_angle_alpha   90.00000000
_cell_angle_beta   90.00000000
_cell_angle_gamma   90.00000000
_symmetry_Int_Tables_number   1
_chemical_formula_structural   Rb2MgU3Se8
_chemical_formula_sum   'Rb4 Mg2 U6 Se16'
_cell_volume   1027.88247290
_cell_formula_units_Z   2
loop_
 _symmetry_equiv_pos_site_id
 _symmetry_equiv_pos_as_xyz
  1  'x, y, z'
loop_
 _atom_site_type_symbol
 _atom_site_label
 _atom_site_symmetry_multiplicity
 _atom_site_fract_x
 _atom_site_fract_y
 _atom_site_fract_z
 _atom_site_occupancy
  Rb  Rb0  1  0.345576  0.000000  0.000000  1
  Rb  Rb1  1  0.652517  0.500000  0.500000  1
  Rb  Rb2  1  0.022940  0.000000  0.500000  1
  Rb  Rb3  1  0.977497  0.500000  0.000000  1
  Mg  Mg4  1  0.002493  0.000000  0.248153  1
  Mg  Mg5  1  0.002493  0.000000  0.751847  1
  U  U6  1  0.000194  0.500000  0.252411  1
  U  U7  1  0.000194  0.500000  0.747589  1
  U  U8  1  0.500005  0.242872  0.250301  1
  U  U9  1  0.500005  0.757128  0.749699  1
  U  U10  1  0.500005  0.757128  0.250301  1
  U  U11  1  0.500005  0.242872  0.749699  1
  Se  Se12  1  0.833504  0.248004  0.340013  1
  Se  Se13  1  0.833504  0.751996  0.659987  1
  Se  Se14  1  0.164963  0.748773  0.161165  1
  Se  Se15  1  0.164963  0.251227  0.838835  1
  Se  Se16  1  0.164963  0.251227  0.161165  1
  Se  Se17  1  0.164963  0.748773  0.838835  1
  Se  Se18  1  0.833504  0.751996  0.340013  1
  Se  Se19  1  0.833504  0.248004  0.659987  1
  Se  Se20  1  0.668270  0.000000  0.160661  1
  Se  Se21  1  0.668270  0.000000  0.839339  1
  Se  Se22  1  0.337263  0.500000  0.339444  1
  Se  Se23  1  0.337263  0.500000  0.660556  1
  Se  Se24  1  0.329542  0.000000  0.339239  1
  Se  Se25  1  0.329542  0.000000  0.660761  1
  Se  Se26  1  0.666033  0.500000  0.162609  1
  Se  Se27  1  0.666033  0.500000  0.837391  1
