# generated using pymatgen
data_Cs10MnFe5S14
_symmetry_space_group_name_H-M   'P 1'
_cell_length_a   10.67272123
_cell_length_b   10.67272053
_cell_length_c   9.07395108
_cell_angle_alpha   79.26341034
_cell_angle_beta   79.26340789
_cell_angle_gamma   74.20913966
_symmetry_Int_Tables_number   1
_chemical_formula_structural   Cs10MnFe5S14
_chemical_formula_sum   'Cs10 Mn1 Fe5 S14'
_cell_volume   967.06600625
_cell_formula_units_Z   1
loop_
 _symmetry_equiv_pos_site_id
 _symmetry_equiv_pos_as_xyz
  1  'x, y, z'
loop_
 _atom_site_type_symbol
 _atom_site_label
 _atom_site_symmetry_multiplicity
 _atom_site_fract_x
 _atom_site_fract_y
 _atom_site_fract_z
 _atom_site_occupancy
  Cs  Cs0  1  0.038019  0.430562  0.728045  1
  Cs  Cs1  1  0.430562  0.038019  0.728045  1
  Cs  Cs2  1  0.959376  0.572938  0.272824  1
  Cs  Cs3  1  0.572938  0.959376  0.272824  1
  Cs  Cs4  1  0.295117  0.706841  0.000308  1
  Cs  Cs5  1  0.706841  0.295117  0.000308  1
  Cs  Cs6  1  0.846233  0.152903  0.500285  1
  Cs  Cs7  1  0.152903  0.846233  0.500285  1
  Cs  Cs8  1  0.430620  0.430620  0.690754  1
  Cs  Cs9  1  0.570287  0.570287  0.310136  1
  Mn  Mn10  1  0.204581  0.204581  0.183691  1
  Fe  Fe11  1  0.793954  0.793954  0.814307  1
  Fe  Fe12  1  0.066369  0.066369  0.057561  1
  Fe  Fe13  1  0.931905  0.931905  0.941645  1
  Fe  Fe14  1  0.334864  0.334864  0.325376  1
  Fe  Fe15  1  0.667216  0.667216  0.676419  1
  S  S16  1  0.008168  0.270646  0.120170  1
  S  S17  1  0.270646  0.008168  0.120170  1
  S  S18  1  0.992077  0.735293  0.881199  1
  S  S19  1  0.735293  0.992077  0.881199  1
  S  S20  1  0.199007  0.199007  0.423163  1
  S  S21  1  0.802147  0.802147  0.566468  1
  S  S22  1  0.056897  0.056897  0.821127  1
  S  S23  1  0.938322  0.938322  0.175522  1
  S  S24  1  0.332243  0.332243  0.075319  1
  S  S25  1  0.662721  0.662721  0.929410  1
  S  S26  1  0.251284  0.536747  0.389668  1
  S  S27  1  0.536747  0.251284  0.389668  1
  S  S28  1  0.749052  0.463613  0.612051  1
  S  S29  1  0.463613  0.749052  0.612051  1
