# generated using pymatgen
data_LaTh5Ir17Rh
_symmetry_space_group_name_H-M   'P 1'
_cell_length_a   5.37828000
_cell_length_b   5.37827804
_cell_length_c   17.79280500
_cell_angle_alpha   90.00000000
_cell_angle_beta   90.00000000
_cell_angle_gamma   119.99998745
_symmetry_Int_Tables_number   1
_chemical_formula_structural   LaTh5Ir17Rh
_chemical_formula_sum   'La1 Th5 Ir17 Rh1'
_cell_volume   445.71963298
_cell_formula_units_Z   1
loop_
 _symmetry_equiv_pos_site_id
 _symmetry_equiv_pos_as_xyz
  1  'x, y, z'
loop_
 _atom_site_type_symbol
 _atom_site_label
 _atom_site_symmetry_multiplicity
 _atom_site_fract_x
 _atom_site_fract_y
 _atom_site_fract_z
 _atom_site_occupancy
  La  La0  1  0.333333  0.666667  0.958860  1
  Th  Th1  1  0.333333  0.666667  0.542880  1
  Th  Th2  1  0.666667  0.333333  0.040759  1
  Th  Th3  1  0.666667  0.333333  0.457429  1
  Th  Th4  1  0.333333  0.666667  0.752302  1
  Th  Th5  1  0.666667  0.333333  0.249753  1
  Ir  Ir6  1  0.166863  0.333725  0.127598  1
  Ir  Ir7  1  0.832459  0.664919  0.626794  1
  Ir  Ir8  1  0.666275  0.833137  0.127598  1
  Ir  Ir9  1  0.166863  0.833137  0.127598  1
  Ir  Ir10  1  0.832459  0.167541  0.626794  1
  Ir  Ir11  1  0.335081  0.167541  0.626794  1
  Ir  Ir12  1  0.832905  0.665811  0.871944  1
  Ir  Ir13  1  0.832905  0.167095  0.871944  1
  Ir  Ir14  1  0.334189  0.167095  0.871944  1
  Ir  Ir15  1  0.665513  0.832757  0.373217  1
  Ir  Ir16  1  0.167243  0.832757  0.373217  1
  Ir  Ir17  1  0.167243  0.334487  0.373217  1
  Ir  Ir18  1  0.000000  0.000000  0.250402  1
  Ir  Ir19  1  0.000000  0.000000  0.749319  1
  Ir  Ir20  1  0.333333  0.666667  0.250284  1
  Ir  Ir21  1  0.000000  0.000000  0.999502  1
  Ir  Ir22  1  0.000000  0.000000  0.500199  1
  Rh  Rh23  1  0.666667  0.333333  0.749651  1
