# generated using pymatgen
data_Zr3CrIr2N
_symmetry_space_group_name_H-M   'P 1'
_cell_length_a   8.56302373
_cell_length_b   8.56302522
_cell_length_c   8.56302400
_cell_angle_alpha   60.00000472
_cell_angle_beta   59.99999894
_cell_angle_gamma   59.99999839
_symmetry_Int_Tables_number   1
_chemical_formula_structural   Zr3CrIr2N
_chemical_formula_sum   'Zr12 Cr4 Ir8 N4'
_cell_volume   443.98320375
_cell_formula_units_Z   4
loop_
 _symmetry_equiv_pos_site_id
 _symmetry_equiv_pos_as_xyz
  1  'x, y, z'
loop_
 _atom_site_type_symbol
 _atom_site_label
 _atom_site_symmetry_multiplicity
 _atom_site_fract_x
 _atom_site_fract_y
 _atom_site_fract_z
 _atom_site_occupancy
  Zr  Zr0  1  0.807912  0.807912  0.192088  1
  Zr  Zr1  1  0.192088  0.192088  0.807912  1
  Zr  Zr2  1  0.807912  0.192088  0.807912  1
  Zr  Zr3  1  0.192088  0.807912  0.192088  1
  Zr  Zr4  1  0.192088  0.807912  0.807912  1
  Zr  Zr5  1  0.807912  0.192088  0.192088  1
  Zr  Zr6  1  0.442088  0.442088  0.057912  1
  Zr  Zr7  1  0.057912  0.057912  0.442088  1
  Zr  Zr8  1  0.442088  0.057912  0.442088  1
  Zr  Zr9  1  0.057912  0.442088  0.057912  1
  Zr  Zr10  1  0.057912  0.442088  0.442088  1
  Zr  Zr11  1  0.442088  0.057912  0.057912  1
  Cr  Cr12  1  0.125000  0.625000  0.625000  1
  Cr  Cr13  1  0.625000  0.125000  0.625000  1
  Cr  Cr14  1  0.625000  0.625000  0.125000  1
  Cr  Cr15  1  0.625000  0.625000  0.625000  1
  Ir  Ir16  1  0.741793  0.419403  0.419403  1
  Ir  Ir17  1  0.419403  0.741793  0.419403  1
  Ir  Ir18  1  0.419403  0.419403  0.741793  1
  Ir  Ir19  1  0.419403  0.419403  0.419403  1
  Ir  Ir20  1  0.508207  0.830597  0.830597  1
  Ir  Ir21  1  0.830597  0.508207  0.830597  1
  Ir  Ir22  1  0.830597  0.830597  0.508207  1
  Ir  Ir23  1  0.830597  0.830597  0.830597  1
  N  N24  1  0.625000  0.125000  0.125000  1
  N  N25  1  0.125000  0.625000  0.125000  1
  N  N26  1  0.125000  0.125000  0.625000  1
  N  N27  1  0.125000  0.125000  0.125000  1
