# generated using pymatgen
data_PbS27
_symmetry_space_group_name_H-M   'P 1'
_cell_length_a   14.50542741
_cell_length_b   14.50542758
_cell_length_c   14.50542905
_cell_angle_alpha   118.59905467
_cell_angle_beta   118.59905735
_cell_angle_gamma   118.59905263
_symmetry_Int_Tables_number   1
_chemical_formula_structural   PbS27
_chemical_formula_sum   'Pb1 S27'
_cell_volume   931.96671653
_cell_formula_units_Z   1
loop_
 _symmetry_equiv_pos_site_id
 _symmetry_equiv_pos_as_xyz
  1  'x, y, z'
loop_
 _atom_site_type_symbol
 _atom_site_label
 _atom_site_symmetry_multiplicity
 _atom_site_fract_x
 _atom_site_fract_y
 _atom_site_fract_z
 _atom_site_occupancy
  Pb  Pb0  1  0.443375  0.443375  0.443375  1
  S  S1  1  0.024559  0.627769  0.627769  1
  S  S2  1  0.627769  0.627769  0.024559  1
  S  S3  1  0.627769  0.024559  0.627769  1
  S  S4  1  0.237805  0.854032  0.719908  1
  S  S5  1  0.854032  0.719908  0.237805  1
  S  S6  1  0.719908  0.237805  0.854032  1
  S  S7  1  0.854032  0.237805  0.719908  1
  S  S8  1  0.237805  0.719908  0.854032  1
  S  S9  1  0.719908  0.854032  0.237805  1
  S  S10  1  0.102910  0.634876  0.445611  1
  S  S11  1  0.634876  0.445611  0.102910  1
  S  S12  1  0.445611  0.102910  0.634876  1
  S  S13  1  0.634876  0.102910  0.445611  1
  S  S14  1  0.102910  0.445611  0.634876  1
  S  S15  1  0.445611  0.634876  0.102910  1
  S  S16  1  0.353241  0.737228  0.602247  1
  S  S17  1  0.737228  0.602247  0.353241  1
  S  S18  1  0.602247  0.353241  0.737228  1
  S  S19  1  0.737228  0.353241  0.602247  1
  S  S20  1  0.353241  0.602247  0.737228  1
  S  S21  1  0.602247  0.737228  0.353241  1
  S  S22  1  0.186487  0.458205  0.458205  1
  S  S23  1  0.458205  0.458205  0.186487  1
  S  S24  1  0.458205  0.186487  0.458205  1
  S  S25  1  0.012657  0.916181  0.916181  1
  S  S26  1  0.916181  0.916181  0.012657  1
  S  S27  1  0.916181  0.012657  0.916181  1
