# generated using pymatgen
data_TbY7CdNi2Ag
_symmetry_space_group_name_H-M   'P 1'
_cell_length_a   9.56401434
_cell_length_b   9.56401392
_cell_length_c   9.55610300
_cell_angle_alpha   60.02736175
_cell_angle_beta   60.02736321
_cell_angle_gamma   59.98163596
_symmetry_Int_Tables_number   1
_chemical_formula_structural   TbY7CdNi2Ag
_chemical_formula_sum   'Tb2 Y14 Cd2 Ni4 Ag2'
_cell_volume   618.25178060
_cell_formula_units_Z   2
loop_
 _symmetry_equiv_pos_site_id
 _symmetry_equiv_pos_as_xyz
  1  'x, y, z'
loop_
 _atom_site_type_symbol
 _atom_site_label
 _atom_site_symmetry_multiplicity
 _atom_site_fract_x
 _atom_site_fract_y
 _atom_site_fract_z
 _atom_site_occupancy
  Tb  Tb0  1  0.598099  0.598099  0.598356  1
  Tb  Tb1  1  0.598099  0.598099  0.205447  1
  Y  Y2  1  0.601770  0.197626  0.600303  1
  Y  Y3  1  0.197626  0.601770  0.600303  1
  Y  Y4  1  0.061290  0.439417  0.439496  1
  Y  Y5  1  0.439417  0.061290  0.059797  1
  Y  Y6  1  0.439417  0.061290  0.439496  1
  Y  Y7  1  0.061290  0.439417  0.059797  1
  Y  Y8  1  0.439921  0.439921  0.060079  1
  Y  Y9  1  0.061743  0.061743  0.438257  1
  Y  Y10  1  0.183600  0.813404  0.814763  1
  Y  Y11  1  0.813404  0.183600  0.188232  1
  Y  Y12  1  0.813404  0.183600  0.814763  1
  Y  Y13  1  0.183600  0.813404  0.188232  1
  Y  Y14  1  0.812758  0.812758  0.187242  1
  Y  Y15  1  0.185780  0.185780  0.814220  1
  Cd  Cd16  1  0.831605  0.509770  0.829312  1
  Cd  Cd17  1  0.509770  0.831605  0.829312  1
  Ni  Ni18  1  0.393253  0.393253  0.393128  1
  Ni  Ni19  1  0.393253  0.393253  0.820367  1
  Ni  Ni20  1  0.392372  0.821610  0.393009  1
  Ni  Ni21  1  0.821610  0.392372  0.393009  1
  Ag  Ag22  1  0.833459  0.833459  0.831448  1
  Ag  Ag23  1  0.833459  0.833459  0.501634  1
