# generated using pymatgen
data_TmAl5Cu6
_symmetry_space_group_name_H-M   'P 1'
_cell_length_a   10.27915216
_cell_length_b   8.15230460
_cell_length_c   7.78781408
_cell_angle_alpha   80.27490093
_cell_angle_beta   51.41594004
_cell_angle_gamma   48.30914708
_symmetry_Int_Tables_number   1
_chemical_formula_structural   TmAl5Cu6
_chemical_formula_sum   'Tm2 Al10 Cu12'
_cell_volume   345.49909545
_cell_formula_units_Z   2
loop_
 _symmetry_equiv_pos_site_id
 _symmetry_equiv_pos_as_xyz
  1  'x, y, z'
loop_
 _atom_site_type_symbol
 _atom_site_label
 _atom_site_symmetry_multiplicity
 _atom_site_fract_x
 _atom_site_fract_y
 _atom_site_fract_z
 _atom_site_occupancy
  Tm  Tm0  1  0.000000  0.000000  0.000000  1
  Tm  Tm1  1  0.250000  0.250000  0.250000  1
  Al  Al2  1  0.500000  0.500000  0.500000  1
  Al  Al3  1  0.750000  0.750000  0.750000  1
  Al  Al4  1  0.754327  0.071419  0.836497  1
  Al  Al5  1  0.836497  0.337759  0.754327  1
  Al  Al6  1  0.071419  0.754327  0.337759  1
  Al  Al7  1  0.337759  0.836497  0.071419  1
  Al  Al8  1  0.495673  0.178581  0.413503  1
  Al  Al9  1  0.413503  0.912241  0.495673  1
  Al  Al10  1  0.178581  0.495673  0.912241  1
  Al  Al11  1  0.912241  0.413503  0.178581  1
  Cu  Cu12  1  0.625000  0.125000  0.625000  1
  Cu  Cu13  1  0.625000  0.625000  0.625000  1
  Cu  Cu14  1  0.125000  0.625000  0.625000  1
  Cu  Cu15  1  0.625000  0.625000  0.125000  1
  Cu  Cu16  1  0.491946  0.434169  0.183004  1
  Cu  Cu17  1  0.183004  0.890881  0.491946  1
  Cu  Cu18  1  0.434169  0.491946  0.890881  1
  Cu  Cu19  1  0.890881  0.183004  0.434169  1
  Cu  Cu20  1  0.758054  0.815831  0.066996  1
  Cu  Cu21  1  0.066996  0.359119  0.758054  1
  Cu  Cu22  1  0.815831  0.758054  0.359119  1
  Cu  Cu23  1  0.359119  0.066996  0.815831  1
