# generated using pymatgen
data_EuZnN
_symmetry_space_group_name_H-M   'P 1'
_cell_length_a   3.59678400
_cell_length_b   3.59678400
_cell_length_c   7.72825300
_cell_angle_alpha   90.00000000
_cell_angle_beta   90.00000000
_cell_angle_gamma   90.00000000
_symmetry_Int_Tables_number   1
_chemical_formula_structural   EuZnN
_chemical_formula_sum   'Eu2 Zn2 N2'
_cell_volume   99.97928957
_cell_formula_units_Z   2
loop_
 _symmetry_equiv_pos_site_id
 _symmetry_equiv_pos_as_xyz
  1  'x, y, z'
loop_
 _atom_site_type_symbol
 _atom_site_label
 _atom_site_symmetry_multiplicity
 _atom_site_fract_x
 _atom_site_fract_y
 _atom_site_fract_z
 _atom_site_occupancy
  Eu  Eu0  1  0.000000  0.500001  0.341469  1
  Eu  Eu1  1  0.500001  0.000000  0.658531  1
  Zn  Zn2  1  0.500001  0.000000  0.083015  1
  Zn  Zn3  1  0.000000  0.500001  0.916985  1
  N  N4  1  0.500001  0.000000  0.342725  1
  N  N5  1  0.000000  0.500001  0.657275  1
