# generated using pymatgen
data_VZn(Pt2Rh)2
_symmetry_space_group_name_H-M   'P 1'
_cell_length_a   3.86932100
_cell_length_b   3.90238300
_cell_length_c   7.79928400
_cell_angle_alpha   90.00000000
_cell_angle_beta   90.00000000
_cell_angle_gamma   90.00000000
_symmetry_Int_Tables_number   1
_chemical_formula_structural   VZn(Pt2Rh)2
_chemical_formula_sum   'V1 Zn1 Pt4 Rh2'
_cell_volume   117.76585414
_cell_formula_units_Z   1
loop_
 _symmetry_equiv_pos_site_id
 _symmetry_equiv_pos_as_xyz
  1  'x, y, z'
loop_
 _atom_site_type_symbol
 _atom_site_label
 _atom_site_symmetry_multiplicity
 _atom_site_fract_x
 _atom_site_fract_y
 _atom_site_fract_z
 _atom_site_occupancy
  V  V0  1  0.000000  0.000000  0.492832  1
  Zn  Zn1  1  0.000000  0.000000  0.002618  1
  Pt  Pt2  1  0.500000  0.500000  0.002107  1
  Pt  Pt3  1  0.500000  0.000000  0.740540  1
  Pt  Pt4  1  0.000000  0.500000  0.259936  1
  Pt  Pt5  1  0.000000  0.500000  0.740586  1
  Rh  Rh6  1  0.500000  0.500000  0.498544  1
  Rh  Rh7  1  0.500000  0.000000  0.262836  1
