# generated using pymatgen
data_Gd4Y4Tc(B8Os)3
_symmetry_space_group_name_H-M   'P 1'
_cell_length_a   3.67686000
_cell_length_b   9.19911138
_cell_length_c   11.58538620
_cell_angle_alpha   89.96956075
_cell_angle_beta   90.00000000
_cell_angle_gamma   90.00000000
_symmetry_Int_Tables_number   1
_chemical_formula_structural   Gd4Y4Tc(B8Os)3
_chemical_formula_sum   'Gd4 Y4 Tc1 B24 Os3'
_cell_volume   391.86224788
_cell_formula_units_Z   1
loop_
 _symmetry_equiv_pos_site_id
 _symmetry_equiv_pos_as_xyz
  1  'x, y, z'
loop_
 _atom_site_type_symbol
 _atom_site_label
 _atom_site_symmetry_multiplicity
 _atom_site_fract_x
 _atom_site_fract_y
 _atom_site_fract_z
 _atom_site_occupancy
  Gd  Gd0  1  0.000000  0.324463  0.413044  1
  Gd  Gd1  1  0.000000  0.676558  0.583684  1
  Gd  Gd2  1  0.000000  0.821016  0.088036  1
  Gd  Gd3  1  0.000000  0.177149  0.914601  1
  Y  Y4  1  0.000000  0.942495  0.372667  1
  Y  Y5  1  0.000000  0.056876  0.627360  1
  Y  Y6  1  0.000000  0.444941  0.128366  1
  Y  Y7  1  0.000000  0.556582  0.871993  1
  Tc  Tc8  1  0.000000  0.637839  0.321399  1
  B  B9  1  0.500000  0.553324  0.432640  1
  B  B10  1  0.500000  0.445849  0.567700  1
  B  B11  1  0.500000  0.053911  0.067907  1
  B  B12  1  0.500000  0.946103  0.932202  1
  B  B13  1  0.500000  0.747278  0.419226  1
  B  B14  1  0.500000  0.252453  0.580815  1
  B  B15  1  0.500000  0.247865  0.081104  1
  B  B16  1  0.500000  0.752500  0.918682  1
  B  B17  1  0.500000  0.790572  0.266936  1
  B  B18  1  0.500000  0.209533  0.733269  1
  B  B19  1  0.500000  0.290529  0.233315  1
  B  B20  1  0.500000  0.709920  0.766136  1
  B  B21  1  0.500000  0.631739  0.186530  1
  B  B22  1  0.500000  0.368124  0.814136  1
  B  B23  1  0.500000  0.131566  0.313867  1
  B  B24  1  0.500000  0.868672  0.685553  1
  B  B25  1  0.500000  0.983658  0.213055  1
  B  B26  1  0.500000  0.016371  0.787271  1
  B  B27  1  0.500000  0.483518  0.287532  1
  B  B28  1  0.500000  0.515702  0.712560  1
  B  B29  1  0.500000  0.607536  0.029344  1
  B  B30  1  0.500000  0.392613  0.970023  1
  B  B31  1  0.500000  0.107402  0.470258  1
  B  B32  1  0.500000  0.893400  0.530106  1
  Os  Os33  1  0.000000  0.361679  0.679392  1
  Os  Os34  1  0.000000  0.137764  0.178517  1
  Os  Os35  1  0.000000  0.862500  0.820773  1
