# generated using pymatgen
data_Ho3Er(WO6)2
_symmetry_space_group_name_H-M   'P 1'
_cell_length_a   5.37539300
_cell_length_b   7.68445656
_cell_length_c   11.42832458
_cell_angle_alpha   75.40608427
_cell_angle_beta   90.00000000
_cell_angle_gamma   90.00000000
_symmetry_Int_Tables_number   1
_chemical_formula_structural   Ho3Er(WO6)2
_chemical_formula_sum   'Ho6 Er2 W4 O24'
_cell_volume   456.83862375
_cell_formula_units_Z   2
loop_
 _symmetry_equiv_pos_site_id
 _symmetry_equiv_pos_as_xyz
  1  'x, y, z'
loop_
 _atom_site_type_symbol
 _atom_site_label
 _atom_site_symmetry_multiplicity
 _atom_site_fract_x
 _atom_site_fract_y
 _atom_site_fract_z
 _atom_site_occupancy
  Ho  Ho0  1  0.183526  0.205717  0.421962  1
  Ho  Ho1  1  0.183526  0.794283  0.078038  1
  Ho  Ho2  1  0.684127  0.500000  0.250000  1
  Ho  Ho3  1  0.316110  0.500000  0.750000  1
  Ho  Ho4  1  0.740310  0.000000  0.250000  1
  Ho  Ho5  1  0.259802  0.000000  0.750000  1
  Er  Er6  1  0.816410  0.793910  0.578277  1
  Er  Er7  1  0.816410  0.206090  0.921723  1
  W  W8  1  0.256079  0.276484  0.114566  1
  W  W9  1  0.256079  0.723516  0.385434  1
  W  W10  1  0.744157  0.723424  0.884965  1
  W  W11  1  0.744157  0.276576  0.615035  1
  O  O12  1  0.458605  0.208665  0.273151  1
  O  O13  1  0.458605  0.791335  0.226849  1
  O  O14  1  0.542025  0.791109  0.726270  1
  O  O15  1  0.542025  0.208891  0.773730  1
  O  O16  1  0.043847  0.060383  0.104164  1
  O  O17  1  0.043847  0.939617  0.395836  1
  O  O18  1  0.955108  0.940493  0.895549  1
  O  O19  1  0.955108  0.059507  0.604451  1
  O  O20  1  0.980161  0.289801  0.228549  1
  O  O21  1  0.980161  0.710199  0.271451  1
  O  O22  1  0.019974  0.710496  0.771078  1
  O  O23  1  0.019974  0.289504  0.728922  1
  O  O24  1  0.848352  0.365852  0.451414  1
  O  O25  1  0.848352  0.634148  0.048586  1
  O  O26  1  0.150617  0.634413  0.548940  1
  O  O27  1  0.150617  0.365587  0.951060  1
  O  O28  1  0.638876  0.510909  0.614808  1
  O  O29  1  0.638876  0.489091  0.885192  1
  O  O30  1  0.361678  0.489614  0.385393  1
  O  O31  1  0.361678  0.510386  0.114607  1
  O  O32  1  0.464635  0.153465  0.569645  1
  O  O33  1  0.464635  0.846535  0.930355  1
  O  O34  1  0.535775  0.846463  0.431241  1
  O  O35  1  0.535775  0.153537  0.068759  1
