# generated using pymatgen
data_TbGd(SeO3)3
_symmetry_space_group_name_H-M   'P 1'
_cell_length_a   7.16810306
_cell_length_b   8.22280205
_cell_length_c   9.16615064
_cell_angle_alpha   71.24133088
_cell_angle_beta   70.02001977
_cell_angle_gamma   66.16010559
_symmetry_Int_Tables_number   1
_chemical_formula_structural   TbGd(SeO3)3
_chemical_formula_sum   'Tb2 Gd2 Se6 O18'
_cell_volume   453.72822530
_cell_formula_units_Z   2
loop_
 _symmetry_equiv_pos_site_id
 _symmetry_equiv_pos_as_xyz
  1  'x, y, z'
loop_
 _atom_site_type_symbol
 _atom_site_label
 _atom_site_symmetry_multiplicity
 _atom_site_fract_x
 _atom_site_fract_y
 _atom_site_fract_z
 _atom_site_occupancy
  Tb  Tb0  1  0.741301  0.735335  0.799044  1
  Tb  Tb1  1  0.258699  0.264665  0.200956  1
  Gd  Gd2  1  0.334641  0.727996  0.589523  1
  Gd  Gd3  1  0.665359  0.272004  0.410477  1
  Se  Se4  1  0.427346  0.776007  0.197884  1
  Se  Se5  1  0.572654  0.223993  0.802116  1
  Se  Se6  1  0.149012  0.749082  0.964612  1
  Se  Se7  1  0.850988  0.250918  0.035388  1
  Se  Se8  1  0.886720  0.760182  0.415480  1
  Se  Se9  1  0.113280  0.239818  0.584520  1
  O  O10  1  0.647382  0.791499  0.051659  1
  O  O11  1  0.352618  0.208501  0.948341  1
  O  O12  1  0.361586  0.943275  0.302195  1
  O  O13  1  0.638414  0.056725  0.697805  1
  O  O14  1  0.517450  0.595809  0.349582  1
  O  O15  1  0.482550  0.404191  0.650418  1
  O  O16  1  0.167648  0.566611  0.119271  1
  O  O17  1  0.832352  0.433389  0.880729  1
  O  O18  1  0.406996  0.710605  0.849966  1
  O  O19  1  0.593004  0.289395  0.150034  1
  O  O20  1  0.341911  0.252101  0.436671  1
  O  O21  1  0.658089  0.747899  0.563329  1
  O  O22  1  0.969182  0.291914  0.445127  1
  O  O23  1  0.030818  0.708086  0.554873  1
  O  O24  1  0.158342  0.014184  0.653893  1
  O  O25  1  0.841658  0.985816  0.346107  1
  O  O26  1  0.934227  0.305506  0.165804  1
  O  O27  1  0.065773  0.694494  0.834196  1
