# generated using pymatgen
data_PrTiP7Ru12
_symmetry_space_group_name_H-M   'P 1'
_cell_length_a   9.43016300
_cell_length_b   9.43016249
_cell_length_c   3.91494300
_cell_angle_alpha   90.00000000
_cell_angle_beta   90.00000000
_cell_angle_gamma   119.99999733
_symmetry_Int_Tables_number   1
_chemical_formula_structural   PrTiP7Ru12
_chemical_formula_sum   'Pr1 Ti1 P7 Ru12'
_cell_volume   301.50496097
_cell_formula_units_Z   1
loop_
 _symmetry_equiv_pos_site_id
 _symmetry_equiv_pos_as_xyz
  1  'x, y, z'
loop_
 _atom_site_type_symbol
 _atom_site_label
 _atom_site_symmetry_multiplicity
 _atom_site_fract_x
 _atom_site_fract_y
 _atom_site_fract_z
 _atom_site_occupancy
  Pr  Pr0  1  0.333333  0.666667  0.000000  1
  Ti  Ti1  1  0.666667  0.333333  0.500000  1
  P  P2  1  0.604946  0.719046  0.500000  1
  P  P3  1  0.000000  0.000000  0.000000  1
  P  P4  1  0.280954  0.885900  0.500000  1
  P  P5  1  0.114100  0.395054  0.500000  1
  P  P6  1  0.885114  0.569192  0.000000  1
  P  P7  1  0.430808  0.315922  0.000000  1
  P  P8  1  0.684078  0.114886  0.000000  1
  Ru  Ru9  1  0.561551  0.961422  0.500000  1
  Ru  Ru10  1  0.399870  0.438449  0.500000  1
  Ru  Ru11  1  0.913575  0.119359  0.500000  1
  Ru  Ru12  1  0.205785  0.086425  0.500000  1
  Ru  Ru13  1  0.880641  0.794215  0.500000  1
  Ru  Ru14  1  0.726809  0.890036  0.000000  1
  Ru  Ru15  1  0.109964  0.836771  0.000000  1
  Ru  Ru16  1  0.163229  0.273191  0.000000  1
  Ru  Ru17  1  0.427177  0.077661  0.000000  1
  Ru  Ru18  1  0.922339  0.349518  0.000000  1
  Ru  Ru19  1  0.650482  0.572823  0.000000  1
  Ru  Ru20  1  0.038578  0.600130  0.500000  1
