# generated using pymatgen
data_DyEr7Re3B24Ir
_symmetry_space_group_name_H-M   'P 1'
_cell_length_a   3.65502200
_cell_length_b   9.13033653
_cell_length_c   11.50898104
_cell_angle_alpha   90.12224930
_cell_angle_beta   90.00000000
_cell_angle_gamma   90.00000000
_symmetry_Int_Tables_number   1
_chemical_formula_structural   DyEr7Re3B24Ir
_chemical_formula_sum   'Dy1 Er7 Re3 B24 Ir1'
_cell_volume   384.07201755
_cell_formula_units_Z   1
loop_
 _symmetry_equiv_pos_site_id
 _symmetry_equiv_pos_as_xyz
  1  'x, y, z'
loop_
 _atom_site_type_symbol
 _atom_site_label
 _atom_site_symmetry_multiplicity
 _atom_site_fract_x
 _atom_site_fract_y
 _atom_site_fract_z
 _atom_site_occupancy
  Dy  Dy0  1  0.000000  0.318017  0.415498  1
  Er  Er1  1  0.000000  0.678663  0.591708  1
  Er  Er2  1  0.000000  0.827088  0.080934  1
  Er  Er3  1  0.000000  0.177582  0.912475  1
  Er  Er4  1  0.000000  0.943684  0.370490  1
  Er  Er5  1  0.000000  0.055939  0.629024  1
  Er  Er6  1  0.000000  0.440979  0.128062  1
  Er  Er7  1  0.000000  0.557024  0.871873  1
  Re  Re8  1  0.000000  0.362937  0.678003  1
  Re  Re9  1  0.000000  0.137731  0.179601  1
  Re  Re10  1  0.000000  0.862092  0.820985  1
  B  B11  1  0.500000  0.553827  0.433937  1
  B  B12  1  0.500000  0.447139  0.566921  1
  B  B13  1  0.500000  0.053087  0.066203  1
  B  B14  1  0.500000  0.947553  0.932754  1
  B  B15  1  0.500000  0.749100  0.420358  1
  B  B16  1  0.500000  0.250378  0.581342  1
  B  B17  1  0.500000  0.249091  0.080718  1
  B  B18  1  0.500000  0.751873  0.919206  1
  B  B19  1  0.500000  0.791261  0.264922  1
  B  B20  1  0.500000  0.208424  0.734493  1
  B  B21  1  0.500000  0.291442  0.234713  1
  B  B22  1  0.500000  0.708245  0.765950  1
  B  B23  1  0.500000  0.631588  0.183943  1
  B  B24  1  0.500000  0.369714  0.814585  1
  B  B25  1  0.500000  0.130052  0.314779  1
  B  B26  1  0.500000  0.868728  0.685274  1
  B  B27  1  0.500000  0.981854  0.211825  1
  B  B28  1  0.500000  0.018098  0.786987  1
  B  B29  1  0.500000  0.482587  0.287585  1
  B  B30  1  0.500000  0.518930  0.712733  1
  B  B31  1  0.500000  0.604015  0.029455  1
  B  B32  1  0.500000  0.397326  0.971827  1
  B  B33  1  0.500000  0.100805  0.471373  1
  B  B34  1  0.500000  0.895305  0.528309  1
  Ir  Ir35  1  0.000000  0.637841  0.321153  1
