# generated using pymatgen
data_Ho9Tm(SnSb2)2
_symmetry_space_group_name_H-M   'P 1'
_cell_length_a   8.91787672
_cell_length_b   8.89527026
_cell_length_c   6.37610112
_cell_angle_alpha   89.97798577
_cell_angle_beta   90.01098150
_cell_angle_gamma   119.91617928
_symmetry_Int_Tables_number   1
_chemical_formula_structural   Ho9Tm(SnSb2)2
_chemical_formula_sum   'Ho9 Tm1 Sn2 Sb4'
_cell_volume   438.40208136
_cell_formula_units_Z   1
loop_
 _symmetry_equiv_pos_site_id
 _symmetry_equiv_pos_as_xyz
  1  'x, y, z'
loop_
 _atom_site_type_symbol
 _atom_site_label
 _atom_site_symmetry_multiplicity
 _atom_site_fract_x
 _atom_site_fract_y
 _atom_site_fract_z
 _atom_site_occupancy
  Ho  Ho0  1  0.665037  0.332519  0.500000  1
  Ho  Ho1  1  0.665134  0.332567  0.000000  1
  Ho  Ho2  1  0.333902  0.666952  0.500000  1
  Ho  Ho3  1  0.755422  0.999308  0.750007  1
  Ho  Ho4  1  0.755422  0.756114  0.249993  1
  Ho  Ho5  1  0.000958  0.243821  0.249944  1
  Ho  Ho6  1  0.000958  0.757138  0.750056  1
  Ho  Ho7  1  0.243904  0.242333  0.750135  1
  Ho  Ho8  1  0.243904  0.001571  0.249865  1
  Tm  Tm9  1  0.333853  0.666927  0.000000  1
  Sn  Sn10  1  0.391325  0.998397  0.750518  1
  Sn  Sn11  1  0.391325  0.392927  0.249482  1
  Sb  Sb12  1  0.999866  0.609561  0.249594  1
  Sb  Sb13  1  0.999866  0.390306  0.750406  1
  Sb  Sb14  1  0.609562  0.609797  0.750434  1
  Sb  Sb15  1  0.609562  0.999765  0.249566  1
