# generated using pymatgen
data_Ta9Nb3Al8(OsC)4
_symmetry_space_group_name_H-M   'P 1'
_cell_length_a   8.32516968
_cell_length_b   8.32887939
_cell_length_c   8.32579904
_cell_angle_alpha   59.98277082
_cell_angle_beta   59.96929903
_cell_angle_gamma   59.99026348
_symmetry_Int_Tables_number   1
_chemical_formula_structural   Ta9Nb3Al8(OsC)4
_chemical_formula_sum   'Ta9 Nb3 Al8 Os4 C4'
_cell_volume   408.03857936
_cell_formula_units_Z   1
loop_
 _symmetry_equiv_pos_site_id
 _symmetry_equiv_pos_as_xyz
  1  'x, y, z'
loop_
 _atom_site_type_symbol
 _atom_site_label
 _atom_site_symmetry_multiplicity
 _atom_site_fract_x
 _atom_site_fract_y
 _atom_site_fract_z
 _atom_site_occupancy
  Ta  Ta0  1  0.308540  0.691460  0.308540  1
  Ta  Ta1  1  0.691334  0.691185  0.308857  1
  Ta  Ta2  1  0.308857  0.308624  0.691334  1
  Ta  Ta3  1  0.559134  0.559099  0.941037  1
  Ta  Ta4  1  0.942088  0.558101  0.558139  1
  Ta  Ta5  1  0.558139  0.941672  0.942088  1
  Ta  Ta6  1  0.941037  0.940730  0.559134  1
  Ta  Ta7  1  0.692088  0.307912  0.692088  1
  Ta  Ta8  1  0.940269  0.559731  0.940269  1
  Nb  Nb9  1  0.559421  0.940579  0.559421  1
  Nb  Nb10  1  0.309796  0.690312  0.690404  1
  Nb  Nb11  1  0.690404  0.309487  0.309796  1
  Al  Al12  1  0.918253  0.915306  0.916221  1
  Al  Al13  1  0.999741  0.332956  0.331945  1
  Al  Al14  1  0.333005  0.999725  0.335312  1
  Al  Al15  1  0.331945  0.335357  0.999741  1
  Al  Al16  1  0.916221  0.250220  0.918253  1
  Al  Al17  1  0.914993  0.918461  0.250103  1
  Al  Al18  1  0.250103  0.916443  0.914993  1
  Al  Al19  1  0.335312  0.331958  0.333005  1
  Os  Os20  1  0.128368  0.123128  0.123572  1
  Os  Os21  1  0.625085  0.124837  0.120589  1
  Os  Os22  1  0.123572  0.624933  0.128368  1
  Os  Os23  1  0.120589  0.129490  0.625085  1
  C  C24  1  0.627656  0.622445  0.625155  1
  C  C25  1  0.124294  0.624390  0.624603  1
  C  C26  1  0.625155  0.124744  0.627656  1
  C  C27  1  0.624603  0.626714  0.124294  1
