# generated using pymatgen
data_Ho12Er8CoBi8Rh3
_symmetry_space_group_name_H-M   'P 1'
_cell_length_a   7.97141144
_cell_length_b   8.94950800
_cell_length_c   12.38893510
_cell_angle_alpha   90.00000000
_cell_angle_beta   89.83683078
_cell_angle_gamma   90.00000000
_symmetry_Int_Tables_number   1
_chemical_formula_structural   Ho12Er8CoBi8Rh3
_chemical_formula_sum   'Ho12 Er8 Co1 Bi8 Rh3'
_cell_volume   883.82565405
_cell_formula_units_Z   1
loop_
 _symmetry_equiv_pos_site_id
 _symmetry_equiv_pos_as_xyz
  1  'x, y, z'
loop_
 _atom_site_type_symbol
 _atom_site_label
 _atom_site_symmetry_multiplicity
 _atom_site_fract_x
 _atom_site_fract_y
 _atom_site_fract_z
 _atom_site_occupancy
  Ho  Ho0  1  0.345812  0.750000  0.699518  1
  Ho  Ho1  1  0.657572  0.250000  0.294112  1
  Ho  Ho2  1  0.842816  0.250000  0.794037  1
  Ho  Ho3  1  0.157269  0.750000  0.205598  1
  Ho  Ho4  1  0.879794  0.750000  0.806377  1
  Ho  Ho5  1  0.120759  0.250000  0.193115  1
  Ho  Ho6  1  0.379210  0.250000  0.693285  1
  Ho  Ho7  1  0.614618  0.750000  0.311951  1
  Ho  Ho8  1  0.051901  0.750000  0.498881  1
  Ho  Ho9  1  0.949739  0.250000  0.501334  1
  Ho  Ho10  1  0.547927  0.250000  0.000760  1
  Ho  Ho11  1  0.450700  0.750000  0.998307  1
  Er  Er12  1  0.675996  0.545428  0.563945  1
  Er  Er13  1  0.324704  0.465405  0.436627  1
  Er  Er14  1  0.177279  0.457353  0.934452  1
  Er  Er15  1  0.324704  0.034595  0.436627  1
  Er  Er16  1  0.822275  0.541888  0.065485  1
  Er  Er17  1  0.675996  0.954572  0.563945  1
  Er  Er18  1  0.822275  0.958112  0.065485  1
  Er  Er19  1  0.177279  0.042647  0.934452  1
  Co  Co20  1  0.432464  0.750000  0.491753  1
  Bi  Bi21  1  0.570856  0.509857  0.826169  1
  Bi  Bi22  1  0.429185  0.490967  0.173724  1
  Bi  Bi23  1  0.071636  0.490506  0.672731  1
  Bi  Bi24  1  0.429185  0.009033  0.173724  1
  Bi  Bi25  1  0.928600  0.510094  0.327448  1
  Bi  Bi26  1  0.570856  0.990143  0.826169  1
  Bi  Bi27  1  0.928600  0.989906  0.327448  1
  Bi  Bi28  1  0.071636  0.009494  0.672731  1
  Rh  Rh29  1  0.070223  0.750000  0.990627  1
  Rh  Rh30  1  0.928551  0.250000  0.010060  1
  Rh  Rh31  1  0.569584  0.250000  0.509121  1
