# generated using pymatgen
data_K2Lu4Sn2S11
_symmetry_space_group_name_H-M   'P 1'
_cell_length_a   8.48202300
_cell_length_b   8.48202300
_cell_length_c   27.62719200
_cell_angle_alpha   90.00000000
_cell_angle_beta   90.00000000
_cell_angle_gamma   90.00000000
_symmetry_Int_Tables_number   1
_chemical_formula_structural   K2Lu4Sn2S11
_chemical_formula_sum   'K8 Lu16 Sn8 S44'
_cell_volume   1987.63043183
_cell_formula_units_Z   4
loop_
 _symmetry_equiv_pos_site_id
 _symmetry_equiv_pos_as_xyz
  1  'x, y, z'
loop_
 _atom_site_type_symbol
 _atom_site_label
 _atom_site_symmetry_multiplicity
 _atom_site_fract_x
 _atom_site_fract_y
 _atom_site_fract_z
 _atom_site_occupancy
  K  K0  1  0.000000  0.500000  0.627000  1
  K  K1  1  0.000000  0.500000  0.804131  1
  K  K2  1  0.500000  0.000000  0.695869  1
  K  K3  1  0.000000  0.500000  0.127000  1
  K  K4  1  0.000000  0.500000  0.304131  1
  K  K5  1  0.500000  0.000000  0.873000  1
  K  K6  1  0.500000  0.000000  0.195869  1
  K  K7  1  0.500000  0.000000  0.373000  1
  Lu  Lu8  1  0.894238  0.199220  0.446153  1
  Lu  Lu9  1  0.605762  0.300780  0.553847  1
  Lu  Lu10  1  0.800780  0.894238  0.553847  1
  Lu  Lu11  1  0.699220  0.394238  0.946153  1
  Lu  Lu12  1  0.300780  0.605762  0.946153  1
  Lu  Lu13  1  0.605762  0.699220  0.053847  1
  Lu  Lu14  1  0.199220  0.894238  0.053847  1
  Lu  Lu15  1  0.699220  0.605762  0.446153  1
  Lu  Lu16  1  0.394238  0.699220  0.553847  1
  Lu  Lu17  1  0.894238  0.800780  0.946153  1
  Lu  Lu18  1  0.300780  0.394238  0.446153  1
  Lu  Lu19  1  0.800780  0.105762  0.053847  1
  Lu  Lu20  1  0.394238  0.300780  0.053847  1
  Lu  Lu21  1  0.105762  0.800780  0.446153  1
  Lu  Lu22  1  0.105762  0.199220  0.946153  1
  Lu  Lu23  1  0.199220  0.105762  0.553847  1
  Sn  Sn24  1  0.000000  0.000000  0.689701  1
  Sn  Sn25  1  0.500000  0.500000  0.810299  1
  Sn  Sn26  1  0.500000  0.500000  0.189701  1
  Sn  Sn27  1  0.000000  0.000000  0.310299  1
  Sn  Sn28  1  0.500000  0.500000  0.689701  1
  Sn  Sn29  1  0.000000  0.000000  0.810299  1
  Sn  Sn30  1  0.000000  0.000000  0.189701  1
  Sn  Sn31  1  0.500000  0.500000  0.310299  1
  S  S32  1  0.190853  0.895153  0.954916  1
  S  S33  1  0.309147  0.604847  0.045084  1
  S  S34  1  0.190853  0.104847  0.454916  1
  S  S35  1  0.180693  0.165094  0.646838  1
  S  S36  1  0.604847  0.309147  0.454916  1
  S  S37  1  0.104847  0.190853  0.045084  1
  S  S38  1  0.180693  0.834906  0.146838  1
  S  S39  1  0.809147  0.895153  0.454916  1
  S  S40  1  0.848227  0.848227  0.250000  1
  S  S41  1  0.809147  0.104847  0.954916  1
  S  S42  1  0.895153  0.190853  0.545084  1
  S  S43  1  0.395153  0.690853  0.454916  1
  S  S44  1  0.651773  0.651773  0.750000  1
  S  S45  1  0.848227  0.151773  0.750000  1
  S  S46  1  0.834906  0.819307  0.853162  1
  S  S47  1  0.665094  0.680693  0.146838  1
  S  S48  1  0.000000  0.500000  0.941899  1
  S  S49  1  0.395153  0.309147  0.954916  1
  S  S50  1  0.348227  0.348227  0.750000  1
  S  S51  1  0.165094  0.819307  0.353162  1
  S  S52  1  0.834906  0.180693  0.353162  1
  S  S53  1  0.334906  0.319307  0.146838  1
  S  S54  1  0.309147  0.395153  0.545084  1
  S  S55  1  0.000000  0.500000  0.441899  1
  S  S56  1  0.680693  0.334906  0.853162  1
  S  S57  1  0.819307  0.834906  0.646838  1
  S  S58  1  0.500000  0.000000  0.558101  1
  S  S59  1  0.680693  0.665094  0.353162  1
  S  S60  1  0.319307  0.665094  0.853162  1
  S  S61  1  0.334906  0.680693  0.646838  1
  S  S62  1  0.348227  0.651773  0.250000  1
  S  S63  1  0.604847  0.690853  0.954916  1
  S  S64  1  0.651773  0.348227  0.250000  1
  S  S65  1  0.895153  0.809147  0.045084  1
  S  S66  1  0.319307  0.334906  0.353162  1
  S  S67  1  0.500000  0.000000  0.058101  1
  S  S68  1  0.819307  0.165094  0.146838  1
  S  S69  1  0.690853  0.395153  0.045084  1
  S  S70  1  0.665094  0.319307  0.646838  1
  S  S71  1  0.104847  0.809147  0.545084  1
  S  S72  1  0.151773  0.151773  0.250000  1
  S  S73  1  0.165094  0.180693  0.853162  1
  S  S74  1  0.151773  0.848227  0.750000  1
  S  S75  1  0.690853  0.604847  0.545084  1
