# generated using pymatgen
data_PrSn4(PdRh)3
_symmetry_space_group_name_H-M   'P 1'
_cell_length_a   7.74159900
_cell_length_b   7.74159977
_cell_length_c   4.10549300
_cell_angle_alpha   90.00000000
_cell_angle_beta   90.00000000
_cell_angle_gamma   120.00000098
_symmetry_Int_Tables_number   1
_chemical_formula_structural   PrSn4(PdRh)3
_chemical_formula_sum   'Pr1 Sn4 Pd3 Rh3'
_cell_volume   213.08718415
_cell_formula_units_Z   1
loop_
 _symmetry_equiv_pos_site_id
 _symmetry_equiv_pos_as_xyz
  1  'x, y, z'
loop_
 _atom_site_type_symbol
 _atom_site_label
 _atom_site_symmetry_multiplicity
 _atom_site_fract_x
 _atom_site_fract_y
 _atom_site_fract_z
 _atom_site_occupancy
  Pr  Pr0  1  0.000000  0.000000  0.000000  1
  Sn  Sn1  1  0.333333  0.666667  0.000000  1
  Sn  Sn2  1  0.803053  0.196947  0.500000  1
  Sn  Sn3  1  0.803053  0.606106  0.500000  1
  Sn  Sn4  1  0.393894  0.196947  0.500000  1
  Pd  Pd5  1  0.200513  0.799487  0.500000  1
  Pd  Pd6  1  0.200513  0.401027  0.500000  1
  Pd  Pd7  1  0.598973  0.799487  0.500000  1
  Rh  Rh8  1  0.534874  0.465126  0.000000  1
  Rh  Rh9  1  0.534874  0.069748  0.000000  1
  Rh  Rh10  1  0.930252  0.465126  0.000000  1
