# generated using pymatgen
data_Zr16Ni4MoOs3
_symmetry_space_group_name_H-M   'P 1'
_cell_length_a   8.71623121
_cell_length_b   8.71623086
_cell_length_c   8.73760906
_cell_angle_alpha   60.08090397
_cell_angle_beta   60.08090630
_cell_angle_gamma   60.00000393
_symmetry_Int_Tables_number   1
_chemical_formula_structural   Zr16Ni4MoOs3
_chemical_formula_sum   'Zr16 Ni4 Mo1 Os3'
_cell_volume   469.96455056
_cell_formula_units_Z   1
loop_
 _symmetry_equiv_pos_site_id
 _symmetry_equiv_pos_as_xyz
  1  'x, y, z'
loop_
 _atom_site_type_symbol
 _atom_site_label
 _atom_site_symmetry_multiplicity
 _atom_site_fract_x
 _atom_site_fract_y
 _atom_site_fract_z
 _atom_site_occupancy
  Zr  Zr0  1  0.189908  0.602883  0.604328  1
  Zr  Zr1  1  0.602883  0.189908  0.604328  1
  Zr  Zr2  1  0.602883  0.602883  0.604328  1
  Zr  Zr3  1  0.604170  0.604170  0.187492  1
  Zr  Zr4  1  0.454450  0.454450  0.045222  1
  Zr  Zr5  1  0.047000  0.047000  0.453616  1
  Zr  Zr6  1  0.454450  0.045878  0.045222  1
  Zr  Zr7  1  0.047000  0.452385  0.453616  1
  Zr  Zr8  1  0.045878  0.454450  0.045222  1
  Zr  Zr9  1  0.452385  0.047000  0.453616  1
  Zr  Zr10  1  0.815833  0.815833  0.185452  1
  Zr  Zr11  1  0.184332  0.184332  0.816008  1
  Zr  Zr12  1  0.815833  0.182883  0.185452  1
  Zr  Zr13  1  0.184332  0.815327  0.816008  1
  Zr  Zr14  1  0.182883  0.815833  0.185452  1
  Zr  Zr15  1  0.815327  0.184332  0.816008  1
  Ni  Ni16  1  0.825938  0.391874  0.390314  1
  Ni  Ni17  1  0.391874  0.825938  0.390314  1
  Ni  Ni18  1  0.391874  0.391874  0.390314  1
  Ni  Ni19  1  0.391304  0.391304  0.826088  1
  Mo  Mo20  1  0.831334  0.831334  0.505997  1
  Os  Os21  1  0.503684  0.832224  0.831869  1
  Os  Os22  1  0.832224  0.503684  0.831869  1
  Os  Os23  1  0.832224  0.832224  0.831869  1
