# generated using pymatgen
data_Tb2CuSi2Ru
_symmetry_space_group_name_H-M   'P 1'
_cell_length_a   4.24793000
_cell_length_b   7.00552670
_cell_length_c   7.33708360
_cell_angle_alpha   91.57278264
_cell_angle_beta   90.00000000
_cell_angle_gamma   90.00000000
_symmetry_Int_Tables_number   1
_chemical_formula_structural   Tb2CuSi2Ru
_chemical_formula_sum   'Tb4 Cu2 Si4 Ru2'
_cell_volume   218.26191814
_cell_formula_units_Z   2
loop_
 _symmetry_equiv_pos_site_id
 _symmetry_equiv_pos_as_xyz
  1  'x, y, z'
loop_
 _atom_site_type_symbol
 _atom_site_label
 _atom_site_symmetry_multiplicity
 _atom_site_fract_x
 _atom_site_fract_y
 _atom_site_fract_z
 _atom_site_occupancy
  Tb  Tb0  1  0.250000  0.990468  0.797658  1
  Tb  Tb1  1  0.750000  0.009532  0.202342  1
  Tb  Tb2  1  0.250000  0.489934  0.685486  1
  Tb  Tb3  1  0.750000  0.510066  0.314514  1
  Cu  Cu4  1  0.750000  0.836029  0.572909  1
  Cu  Cu5  1  0.250000  0.163971  0.427091  1
  Si  Si6  1  0.250000  0.301125  0.088874  1
  Si  Si7  1  0.750000  0.698875  0.911126  1
  Si  Si8  1  0.250000  0.798470  0.387367  1
  Si  Si9  1  0.750000  0.201530  0.612633  1
  Ru  Ru10  1  0.750000  0.349198  0.933746  1
  Ru  Ru11  1  0.250000  0.650802  0.066254  1
