# generated using pymatgen
data_Y10OsRh3
_symmetry_space_group_name_H-M   'P 1'
_cell_length_a   6.49655438
_cell_length_b   7.28213896
_cell_length_c   8.61506251
_cell_angle_alpha   96.51622363
_cell_angle_beta   112.41948319
_cell_angle_gamma   90.10644998
_symmetry_Int_Tables_number   1
_chemical_formula_structural   Y10OsRh3
_chemical_formula_sum   'Y10 Os1 Rh3'
_cell_volume   373.87654382
_cell_formula_units_Z   1
loop_
 _symmetry_equiv_pos_site_id
 _symmetry_equiv_pos_as_xyz
  1  'x, y, z'
loop_
 _atom_site_type_symbol
 _atom_site_label
 _atom_site_symmetry_multiplicity
 _atom_site_fract_x
 _atom_site_fract_y
 _atom_site_fract_z
 _atom_site_occupancy
  Y  Y0  1  0.981523  0.915859  0.187633  1
  Y  Y1  1  0.792400  0.585680  0.812225  1
  Y  Y2  1  0.025289  0.083923  0.819937  1
  Y  Y3  1  0.210131  0.414915  0.188500  1
  Y  Y4  1  0.647715  0.818302  0.435333  1
  Y  Y5  1  0.211098  0.683375  0.562623  1
  Y  Y6  1  0.351374  0.183262  0.559264  1
  Y  Y7  1  0.784220  0.313934  0.436797  1
  Y  Y8  1  0.425553  0.752029  0.001150  1
  Y  Y9  1  0.574304  0.248527  0.000972  1
  Os  Os10  1  0.392786  0.075424  0.215482  1
  Rh  Rh11  1  0.826483  0.573496  0.224480  1
  Rh  Rh12  1  0.604043  0.924881  0.780625  1
  Rh  Rh13  1  0.173082  0.426393  0.774978  1
