# generated using pymatgen
data_Li3Dy4AlPt4
_symmetry_space_group_name_H-M   'P 1'
_cell_length_a   4.03925500
_cell_length_b   7.00243759
_cell_length_c   8.40214717
_cell_angle_alpha   90.74610071
_cell_angle_beta   90.00000000
_cell_angle_gamma   90.00000000
_symmetry_Int_Tables_number   1
_chemical_formula_structural   Li3Dy4AlPt4
_chemical_formula_sum   'Li3 Dy4 Al1 Pt4'
_cell_volume   237.63148354
_cell_formula_units_Z   1
loop_
 _symmetry_equiv_pos_site_id
 _symmetry_equiv_pos_as_xyz
  1  'x, y, z'
loop_
 _atom_site_type_symbol
 _atom_site_label
 _atom_site_symmetry_multiplicity
 _atom_site_fract_x
 _atom_site_fract_y
 _atom_site_fract_z
 _atom_site_occupancy
  Li  Li0  1  0.250000  0.874013  0.942127  1
  Li  Li1  1  0.750000  0.130998  0.061191  1
  Li  Li2  1  0.750000  0.629708  0.438452  1
  Dy  Dy3  1  0.250000  0.455543  0.180408  1
  Dy  Dy4  1  0.750000  0.544351  0.817505  1
  Dy  Dy5  1  0.750000  0.041592  0.683832  1
  Dy  Dy6  1  0.250000  0.956093  0.319605  1
  Al  Al7  1  0.250000  0.371320  0.558459  1
  Pt  Pt8  1  0.250000  0.741410  0.618168  1
  Pt  Pt9  1  0.750000  0.254706  0.390399  1
  Pt  Pt10  1  0.750000  0.744916  0.124438  1
  Pt  Pt11  1  0.250000  0.255348  0.865416  1
