# generated using pymatgen
data_Er8Ga12CoCu2Ni
_symmetry_space_group_name_H-M   'P 1'
_cell_length_a   6.91415200
_cell_length_b   8.74026070
_cell_length_c   8.74026100
_cell_angle_alpha   119.99999736
_cell_angle_beta   90.00000000
_cell_angle_gamma   90.00000000
_symmetry_Int_Tables_number   1
_chemical_formula_structural   Er8Ga12CoCu2Ni
_chemical_formula_sum   'Er8 Ga12 Co1 Cu2 Ni1'
_cell_volume   457.42337534
_cell_formula_units_Z   1
loop_
 _symmetry_equiv_pos_site_id
 _symmetry_equiv_pos_as_xyz
  1  'x, y, z'
loop_
 _atom_site_type_symbol
 _atom_site_label
 _atom_site_symmetry_multiplicity
 _atom_site_fract_x
 _atom_site_fract_y
 _atom_site_fract_z
 _atom_site_occupancy
  Er  Er0  1  0.745870  0.000000  0.000000  1
  Er  Er1  1  0.252803  0.000000  0.000000  1
  Er  Er2  1  0.746322  0.481596  0.518404  1
  Er  Er3  1  0.257048  0.521668  0.478332  1
  Er  Er4  1  0.746322  0.036810  0.518404  1
  Er  Er5  1  0.257048  0.956664  0.478332  1
  Er  Er6  1  0.746322  0.481596  0.963190  1
  Er  Er7  1  0.257048  0.521668  0.043336  1
  Ga  Ga8  1  0.957349  0.830657  0.169343  1
  Ga  Ga9  1  0.043110  0.169922  0.830078  1
  Ga  Ga10  1  0.957349  0.338687  0.169343  1
  Ga  Ga11  1  0.457641  0.171627  0.828373  1
  Ga  Ga12  1  0.043110  0.660154  0.830078  1
  Ga  Ga13  1  0.543096  0.827356  0.172644  1
  Ga  Ga14  1  0.957349  0.830657  0.661313  1
  Ga  Ga15  1  0.457641  0.656745  0.828373  1
  Ga  Ga16  1  0.043110  0.169922  0.339846  1
  Ga  Ga17  1  0.543096  0.345289  0.172644  1
  Ga  Ga18  1  0.457641  0.171627  0.343255  1
  Ga  Ga19  1  0.543096  0.827356  0.654711  1
  Co  Co20  1  0.512682  0.666667  0.333333  1
  Cu  Cu21  1  0.956661  0.666667  0.333333  1
  Cu  Cu22  1  0.042270  0.333333  0.666667  1
  Ni  Ni23  1  0.476015  0.333333  0.666667  1
