# generated using pymatgen
data_BaF8
_symmetry_space_group_name_H-M   'P 1'
_cell_length_a   4.37828362
_cell_length_b   4.40514320
_cell_length_c   10.62725118
_cell_angle_alpha   98.97179873
_cell_angle_beta   96.91391730
_cell_angle_gamma   60.83307959
_symmetry_Int_Tables_number   1
_chemical_formula_structural   BaF8
_chemical_formula_sum   'Ba1 F8'
_cell_volume   176.55440762
_cell_formula_units_Z   1
loop_
 _symmetry_equiv_pos_site_id
 _symmetry_equiv_pos_as_xyz
  1  'x, y, z'
loop_
 _atom_site_type_symbol
 _atom_site_label
 _atom_site_symmetry_multiplicity
 _atom_site_fract_x
 _atom_site_fract_y
 _atom_site_fract_z
 _atom_site_occupancy
  Ba  Ba0  1  0.538565  0.029884  0.917342  1
  F  F1  1  0.194631  0.547011  0.626933  1
  F  F2  1  0.575742  0.023576  0.427631  1
  F  F3  1  0.033726  0.443105  0.239732  1
  F  F4  1  0.114391  0.131676  0.142012  1
  F  F5  1  0.045412  0.891266  0.712375  1
  F  F6  1  0.858323  0.346039  0.840186  1
  F  F7  1  0.416933  0.849765  0.474297  1
  F  F8  1  0.219236  0.711848  0.995310  1
