# generated using pymatgen
data_Tb2ErTm2P12Ru19
_symmetry_space_group_name_H-M   'P 1'
_cell_length_a   12.52563005
_cell_length_b   12.52753477
_cell_length_c   3.97460000
_cell_angle_alpha   90.00000000
_cell_angle_beta   90.00000000
_cell_angle_gamma   120.00503039
_symmetry_Int_Tables_number   1
_chemical_formula_structural   Tb2ErTm2P12Ru19
_chemical_formula_sum   'Tb2 Er1 Tm2 P12 Ru19'
_cell_volume   540.09137344
_cell_formula_units_Z   1
loop_
 _symmetry_equiv_pos_site_id
 _symmetry_equiv_pos_as_xyz
  1  'x, y, z'
loop_
 _atom_site_type_symbol
 _atom_site_label
 _atom_site_symmetry_multiplicity
 _atom_site_fract_x
 _atom_site_fract_y
 _atom_site_fract_z
 _atom_site_occupancy
  Tb  Tb0  1  0.183588  0.183573  0.500000  1
  Tb  Tb1  1  0.816412  0.999985  0.500000  1
  Er  Er2  1  0.000000  0.816597  0.500000  1
  Tm  Tm3  1  0.333341  0.666752  0.000000  1
  Tm  Tm4  1  0.666659  0.333410  0.000000  1
  P  P5  1  0.815693  0.815262  0.000000  1
  P  P6  1  0.184307  0.999570  0.000000  1
  P  P7  1  0.000000  0.184450  0.000000  1
  P  P8  1  0.171776  0.478498  0.500000  1
  P  P9  1  0.521812  0.693435  0.500000  1
  P  P10  1  0.306605  0.828242  0.500000  1
  P  P11  1  0.693395  0.521636  0.500000  1
  P  P12  1  0.828224  0.306722  0.500000  1
  P  P13  1  0.478188  0.171623  0.500000  1
  P  P14  1  0.372509  0.372497  0.000000  1
  P  P15  1  0.627491  0.999988  0.000000  1
  P  P16  1  0.000000  0.627777  0.000000  1
  Ru  Ru17  1  0.554396  0.554336  0.000000  1
  Ru  Ru18  1  0.445604  0.999940  0.000000  1
  Ru  Ru19  1  0.000000  0.445792  0.000000  1
  Ru  Ru20  1  0.716915  0.716586  0.500000  1
  Ru  Ru21  1  0.283085  0.999671  0.500000  1
  Ru  Ru22  1  0.000000  0.283610  0.500000  1
  Ru  Ru23  1  0.184962  0.377914  0.000000  1
  Ru  Ru24  1  0.622172  0.807023  0.000000  1
  Ru  Ru25  1  0.192129  0.814912  0.000000  1
  Ru  Ru26  1  0.807871  0.622783  0.000000  1
  Ru  Ru27  1  0.815038  0.192952  0.000000  1
  Ru  Ru28  1  0.377828  0.184851  0.000000  1
  Ru  Ru29  1  0.365940  0.492504  0.500000  1
  Ru  Ru30  1  0.507585  0.873470  0.500000  1
  Ru  Ru31  1  0.126527  0.634271  0.500000  1
  Ru  Ru32  1  0.873473  0.507746  0.500000  1
  Ru  Ru33  1  0.634060  0.126565  0.500000  1
  Ru  Ru34  1  0.492415  0.365887  0.500000  1
  Ru  Ru35  1  0.000000  0.999169  0.000000  1
