# generated using pymatgen
data_TaTiCo9W
_symmetry_space_group_name_H-M   'P 1'
_cell_length_a   6.86914934
_cell_length_b   6.86914983
_cell_length_c   6.86915024
_cell_angle_alpha   43.76915992
_cell_angle_beta   43.76915522
_cell_angle_gamma   43.76915443
_symmetry_Int_Tables_number   1
_chemical_formula_structural   TaTiCo9W
_chemical_formula_sum   'Ta1 Ti1 Co9 W1'
_cell_volume   140.80580479
_cell_formula_units_Z   1
loop_
 _symmetry_equiv_pos_site_id
 _symmetry_equiv_pos_as_xyz
  1  'x, y, z'
loop_
 _atom_site_type_symbol
 _atom_site_label
 _atom_site_symmetry_multiplicity
 _atom_site_fract_x
 _atom_site_fract_y
 _atom_site_fract_z
 _atom_site_occupancy
  Ta  Ta0  1  0.000157  0.000157  0.000157  1
  Ti  Ti1  1  0.781115  0.781115  0.781115  1
  Co  Co2  1  0.285620  0.762704  0.285620  1
  Co  Co3  1  0.762704  0.285620  0.285620  1
  Co  Co4  1  0.285620  0.285620  0.762704  1
  Co  Co5  1  0.714072  0.238964  0.714072  1
  Co  Co6  1  0.238964  0.714072  0.714072  1
  Co  Co7  1  0.714072  0.714072  0.238964  1
  Co  Co8  1  0.000728  0.498941  0.498941  1
  Co  Co9  1  0.498941  0.498941  0.000728  1
  Co  Co10  1  0.498941  0.000728  0.498941  1
  W  W11  1  0.219065  0.219065  0.219065  1
