# generated using pymatgen
data_ZnB2F8
_symmetry_space_group_name_H-M   'P 1'
_cell_length_a   4.91898571
_cell_length_b   4.95290354
_cell_length_c   7.59217209
_cell_angle_alpha   108.48263227
_cell_angle_beta   70.59927334
_cell_angle_gamma   119.98067953
_symmetry_Int_Tables_number   1
_chemical_formula_structural   ZnB2F8
_chemical_formula_sum   'Zn1 B2 F8'
_cell_volume   148.51797664
_cell_formula_units_Z   1
loop_
 _symmetry_equiv_pos_site_id
 _symmetry_equiv_pos_as_xyz
  1  'x, y, z'
loop_
 _atom_site_type_symbol
 _atom_site_label
 _atom_site_symmetry_multiplicity
 _atom_site_fract_x
 _atom_site_fract_y
 _atom_site_fract_z
 _atom_site_occupancy
  Zn  Zn0  1  0.236982  0.994063  0.989591  1
  B  B1  1  0.483466  0.733583  0.233149  1
  B  B2  1  0.988646  0.250906  0.742784  1
  F  F3  1  0.799553  0.743498  0.153214  1
  F  F4  1  0.256222  0.421473  0.159432  1
  F  F5  1  0.209170  0.567419  0.815651  1
  F  F6  1  0.668386  0.231683  0.818448  1
  F  F7  1  0.055275  0.182185  0.551793  1
  F  F8  1  0.421469  0.798312  0.424066  1
  F  F9  1  0.003442  0.034035  0.825693  1
  F  F10  1  0.473271  0.958575  0.154180  1
