# generated using pymatgen
data_Ho5NpTaO12
_symmetry_space_group_name_H-M   'P 1'
_cell_length_a   6.44290272
_cell_length_b   6.47164340
_cell_length_c   6.50495410
_cell_angle_alpha   98.82404920
_cell_angle_beta   99.01630740
_cell_angle_gamma   98.52279288
_symmetry_Int_Tables_number   1
_chemical_formula_structural   Ho5NpTaO12
_chemical_formula_sum   'Ho5 Np1 Ta1 O12'
_cell_volume   260.55450647
_cell_formula_units_Z   1
loop_
 _symmetry_equiv_pos_site_id
 _symmetry_equiv_pos_as_xyz
  1  'x, y, z'
loop_
 _atom_site_type_symbol
 _atom_site_label
 _atom_site_symmetry_multiplicity
 _atom_site_fract_x
 _atom_site_fract_y
 _atom_site_fract_z
 _atom_site_occupancy
  Ho  Ho0  1  0.393413  0.857231  0.690825  1
  Ho  Ho1  1  0.694350  0.391426  0.867649  1
  Ho  Ho2  1  0.310241  0.611952  0.141829  1
  Ho  Ho3  1  0.608108  0.136848  0.300751  1
  Ho  Ho4  1  0.856702  0.694031  0.384624  1
  Np  Np5  1  0.138629  0.306046  0.603101  1
  Ta  Ta6  1  0.000594  0.998051  0.994697  1
  O  O7  1  0.074085  0.303239  0.964947  1
  O  O8  1  0.042666  0.926030  0.695734  1
  O  O9  1  0.409802  0.566375  0.823199  1
  O  O10  1  0.177477  0.585581  0.432446  1
  O  O11  1  0.694647  0.042264  0.924585  1
  O  O12  1  0.429095  0.184206  0.586825  1
  O  O13  1  0.566113  0.825277  0.414706  1
  O  O14  1  0.303355  0.958601  0.076226  1
  O  O15  1  0.831098  0.409821  0.572312  1
  O  O16  1  0.590808  0.434217  0.181051  1
  O  O17  1  0.955301  0.071749  0.302962  1
  O  O18  1  0.923516  0.697055  0.041533  1
