# generated using pymatgen
data_Tm3Sn3HgIrRh
_symmetry_space_group_name_H-M   'P 1'
_cell_length_a   7.68413200
_cell_length_b   7.68413328
_cell_length_c   3.86067300
_cell_angle_alpha   90.00000000
_cell_angle_beta   90.00000000
_cell_angle_gamma   119.99999447
_symmetry_Int_Tables_number   1
_chemical_formula_structural   Tm3Sn3HgIrRh
_chemical_formula_sum   'Tm3 Sn3 Hg1 Ir1 Rh1'
_cell_volume   197.41646912
_cell_formula_units_Z   1
loop_
 _symmetry_equiv_pos_site_id
 _symmetry_equiv_pos_as_xyz
  1  'x, y, z'
loop_
 _atom_site_type_symbol
 _atom_site_label
 _atom_site_symmetry_multiplicity
 _atom_site_fract_x
 _atom_site_fract_y
 _atom_site_fract_z
 _atom_site_occupancy
  Tm  Tm0  1  0.023597  0.411865  0.000000  1
  Tm  Tm1  1  0.588135  0.611732  0.000000  1
  Tm  Tm2  1  0.388268  0.976403  0.000000  1
  Sn  Sn3  1  0.252501  0.258219  0.500000  1
  Sn  Sn4  1  0.005718  0.747499  0.500000  1
  Sn  Sn5  1  0.741781  0.994282  0.500000  1
  Hg  Hg6  1  0.666667  0.333333  0.500000  1
  Ir  Ir7  1  0.333333  0.666667  0.500000  1
  Rh  Rh8  1  0.000000  0.000000  0.000000  1
