# generated using pymatgen
data_Tb4Al24Pd(Pt3Au)2
_symmetry_space_group_name_H-M   'P 1'
_cell_length_a   7.57238302
_cell_length_b   7.59349918
_cell_length_c   13.17794243
_cell_angle_alpha   84.54791110
_cell_angle_beta   78.99543824
_cell_angle_gamma   59.91311827
_symmetry_Int_Tables_number   1
_chemical_formula_structural   Tb4Al24Pd(Pt3Au)2
_chemical_formula_sum   'Tb4 Al24 Pd1 Pt6 Au2'
_cell_volume   643.59341781
_cell_formula_units_Z   1
loop_
 _symmetry_equiv_pos_site_id
 _symmetry_equiv_pos_as_xyz
  1  'x, y, z'
loop_
 _atom_site_type_symbol
 _atom_site_label
 _atom_site_symmetry_multiplicity
 _atom_site_fract_x
 _atom_site_fract_y
 _atom_site_fract_z
 _atom_site_occupancy
  Tb  Tb0  1  0.392734  0.169140  0.809082  1
  Tb  Tb1  1  0.607266  0.830860  0.190918  1
  Tb  Tb2  1  0.733528  0.498919  0.809764  1
  Tb  Tb3  1  0.266472  0.501081  0.190236  1
  Al  Al4  1  0.683625  0.834111  0.945083  1
  Al  Al5  1  0.316375  0.165889  0.054917  1
  Al  Al6  1  0.146027  0.838780  0.562006  1
  Al  Al7  1  0.853973  0.161220  0.437994  1
  Al  Al8  1  0.487463  0.159866  0.559435  1
  Al  Al9  1  0.512537  0.840134  0.440565  1
  Al  Al10  1  0.222620  0.160231  0.327282  1
  Al  Al11  1  0.777380  0.839769  0.672718  1
  Al  Al12  1  0.440830  0.506733  0.672903  1
  Al  Al13  1  0.559170  0.493267  0.327097  1
  Al  Al14  1  0.109594  0.154426  0.671705  1
  Al  Al15  1  0.890406  0.845574  0.328295  1
  Al  Al16  1  0.352496  0.499306  0.944875  1
  Al  Al17  1  0.647504  0.500694  0.055125  1
  Al  Al18  1  0.015218  0.167298  0.953974  1
  Al  Al19  1  0.984782  0.832702  0.046026  1
  Al  Al20  1  0.194823  0.499289  0.437590  1
  Al  Al21  1  0.805177  0.500711  0.562410  1
  Al  Al22  1  0.733001  0.164638  0.183423  1
  Al  Al23  1  0.266999  0.835362  0.816577  1
  Al  Al24  1  0.060420  0.633656  0.817920  1
  Al  Al25  1  0.939580  0.366344  0.182080  1
  Al  Al26  1  0.854681  0.041894  0.816075  1
  Al  Al27  1  0.145319  0.958106  0.183926  1
  Pd  Pd28  1  0.000000  0.500000  0.000000  1
  Pt  Pt29  1  0.657231  0.171551  0.999800  1
  Pt  Pt30  1  0.342769  0.828449  0.000200  1
  Pt  Pt31  1  0.537283  0.166831  0.362657  1
  Pt  Pt32  1  0.462717  0.833169  0.637343  1
  Pt  Pt33  1  0.780180  0.175275  0.636192  1
  Pt  Pt34  1  0.219820  0.824725  0.363808  1
  Au  Au35  1  0.120231  0.491174  0.637735  1
  Au  Au36  1  0.879769  0.508826  0.362265  1
