# generated using pymatgen
data_Hf9ReAsW3
_symmetry_space_group_name_H-M   'P 1'
_cell_length_a   8.70388000
_cell_length_b   8.68348139
_cell_length_c   8.68167779
_cell_angle_alpha   90.04226867
_cell_angle_beta   90.00000000
_cell_angle_gamma   120.07773899
_symmetry_Int_Tables_number   1
_chemical_formula_structural   Hf9ReAsW3
_chemical_formula_sum   'Hf18 Re2 As2 W6'
_cell_volume   567.80625518
_cell_formula_units_Z   2
loop_
 _symmetry_equiv_pos_site_id
 _symmetry_equiv_pos_as_xyz
  1  'x, y, z'
loop_
 _atom_site_type_symbol
 _atom_site_label
 _atom_site_symmetry_multiplicity
 _atom_site_fract_x
 _atom_site_fract_y
 _atom_site_fract_z
 _atom_site_occupancy
  Hf  Hf0  1  0.193560  0.387119  0.047915  1
  Hf  Hf1  1  0.805406  0.610813  0.545247  1
  Hf  Hf2  1  0.612505  0.806190  0.048027  1
  Hf  Hf3  1  0.193686  0.806190  0.048027  1
  Hf  Hf4  1  0.805417  0.195047  0.545976  1
  Hf  Hf5  1  0.389629  0.195047  0.545976  1
  Hf  Hf6  1  0.806622  0.613246  0.954594  1
  Hf  Hf7  1  0.806395  0.194095  0.953323  1
  Hf  Hf8  1  0.387699  0.194095  0.953323  1
  Hf  Hf9  1  0.610472  0.805290  0.452753  1
  Hf  Hf10  1  0.194819  0.805290  0.452753  1
  Hf  Hf11  1  0.194646  0.389292  0.452600  1
  Hf  Hf12  1  0.540384  0.080767  0.249252  1
  Hf  Hf13  1  0.460016  0.920033  0.750786  1
  Hf  Hf14  1  0.918796  0.460110  0.249291  1
  Hf  Hf15  1  0.541315  0.460110  0.249291  1
  Hf  Hf16  1  0.460208  0.540100  0.750882  1
  Hf  Hf17  1  0.079891  0.540100  0.750882  1
  Re  Re18  1  0.999796  0.999593  0.999975  1
  Re  Re19  1  0.889395  0.778791  0.250419  1
  As  As20  1  0.333596  0.667193  0.249157  1
  As  As21  1  0.666928  0.333855  0.750888  1
  W  W22  1  0.999792  0.999584  0.499765  1
  W  W23  1  0.109920  0.219840  0.749660  1
  W  W24  1  0.218951  0.109196  0.249871  1
  W  W25  1  0.890244  0.109196  0.249871  1
  W  W26  1  0.109588  0.889910  0.749747  1
  W  W27  1  0.780321  0.889910  0.749747  1
