# generated using pymatgen
data_Sm2ErTm(B6Os)2
_symmetry_space_group_name_H-M   'P 1'
_cell_length_a   3.66750000
_cell_length_b   9.16918005
_cell_length_c   11.58207006
_cell_angle_alpha   90.01206529
_cell_angle_beta   90.00000000
_cell_angle_gamma   90.00000000
_symmetry_Int_Tables_number   1
_chemical_formula_structural   Sm2ErTm(B6Os)2
_chemical_formula_sum   'Sm4 Er2 Tm2 B24 Os4'
_cell_volume   389.48147096
_cell_formula_units_Z   2
loop_
 _symmetry_equiv_pos_site_id
 _symmetry_equiv_pos_as_xyz
  1  'x, y, z'
loop_
 _atom_site_type_symbol
 _atom_site_label
 _atom_site_symmetry_multiplicity
 _atom_site_fract_x
 _atom_site_fract_y
 _atom_site_fract_z
 _atom_site_occupancy
  Sm  Sm0  1  0.000000  0.321979  0.414089  1
  Sm  Sm1  1  0.000000  0.678021  0.585911  1
  Sm  Sm2  1  0.000000  0.821786  0.085820  1
  Sm  Sm3  1  0.000000  0.178214  0.914180  1
  Er  Er4  1  0.000000  0.944214  0.372579  1
  Er  Er5  1  0.000000  0.055786  0.627422  1
  Tm  Tm6  1  0.000000  0.444313  0.127188  1
  Tm  Tm7  1  0.000000  0.555687  0.872811  1
  B  B8  1  0.500000  0.555301  0.431461  1
  B  B9  1  0.500000  0.444699  0.568539  1
  B  B10  1  0.500000  0.055389  0.068479  1
  B  B11  1  0.500000  0.944611  0.931521  1
  B  B12  1  0.500000  0.749402  0.418231  1
  B  B13  1  0.500000  0.250598  0.581769  1
  B  B14  1  0.500000  0.249808  0.081735  1
  B  B15  1  0.500000  0.750192  0.918265  1
  B  B16  1  0.500000  0.790988  0.266572  1
  B  B17  1  0.500000  0.209012  0.733428  1
  B  B18  1  0.500000  0.291453  0.233290  1
  B  B19  1  0.500000  0.708546  0.766710  1
  B  B20  1  0.500000  0.630528  0.184883  1
  B  B21  1  0.500000  0.369472  0.815117  1
  B  B22  1  0.500000  0.130880  0.314896  1
  B  B23  1  0.500000  0.869120  0.685104  1
  B  B24  1  0.500000  0.984387  0.213842  1
  B  B25  1  0.500000  0.015613  0.786158  1
  B  B26  1  0.500000  0.484119  0.285887  1
  B  B27  1  0.500000  0.515881  0.714113  1
  B  B28  1  0.500000  0.603216  0.028307  1
  B  B29  1  0.500000  0.396784  0.971693  1
  B  B30  1  0.500000  0.103769  0.471553  1
  B  B31  1  0.500000  0.896231  0.528447  1
  Os  Os32  1  0.000000  0.638413  0.319765  1
  Os  Os33  1  0.000000  0.361587  0.680235  1
  Os  Os34  1  0.000000  0.139025  0.179944  1
  Os  Os35  1  0.000000  0.860975  0.820056  1
