# generated using pymatgen
data_Sm2Mg2IrRh
_symmetry_space_group_name_H-M   'P 1'
_cell_length_a   4.16027100
_cell_length_b   7.20085402
_cell_length_c   8.71344100
_cell_angle_alpha   89.09009333
_cell_angle_beta   90.00000000
_cell_angle_gamma   90.00000000
_symmetry_Int_Tables_number   1
_chemical_formula_structural   Sm2Mg2IrRh
_chemical_formula_sum   'Sm4 Mg4 Ir2 Rh2'
_cell_volume   261.00002898
_cell_formula_units_Z   2
loop_
 _symmetry_equiv_pos_site_id
 _symmetry_equiv_pos_as_xyz
  1  'x, y, z'
loop_
 _atom_site_type_symbol
 _atom_site_label
 _atom_site_symmetry_multiplicity
 _atom_site_fract_x
 _atom_site_fract_y
 _atom_site_fract_z
 _atom_site_occupancy
  Sm  Sm0  1  0.250000  0.536793  0.175288  1
  Sm  Sm1  1  0.750000  0.463207  0.824712  1
  Sm  Sm2  1  0.750000  0.957538  0.677869  1
  Sm  Sm3  1  0.250000  0.042462  0.322131  1
  Mg  Mg4  1  0.250000  0.634298  0.557698  1
  Mg  Mg5  1  0.750000  0.365702  0.442302  1
  Mg  Mg6  1  0.750000  0.866053  0.057296  1
  Mg  Mg7  1  0.250000  0.133947  0.942704  1
  Ir  Ir8  1  0.250000  0.753812  0.868666  1
  Ir  Ir9  1  0.750000  0.246188  0.131334  1
  Rh  Rh10  1  0.750000  0.748529  0.371208  1
  Rh  Rh11  1  0.250000  0.251471  0.628792  1
