# generated using pymatgen
data_Y3Ho2P12Ir16W3
_symmetry_space_group_name_H-M   'P 1'
_cell_length_a   12.68745000
_cell_length_b   12.68744999
_cell_length_c   3.99472800
_cell_angle_alpha   90.00000000
_cell_angle_beta   90.00000000
_cell_angle_gamma   120.00000002
_symmetry_Int_Tables_number   1
_chemical_formula_structural   Y3Ho2P12Ir16W3
_chemical_formula_sum   'Y3 Ho2 P12 Ir16 W3'
_cell_volume   556.88629817
_cell_formula_units_Z   1
loop_
 _symmetry_equiv_pos_site_id
 _symmetry_equiv_pos_as_xyz
  1  'x, y, z'
loop_
 _atom_site_type_symbol
 _atom_site_label
 _atom_site_symmetry_multiplicity
 _atom_site_fract_x
 _atom_site_fract_y
 _atom_site_fract_z
 _atom_site_occupancy
  Y  Y0  1  0.000000  0.812726  0.000000  1
  Y  Y1  1  0.187274  0.187274  0.000000  1
  Y  Y2  1  0.812726  0.000000  0.000000  1
  Ho  Ho3  1  0.333333  0.666667  0.500000  1
  Ho  Ho4  1  0.666667  0.333333  0.500000  1
  P  P5  1  0.000000  0.639760  0.500000  1
  P  P6  1  0.360240  0.360240  0.500000  1
  P  P7  1  0.639760  0.000000  0.500000  1
  P  P8  1  0.516074  0.684807  0.000000  1
  P  P9  1  0.315193  0.831267  0.000000  1
  P  P10  1  0.168733  0.483926  0.000000  1
  P  P11  1  0.483926  0.168733  0.000000  1
  P  P12  1  0.684807  0.516074  0.000000  1
  P  P13  1  0.831267  0.315193  0.000000  1
  P  P14  1  0.000000  0.176335  0.500000  1
  P  P15  1  0.823665  0.823665  0.500000  1
  P  P16  1  0.176335  0.000000  0.500000  1
  Ir  Ir17  1  0.507869  0.866052  0.000000  1
  Ir  Ir18  1  0.133948  0.641818  0.000000  1
  Ir  Ir19  1  0.358182  0.492131  0.000000  1
  Ir  Ir20  1  0.492131  0.358182  0.000000  1
  Ir  Ir21  1  0.866052  0.507869  0.000000  1
  Ir  Ir22  1  0.641818  0.133948  0.000000  1
  Ir  Ir23  1  0.000000  0.287901  0.000000  1
  Ir  Ir24  1  0.712099  0.712099  0.000000  1
  Ir  Ir25  1  0.287901  0.000000  0.000000  1
  Ir  Ir26  1  0.625042  0.803276  0.500000  1
  Ir  Ir27  1  0.196724  0.821765  0.500000  1
  Ir  Ir28  1  0.178235  0.374958  0.500000  1
  Ir  Ir29  1  0.374958  0.178235  0.500000  1
  Ir  Ir30  1  0.803276  0.625042  0.500000  1
  Ir  Ir31  1  0.821765  0.196724  0.500000  1
  Ir  Ir32  1  0.000000  0.000000  0.500000  1
  W  W33  1  0.000000  0.454198  0.500000  1
  W  W34  1  0.545802  0.545802  0.500000  1
  W  W35  1  0.454198  0.000000  0.500000  1
