# generated using pymatgen
data_K2Rb2PrUTe6
_symmetry_space_group_name_H-M   'P 1'
_cell_length_a   8.19265414
_cell_length_b   8.19265381
_cell_length_c   8.81617177
_cell_angle_alpha   81.14285697
_cell_angle_beta   81.14285967
_cell_angle_gamma   119.77527050
_symmetry_Int_Tables_number   1
_chemical_formula_structural   K2Rb2PrUTe6
_chemical_formula_sum   'K2 Rb2 Pr1 U1 Te6'
_cell_volume   488.83009598
_cell_formula_units_Z   1
loop_
 _symmetry_equiv_pos_site_id
 _symmetry_equiv_pos_as_xyz
  1  'x, y, z'
loop_
 _atom_site_type_symbol
 _atom_site_label
 _atom_site_symmetry_multiplicity
 _atom_site_fract_x
 _atom_site_fract_y
 _atom_site_fract_z
 _atom_site_occupancy
  K  K0  1  0.000225  0.999775  0.500000  1
  K  K1  1  0.500013  0.499987  0.000000  1
  Rb  Rb2  1  0.344686  0.655314  0.500000  1
  Rb  Rb3  1  0.653141  0.346859  0.500000  1
  Pr  Pr4  1  0.168313  0.831687  0.000000  1
  U  U5  1  0.831917  0.168083  0.000000  1
  Te  Te6  1  0.794029  0.810975  0.206106  1
  Te  Te7  1  0.447846  0.070641  0.208264  1
  Te  Te8  1  0.051772  0.410325  0.208664  1
  Te  Te9  1  0.589675  0.948228  0.791336  1
  Te  Te10  1  0.929359  0.552154  0.791736  1
  Te  Te11  1  0.189025  0.205971  0.793894  1
