# generated using pymatgen
data_Eu4CrW3O14
_symmetry_space_group_name_H-M   'P 1'
_cell_length_a   7.41338092
_cell_length_b   7.41338161
_cell_length_c   7.41338245
_cell_angle_alpha   61.14225380
_cell_angle_beta   61.14225439
_cell_angle_gamma   61.14223954
_symmetry_Int_Tables_number   1
_chemical_formula_structural   Eu4CrW3O14
_chemical_formula_sum   'Eu4 Cr1 W3 O14'
_cell_volume   295.49911711
_cell_formula_units_Z   1
loop_
 _symmetry_equiv_pos_site_id
 _symmetry_equiv_pos_as_xyz
  1  'x, y, z'
loop_
 _atom_site_type_symbol
 _atom_site_label
 _atom_site_symmetry_multiplicity
 _atom_site_fract_x
 _atom_site_fract_y
 _atom_site_fract_z
 _atom_site_occupancy
  Eu  Eu0  1  0.125000  0.125000  0.125000  1
  Eu  Eu1  1  0.625000  0.125000  0.125000  1
  Eu  Eu2  1  0.125000  0.625000  0.125000  1
  Eu  Eu3  1  0.125000  0.125000  0.625000  1
  Cr  Cr4  1  0.625000  0.625000  0.625000  1
  W  W5  1  0.125000  0.625000  0.625000  1
  W  W6  1  0.625000  0.125000  0.625000  1
  W  W7  1  0.625000  0.625000  0.125000  1
  O  O8  1  0.951328  0.545892  0.951328  1
  O  O9  1  0.704108  0.298672  0.298672  1
  O  O10  1  0.300265  0.695736  0.695736  1
  O  O11  1  0.695736  0.300265  0.695736  1
  O  O12  1  0.298672  0.298672  0.704108  1
  O  O13  1  0.695736  0.695736  0.300265  1
  O  O14  1  0.951328  0.951328  0.545892  1
  O  O15  1  0.545892  0.951328  0.951328  1
  O  O16  1  0.949735  0.554264  0.554264  1
  O  O17  1  0.554264  0.554264  0.949735  1
  O  O18  1  0.298672  0.704108  0.298672  1
  O  O19  1  0.554264  0.949735  0.554264  1
  O  O20  1  0.997680  0.997680  0.997680  1
  O  O21  1  0.252320  0.252320  0.252320  1
