# generated using pymatgen
data_NaLaTb3Pr2RuBr12
_symmetry_space_group_name_H-M   'P 1'
_cell_length_a   9.46652247
_cell_length_b   9.36834078
_cell_length_c   9.57236154
_cell_angle_alpha   106.19250164
_cell_angle_beta   107.28916208
_cell_angle_gamma   107.93955729
_symmetry_Int_Tables_number   1
_chemical_formula_structural   NaLaTb3Pr2RuBr12
_chemical_formula_sum   'Na1 La1 Tb3 Pr2 Ru1 Br12'
_cell_volume   704.14322182
_cell_formula_units_Z   1
loop_
 _symmetry_equiv_pos_site_id
 _symmetry_equiv_pos_as_xyz
  1  'x, y, z'
loop_
 _atom_site_type_symbol
 _atom_site_label
 _atom_site_symmetry_multiplicity
 _atom_site_fract_x
 _atom_site_fract_y
 _atom_site_fract_z
 _atom_site_occupancy
  Na  Na0  1  0.500122  0.499288  0.499951  1
  La  La1  1  0.109564  0.305819  0.028024  1
  Tb  Tb2  1  0.317883  0.032810  0.112832  1
  Tb  Tb3  1  0.031071  0.114583  0.325370  1
  Tb  Tb4  1  0.968596  0.884529  0.673860  1
  Pr  Pr5  1  0.674947  0.968454  0.885626  1
  Pr  Pr6  1  0.892931  0.693393  0.973109  1
  Ru  Ru7  1  0.003939  0.013652  0.000636  1
  Br  Br8  1  0.225608  0.693375  0.076492  1
  Br  Br9  1  0.465263  0.366846  0.159395  1
  Br  Br10  1  0.684081  0.072999  0.220340  1
  Br  Br11  1  0.928851  0.788549  0.322833  1
  Br  Br12  1  0.153213  0.450564  0.378442  1
  Br  Br13  1  0.364898  0.147987  0.445919  1
  Br  Br14  1  0.635566  0.844946  0.542634  1
  Br  Br15  1  0.847866  0.549717  0.627327  1
  Br  Br16  1  0.070370  0.207533  0.671704  1
  Br  Br17  1  0.310175  0.927618  0.788737  1
  Br  Br18  1  0.539191  0.620465  0.842382  1
  Br  Br19  1  0.775871  0.316874  0.924386  1
