# generated using pymatgen
data_Er8Tm4InCo4Pt
_symmetry_space_group_name_H-M   'P 1'
_cell_length_a   8.20959231
_cell_length_b   8.20959210
_cell_length_c   8.20959236
_cell_angle_alpha   111.04919714
_cell_angle_beta   110.70479152
_cell_angle_gamma   106.69503053
_symmetry_Int_Tables_number   1
_chemical_formula_structural   Er8Tm4InCo4Pt
_chemical_formula_sum   'Er8 Tm4 In1 Co4 Pt1'
_cell_volume   425.18512142
_cell_formula_units_Z   1
loop_
 _symmetry_equiv_pos_site_id
 _symmetry_equiv_pos_as_xyz
  1  'x, y, z'
loop_
 _atom_site_type_symbol
 _atom_site_label
 _atom_site_symmetry_multiplicity
 _atom_site_fract_x
 _atom_site_fract_y
 _atom_site_fract_z
 _atom_site_occupancy
  Er  Er0  1  0.417111  0.219045  0.198065  1
  Er  Er1  1  0.582889  0.780955  0.801935  1
  Er  Er2  1  0.020982  0.219045  0.801935  1
  Er  Er3  1  0.979018  0.780955  0.198065  1
  Er  Er4  1  0.185538  0.288400  0.473937  1
  Er  Er5  1  0.814462  0.711600  0.526063  1
  Er  Er6  1  0.185538  0.711600  0.897137  1
  Er  Er7  1  0.814462  0.288400  0.102863  1
  Tm  Tm8  1  0.316047  0.622109  0.306062  1
  Tm  Tm9  1  0.683953  0.377891  0.693938  1
  Tm  Tm10  1  0.316047  0.009986  0.693938  1
  Tm  Tm11  1  0.683953  0.990014  0.306062  1
  In  In12  1  0.500000  0.500000  0.000000  1
  Co  Co13  1  0.377155  0.000000  0.377155  1
  Co  Co14  1  0.622845  0.000000  0.622845  1
  Co  Co15  1  0.112409  0.612409  0.500000  1
  Co  Co16  1  0.887591  0.387591  0.500000  1
  Pt  Pt17  1  0.000000  0.000000  0.000000  1
