# generated using pymatgen
data_Sr12Bi3RuO22
_symmetry_space_group_name_H-M   'P 1'
_cell_length_a   6.13359009
_cell_length_b   6.10079556
_cell_length_c   24.29361600
_cell_angle_alpha   58.68076225
_cell_angle_beta   59.12381162
_cell_angle_gamma   60.03476782
_symmetry_Int_Tables_number   1
_chemical_formula_structural   Sr12Bi3RuO22
_chemical_formula_sum   'Sr12 Bi3 Ru1 O22'
_cell_volume   632.07230349
_cell_formula_units_Z   1
loop_
 _symmetry_equiv_pos_site_id
 _symmetry_equiv_pos_as_xyz
  1  'x, y, z'
loop_
 _atom_site_type_symbol
 _atom_site_label
 _atom_site_symmetry_multiplicity
 _atom_site_fract_x
 _atom_site_fract_y
 _atom_site_fract_z
 _atom_site_occupancy
  Sr  Sr0  1  0.116035  0.333875  0.077417  1
  Sr  Sr1  1  0.445430  0.617358  0.106297  1
  Sr  Sr2  1  0.180825  0.358827  0.290827  1
  Sr  Sr3  1  0.362360  0.541927  0.389963  1
  Sr  Sr4  1  0.633416  0.799204  0.204039  1
  Sr  Sr5  1  0.213642  0.234777  0.584689  1
  Sr  Sr6  1  0.506495  0.507552  0.611206  1
  Sr  Sr7  1  0.226070  0.304266  0.788519  1
  Sr  Sr8  1  0.647048  0.858409  0.420626  1
  Sr  Sr9  1  0.460569  0.479589  0.886097  1
  Sr  Sr10  1  0.678329  0.740289  0.709404  1
  Sr  Sr11  1  0.734149  0.772008  0.911284  1
  Bi  Bi12  1  0.004209  0.051755  0.995504  1
  Bi  Bi13  1  0.906304  0.079201  0.248948  1
  Bi  Bi14  1  0.932482  0.965239  0.501053  1
  Ru  Ru15  1  0.964070  0.015156  0.748177  1
  O  O16  1  0.093853  0.394834  0.180927  1
  O  O17  1  0.226652  0.834331  0.189948  1
  O  O18  1  0.809918  0.402231  0.022248  1
  O  O19  1  0.776793  0.819755  0.082462  1
  O  O20  1  0.687454  0.227575  0.183367  1
  O  O21  1  0.588151  0.346184  0.301866  1
  O  O22  1  0.169631  0.187629  0.413462  1
  O  O23  1  0.111689  0.930711  0.317587  1
  O  O24  1  0.731206  0.754359  0.317827  1
  O  O25  1  0.585555  0.166612  0.472015  1
  O  O26  1  0.697583  0.061166  0.589126  1
  O  O27  1  0.140848  0.791199  0.688029  1
  O  O28  1  0.277996  0.697885  0.531015  1
  O  O29  1  0.351862  0.051180  0.996086  1
  O  O30  1  0.930395  0.613851  0.501958  1
  O  O31  1  0.759907  0.322099  0.685507  1
  O  O32  1  0.248844  0.188549  0.695568  1
  O  O33  1  0.781994  0.228848  0.808939  1
  O  O34  1  0.269165  0.704659  0.967067  1
  O  O35  1  0.184308  0.714667  0.808940  1
  O  O36  1  0.661929  0.854154  0.803667  1
  O  O37  1  0.898333  0.279586  0.908562  1
