# generated using pymatgen
data_Ho2TmMg(GaPt)4
_symmetry_space_group_name_H-M   'P 1'
_cell_length_a   4.32870500
_cell_length_b   6.83193566
_cell_length_c   7.74145378
_cell_angle_alpha   85.95350943
_cell_angle_beta   90.00000000
_cell_angle_gamma   90.00000000
_symmetry_Int_Tables_number   1
_chemical_formula_structural   Ho2TmMg(GaPt)4
_chemical_formula_sum   'Ho2 Tm1 Mg1 Ga4 Pt4'
_cell_volume   228.37064930
_cell_formula_units_Z   1
loop_
 _symmetry_equiv_pos_site_id
 _symmetry_equiv_pos_as_xyz
  1  'x, y, z'
loop_
 _atom_site_type_symbol
 _atom_site_label
 _atom_site_symmetry_multiplicity
 _atom_site_fract_x
 _atom_site_fract_y
 _atom_site_fract_z
 _atom_site_occupancy
  Ho  Ho0  1  0.250000  0.523108  0.690628  1
  Ho  Ho1  1  0.750000  0.472058  0.311512  1
  Tm  Tm2  1  0.750000  0.979472  0.178273  1
  Mg  Mg3  1  0.250000  0.023280  0.819784  1
  Ga  Ga4  1  0.250000  0.149037  0.441151  1
  Ga  Ga5  1  0.250000  0.665560  0.063978  1
  Ga  Ga6  1  0.750000  0.845016  0.565314  1
  Ga  Ga7  1  0.750000  0.345127  0.930318  1
  Pt  Pt8  1  0.250000  0.771231  0.378267  1
  Pt  Pt9  1  0.250000  0.272290  0.110125  1
  Pt  Pt10  1  0.750000  0.217823  0.623646  1
  Pt  Pt11  1  0.750000  0.735998  0.887006  1
