# generated using pymatgen
data_La6Cr3WC12
_symmetry_space_group_name_H-M   'P 1'
_cell_length_a   8.43193000
_cell_length_b   8.43193036
_cell_length_c   5.33144000
_cell_angle_alpha   90.00000000
_cell_angle_beta   90.00000000
_cell_angle_gamma   119.99999858
_symmetry_Int_Tables_number   1
_chemical_formula_structural   La6Cr3WC12
_chemical_formula_sum   'La6 Cr3 W1 C12'
_cell_volume   328.26846733
_cell_formula_units_Z   1
loop_
 _symmetry_equiv_pos_site_id
 _symmetry_equiv_pos_as_xyz
  1  'x, y, z'
loop_
 _atom_site_type_symbol
 _atom_site_label
 _atom_site_symmetry_multiplicity
 _atom_site_fract_x
 _atom_site_fract_y
 _atom_site_fract_z
 _atom_site_occupancy
  La  La0  1  0.611018  0.688548  0.750737  1
  La  La1  1  0.922470  0.611018  0.249263  1
  La  La2  1  0.688548  0.077530  0.249263  1
  La  La3  1  0.311452  0.922470  0.750737  1
  La  La4  1  0.077530  0.388982  0.750737  1
  La  La5  1  0.388982  0.311452  0.249263  1
  Cr  Cr6  1  0.000000  0.000000  0.000000  1
  Cr  Cr7  1  0.666667  0.333333  0.750349  1
  Cr  Cr8  1  0.333333  0.666667  0.249651  1
  W  W9  1  0.000000  0.000000  0.500000  1
  C  C10  1  0.950637  0.768324  0.746676  1
  C  C11  1  0.182312  0.950637  0.253324  1
  C  C12  1  0.768324  0.817688  0.253324  1
  C  C13  1  0.231676  0.182312  0.746676  1
  C  C14  1  0.817688  0.049363  0.746676  1
  C  C15  1  0.049363  0.231676  0.253324  1
  C  C16  1  0.853011  0.578322  0.750985  1
  C  C17  1  0.274688  0.853011  0.249015  1
  C  C18  1  0.578322  0.725312  0.249015  1
  C  C19  1  0.421678  0.274688  0.750985  1
  C  C20  1  0.146989  0.421678  0.249015  1
  C  C21  1  0.725312  0.146989  0.750985  1
