# generated using pymatgen
data_PrNd9(Al2Ru3)2
_symmetry_space_group_name_H-M   'P 1'
_cell_length_a   8.56636442
_cell_length_b   8.56841675
_cell_length_c   8.56636403
_cell_angle_alpha   109.47607150
_cell_angle_beta   109.46636042
_cell_angle_gamma   109.47608621
_symmetry_Int_Tables_number   1
_chemical_formula_structural   PrNd9(Al2Ru3)2
_chemical_formula_sum   'Pr1 Nd9 Al4 Ru6'
_cell_volume   484.00040861
_cell_formula_units_Z   1
loop_
 _symmetry_equiv_pos_site_id
 _symmetry_equiv_pos_as_xyz
  1  'x, y, z'
loop_
 _atom_site_type_symbol
 _atom_site_label
 _atom_site_symmetry_multiplicity
 _atom_site_fract_x
 _atom_site_fract_y
 _atom_site_fract_z
 _atom_site_occupancy
  Pr  Pr0  1  0.000000  0.284133  0.500000  1
  Nd  Nd1  1  0.250324  0.684007  0.433437  1
  Nd  Nd2  1  0.749699  0.815943  0.065998  1
  Nd  Nd3  1  0.434002  0.249945  0.683700  1
  Nd  Nd4  1  0.683112  0.433682  0.249676  1
  Nd  Nd5  1  0.066563  0.750570  0.816888  1
  Nd  Nd6  1  0.816300  0.066245  0.750301  1
  Nd  Nd7  1  0.215104  0.214701  0.214526  1
  Nd  Nd8  1  0.499422  0.999597  0.284896  1
  Nd  Nd9  1  0.285474  0.500175  0.000578  1
  Al  Al10  1  0.589237  0.589197  0.589191  1
  Al  Al11  1  0.499954  0.999960  0.910763  1
  Al  Al12  1  0.910809  0.500006  0.000046  1
  Al  Al13  1  0.000000  0.909999  0.500000  1
  Ru  Ru14  1  0.249940  0.118346  0.868545  1
  Ru  Ru15  1  0.749113  0.382119  0.631955  1
  Ru  Ru16  1  0.868044  0.250164  0.117158  1
  Ru  Ru17  1  0.118605  0.868405  0.250060  1
  Ru  Ru18  1  0.631455  0.749801  0.381395  1
  Ru  Ru19  1  0.382842  0.633006  0.750887  1
