# generated using pymatgen
data_Nd6Al2SiSe14
_symmetry_space_group_name_H-M   'P 1'
_cell_length_a   10.54464100
_cell_length_b   10.54464127
_cell_length_c   6.22843000
_cell_angle_alpha   90.00000000
_cell_angle_beta   90.00000000
_cell_angle_gamma   120.00000773
_symmetry_Int_Tables_number   1
_chemical_formula_structural   Nd6Al2SiSe14
_chemical_formula_sum   'Nd6 Al2 Si1 Se14'
_cell_volume   599.75350357
_cell_formula_units_Z   1
loop_
 _symmetry_equiv_pos_site_id
 _symmetry_equiv_pos_as_xyz
  1  'x, y, z'
loop_
 _atom_site_type_symbol
 _atom_site_label
 _atom_site_symmetry_multiplicity
 _atom_site_fract_x
 _atom_site_fract_y
 _atom_site_fract_z
 _atom_site_occupancy
  Nd  Nd0  1  0.804777  0.698164  0.521423  1
  Nd  Nd1  1  0.893387  0.195223  0.521423  1
  Nd  Nd2  1  0.301836  0.106613  0.521423  1
  Nd  Nd3  1  0.520887  0.965474  0.041995  1
  Nd  Nd4  1  0.444587  0.479113  0.041995  1
  Nd  Nd5  1  0.034526  0.555413  0.041995  1
  Al  Al6  1  0.666667  0.333333  0.321538  1
  Al  Al7  1  0.333333  0.666667  0.449388  1
  Si  Si8  1  0.000000  0.000000  0.942005  1
  Se  Se9  1  0.000000  0.000000  0.308257  1
  Se  Se10  1  0.333333  0.666667  0.829246  1
  Se  Se11  1  0.084873  0.854748  0.798076  1
  Se  Se12  1  0.769874  0.915127  0.798076  1
  Se  Se13  1  0.145252  0.230126  0.798076  1
  Se  Se14  1  0.238728  0.813943  0.301547  1
  Se  Se15  1  0.575214  0.761272  0.301547  1
  Se  Se16  1  0.186057  0.424786  0.301547  1
  Se  Se17  1  0.910418  0.484778  0.549181  1
  Se  Se18  1  0.574361  0.089582  0.549181  1
  Se  Se19  1  0.515222  0.425639  0.549181  1
  Se  Se20  1  0.430214  0.192757  0.084971  1
  Se  Se21  1  0.762543  0.569786  0.084971  1
  Se  Se22  1  0.807243  0.237457  0.084971  1
