# generated using pymatgen
data_HoTh3(ReC2)2
_symmetry_space_group_name_H-M   'P 1'
_cell_length_a   5.31810800
_cell_length_b   6.68052900
_cell_length_c   10.00182600
_cell_angle_alpha   90.00000000
_cell_angle_beta   90.00000000
_cell_angle_gamma   90.00000000
_symmetry_Int_Tables_number   1
_chemical_formula_structural   HoTh3(ReC2)2
_chemical_formula_sum   'Ho2 Th6 Re4 C8'
_cell_volume   355.34262091
_cell_formula_units_Z   2
loop_
 _symmetry_equiv_pos_site_id
 _symmetry_equiv_pos_as_xyz
  1  'x, y, z'
loop_
 _atom_site_type_symbol
 _atom_site_label
 _atom_site_symmetry_multiplicity
 _atom_site_fract_x
 _atom_site_fract_y
 _atom_site_fract_z
 _atom_site_occupancy
  Ho  Ho0  1  0.250000  0.319937  0.445920  1
  Ho  Ho1  1  0.750000  0.180063  0.945920  1
  Th  Th2  1  0.250000  0.468662  0.781147  1
  Th  Th3  1  0.750000  0.031338  0.281147  1
  Th  Th4  1  0.250000  0.975308  0.718667  1
  Th  Th5  1  0.750000  0.524692  0.218667  1
  Th  Th6  1  0.250000  0.815396  0.047791  1
  Th  Th7  1  0.750000  0.684604  0.547791  1
  Re  Re8  1  0.250000  0.272312  0.137359  1
  Re  Re9  1  0.750000  0.227688  0.637359  1
  Re  Re10  1  0.250000  0.771380  0.363388  1
  Re  Re11  1  0.750000  0.728620  0.863388  1
  C  C12  1  0.250000  0.170150  0.948076  1
  C  C13  1  0.750000  0.833583  0.052639  1
  C  C14  1  0.250000  0.666417  0.552639  1
  C  C15  1  0.750000  0.329850  0.448076  1
  C  C16  1  0.250000  0.038571  0.261372  1
  C  C17  1  0.750000  0.461429  0.761372  1
  C  C18  1  0.250000  0.533123  0.243641  1
  C  C19  1  0.750000  0.966877  0.743641  1
