# generated using pymatgen
data_Ho2Ga9PdRu2
_symmetry_space_group_name_H-M   'P 1'
_cell_length_a   7.54364740
_cell_length_b   7.54364690
_cell_length_c   9.63585500
_cell_angle_alpha   90.00000000
_cell_angle_beta   90.00000000
_cell_angle_gamma   119.61061464
_symmetry_Int_Tables_number   1
_chemical_formula_structural   Ho2Ga9PdRu2
_chemical_formula_sum   'Ho4 Ga18 Pd2 Ru4'
_cell_volume   476.73202435
_cell_formula_units_Z   2
loop_
 _symmetry_equiv_pos_site_id
 _symmetry_equiv_pos_as_xyz
  1  'x, y, z'
loop_
 _atom_site_type_symbol
 _atom_site_label
 _atom_site_symmetry_multiplicity
 _atom_site_fract_x
 _atom_site_fract_y
 _atom_site_fract_z
 _atom_site_occupancy
  Ho  Ho0  1  0.997504  0.670470  0.250000  1
  Ho  Ho1  1  0.002496  0.329530  0.750000  1
  Ho  Ho2  1  0.670470  0.997504  0.250000  1
  Ho  Ho3  1  0.329530  0.002496  0.750000  1
  Ga  Ga4  1  0.130107  0.130107  0.250000  1
  Ga  Ga5  1  0.869893  0.869893  0.750000  1
  Ga  Ga6  1  0.003521  0.339172  0.079619  1
  Ga  Ga7  1  0.996479  0.660828  0.920381  1
  Ga  Ga8  1  0.996479  0.660828  0.579619  1
  Ga  Ga9  1  0.339172  0.003521  0.420381  1
  Ga  Ga10  1  0.003521  0.339172  0.420381  1
  Ga  Ga11  1  0.660828  0.996479  0.579619  1
  Ga  Ga12  1  0.660828  0.996479  0.920381  1
  Ga  Ga13  1  0.339172  0.003521  0.079619  1
  Ga  Ga14  1  0.341220  0.341220  0.564909  1
  Ga  Ga15  1  0.658780  0.658780  0.435091  1
  Ga  Ga16  1  0.658780  0.658780  0.064909  1
  Ga  Ga17  1  0.341220  0.341220  0.935091  1
  Ga  Ga18  1  0.335945  0.550172  0.250000  1
  Ga  Ga19  1  0.664055  0.449828  0.750000  1
  Ga  Ga20  1  0.550172  0.335945  0.250000  1
  Ga  Ga21  1  0.449828  0.664055  0.750000  1
  Pd  Pd22  1  0.000000  0.000000  0.000000  1
  Pd  Pd23  1  0.000000  0.000000  0.500000  1
  Ru  Ru24  1  0.674123  0.325877  0.000000  1
  Ru  Ru25  1  0.325877  0.674123  0.000000  1
  Ru  Ru26  1  0.325877  0.674123  0.500000  1
  Ru  Ru27  1  0.674123  0.325877  0.500000  1
