# generated using pymatgen
data_Er11Tm9(IrRh3)3
_symmetry_space_group_name_H-M   'P 1'
_cell_length_a   10.77684871
_cell_length_b   10.77551793
_cell_length_c   6.30840811
_cell_angle_alpha   90.00204976
_cell_angle_beta   90.00579106
_cell_angle_gamma   89.86112043
_symmetry_Int_Tables_number   1
_chemical_formula_structural   Er11Tm9(IrRh3)3
_chemical_formula_sum   'Er11 Tm9 Ir3 Rh9'
_cell_volume   732.56884107
_cell_formula_units_Z   1
loop_
 _symmetry_equiv_pos_site_id
 _symmetry_equiv_pos_as_xyz
  1  'x, y, z'
loop_
 _atom_site_type_symbol
 _atom_site_label
 _atom_site_symmetry_multiplicity
 _atom_site_fract_x
 _atom_site_fract_y
 _atom_site_fract_z
 _atom_site_occupancy
  Er  Er0  1  0.290685  0.089257  0.377460  1
  Er  Er1  1  0.291049  0.910502  0.877257  1
  Er  Er2  1  0.709075  0.087815  0.877092  1
  Er  Er3  1  0.709028  0.910436  0.377061  1
  Er  Er4  1  0.587019  0.789616  0.878193  1
  Er  Er5  1  0.586495  0.209325  0.376987  1
  Er  Er6  1  0.413247  0.790174  0.377480  1
  Er  Er7  1  0.411078  0.209419  0.878179  1
  Er  Er8  1  0.210013  0.413194  0.621672  1
  Er  Er9  1  0.209570  0.586651  0.122474  1
  Er  Er10  1  0.790957  0.413710  0.122949  1
  Tm  Tm11  1  0.790921  0.588835  0.621549  1
  Tm  Tm12  1  0.910861  0.708987  0.122304  1
  Tm  Tm13  1  0.912416  0.291289  0.622624  1
  Tm  Tm14  1  0.089146  0.708645  0.622477  1
  Tm  Tm15  1  0.089293  0.291282  0.122753  1
  Tm  Tm16  1  0.999775  0.999977  0.499909  1
  Tm  Tm17  1  0.000027  0.000181  0.000323  1
  Tm  Tm18  1  0.499935  0.499855  0.999881  1
  Tm  Tm19  1  0.500299  0.500170  0.500301  1
  Ir  Ir20  1  0.654751  0.653331  0.250226  1
  Ir  Ir21  1  0.346330  0.345634  0.249828  1
  Ir  Ir22  1  0.345350  0.654390  0.749800  1
  Rh  Rh23  1  0.846363  0.154240  0.250354  1
  Rh  Rh24  1  0.846943  0.846792  0.750365  1
  Rh  Rh25  1  0.152379  0.153566  0.750122  1
  Rh  Rh26  1  0.152852  0.846549  0.250334  1
  Rh  Rh27  1  0.655223  0.345320  0.749711  1
  Rh  Rh28  1  0.500208  0.000490  0.122937  1
  Rh  Rh29  1  0.500305  0.000632  0.623597  1
  Rh  Rh30  1  0.999155  0.499829  0.876326  1
  Rh  Rh31  1  0.999249  0.499907  0.377475  1
