# generated using pymatgen
data_Tb3ErAl18ZnIr5
_symmetry_space_group_name_H-M   'P 1'
_cell_length_a   7.58557439
_cell_length_b   7.58531331
_cell_length_c   9.45520813
_cell_angle_alpha   90.03868235
_cell_angle_beta   90.00963757
_cell_angle_gamma   119.59500411
_symmetry_Int_Tables_number   1
_chemical_formula_structural   Tb3ErAl18ZnIr5
_chemical_formula_sum   'Tb3 Er1 Al18 Zn1 Ir5'
_cell_volume   473.06572289
_cell_formula_units_Z   1
loop_
 _symmetry_equiv_pos_site_id
 _symmetry_equiv_pos_as_xyz
  1  'x, y, z'
loop_
 _atom_site_type_symbol
 _atom_site_label
 _atom_site_symmetry_multiplicity
 _atom_site_fract_x
 _atom_site_fract_y
 _atom_site_fract_z
 _atom_site_occupancy
  Tb  Tb0  1  0.005015  0.325852  0.750435  1
  Tb  Tb1  1  0.674345  0.994976  0.249552  1
  Tb  Tb2  1  0.325710  0.005023  0.750434  1
  Er  Er3  1  0.994969  0.674279  0.249805  1
  Al  Al4  1  0.134651  0.134379  0.256189  1
  Al  Al5  1  0.865222  0.865142  0.743739  1
  Al  Al6  1  0.001860  0.344622  0.079347  1
  Al  Al7  1  0.998120  0.655868  0.921298  1
  Al  Al8  1  0.000774  0.664825  0.571282  1
  Al  Al9  1  0.334730  0.998802  0.428063  1
  Al  Al10  1  0.999208  0.335477  0.428115  1
  Al  Al11  1  0.664867  0.000796  0.571625  1
  Al  Al12  1  0.655751  0.998103  0.920998  1
  Al  Al13  1  0.343740  0.001501  0.079267  1
  Al  Al14  1  0.333054  0.333035  0.551213  1
  Al  Al15  1  0.667301  0.666954  0.448453  1
  Al  Al16  1  0.658172  0.657804  0.059513  1
  Al  Al17  1  0.342266  0.342237  0.940832  1
  Al  Al18  1  0.338249  0.549782  0.251469  1
  Al  Al19  1  0.661515  0.450315  0.748532  1
  Al  Al20  1  0.550174  0.338868  0.251480  1
  Al  Al21  1  0.450326  0.661484  0.748525  1
  Zn  Zn22  1  0.000031  0.999952  0.000036  1
  Ir  Ir23  1  0.671875  0.328476  0.000206  1
  Ir  Ir24  1  0.328122  0.671634  0.000206  1
  Ir  Ir25  1  0.328493  0.671411  0.499836  1
  Ir  Ir26  1  0.671536  0.328729  0.499779  1
  Ir  Ir27  1  0.999926  0.999675  0.499771  1
