# generated using pymatgen
data_Nd2Al2IrRh
_symmetry_space_group_name_H-M   'P 1'
_cell_length_a   4.31777000
_cell_length_b   7.08706341
_cell_length_c   8.08694983
_cell_angle_alpha   90.69017227
_cell_angle_beta   90.00000000
_cell_angle_gamma   90.00000000
_symmetry_Int_Tables_number   1
_chemical_formula_structural   Nd2Al2IrRh
_chemical_formula_sum   'Nd4 Al4 Ir2 Rh2'
_cell_volume   247.44521658
_cell_formula_units_Z   2
loop_
 _symmetry_equiv_pos_site_id
 _symmetry_equiv_pos_as_xyz
  1  'x, y, z'
loop_
 _atom_site_type_symbol
 _atom_site_label
 _atom_site_symmetry_multiplicity
 _atom_site_fract_x
 _atom_site_fract_y
 _atom_site_fract_z
 _atom_site_occupancy
  Nd  Nd0  1  0.250000  0.533377  0.181582  1
  Nd  Nd1  1  0.750000  0.466623  0.818418  1
  Nd  Nd2  1  0.750000  0.964890  0.681583  1
  Nd  Nd3  1  0.250000  0.035110  0.318417  1
  Al  Al4  1  0.250000  0.635862  0.563209  1
  Al  Al5  1  0.750000  0.364138  0.436791  1
  Al  Al6  1  0.750000  0.864288  0.059806  1
  Al  Al7  1  0.250000  0.135712  0.940194  1
  Ir  Ir8  1  0.250000  0.773623  0.882316  1
  Ir  Ir9  1  0.750000  0.226377  0.117684  1
  Rh  Rh10  1  0.750000  0.726526  0.385202  1
  Rh  Rh11  1  0.250000  0.273474  0.614798  1
