# generated using pymatgen
data_Rb3Cu2(Tc2P3)2
_symmetry_space_group_name_H-M   'P 1'
_cell_length_a   9.39932768
_cell_length_b   9.39932652
_cell_length_c   9.39932730
_cell_angle_alpha   155.98211876
_cell_angle_beta   82.85114359
_cell_angle_gamma   102.18267073
_symmetry_Int_Tables_number   1
_chemical_formula_structural   Rb3Cu2(Tc2P3)2
_chemical_formula_sum   'Rb3 Cu2 Tc4 P6'
_cell_volume   325.47526973
_cell_formula_units_Z   1
loop_
 _symmetry_equiv_pos_site_id
 _symmetry_equiv_pos_as_xyz
  1  'x, y, z'
loop_
 _atom_site_type_symbol
 _atom_site_label
 _atom_site_symmetry_multiplicity
 _atom_site_fract_x
 _atom_site_fract_y
 _atom_site_fract_z
 _atom_site_occupancy
  Rb  Rb0  1  0.339112  0.339112  0.000000  1
  Rb  Rb1  1  0.666237  0.666237  0.000000  1
  Rb  Rb2  1  0.994685  0.994685  0.000000  1
  Cu  Cu3  1  0.409529  0.166695  0.242835  1
  Cu  Cu4  1  0.923859  0.166695  0.757165  1
  Tc  Tc5  1  0.572755  0.826329  0.746426  1
  Tc  Tc6  1  0.252726  0.506931  0.745795  1
  Tc  Tc7  1  0.761136  0.506931  0.254205  1
  Tc  Tc8  1  0.079904  0.826329  0.253574  1
  P  P9  1  0.317649  0.666880  0.650768  1
  P  P10  1  0.677059  0.337126  0.339933  1
  P  P11  1  0.997193  0.337126  0.660067  1
  P  P12  1  0.335301  0.996022  0.339279  1
  P  P13  1  0.016113  0.666880  0.349232  1
  P  P14  1  0.656742  0.996022  0.660721  1
