# generated using pymatgen
data_Y3Fe(P3Ir4)2
_symmetry_space_group_name_H-M   'P 1'
_cell_length_a   3.95818900
_cell_length_b   11.21289700
_cell_length_c   12.70507600
_cell_angle_alpha   90.00000000
_cell_angle_beta   90.00000000
_cell_angle_gamma   90.00000000
_symmetry_Int_Tables_number   1
_chemical_formula_structural   Y3Fe(P3Ir4)2
_chemical_formula_sum   'Y6 Fe2 P12 Ir16'
_cell_volume   563.88640957
_cell_formula_units_Z   2
loop_
 _symmetry_equiv_pos_site_id
 _symmetry_equiv_pos_as_xyz
  1  'x, y, z'
loop_
 _atom_site_type_symbol
 _atom_site_label
 _atom_site_symmetry_multiplicity
 _atom_site_fract_x
 _atom_site_fract_y
 _atom_site_fract_z
 _atom_site_occupancy
  Y  Y0  1  0.000000  0.500000  0.521912  1
  Y  Y1  1  0.500000  0.000000  0.478088  1
  Y  Y2  1  0.500000  0.819923  0.200712  1
  Y  Y3  1  0.500000  0.180077  0.200712  1
  Y  Y4  1  0.000000  0.680077  0.799288  1
  Y  Y5  1  0.000000  0.319923  0.799288  1
  Fe  Fe6  1  0.000000  0.500000  0.995985  1
  Fe  Fe7  1  0.500000  0.000000  0.004015  1
  P  P8  1  0.500000  0.500000  0.881894  1
  P  P9  1  0.000000  0.000000  0.118106  1
  P  P10  1  0.500000  0.500000  0.354775  1
  P  P11  1  0.000000  0.000000  0.645225  1
  P  P12  1  0.500000  0.315397  0.619567  1
  P  P13  1  0.500000  0.684603  0.619567  1
  P  P14  1  0.000000  0.184603  0.380433  1
  P  P15  1  0.000000  0.815397  0.380433  1
  P  P16  1  0.500000  0.846186  0.896473  1
  P  P17  1  0.500000  0.153814  0.896473  1
  P  P18  1  0.000000  0.653814  0.103527  1
  P  P19  1  0.000000  0.346186  0.103527  1
  Ir  Ir20  1  0.500000  0.500000  0.171706  1
  Ir  Ir21  1  0.000000  0.000000  0.828294  1
  Ir  Ir22  1  0.500000  0.500000  0.701190  1
  Ir  Ir23  1  0.000000  0.000000  0.298810  1
  Ir  Ir24  1  0.500000  0.337524  0.992885  1
  Ir  Ir25  1  0.500000  0.662476  0.992885  1
  Ir  Ir26  1  0.000000  0.162476  0.007115  1
  Ir  Ir27  1  0.000000  0.837524  0.007115  1
  Ir  Ir28  1  0.500000  0.294160  0.429072  1
  Ir  Ir29  1  0.500000  0.705840  0.429072  1
  Ir  Ir30  1  0.000000  0.205840  0.570928  1
  Ir  Ir31  1  0.000000  0.794160  0.570928  1
  Ir  Ir32  1  0.500000  0.870562  0.715286  1
  Ir  Ir33  1  0.500000  0.129438  0.715286  1
  Ir  Ir34  1  0.000000  0.629438  0.284714  1
  Ir  Ir35  1  0.000000  0.370562  0.284714  1
