# generated using pymatgen
data_Sm2HoTeAs2
_symmetry_space_group_name_H-M   'P 1'
_cell_length_a   4.23519400
_cell_length_b   10.53161881
_cell_length_c   7.32291294
_cell_angle_alpha   89.80890627
_cell_angle_beta   90.00000000
_cell_angle_gamma   90.00000000
_symmetry_Int_Tables_number   1
_chemical_formula_structural   Sm2HoTeAs2
_chemical_formula_sum   'Sm4 Ho2 Te2 As4'
_cell_volume   326.62535571
_cell_formula_units_Z   2
loop_
 _symmetry_equiv_pos_site_id
 _symmetry_equiv_pos_as_xyz
  1  'x, y, z'
loop_
 _atom_site_type_symbol
 _atom_site_label
 _atom_site_symmetry_multiplicity
 _atom_site_fract_x
 _atom_site_fract_y
 _atom_site_fract_z
 _atom_site_occupancy
  Sm  Sm0  1  0.250000  0.804568  0.916440  1
  Sm  Sm1  1  0.750000  0.195432  0.083560  1
  Sm  Sm2  1  0.750000  0.802452  0.417429  1
  Sm  Sm3  1  0.250000  0.197548  0.582571  1
  Ho  Ho4  1  0.250000  0.500454  0.249003  1
  Ho  Ho5  1  0.750000  0.499546  0.750997  1
  Te  Te6  1  0.750000  0.000666  0.748599  1
  Te  Te7  1  0.250000  0.999334  0.251401  1
  As  As8  1  0.250000  0.653021  0.584547  1
  As  As9  1  0.750000  0.346979  0.415453  1
  As  As10  1  0.750000  0.654278  0.083152  1
  As  As11  1  0.250000  0.345722  0.916848  1
