# generated using pymatgen
data_CePa(Al5Tc)4
_symmetry_space_group_name_H-M   'P 1'
_cell_length_a   6.89768278
_cell_length_b   6.89768212
_cell_length_c   9.18753900
_cell_angle_alpha   90.00000000
_cell_angle_beta   90.00000000
_cell_angle_gamma   97.28429991
_symmetry_Int_Tables_number   1
_chemical_formula_structural   CePa(Al5Tc)4
_chemical_formula_sum   'Ce1 Pa1 Al20 Tc4'
_cell_volume   433.59700549
_cell_formula_units_Z   1
loop_
 _symmetry_equiv_pos_site_id
 _symmetry_equiv_pos_as_xyz
  1  'x, y, z'
loop_
 _atom_site_type_symbol
 _atom_site_label
 _atom_site_symmetry_multiplicity
 _atom_site_fract_x
 _atom_site_fract_y
 _atom_site_fract_z
 _atom_site_occupancy
  Ce  Ce0  1  0.126095  0.873905  0.250000  1
  Pa  Pa1  1  0.871193  0.128807  0.750000  1
  Al  Al2  1  0.406690  0.136905  0.750000  1
  Al  Al3  1  0.136805  0.404907  0.250000  1
  Al  Al4  1  0.595093  0.863195  0.250000  1
  Al  Al5  1  0.863095  0.593310  0.750000  1
  Al  Al6  1  0.523095  0.781644  0.750000  1
  Al  Al7  1  0.781674  0.523304  0.250000  1
  Al  Al8  1  0.476696  0.218326  0.250000  1
  Al  Al9  1  0.218356  0.476905  0.750000  1
  Al  Al10  1  0.841151  0.158849  0.400519  1
  Al  Al11  1  0.155313  0.844687  0.600240  1
  Al  Al12  1  0.841151  0.158849  0.099481  1
  Al  Al13  1  0.155313  0.844687  0.899760  1
  Al  Al14  1  0.622014  0.377986  0.950031  1
  Al  Al15  1  0.377007  0.622993  0.042577  1
  Al  Al16  1  0.622014  0.377986  0.549969  1
  Al  Al17  1  0.377007  0.622993  0.457423  1
  Al  Al18  1  0.774666  0.772605  0.999535  1
  Al  Al19  1  0.774666  0.772605  0.500465  1
  Al  Al20  1  0.227395  0.225334  0.999535  1
  Al  Al21  1  0.227395  0.225334  0.500465  1
  Tc  Tc22  1  0.503437  0.000378  0.998017  1
  Tc  Tc23  1  0.999622  0.496563  0.998017  1
  Tc  Tc24  1  0.503437  0.000378  0.501983  1
  Tc  Tc25  1  0.999622  0.496563  0.501983  1
