# generated using pymatgen
data_Tb6Dy4(SnSb)3
_symmetry_space_group_name_H-M   'P 1'
_cell_length_a   6.42088000
_cell_length_b   9.02079021
_cell_length_c   9.02077000
_cell_angle_alpha   120.00008239
_cell_angle_beta   89.99989276
_cell_angle_gamma   90.00020457
_symmetry_Int_Tables_number   1
_chemical_formula_structural   Tb6Dy4(SnSb)3
_chemical_formula_sum   'Tb6 Dy4 Sn3 Sb3'
_cell_volume   452.49420060
_cell_formula_units_Z   1
loop_
 _symmetry_equiv_pos_site_id
 _symmetry_equiv_pos_as_xyz
  1  'x, y, z'
loop_
 _atom_site_type_symbol
 _atom_site_label
 _atom_site_symmetry_multiplicity
 _atom_site_fract_x
 _atom_site_fract_y
 _atom_site_fract_z
 _atom_site_occupancy
  Tb  Tb0  1  0.749998  0.241714  0.000000  1
  Tb  Tb1  1  0.750001  0.758280  0.758271  1
  Tb  Tb2  1  0.750001  0.000010  0.241729  1
  Tb  Tb3  1  0.249998  0.757796  0.000000  1
  Tb  Tb4  1  0.250001  0.242214  0.242221  1
  Tb  Tb5  1  0.250001  0.999993  0.757779  1
  Dy  Dy6  1  0.500620  0.333336  0.666680  1
  Dy  Dy7  1  0.500620  0.666656  0.333320  1
  Dy  Dy8  1  0.999381  0.666658  0.333323  1
  Dy  Dy9  1  0.999381  0.333335  0.666677  1
  Sn  Sn10  1  0.750001  0.607233  0.000000  1
  Sn  Sn11  1  0.750000  0.392805  0.392810  1
  Sn  Sn12  1  0.750000  0.999995  0.607190  1
  Sb  Sb13  1  0.249990  0.391447  0.000000  1
  Sb  Sb14  1  0.250005  0.608535  0.608542  1
  Sb  Sb15  1  0.250005  0.999994  0.391458  1
