# generated using pymatgen
data_La8Y11PaIr16
_symmetry_space_group_name_H-M   'P 1'
_cell_length_a   7.57643497
_cell_length_b   7.65670869
_cell_length_c   14.74211000
_cell_angle_alpha   89.71563423
_cell_angle_beta   90.29137168
_cell_angle_gamma   89.85684474
_symmetry_Int_Tables_number   1
_chemical_formula_structural   La8Y11PaIr16
_chemical_formula_sum   'La8 Y11 Pa1 Ir16'
_cell_volume   855.17367487
_cell_formula_units_Z   1
loop_
 _symmetry_equiv_pos_site_id
 _symmetry_equiv_pos_as_xyz
  1  'x, y, z'
loop_
 _atom_site_type_symbol
 _atom_site_label
 _atom_site_symmetry_multiplicity
 _atom_site_fract_x
 _atom_site_fract_y
 _atom_site_fract_z
 _atom_site_occupancy
  La  La0  1  0.487847  0.316652  0.906238  1
  La  La1  1  0.989708  0.182487  0.593342  1
  La  La2  1  0.512287  0.681243  0.405376  1
  La  La3  1  0.010136  0.824226  0.095663  1
  La  La4  1  0.506562  0.682665  0.096987  1
  La  La5  1  0.012466  0.817836  0.405377  1
  La  La6  1  0.486857  0.316412  0.591338  1
  La  La7  1  0.993211  0.175950  0.905180  1
  Y  Y8  1  0.342998  0.832251  0.879273  1
  Y  Y9  1  0.840399  0.668506  0.622923  1
  Y  Y10  1  0.660422  0.170300  0.376272  1
  Y  Y11  1  0.156742  0.333961  0.121643  1
  Y  Y12  1  0.657426  0.169555  0.121565  1
  Y  Y13  1  0.159134  0.331334  0.376827  1
  Y  Y14  1  0.340818  0.832225  0.623709  1
  Y  Y15  1  0.182725  0.495019  0.748841  1
  Y  Y16  1  0.674079  0.005107  0.748479  1
  Y  Y17  1  0.823482  0.502481  0.249847  1
  Y  Y18  1  0.324768  0.000657  0.250302  1
  Pa  Pa19  1  0.841612  0.661331  0.876160  1
  Ir  Ir20  1  0.328438  0.035980  0.043676  1
  Ir  Ir21  1  0.825834  0.468233  0.456221  1
  Ir  Ir22  1  0.672957  0.971343  0.545235  1
  Ir  Ir23  1  0.158265  0.539764  0.952859  1
  Ir  Ir24  1  0.690385  0.946586  0.956843  1
  Ir  Ir25  1  0.177892  0.533181  0.544551  1
  Ir  Ir26  1  0.325772  0.033386  0.457206  1
  Ir  Ir27  1  0.810833  0.469881  0.031839  1
  Ir  Ir28  1  0.555580  0.621518  0.757186  1
  Ir  Ir29  1  0.039454  0.872829  0.757449  1
  Ir  Ir30  1  0.452683  0.389156  0.248723  1
  Ir  Ir31  1  0.953112  0.117170  0.247876  1
  Ir  Ir32  1  0.295532  0.127900  0.750544  1
  Ir  Ir33  1  0.811243  0.370015  0.755422  1
  Ir  Ir34  1  0.700578  0.867745  0.250271  1
  Ir  Ir35  1  0.197763  0.635117  0.248759  1
