# generated using pymatgen
data_Pr3Be2(BRh2)4
_symmetry_space_group_name_H-M   'P 1'
_cell_length_a   10.23267281
_cell_length_b   9.41606678
_cell_length_c   5.64418169
_cell_angle_alpha   81.44519681
_cell_angle_beta   65.49956742
_cell_angle_gamma   33.05523471
_symmetry_Int_Tables_number   1
_chemical_formula_structural   Pr3Be2(BRh2)4
_chemical_formula_sum   'Pr3 Be2 B4 Rh8'
_cell_volume   247.31618685
_cell_formula_units_Z   1
loop_
 _symmetry_equiv_pos_site_id
 _symmetry_equiv_pos_as_xyz
  1  'x, y, z'
loop_
 _atom_site_type_symbol
 _atom_site_label
 _atom_site_symmetry_multiplicity
 _atom_site_fract_x
 _atom_site_fract_y
 _atom_site_fract_z
 _atom_site_occupancy
  Pr  Pr0  1  0.316538  0.316538  0.683462  1
  Pr  Pr1  1  0.676191  0.676191  0.323809  1
  Pr  Pr2  1  0.498488  0.498488  0.501512  1
  Be  Be3  1  0.679353  0.976909  0.023091  1
  Be  Be4  1  0.976909  0.679353  0.320647  1
  B  B5  1  0.333311  0.007054  0.992946  1
  B  B6  1  0.007054  0.333311  0.666689  1
  B  B7  1  0.170158  0.829682  0.170318  1
  B  B8  1  0.829682  0.170158  0.829842  1
  Rh  Rh9  1  0.584548  0.584548  0.915452  1
  Rh  Rh10  1  0.925642  0.925642  0.074358  1
  Rh  Rh11  1  0.418909  0.418909  0.081091  1
  Rh  Rh12  1  0.084548  0.084548  0.415452  1
  Rh  Rh13  1  0.918909  0.918909  0.581091  1
  Rh  Rh14  1  0.244784  0.244784  0.255216  1
  Rh  Rh15  1  0.090196  0.090196  0.909804  1
  Rh  Rh16  1  0.744784  0.744784  0.755216  1
