# generated using pymatgen
data_Li4Nd3Er(Si2Sn)2
_symmetry_space_group_name_H-M   'P 1'
_cell_length_a   9.69956550
_cell_length_b   9.69956491
_cell_length_c   6.85419100
_cell_angle_alpha   90.00000000
_cell_angle_beta   90.00000000
_cell_angle_gamma   153.25239607
_symmetry_Int_Tables_number   1
_chemical_formula_structural   Li4Nd3Er(Si2Sn)2
_chemical_formula_sum   'Li4 Nd3 Er1 Si4 Sn2'
_cell_volume   290.22325640
_cell_formula_units_Z   1
loop_
 _symmetry_equiv_pos_site_id
 _symmetry_equiv_pos_as_xyz
  1  'x, y, z'
loop_
 _atom_site_type_symbol
 _atom_site_label
 _atom_site_symmetry_multiplicity
 _atom_site_fract_x
 _atom_site_fract_y
 _atom_site_fract_z
 _atom_site_occupancy
  Li  Li0  1  0.184878  0.815122  0.056179  1
  Li  Li1  1  0.184878  0.815122  0.443821  1
  Li  Li2  1  0.816183  0.183817  0.946526  1
  Li  Li3  1  0.816183  0.183817  0.553474  1
  Nd  Nd4  1  0.649969  0.350031  0.750000  1
  Nd  Nd5  1  0.548165  0.451835  0.250000  1
  Nd  Nd6  1  0.450124  0.549876  0.750000  1
  Er  Er7  1  0.351680  0.648320  0.250000  1
  Si  Si8  1  0.056329  0.943671  0.925946  1
  Si  Si9  1  0.941292  0.058708  0.075193  1
  Si  Si10  1  0.941292  0.058708  0.424807  1
  Si  Si11  1  0.056329  0.943671  0.574054  1
  Sn  Sn12  1  0.721906  0.278094  0.250000  1
  Sn  Sn13  1  0.280793  0.719207  0.750000  1
