# generated using pymatgen
data_Dy5Ho7IrOs3
_symmetry_space_group_name_H-M   'P 1'
_cell_length_a   6.35441205
_cell_length_b   7.35688471
_cell_length_c   9.03381307
_cell_angle_alpha   89.99828642
_cell_angle_beta   90.01396190
_cell_angle_gamma   90.05989937
_symmetry_Int_Tables_number   1
_chemical_formula_structural   Dy5Ho7IrOs3
_chemical_formula_sum   'Dy5 Ho7 Ir1 Os3'
_cell_volume   422.31856460
_cell_formula_units_Z   1
loop_
 _symmetry_equiv_pos_site_id
 _symmetry_equiv_pos_as_xyz
  1  'x, y, z'
loop_
 _atom_site_type_symbol
 _atom_site_label
 _atom_site_symmetry_multiplicity
 _atom_site_fract_x
 _atom_site_fract_y
 _atom_site_fract_z
 _atom_site_occupancy
  Dy  Dy0  1  0.332658  0.674250  0.062260  1
  Dy  Dy1  1  0.870426  0.538038  0.250042  1
  Dy  Dy2  1  0.629712  0.039571  0.250011  1
  Dy  Dy3  1  0.129978  0.461415  0.749968  1
  Dy  Dy4  1  0.369204  0.961252  0.749974  1
  Ho  Ho5  1  0.169517  0.176911  0.438005  1
  Ho  Ho6  1  0.669096  0.324490  0.563099  1
  Ho  Ho7  1  0.828554  0.824144  0.935083  1
  Ho  Ho8  1  0.669139  0.324445  0.936889  1
  Ho  Ho9  1  0.828554  0.824122  0.564884  1
  Ho  Ho10  1  0.332655  0.674202  0.437757  1
  Ho  Ho11  1  0.169504  0.176895  0.061988  1
  Ir  Ir12  1  0.040558  0.884100  0.250049  1
  Os  Os13  1  0.460131  0.383713  0.250040  1
  Os  Os14  1  0.961580  0.115809  0.750007  1
  Os  Os15  1  0.538734  0.616647  0.749943  1
