# generated using pymatgen
data_Tm3ZnIn3Ni2
_symmetry_space_group_name_H-M   'P 1'
_cell_length_a   3.63189200
_cell_length_b   7.60851499
_cell_length_c   7.61930060
_cell_angle_alpha   119.94426793
_cell_angle_beta   90.00000000
_cell_angle_gamma   90.00000000
_symmetry_Int_Tables_number   1
_chemical_formula_structural   Tm3ZnIn3Ni2
_chemical_formula_sum   'Tm3 Zn1 In3 Ni2'
_cell_volume   182.44089279
_cell_formula_units_Z   1
loop_
 _symmetry_equiv_pos_site_id
 _symmetry_equiv_pos_as_xyz
  1  'x, y, z'
loop_
 _atom_site_type_symbol
 _atom_site_label
 _atom_site_symmetry_multiplicity
 _atom_site_fract_x
 _atom_site_fract_y
 _atom_site_fract_z
 _atom_site_occupancy
  Tm  Tm0  1  0.500000  0.390742  0.974244  1
  Tm  Tm1  1  0.500000  0.583647  0.609419  1
  Tm  Tm2  1  0.500000  0.025732  0.416664  1
  Zn  Zn3  1  0.000000  0.666607  0.333345  1
  In  In4  1  0.000000  0.746431  0.006594  1
  In  In5  1  0.000000  0.260129  0.253813  1
  In  In6  1  0.000000  0.993292  0.739550  1
  Ni  Ni7  1  0.000000  0.333442  0.666781  1
  Ni  Ni8  1  0.500000  0.000079  0.999590  1
