# generated using pymatgen
data_Tb9MgTl3Ru
_symmetry_space_group_name_H-M   'P 1'
_cell_length_a   9.63398500
_cell_length_b   9.63398547
_cell_length_c   9.62158400
_cell_angle_alpha   90.00000000
_cell_angle_beta   90.00000000
_cell_angle_gamma   120.00000183
_symmetry_Int_Tables_number   1
_chemical_formula_structural   Tb9MgTl3Ru
_chemical_formula_sum   'Tb18 Mg2 Tl6 Ru2'
_cell_volume   773.37326026
_cell_formula_units_Z   2
loop_
 _symmetry_equiv_pos_site_id
 _symmetry_equiv_pos_as_xyz
  1  'x, y, z'
loop_
 _atom_site_type_symbol
 _atom_site_label
 _atom_site_symmetry_multiplicity
 _atom_site_fract_x
 _atom_site_fract_y
 _atom_site_fract_z
 _atom_site_occupancy
  Tb  Tb0  1  0.207790  0.792210  0.438561  1
  Tb  Tb1  1  0.207790  0.415582  0.438561  1
  Tb  Tb2  1  0.584418  0.792210  0.438561  1
  Tb  Tb3  1  0.792210  0.207790  0.561439  1
  Tb  Tb4  1  0.792210  0.584418  0.561439  1
  Tb  Tb5  1  0.415582  0.207790  0.561439  1
  Tb  Tb6  1  0.792210  0.207790  0.938561  1
  Tb  Tb7  1  0.792210  0.584418  0.938561  1
  Tb  Tb8  1  0.415582  0.207790  0.938561  1
  Tb  Tb9  1  0.207790  0.792210  0.061439  1
  Tb  Tb10  1  0.207790  0.415582  0.061439  1
  Tb  Tb11  1  0.584418  0.792210  0.061439  1
  Tb  Tb12  1  0.540029  0.459971  0.250000  1
  Tb  Tb13  1  0.540029  0.080059  0.250000  1
  Tb  Tb14  1  0.919941  0.459971  0.250000  1
  Tb  Tb15  1  0.459971  0.540029  0.750000  1
  Tb  Tb16  1  0.459971  0.919941  0.750000  1
  Tb  Tb17  1  0.080059  0.540029  0.750000  1
  Mg  Mg18  1  0.000000  0.000000  0.500000  1
  Mg  Mg19  1  0.000000  0.000000  0.000000  1
  Tl  Tl20  1  0.886718  0.113282  0.250000  1
  Tl  Tl21  1  0.886718  0.773438  0.250000  1
  Tl  Tl22  1  0.226562  0.113282  0.250000  1
  Tl  Tl23  1  0.113282  0.886718  0.750000  1
  Tl  Tl24  1  0.113282  0.226562  0.750000  1
  Tl  Tl25  1  0.773438  0.886718  0.750000  1
  Ru  Ru26  1  0.333333  0.666667  0.250000  1
  Ru  Ru27  1  0.666667  0.333333  0.750000  1
