# generated using pymatgen
data_CeMg7(B6Ru)4
_symmetry_space_group_name_H-M   'P 1'
_cell_length_a   3.51681100
_cell_length_b   8.89686329
_cell_length_c   11.12710387
_cell_angle_alpha   89.85397133
_cell_angle_beta   90.00000000
_cell_angle_gamma   90.00000000
_symmetry_Int_Tables_number   1
_chemical_formula_structural   CeMg7(B6Ru)4
_chemical_formula_sum   'Ce1 Mg7 B24 Ru4'
_cell_volume   348.15022315
_cell_formula_units_Z   1
loop_
 _symmetry_equiv_pos_site_id
 _symmetry_equiv_pos_as_xyz
  1  'x, y, z'
loop_
 _atom_site_type_symbol
 _atom_site_label
 _atom_site_symmetry_multiplicity
 _atom_site_fract_x
 _atom_site_fract_y
 _atom_site_fract_z
 _atom_site_occupancy
  Ce  Ce0  1  0.000000  0.321510  0.414891  1
  Mg  Mg1  1  0.000000  0.672157  0.588595  1
  Mg  Mg2  1  0.000000  0.828064  0.085305  1
  Mg  Mg3  1  0.000000  0.169662  0.912322  1
  Mg  Mg4  1  0.000000  0.944079  0.369389  1
  Mg  Mg5  1  0.000000  0.055947  0.631642  1
  Mg  Mg6  1  0.000000  0.446050  0.126512  1
  Mg  Mg7  1  0.000000  0.558251  0.872726  1
  B  B8  1  0.500000  0.556785  0.434356  1
  B  B9  1  0.500000  0.444667  0.569512  1
  B  B10  1  0.500000  0.053145  0.062798  1
  B  B11  1  0.500000  0.944568  0.934933  1
  B  B12  1  0.500000  0.756470  0.420507  1
  B  B13  1  0.500000  0.245263  0.585190  1
  B  B14  1  0.500000  0.254754  0.075917  1
  B  B15  1  0.500000  0.744254  0.920059  1
  B  B16  1  0.500000  0.796950  0.260868  1
  B  B17  1  0.500000  0.203380  0.740624  1
  B  B18  1  0.500000  0.294185  0.234228  1
  B  B19  1  0.500000  0.704102  0.761671  1
  B  B20  1  0.500000  0.632376  0.179628  1
  B  B21  1  0.500000  0.369556  0.821271  1
  B  B22  1  0.500000  0.128409  0.314940  1
  B  B23  1  0.500000  0.869188  0.680985  1
  B  B24  1  0.500000  0.979704  0.209872  1
  B  B25  1  0.500000  0.019723  0.789342  1
  B  B26  1  0.500000  0.483500  0.286259  1
  B  B27  1  0.500000  0.521597  0.713880  1
  B  B28  1  0.500000  0.593011  0.024572  1
  B  B29  1  0.500000  0.408186  0.974858  1
  B  B30  1  0.500000  0.090744  0.475241  1
  B  B31  1  0.500000  0.905826  0.526221  1
  Ru  Ru32  1  0.000000  0.643530  0.317894  1
  Ru  Ru33  1  0.000000  0.359316  0.687106  1
  Ru  Ru34  1  0.000000  0.142361  0.175189  1
  Ru  Ru35  1  0.000000  0.858727  0.820699  1
