# generated using pymatgen
data_TbLu2(Si2Ir3)3
_symmetry_space_group_name_H-M   'P 1'
_cell_length_a   3.95187800
_cell_length_b   11.13555300
_cell_length_c   12.84629300
_cell_angle_alpha   90.00000000
_cell_angle_beta   90.00000000
_cell_angle_gamma   90.00000000
_symmetry_Int_Tables_number   1
_chemical_formula_structural   TbLu2(Si2Ir3)3
_chemical_formula_sum   'Tb2 Lu4 Si12 Ir18'
_cell_volume   565.31842638
_cell_formula_units_Z   2
loop_
 _symmetry_equiv_pos_site_id
 _symmetry_equiv_pos_as_xyz
  1  'x, y, z'
loop_
 _atom_site_type_symbol
 _atom_site_label
 _atom_site_symmetry_multiplicity
 _atom_site_fract_x
 _atom_site_fract_y
 _atom_site_fract_z
 _atom_site_occupancy
  Tb  Tb0  1  0.000000  0.500000  0.526706  1
  Tb  Tb1  1  0.500000  0.000000  0.473294  1
  Lu  Lu2  1  0.500000  0.817745  0.205118  1
  Lu  Lu3  1  0.500000  0.182255  0.205118  1
  Lu  Lu4  1  0.000000  0.682255  0.794882  1
  Lu  Lu5  1  0.000000  0.317745  0.794882  1
  Si  Si6  1  0.500000  0.500000  0.877119  1
  Si  Si7  1  0.000000  0.000000  0.122881  1
  Si  Si8  1  0.500000  0.500000  0.344553  1
  Si  Si9  1  0.000000  0.000000  0.655447  1
  Si  Si10  1  0.500000  0.308609  0.617553  1
  Si  Si11  1  0.500000  0.691391  0.617553  1
  Si  Si12  1  0.000000  0.191391  0.382447  1
  Si  Si13  1  0.000000  0.808609  0.382447  1
  Si  Si14  1  0.500000  0.848568  0.892922  1
  Si  Si15  1  0.500000  0.151432  0.892922  1
  Si  Si16  1  0.000000  0.651432  0.107078  1
  Si  Si17  1  0.000000  0.348568  0.107078  1
  Ir  Ir18  1  0.500000  0.500000  0.158273  1
  Ir  Ir19  1  0.000000  0.000000  0.841727  1
  Ir  Ir20  1  0.500000  0.500000  0.697148  1
  Ir  Ir21  1  0.000000  0.000000  0.302852  1
  Ir  Ir22  1  0.000000  0.500000  0.979711  1
  Ir  Ir23  1  0.500000  0.000000  0.020289  1
  Ir  Ir24  1  0.500000  0.330973  0.989267  1
  Ir  Ir25  1  0.500000  0.669027  0.989267  1
  Ir  Ir26  1  0.000000  0.169027  0.010733  1
  Ir  Ir27  1  0.000000  0.830973  0.010733  1
  Ir  Ir28  1  0.500000  0.299809  0.429952  1
  Ir  Ir29  1  0.500000  0.700191  0.429952  1
  Ir  Ir30  1  0.000000  0.200191  0.570048  1
  Ir  Ir31  1  0.000000  0.799809  0.570048  1
  Ir  Ir32  1  0.500000  0.876057  0.712114  1
  Ir  Ir33  1  0.500000  0.123943  0.712114  1
  Ir  Ir34  1  0.000000  0.623943  0.287886  1
  Ir  Ir35  1  0.000000  0.376057  0.287886  1
