# generated using pymatgen
data_DyTmZn5Sn
_symmetry_space_group_name_H-M   'P 1'
_cell_length_a   8.33291189
_cell_length_b   8.33291108
_cell_length_c   8.98801900
_cell_angle_alpha   90.00000000
_cell_angle_beta   90.00000000
_cell_angle_gamma   149.79354696
_symmetry_Int_Tables_number   1
_chemical_formula_structural   DyTmZn5Sn
_chemical_formula_sum   'Dy2 Tm2 Zn10 Sn2'
_cell_volume   313.99790920
_cell_formula_units_Z   2
loop_
 _symmetry_equiv_pos_site_id
 _symmetry_equiv_pos_as_xyz
  1  'x, y, z'
loop_
 _atom_site_type_symbol
 _atom_site_label
 _atom_site_symmetry_multiplicity
 _atom_site_fract_x
 _atom_site_fract_y
 _atom_site_fract_z
 _atom_site_occupancy
  Dy  Dy0  1  0.000000  0.000000  0.500000  1
  Dy  Dy1  1  0.000000  0.000000  0.000000  1
  Tm  Tm2  1  0.202410  0.797590  0.250000  1
  Tm  Tm3  1  0.797590  0.202410  0.750000  1
  Zn  Zn4  1  0.812940  0.187060  0.390947  1
  Zn  Zn5  1  0.187060  0.812940  0.609053  1
  Zn  Zn6  1  0.812940  0.187060  0.109053  1
  Zn  Zn7  1  0.187060  0.812940  0.890947  1
  Zn  Zn8  1  0.656544  0.343456  0.480760  1
  Zn  Zn9  1  0.343456  0.656544  0.519240  1
  Zn  Zn10  1  0.656544  0.343456  0.019240  1
  Zn  Zn11  1  0.343456  0.656544  0.980760  1
  Zn  Zn12  1  0.391314  0.608686  0.250000  1
  Zn  Zn13  1  0.608686  0.391314  0.750000  1
  Sn  Sn14  1  0.553582  0.446418  0.250000  1
  Sn  Sn15  1  0.446418  0.553582  0.750000  1
