# generated using pymatgen
data_La4Ga10RuPt5
_symmetry_space_group_name_H-M   'P 1'
_cell_length_a   8.77089971
_cell_length_b   8.77022922
_cell_length_c   8.76932000
_cell_angle_alpha   140.52110626
_cell_angle_beta   107.09652666
_cell_angle_gamma   86.22967159
_symmetry_Int_Tables_number   1
_chemical_formula_structural   La4Ga10RuPt5
_chemical_formula_sum   'La4 Ga10 Ru1 Pt5'
_cell_volume   395.25258341
_cell_formula_units_Z   1
loop_
 _symmetry_equiv_pos_site_id
 _symmetry_equiv_pos_as_xyz
  1  'x, y, z'
loop_
 _atom_site_type_symbol
 _atom_site_label
 _atom_site_symmetry_multiplicity
 _atom_site_fract_x
 _atom_site_fract_y
 _atom_site_fract_z
 _atom_site_occupancy
  La  La0  1  0.088660  0.863126  0.224343  1
  La  La1  1  0.638771  0.364261  0.275614  1
  La  La2  1  0.911252  0.135676  0.774511  1
  La  La3  1  0.361204  0.636830  0.725519  1
  Ga  Ga4  1  0.290458  0.040380  0.749956  1
  Ga  Ga5  1  0.287882  0.537944  0.250078  1
  Ga  Ga6  1  0.000067  0.250043  0.250058  1
  Ga  Ga7  1  0.244896  0.397785  0.833987  1
  Ga  Ga8  1  0.755102  0.589159  0.152978  1
  Ga  Ga9  1  0.709626  0.459582  0.749974  1
  Ga  Ga10  1  0.563849  0.910877  0.666008  1
  Ga  Ga11  1  0.712094  0.962147  0.250026  1
  Ga  Ga12  1  0.436182  0.102217  0.347030  1
  Ga  Ga13  1  0.999977  0.749961  0.749975  1
  Ru  Ru14  1  0.499971  0.249937  0.749938  1
  Pt  Pt15  1  0.041548  0.646863  0.399481  1
  Pt  Pt16  1  0.752683  0.853246  0.894853  1
  Pt  Pt17  1  0.958462  0.357829  0.605223  1
  Pt  Pt18  1  0.247341  0.142086  0.100453  1
  Pt  Pt19  1  0.499977  0.750050  0.249998  1
