# generated using pymatgen
data_Y9HoInPb5
_symmetry_space_group_name_H-M   'P 1'
_cell_length_a   9.04838800
_cell_length_b   9.05102767
_cell_length_c   6.68386000
_cell_angle_alpha   90.00023866
_cell_angle_beta   89.99800513
_cell_angle_gamma   119.98858944
_symmetry_Int_Tables_number   1
_chemical_formula_structural   Y9HoInPb5
_chemical_formula_sum   'Y9 Ho1 In1 Pb5'
_cell_volume   474.10769861
_cell_formula_units_Z   1
loop_
 _symmetry_equiv_pos_site_id
 _symmetry_equiv_pos_as_xyz
  1  'x, y, z'
loop_
 _atom_site_type_symbol
 _atom_site_label
 _atom_site_symmetry_multiplicity
 _atom_site_fract_x
 _atom_site_fract_y
 _atom_site_fract_z
 _atom_site_occupancy
  Y  Y0  1  0.335591  0.669317  0.001618  1
  Y  Y1  1  0.666297  0.330705  0.498404  1
  Y  Y2  1  0.666262  0.330641  0.001608  1
  Y  Y3  1  0.238862  0.999958  0.250078  1
  Y  Y4  1  0.237383  0.237180  0.749945  1
  Y  Y5  1  0.000278  0.762859  0.749946  1
  Y  Y6  1  0.996210  0.234746  0.250061  1
  Y  Y7  1  0.761404  0.765291  0.250057  1
  Y  Y8  1  0.762341  0.999947  0.749919  1
  Ho  Ho9  1  0.335683  0.669401  0.498310  1
  In  In10  1  0.603638  0.999784  0.250249  1
  Pb  Pb11  1  0.604982  0.604242  0.749795  1
  Pb  Pb12  1  0.001162  0.395969  0.749795  1
  Pb  Pb13  1  0.000074  0.605439  0.250233  1
  Pb  Pb14  1  0.394409  0.394756  0.250223  1
  Pb  Pb15  1  0.395426  0.999766  0.749760  1
