# generated using pymatgen
data_TbDy3(NiB10)2
_symmetry_space_group_name_H-M   'P 1'
_cell_length_a   4.13996100
_cell_length_b   5.54308303
_cell_length_c   11.08130500
_cell_angle_alpha   89.99498734
_cell_angle_beta   90.00000000
_cell_angle_gamma   90.00000000
_symmetry_Int_Tables_number   1
_chemical_formula_structural   TbDy3(NiB10)2
_chemical_formula_sum   'Tb1 Dy3 Ni2 B20'
_cell_volume   254.29542153
_cell_formula_units_Z   1
loop_
 _symmetry_equiv_pos_site_id
 _symmetry_equiv_pos_as_xyz
  1  'x, y, z'
loop_
 _atom_site_type_symbol
 _atom_site_label
 _atom_site_symmetry_multiplicity
 _atom_site_fract_x
 _atom_site_fract_y
 _atom_site_fract_z
 _atom_site_occupancy
  Tb  Tb0  1  0.500000  0.185712  0.362444  1
  Dy  Dy1  1  0.500000  0.814204  0.637500  1
  Dy  Dy2  1  0.500000  0.314161  0.862384  1
  Dy  Dy3  1  0.500000  0.685747  0.137614  1
  Ni  Ni4  1  0.000000  0.000296  0.999837  1
  Ni  Ni5  1  0.000000  0.500479  0.500216  1
  B  B6  1  0.000000  0.374404  0.041170  1
  B  B7  1  0.000000  0.625866  0.959115  1
  B  B8  1  0.000000  0.126043  0.540782  1
  B  B9  1  0.000000  0.874407  0.458873  1
  B  B10  1  0.000000  0.341163  0.198698  1
  B  B11  1  0.000000  0.658422  0.801581  1
  B  B12  1  0.000000  0.158411  0.698305  1
  B  B13  1  0.000000  0.841121  0.301402  1
  B  B14  1  0.000000  0.029505  0.186509  1
  B  B15  1  0.000000  0.970191  0.813323  1
  B  B16  1  0.000000  0.470153  0.686591  1
  B  B17  1  0.000000  0.529520  0.313651  1
  B  B18  1  0.301443  0.201686  0.114754  1
  B  B19  1  0.698568  0.798332  0.885434  1
  B  B20  1  0.301432  0.798332  0.885434  1
  B  B21  1  0.698593  0.298223  0.614427  1
  B  B22  1  0.698557  0.201686  0.114754  1
  B  B23  1  0.301423  0.701857  0.385390  1
  B  B24  1  0.698577  0.701857  0.385390  1
  B  B25  1  0.301407  0.298223  0.614427  1
