# generated using pymatgen
data_Nd8Dy11ScSn16
_symmetry_space_group_name_H-M   'P 1'
_cell_length_a   8.10585000
_cell_length_b   8.30487214
_cell_length_c   15.66291800
_cell_angle_alpha   90.00000000
_cell_angle_beta   90.00000000
_cell_angle_gamma   89.98960312
_symmetry_Int_Tables_number   1
_chemical_formula_structural   Nd8Dy11ScSn16
_chemical_formula_sum   'Nd8 Dy11 Sc1 Sn16'
_cell_volume   1054.39704540
_cell_formula_units_Z   1
loop_
 _symmetry_equiv_pos_site_id
 _symmetry_equiv_pos_as_xyz
  1  'x, y, z'
loop_
 _atom_site_type_symbol
 _atom_site_label
 _atom_site_symmetry_multiplicity
 _atom_site_fract_x
 _atom_site_fract_y
 _atom_site_fract_z
 _atom_site_occupancy
  Nd  Nd0  1  0.511994  0.322708  0.902683  1
  Nd  Nd1  1  0.012954  0.179227  0.597154  1
  Nd  Nd2  1  0.488301  0.678092  0.404147  1
  Nd  Nd3  1  0.988149  0.821648  0.096076  1
  Nd  Nd4  1  0.488301  0.678092  0.095853  1
  Nd  Nd5  1  0.988149  0.821648  0.403924  1
  Nd  Nd6  1  0.511994  0.322708  0.597317  1
  Nd  Nd7  1  0.012954  0.179227  0.902846  1
  Dy  Dy8  1  0.355896  0.835204  0.875607  1
  Dy  Dy9  1  0.857085  0.663606  0.624302  1
  Dy  Dy10  1  0.643686  0.164700  0.376826  1
  Dy  Dy11  1  0.143190  0.335244  0.122397  1
  Dy  Dy12  1  0.643686  0.164700  0.123174  1
  Dy  Dy13  1  0.143190  0.335244  0.377603  1
  Dy  Dy14  1  0.355896  0.835204  0.624393  1
  Dy  Dy15  1  0.857085  0.663606  0.875698  1
  Dy  Dy16  1  0.689492  0.998658  0.750000  1
  Dy  Dy17  1  0.809521  0.498254  0.250000  1
  Dy  Dy18  1  0.309507  0.001688  0.250000  1
  Sc  Sc19  1  0.190537  0.503071  0.750000  1
  Sn  Sn20  1  0.307286  0.040215  0.041166  1
  Sn  Sn21  1  0.806753  0.459524  0.458793  1
  Sn  Sn22  1  0.693342  0.959549  0.542345  1
  Sn  Sn23  1  0.193748  0.539200  0.955182  1
  Sn  Sn24  1  0.693342  0.959549  0.957655  1
  Sn  Sn25  1  0.193748  0.539200  0.544818  1
  Sn  Sn26  1  0.307286  0.040215  0.458834  1
  Sn  Sn27  1  0.806753  0.459524  0.041207  1
  Sn  Sn28  1  0.549739  0.619530  0.750000  1
  Sn  Sn29  1  0.056214  0.874580  0.750000  1
  Sn  Sn30  1  0.443840  0.376944  0.250000  1
  Sn  Sn31  1  0.944489  0.123257  0.250000  1
  Sn  Sn32  1  0.318016  0.148897  0.750000  1
  Sn  Sn33  1  0.824205  0.358406  0.750000  1
  Sn  Sn34  1  0.679617  0.856810  0.250000  1
  Sn  Sn35  1  0.180058  0.642072  0.250000  1
