# generated using pymatgen
data_Dy3Ho(Ga2Ag)4
_symmetry_space_group_name_H-M   'P 1'
_cell_length_a   4.38212400
_cell_length_b   6.94817472
_cell_length_c   10.25601883
_cell_angle_alpha   89.94446397
_cell_angle_beta   90.00000000
_cell_angle_gamma   90.00000000
_symmetry_Int_Tables_number   1
_chemical_formula_structural   Dy3Ho(Ga2Ag)4
_chemical_formula_sum   'Dy3 Ho1 Ga8 Ag4'
_cell_volume   312.27268602
_cell_formula_units_Z   1
loop_
 _symmetry_equiv_pos_site_id
 _symmetry_equiv_pos_as_xyz
  1  'x, y, z'
loop_
 _atom_site_type_symbol
 _atom_site_label
 _atom_site_symmetry_multiplicity
 _atom_site_fract_x
 _atom_site_fract_y
 _atom_site_fract_z
 _atom_site_occupancy
  Dy  Dy0  1  0.250000  0.779530  0.825599  1
  Dy  Dy1  1  0.750000  0.220941  0.173856  1
  Dy  Dy2  1  0.750000  0.720763  0.326415  1
  Ho  Ho3  1  0.250000  0.278597  0.674158  1
  Ga  Ga4  1  0.250000  0.702697  0.536384  1
  Ga  Ga5  1  0.750000  0.298140  0.463401  1
  Ga  Ga6  1  0.750000  0.795952  0.037118  1
  Ga  Ga7  1  0.250000  0.201972  0.963565  1
  Ga  Ga8  1  0.250000  0.927738  0.154246  1
  Ga  Ga9  1  0.750000  0.071774  0.847396  1
  Ga  Ga10  1  0.750000  0.571403  0.652735  1
  Ga  Ga11  1  0.250000  0.428198  0.345702  1
  Ag  Ag12  1  0.250000  0.543762  0.096410  1
  Ag  Ag13  1  0.750000  0.456264  0.902046  1
  Ag  Ag14  1  0.750000  0.957515  0.597532  1
  Ag  Ag15  1  0.250000  0.044754  0.403437  1
