# generated using pymatgen
data_Lu6Sn6PtRh5
_symmetry_space_group_name_H-M   'P 1'
_cell_length_a   7.60640200
_cell_length_b   7.60640145
_cell_length_c   7.39464000
_cell_angle_alpha   90.00000000
_cell_angle_beta   90.00000000
_cell_angle_gamma   120.00000587
_symmetry_Int_Tables_number   1
_chemical_formula_structural   Lu6Sn6PtRh5
_chemical_formula_sum   'Lu6 Sn6 Pt1 Rh5'
_cell_volume   370.51531073
_cell_formula_units_Z   1
loop_
 _symmetry_equiv_pos_site_id
 _symmetry_equiv_pos_as_xyz
  1  'x, y, z'
loop_
 _atom_site_type_symbol
 _atom_site_label
 _atom_site_symmetry_multiplicity
 _atom_site_fract_x
 _atom_site_fract_y
 _atom_site_fract_z
 _atom_site_occupancy
  Lu  Lu0  1  0.401230  0.998421  0.249510  1
  Lu  Lu1  1  0.597190  0.598770  0.249510  1
  Lu  Lu2  1  0.001579  0.402810  0.249510  1
  Lu  Lu3  1  0.401205  0.998298  0.750428  1
  Lu  Lu4  1  0.597093  0.598795  0.750428  1
  Lu  Lu5  1  0.001702  0.402907  0.750428  1
  Sn  Sn6  1  0.273009  0.272454  0.000034  1
  Sn  Sn7  1  0.999446  0.726991  0.000034  1
  Sn  Sn8  1  0.005101  0.741892  0.500010  1
  Sn  Sn9  1  0.736790  0.994899  0.500010  1
  Sn  Sn10  1  0.258108  0.263210  0.500010  1
  Sn  Sn11  1  0.727546  0.000554  0.000034  1
  Pt  Pt12  1  0.666667  0.333333  0.499306  1
  Rh  Rh13  1  0.000000  0.000000  0.762040  1
  Rh  Rh14  1  0.000000  0.000000  0.237982  1
  Rh  Rh15  1  0.666667  0.333333  0.000180  1
  Rh  Rh16  1  0.333333  0.666667  0.500217  1
  Rh  Rh17  1  0.333333  0.666667  0.000326  1
