# generated using pymatgen
data_ScSi2B4Ru10W3
_symmetry_space_group_name_H-M   'P 1'
_cell_length_a   9.27720112
_cell_length_b   9.27720112
_cell_length_c   2.92870900
_cell_angle_alpha   90.00000000
_cell_angle_beta   90.00000000
_cell_angle_gamma   90.21365187
_symmetry_Int_Tables_number   1
_chemical_formula_structural   ScSi2B4Ru10W3
_chemical_formula_sum   'Sc1 Si2 B4 Ru10 W3'
_cell_volume   252.06186562
_cell_formula_units_Z   1
loop_
 _symmetry_equiv_pos_site_id
 _symmetry_equiv_pos_as_xyz
  1  'x, y, z'
loop_
 _atom_site_type_symbol
 _atom_site_label
 _atom_site_symmetry_multiplicity
 _atom_site_fract_x
 _atom_site_fract_y
 _atom_site_fract_z
 _atom_site_occupancy
  Sc  Sc0  1  0.823905  0.323905  0.000000  1
  Si  Si1  1  0.997622  0.002987  0.000000  1
  Si  Si2  1  0.502987  0.497622  0.000000  1
  B  B3  1  0.373866  0.873866  0.000000  1
  B  B4  1  0.874154  0.623246  0.000000  1
  B  B5  1  0.123246  0.374154  0.000000  1
  B  B6  1  0.626007  0.126007  0.000000  1
  Ru  Ru7  1  0.004165  0.504165  0.500000  1
  Ru  Ru8  1  0.498701  0.998701  0.500000  1
  Ru  Ru9  1  0.289389  0.435565  0.500000  1
  Ru  Ru10  1  0.708380  0.577733  0.500000  1
  Ru  Ru11  1  0.557508  0.284848  0.500000  1
  Ru  Ru12  1  0.431654  0.711006  0.500000  1
  Ru  Ru13  1  0.935565  0.789388  0.500000  1
  Ru  Ru14  1  0.784847  0.057508  0.500000  1
  Ru  Ru15  1  0.211005  0.931654  0.500000  1
  Ru  Ru16  1  0.077733  0.208379  0.500000  1
  W  W17  1  0.177206  0.677206  0.000000  1
  W  W18  1  0.678524  0.823535  0.000000  1
  W  W19  1  0.323535  0.178524  0.000000  1
