# generated using pymatgen
data_Y12Co2Ni2RuPb
_symmetry_space_group_name_H-M   'P 1'
_cell_length_a   8.36270364
_cell_length_b   8.36270457
_cell_length_c   8.36270424
_cell_angle_alpha   109.75243424
_cell_angle_beta   110.93430088
_cell_angle_gamma   107.74288926
_symmetry_Int_Tables_number   1
_chemical_formula_structural   Y12Co2Ni2RuPb
_chemical_formula_sum   'Y12 Co2 Ni2 Ru1 Pb1'
_cell_volume   449.85774566
_cell_formula_units_Z   1
loop_
 _symmetry_equiv_pos_site_id
 _symmetry_equiv_pos_as_xyz
  1  'x, y, z'
loop_
 _atom_site_type_symbol
 _atom_site_label
 _atom_site_symmetry_multiplicity
 _atom_site_fract_x
 _atom_site_fract_y
 _atom_site_fract_z
 _atom_site_occupancy
  Y  Y0  1  0.289154  0.181820  0.470976  1
  Y  Y1  1  0.710846  0.818180  0.529024  1
  Y  Y2  1  0.289154  0.818180  0.107335  1
  Y  Y3  1  0.710846  0.181820  0.892665  1
  Y  Y4  1  0.622545  0.315398  0.307146  1
  Y  Y5  1  0.377455  0.684602  0.692854  1
  Y  Y6  1  0.008252  0.315398  0.692854  1
  Y  Y7  1  0.991748  0.684602  0.307146  1
  Y  Y8  1  0.214166  0.405530  0.191364  1
  Y  Y9  1  0.785834  0.594470  0.808636  1
  Y  Y10  1  0.214166  0.022805  0.808636  1
  Y  Y11  1  0.785834  0.977195  0.191364  1
  Co  Co12  1  0.387265  0.887265  0.500000  1
  Co  Co13  1  0.612735  0.112735  0.500000  1
  Ni  Ni14  1  0.000000  0.367258  0.367258  1
  Ni  Ni15  1  0.000000  0.632742  0.632742  1
  Ru  Ru16  1  0.000000  0.000000  0.000000  1
  Pb  Pb17  1  0.500000  0.500000  0.000000  1
