# generated using pymatgen
data_CaTa6InSe12
_symmetry_space_group_name_H-M   'P 1'
_cell_length_a   6.08690600
_cell_length_b   6.08690717
_cell_length_c   15.43855900
_cell_angle_alpha   90.00000000
_cell_angle_beta   90.00000000
_cell_angle_gamma   120.00000451
_symmetry_Int_Tables_number   1
_chemical_formula_structural   CaTa6InSe12
_chemical_formula_sum   'Ca1 Ta6 In1 Se12'
_cell_volume   495.37107839
_cell_formula_units_Z   1
loop_
 _symmetry_equiv_pos_site_id
 _symmetry_equiv_pos_as_xyz
  1  'x, y, z'
loop_
 _atom_site_type_symbol
 _atom_site_label
 _atom_site_symmetry_multiplicity
 _atom_site_fract_x
 _atom_site_fract_y
 _atom_site_fract_z
 _atom_site_occupancy
  Ca  Ca0  1  0.666667  0.333333  0.750000  1
  Ta  Ta1  1  0.333333  0.666667  0.993066  1
  Ta  Ta2  1  0.000000  0.000000  0.993684  1
  Ta  Ta3  1  0.666667  0.333333  0.992074  1
  Ta  Ta4  1  0.333333  0.666667  0.506934  1
  Ta  Ta5  1  0.000000  0.000000  0.506316  1
  Ta  Ta6  1  0.666667  0.333333  0.507926  1
  In  In7  1  0.333333  0.666667  0.250000  1
  Se  Se8  1  0.667216  0.665169  0.400429  1
  Se  Se9  1  0.666873  0.672345  0.615021  1
  Se  Se10  1  0.005471  0.672345  0.884979  1
  Se  Se11  1  0.666873  0.994529  0.884979  1
  Se  Se12  1  0.667216  0.002048  0.099571  1
  Se  Se13  1  0.334831  0.002048  0.400429  1
  Se  Se14  1  0.005471  0.333127  0.615021  1
  Se  Se15  1  0.327655  0.994529  0.615021  1
  Se  Se16  1  0.997952  0.665169  0.099571  1
  Se  Se17  1  0.327655  0.333127  0.884979  1
  Se  Se18  1  0.997952  0.332784  0.400429  1
  Se  Se19  1  0.334831  0.332784  0.099571  1
