# generated using pymatgen
data_Ta3Nb4(B4Ru3)2
_symmetry_space_group_name_H-M   'P 1'
_cell_length_a   9.61591200
_cell_length_b   9.61591194
_cell_length_c   3.11742900
_cell_angle_alpha   90.00000000
_cell_angle_beta   90.00000000
_cell_angle_gamma   120.00000022
_symmetry_Int_Tables_number   1
_chemical_formula_structural   Ta3Nb4(B4Ru3)2
_chemical_formula_sum   'Ta3 Nb4 B8 Ru6'
_cell_volume   249.63654284
_cell_formula_units_Z   1
loop_
 _symmetry_equiv_pos_site_id
 _symmetry_equiv_pos_as_xyz
  1  'x, y, z'
loop_
 _atom_site_type_symbol
 _atom_site_label
 _atom_site_symmetry_multiplicity
 _atom_site_fract_x
 _atom_site_fract_y
 _atom_site_fract_z
 _atom_site_occupancy
  Ta  Ta0  1  0.276511  0.362586  0.000000  1
  Ta  Ta1  1  0.637414  0.913925  0.000000  1
  Ta  Ta2  1  0.086075  0.723489  0.000000  1
  Nb  Nb3  1  0.000000  0.000000  0.000000  1
  Nb  Nb4  1  0.725001  0.639177  0.000000  1
  Nb  Nb5  1  0.360823  0.085824  0.000000  1
  Nb  Nb6  1  0.914176  0.274999  0.000000  1
  B  B7  1  0.666667  0.333333  0.000000  1
  B  B8  1  0.333333  0.666667  0.000000  1
  B  B9  1  0.152309  0.933925  0.500000  1
  B  B10  1  0.066075  0.218384  0.500000  1
  B  B11  1  0.781616  0.847691  0.500000  1
  B  B12  1  0.846230  0.064409  0.500000  1
  B  B13  1  0.935591  0.781821  0.500000  1
  B  B14  1  0.218179  0.153770  0.500000  1
  Ru  Ru15  1  0.360592  0.846060  0.500000  1
  Ru  Ru16  1  0.153940  0.514532  0.500000  1
  Ru  Ru17  1  0.485468  0.639408  0.500000  1
  Ru  Ru18  1  0.638715  0.152803  0.500000  1
  Ru  Ru19  1  0.847197  0.485912  0.500000  1
  Ru  Ru20  1  0.514088  0.361285  0.500000  1
