# generated using pymatgen
data_Pr13Pa7Ir15Rh
_symmetry_space_group_name_H-M   'P 1'
_cell_length_a   7.63179955
_cell_length_b   7.67135563
_cell_length_c   14.59198800
_cell_angle_alpha   89.94747943
_cell_angle_beta   89.61027486
_cell_angle_gamma   90.25868532
_symmetry_Int_Tables_number   1
_chemical_formula_structural   Pr13Pa7Ir15Rh
_chemical_formula_sum   'Pr13 Pa7 Ir15 Rh1'
_cell_volume   854.27730133
_cell_formula_units_Z   1
loop_
 _symmetry_equiv_pos_site_id
 _symmetry_equiv_pos_as_xyz
  1  'x, y, z'
loop_
 _atom_site_type_symbol
 _atom_site_label
 _atom_site_symmetry_multiplicity
 _atom_site_fract_x
 _atom_site_fract_y
 _atom_site_fract_z
 _atom_site_occupancy
  Pr  Pr0  1  0.161601  0.336966  0.619719  1
  Pr  Pr1  1  0.509520  0.679051  0.593346  1
  Pr  Pr2  1  0.007260  0.824848  0.906954  1
  Pr  Pr3  1  0.494591  0.325711  0.092711  1
  Pr  Pr4  1  0.991409  0.178267  0.407933  1
  Pr  Pr5  1  0.487216  0.322215  0.408876  1
  Pr  Pr6  1  0.994781  0.176394  0.092299  1
  Pr  Pr7  1  0.508226  0.679014  0.906240  1
  Pr  Pr8  1  0.009472  0.819814  0.588431  1
  Pr  Pr9  1  0.820557  0.519634  0.749167  1
  Pr  Pr10  1  0.309814  0.979847  0.749787  1
  Pr  Pr11  1  0.187502  0.478294  0.248311  1
  Pr  Pr12  1  0.687283  0.023800  0.249281  1
  Pa  Pa13  1  0.662477  0.153808  0.622889  1
  Pa  Pa14  1  0.158269  0.343289  0.880794  1
  Pa  Pa15  1  0.341388  0.843087  0.119959  1
  Pa  Pa16  1  0.837582  0.658534  0.376418  1
  Pa  Pa17  1  0.339847  0.842553  0.375462  1
  Pa  Pa18  1  0.842729  0.660107  0.120265  1
  Pa  Pa19  1  0.656735  0.159219  0.880747  1
  Ir  Ir20  1  0.690016  0.945469  0.462377  1
  Ir  Ir21  1  0.179278  0.550914  0.039212  1
  Ir  Ir22  1  0.320615  0.051056  0.963959  1
  Ir  Ir23  1  0.798640  0.444432  0.533825  1
  Ir  Ir24  1  0.332916  0.029051  0.533345  1
  Ir  Ir25  1  0.821018  0.455355  0.966434  1
  Ir  Ir26  1  0.679463  0.952902  0.037344  1
  Ir  Ir27  1  0.165733  0.560594  0.451558  1
  Ir  Ir28  1  0.464894  0.353412  0.757585  1
  Ir  Ir29  1  0.949821  0.141730  0.764334  1
  Ir  Ir30  1  0.543110  0.650977  0.248615  1
  Ir  Ir31  1  0.041014  0.854628  0.244651  1
  Ir  Ir32  1  0.692006  0.889989  0.747391  1
  Ir  Ir33  1  0.206752  0.609725  0.760614  1
  Ir  Ir34  1  0.304858  0.107648  0.248490  1
  Rh  Rh35  1  0.801602  0.397664  0.250671  1
