# generated using pymatgen
data_DyErTh2(Al3Re)2
_symmetry_space_group_name_H-M   'P 1'
_cell_length_a   5.52567900
_cell_length_b   5.52567891
_cell_length_c   9.09818000
_cell_angle_alpha   90.00000000
_cell_angle_beta   90.00000000
_cell_angle_gamma   120.00000650
_symmetry_Int_Tables_number   1
_chemical_formula_structural   DyErTh2(Al3Re)2
_chemical_formula_sum   'Dy1 Er1 Th2 Al6 Re2'
_cell_volume   240.57828548
_cell_formula_units_Z   1
loop_
 _symmetry_equiv_pos_site_id
 _symmetry_equiv_pos_as_xyz
  1  'x, y, z'
loop_
 _atom_site_type_symbol
 _atom_site_label
 _atom_site_symmetry_multiplicity
 _atom_site_fract_x
 _atom_site_fract_y
 _atom_site_fract_z
 _atom_site_occupancy
  Dy  Dy0  1  0.666667  0.333333  0.443144  1
  Er  Er1  1  0.333333  0.666667  0.556922  1
  Th  Th2  1  0.333333  0.666667  0.956267  1
  Th  Th3  1  0.666667  0.333333  0.043776  1
  Al  Al4  1  0.675017  0.837509  0.257416  1
  Al  Al5  1  0.162491  0.837509  0.257416  1
  Al  Al6  1  0.162491  0.324983  0.257416  1
  Al  Al7  1  0.324982  0.162491  0.742569  1
  Al  Al8  1  0.837509  0.162491  0.742569  1
  Al  Al9  1  0.837509  0.675018  0.742569  1
  Re  Re10  1  0.000000  0.000000  0.500071  1
  Re  Re11  1  0.000000  0.000000  0.999865  1
