# generated using pymatgen
data_TbYAs2Cl2O5
_symmetry_space_group_name_H-M   'P 1'
_cell_length_a   7.06401566
_cell_length_b   7.70303781
_cell_length_c   9.52179994
_cell_angle_alpha   110.29955105
_cell_angle_beta   103.38011471
_cell_angle_gamma   102.24828587
_symmetry_Int_Tables_number   1
_chemical_formula_structural   TbYAs2Cl2O5
_chemical_formula_sum   'Tb2 Y2 As4 Cl4 O10'
_cell_volume   447.81502489
_cell_formula_units_Z   2
loop_
 _symmetry_equiv_pos_site_id
 _symmetry_equiv_pos_as_xyz
  1  'x, y, z'
loop_
 _atom_site_type_symbol
 _atom_site_label
 _atom_site_symmetry_multiplicity
 _atom_site_fract_x
 _atom_site_fract_y
 _atom_site_fract_z
 _atom_site_occupancy
  Tb  Tb0  1  0.397016  0.701981  0.522333  1
  Tb  Tb1  1  0.602984  0.298019  0.477667  1
  Y  Y2  1  0.842033  0.758968  0.334351  1
  Y  Y3  1  0.157967  0.241032  0.665649  1
  As  As4  1  0.887307  0.850181  0.738501  1
  As  As5  1  0.112693  0.149819  0.261499  1
  As  As6  1  0.712684  0.237255  0.798188  1
  As  As7  1  0.287316  0.762745  0.201812  1
  Cl  Cl8  1  0.247136  0.638494  0.743490  1
  Cl  Cl9  1  0.752864  0.361506  0.256510  1
  Cl  Cl10  1  0.791110  0.724012  0.042897  1
  Cl  Cl11  1  0.208890  0.275988  0.957103  1
  O  O12  1  0.847115  0.280687  0.666495  1
  O  O13  1  0.152885  0.719313  0.333505  1
  O  O14  1  0.529407  0.784627  0.338197  1
  O  O15  1  0.470593  0.215373  0.661803  1
  O  O16  1  0.670622  0.966206  0.720849  1
  O  O17  1  0.329378  0.033794  0.279151  1
  O  O18  1  0.694691  0.624329  0.582256  1
  O  O19  1  0.305309  0.375671  0.417744  1
  O  O20  1  0.996837  0.919803  0.605386  1
  O  O21  1  0.003163  0.080197  0.394614  1
