# generated using pymatgen
data_Eu3C3BrCl
_symmetry_space_group_name_H-M   'P 1'
_cell_length_a   7.46318736
_cell_length_b   7.46318882
_cell_length_c   11.74845100
_cell_angle_alpha   90.00000000
_cell_angle_beta   90.00000000
_cell_angle_gamma   148.95996012
_symmetry_Int_Tables_number   1
_chemical_formula_structural   Eu3C3BrCl
_chemical_formula_sum   'Eu6 C6 Br2 Cl2'
_cell_volume   337.42202246
_cell_formula_units_Z   2
loop_
 _symmetry_equiv_pos_site_id
 _symmetry_equiv_pos_as_xyz
  1  'x, y, z'
loop_
 _atom_site_type_symbol
 _atom_site_label
 _atom_site_symmetry_multiplicity
 _atom_site_fract_x
 _atom_site_fract_y
 _atom_site_fract_z
 _atom_site_occupancy
  Eu  Eu0  1  0.661566  0.338434  0.564460  1
  Eu  Eu1  1  0.338434  0.661566  0.435540  1
  Eu  Eu2  1  0.338434  0.661566  0.064460  1
  Eu  Eu3  1  0.661566  0.338434  0.935540  1
  Eu  Eu4  1  0.120568  0.879432  0.250000  1
  Eu  Eu5  1  0.879432  0.120568  0.750000  1
  C  C6  1  0.270543  0.729457  0.636578  1
  C  C7  1  0.729457  0.270543  0.363422  1
  C  C8  1  0.729457  0.270543  0.136578  1
  C  C9  1  0.270543  0.729457  0.863422  1
  C  C10  1  0.739692  0.260308  0.250000  1
  C  C11  1  0.260308  0.739692  0.750000  1
  Br  Br12  1  0.000000  0.000000  0.000000  1
  Br  Br13  1  0.000000  0.000000  0.500000  1
  Cl  Cl14  1  0.529212  0.470788  0.750000  1
  Cl  Cl15  1  0.470788  0.529212  0.250000  1
