# generated using pymatgen
data_Ho5Tm2P12Ir17
_symmetry_space_group_name_H-M   'P 1'
_cell_length_a   12.69950400
_cell_length_b   12.98644961
_cell_length_c   3.97444900
_cell_angle_alpha   90.00000000
_cell_angle_beta   90.00000000
_cell_angle_gamma   119.27173036
_symmetry_Int_Tables_number   1
_chemical_formula_structural   Ho5Tm2P12Ir17
_chemical_formula_sum   'Ho5 Tm2 P12 Ir17'
_cell_volume   571.77516210
_cell_formula_units_Z   1
loop_
 _symmetry_equiv_pos_site_id
 _symmetry_equiv_pos_as_xyz
  1  'x, y, z'
loop_
 _atom_site_type_symbol
 _atom_site_label
 _atom_site_symmetry_multiplicity
 _atom_site_fract_x
 _atom_site_fract_y
 _atom_site_fract_z
 _atom_site_occupancy
  Ho  Ho0  1  0.329845  0.661872  0.500000  1
  Ho  Ho1  1  0.667974  0.338128  0.500000  1
  Ho  Ho2  1  0.002465  0.816504  0.000000  1
  Ho  Ho3  1  0.185961  0.183496  0.000000  1
  Ho  Ho4  1  0.810730  0.000000  0.000000  1
  Tm  Tm5  1  0.995967  0.443843  0.500000  1
  Tm  Tm6  1  0.552124  0.556157  0.500000  1
  P  P7  1  0.009702  0.658147  0.500000  1
  P  P8  1  0.351555  0.341853  0.500000  1
  P  P9  1  0.644407  0.000000  0.500000  1
  P  P10  1  0.516274  0.690561  0.000000  1
  P  P11  1  0.309193  0.824250  0.000000  1
  P  P12  1  0.166765  0.480731  0.000000  1
  P  P13  1  0.484942  0.175750  0.000000  1
  P  P14  1  0.686035  0.519269  0.000000  1
  P  P15  1  0.825714  0.309439  0.000000  1
  P  P16  1  0.999409  0.174493  0.500000  1
  P  P17  1  0.824916  0.825507  0.500000  1
  P  P18  1  0.181558  0.000000  0.500000  1
  Ir  Ir19  1  0.504147  0.865780  0.000000  1
  Ir  Ir20  1  0.121931  0.645271  0.000000  1
  Ir  Ir21  1  0.357744  0.501715  0.000000  1
  Ir  Ir22  1  0.476662  0.354729  0.000000  1
  Ir  Ir23  1  0.856030  0.498285  0.000000  1
  Ir  Ir24  1  0.638367  0.134220  0.000000  1
  Ir  Ir25  1  0.465094  0.000000  0.500000  1
  Ir  Ir26  1  0.996447  0.272128  0.000000  1
  Ir  Ir27  1  0.724319  0.727872  0.000000  1
  Ir  Ir28  1  0.287002  0.000000  0.000000  1
  Ir  Ir29  1  0.624116  0.810748  0.500000  1
  Ir  Ir30  1  0.208629  0.828482  0.500000  1
  Ir  Ir31  1  0.180602  0.364202  0.500000  1
  Ir  Ir32  1  0.380147  0.171518  0.500000  1
  Ir  Ir33  1  0.816401  0.635798  0.500000  1
  Ir  Ir34  1  0.813368  0.189252  0.500000  1
  Ir  Ir35  1  0.003456  0.000000  0.500000  1
