# generated using pymatgen
data_Ti(NbS2)5
_symmetry_space_group_name_H-M   'P 1'
_cell_length_a   5.83203705
_cell_length_b   7.16922609
_cell_length_c   7.94059808
_cell_angle_alpha   108.10025599
_cell_angle_beta   97.17799414
_cell_angle_gamma   105.57597296
_symmetry_Int_Tables_number   1
_chemical_formula_structural   Ti(NbS2)5
_chemical_formula_sum   'Ti1 Nb5 S10'
_cell_volume   296.00999938
_cell_formula_units_Z   1
loop_
 _symmetry_equiv_pos_site_id
 _symmetry_equiv_pos_as_xyz
  1  'x, y, z'
loop_
 _atom_site_type_symbol
 _atom_site_label
 _atom_site_symmetry_multiplicity
 _atom_site_fract_x
 _atom_site_fract_y
 _atom_site_fract_z
 _atom_site_occupancy
  Ti  Ti0  1  0.671061  0.518899  0.985543  1
  Nb  Nb1  1  0.003466  0.997847  0.002073  1
  Nb  Nb2  1  0.598689  0.202038  0.202629  1
  Nb  Nb3  1  0.198465  0.399973  0.398747  1
  Nb  Nb4  1  0.795954  0.597162  0.602836  1
  Nb  Nb5  1  0.400822  0.794773  0.800854  1
  S  S6  1  0.232652  0.046930  0.304172  1
  S  S7  1  0.042841  0.640129  0.906820  1
  S  S8  1  0.831890  0.245070  0.501735  1
  S  S9  1  0.633368  0.850400  0.113233  1
  S  S10  1  0.420737  0.428834  0.696013  1
  S  S11  1  0.899170  0.559226  0.296661  1
  S  S12  1  0.701412  0.154898  0.896056  1
  S  S13  1  0.500697  0.754483  0.500212  1
  S  S14  1  0.302259  0.357187  0.094391  1
  S  S15  1  0.099318  0.949749  0.699625  1
