# generated using pymatgen
data_Dy10Tl6CdInNi4
_symmetry_space_group_name_H-M   'P 1'
_cell_length_a   3.57362300
_cell_length_b   8.14521355
_cell_length_c   18.13168890
_cell_angle_alpha   89.84197898
_cell_angle_beta   90.00000000
_cell_angle_gamma   90.00000000
_symmetry_Int_Tables_number   1
_chemical_formula_structural   Dy10Tl6CdInNi4
_chemical_formula_sum   'Dy10 Tl6 Cd1 In1 Ni4'
_cell_volume   527.77378805
_cell_formula_units_Z   1
loop_
 _symmetry_equiv_pos_site_id
 _symmetry_equiv_pos_as_xyz
  1  'x, y, z'
loop_
 _atom_site_type_symbol
 _atom_site_label
 _atom_site_symmetry_multiplicity
 _atom_site_fract_x
 _atom_site_fract_y
 _atom_site_fract_z
 _atom_site_occupancy
  Dy  Dy0  1  0.500000  0.383973  0.590433  1
  Dy  Dy1  1  0.500000  0.883513  0.910915  1
  Dy  Dy2  1  0.500000  0.112870  0.090081  1
  Dy  Dy3  1  0.500000  0.755346  0.720953  1
  Dy  Dy4  1  0.500000  0.254488  0.779876  1
  Dy  Dy5  1  0.500000  0.500435  0.001248  1
  Dy  Dy6  1  0.500000  0.747417  0.218907  1
  Dy  Dy7  1  0.500000  0.245343  0.278416  1
  Dy  Dy8  1  0.500000  0.999656  0.499867  1
  Dy  Dy9  1  0.500000  0.616666  0.408584  1
  Tl  Tl10  1  0.000000  0.924460  0.347654  1
  Tl  Tl11  1  0.000000  0.075988  0.651954  1
  Tl  Tl12  1  0.000000  0.576346  0.848890  1
  Tl  Tl13  1  0.000000  0.703955  0.566864  1
  Tl  Tl14  1  0.000000  0.202537  0.933577  1
  Tl  Tl15  1  0.000000  0.296283  0.432970  1
  Cd  Cd16  1  0.000000  0.793080  0.069092  1
  In  In17  1  0.000000  0.428019  0.151534  1
  Ni  Ni18  1  0.000000  0.975371  0.803390  1
  Ni  Ni19  1  0.000000  0.523326  0.301879  1
  Ni  Ni20  1  0.000000  0.475426  0.696719  1
  Ni  Ni21  1  0.000000  0.025502  0.196199  1
