# generated using pymatgen
data_Ti12V7Si16Tc
_symmetry_space_group_name_H-M   'P 1'
_cell_length_a   6.54191854
_cell_length_b   6.54534671
_cell_length_c   12.05334518
_cell_angle_alpha   90.05216190
_cell_angle_beta   90.04509696
_cell_angle_gamma   89.98888718
_symmetry_Int_Tables_number   1
_chemical_formula_structural   Ti12V7Si16Tc
_chemical_formula_sum   'Ti12 V7 Si16 Tc1'
_cell_volume   516.11331023
_cell_formula_units_Z   1
loop_
 _symmetry_equiv_pos_site_id
 _symmetry_equiv_pos_as_xyz
  1  'x, y, z'
loop_
 _atom_site_type_symbol
 _atom_site_label
 _atom_site_symmetry_multiplicity
 _atom_site_fract_x
 _atom_site_fract_y
 _atom_site_fract_z
 _atom_site_occupancy
  Ti  Ti0  1  0.004821  0.340532  0.219795  1
  Ti  Ti1  1  0.160326  0.505728  0.469176  1
  Ti  Ti2  1  0.839096  0.495931  0.970545  1
  Ti  Ti3  1  0.504704  0.161393  0.529245  1
  Ti  Ti4  1  0.495168  0.840292  0.029549  1
  Ti  Ti5  1  0.996363  0.660743  0.720794  1
  Ti  Ti6  1  0.341397  0.003747  0.781147  1
  Ti  Ti7  1  0.659711  0.994379  0.280292  1
  Ti  Ti8  1  0.166140  0.164654  0.000473  1
  Ti  Ti9  1  0.334392  0.665309  0.249677  1
  Ti  Ti10  1  0.665253  0.334576  0.750751  1
  Ti  Ti11  1  0.833908  0.832867  0.499197  1
  V  V12  1  0.344466  0.492680  0.870867  1
  V  V13  1  0.657362  0.506216  0.372175  1
  V  V14  1  0.493787  0.344271  0.128144  1
  V  V15  1  0.506864  0.655560  0.628221  1
  V  V16  1  0.006084  0.844051  0.121276  1
  V  V17  1  0.155278  0.994516  0.378316  1
  V  V18  1  0.844583  0.005749  0.878426  1
  Si  Si19  1  0.041129  0.299271  0.814728  1
  Si  Si20  1  0.202426  0.541192  0.062168  1
  Si  Si21  1  0.796381  0.460025  0.561856  1
  Si  Si22  1  0.542185  0.202169  0.938177  1
  Si  Si23  1  0.458458  0.797446  0.437033  1
  Si  Si24  1  0.959047  0.702667  0.311566  1
  Si  Si25  1  0.298133  0.041254  0.187854  1
  Si  Si26  1  0.699125  0.957076  0.688588  1
  Si  Si27  1  0.292200  0.369062  0.673260  1
  Si  Si28  1  0.132208  0.790170  0.922316  1
  Si  Si29  1  0.867644  0.209975  0.419578  1
  Si  Si30  1  0.790712  0.132042  0.078072  1
  Si  Si31  1  0.209629  0.865614  0.576458  1
  Si  Si32  1  0.708699  0.631829  0.172247  1
  Si  Si33  1  0.368468  0.291244  0.327381  1
  Si  Si34  1  0.631449  0.709211  0.828644  1
  Tc  Tc35  1  0.992402  0.156558  0.622008  1
