# generated using pymatgen
data_Zr16Pt3Rh5O4
_symmetry_space_group_name_H-M   'P 1'
_cell_length_a   8.87350231
_cell_length_b   8.88054232
_cell_length_c   8.87670000
_cell_angle_alpha   60.01431149
_cell_angle_beta   59.98807856
_cell_angle_gamma   59.97426422
_symmetry_Int_Tables_number   1
_chemical_formula_structural   Zr16Pt3Rh5O4
_chemical_formula_sum   'Zr16 Pt3 Rh5 O4'
_cell_volume   494.53194981
_cell_formula_units_Z   1
loop_
 _symmetry_equiv_pos_site_id
 _symmetry_equiv_pos_as_xyz
  1  'x, y, z'
loop_
 _atom_site_type_symbol
 _atom_site_label
 _atom_site_symmetry_multiplicity
 _atom_site_fract_x
 _atom_site_fract_y
 _atom_site_fract_z
 _atom_site_occupancy
  Zr  Zr0  1  0.817127  0.185153  0.816746  1
  Zr  Zr1  1  0.186878  0.815915  0.181070  1
  Zr  Zr2  1  0.433269  0.068856  0.433563  1
  Zr  Zr3  1  0.433269  0.068856  0.064311  1
  Zr  Zr4  1  0.065849  0.433334  0.433435  1
  Zr  Zr5  1  0.065849  0.433334  0.067382  1
  Zr  Zr6  1  0.183976  0.181958  0.817033  1
  Zr  Zr7  1  0.432574  0.432849  0.067288  1
  Zr  Zr8  1  0.129678  0.618800  0.625761  1
  Zr  Zr9  1  0.625245  0.621763  0.124611  1
  Zr  Zr10  1  0.625245  0.621763  0.628381  1
  Zr  Zr11  1  0.619383  0.136133  0.622242  1
  Zr  Zr12  1  0.186878  0.815915  0.816136  1
  Zr  Zr13  1  0.817127  0.185153  0.180974  1
  Zr  Zr14  1  0.062969  0.068706  0.434163  1
  Zr  Zr15  1  0.816438  0.816021  0.183770  1
  Pt  Pt16  1  0.406689  0.781986  0.405662  1
  Pt  Pt17  1  0.843241  0.845052  0.469461  1
  Pt  Pt18  1  0.843241  0.845052  0.842245  1
  Rh  Rh19  1  0.465610  0.846314  0.844038  1
  Rh  Rh20  1  0.403331  0.404863  0.402226  1
  Rh  Rh21  1  0.403331  0.404863  0.789579  1
  Rh  Rh22  1  0.846843  0.460904  0.846126  1
  Rh  Rh23  1  0.785717  0.406325  0.403980  1
  O  O24  1  0.125362  0.124731  0.624159  1
  O  O25  1  0.625182  0.124457  0.125181  1
  O  O26  1  0.125362  0.124731  0.125747  1
  O  O27  1  0.124337  0.626210  0.124726  1
