# generated using pymatgen
data_Hf5Tc24
_symmetry_space_group_name_H-M   'P 1'
_cell_length_a   8.40585596
_cell_length_b   8.40585520
_cell_length_c   8.40585600
_cell_angle_alpha   109.47122257
_cell_angle_beta   109.47122072
_cell_angle_gamma   109.47121898
_symmetry_Int_Tables_number   1
_chemical_formula_structural   Hf5Tc24
_chemical_formula_sum   'Hf5 Tc24'
_cell_volume   457.21861258
_cell_formula_units_Z   1
loop_
 _symmetry_equiv_pos_site_id
 _symmetry_equiv_pos_as_xyz
  1  'x, y, z'
loop_
 _atom_site_type_symbol
 _atom_site_label
 _atom_site_symmetry_multiplicity
 _atom_site_fract_x
 _atom_site_fract_y
 _atom_site_fract_z
 _atom_site_occupancy
  Hf  Hf0  1  0.000000  0.376221  0.000000  1
  Hf  Hf1  1  0.376221  0.000000  0.000000  1
  Hf  Hf2  1  0.000000  0.000000  0.376221  1
  Hf  Hf3  1  0.623779  0.623779  0.623779  1
  Hf  Hf4  1  0.000000  0.000000  0.000000  1
  Tc  Tc5  1  0.606543  0.000000  0.325762  1
  Tc  Tc6  1  0.000000  0.606543  0.325762  1
  Tc  Tc7  1  0.000000  0.325762  0.606543  1
  Tc  Tc8  1  0.393457  0.719219  0.393457  1
  Tc  Tc9  1  0.719219  0.393457  0.393457  1
  Tc  Tc10  1  0.325762  0.606543  0.000000  1
  Tc  Tc11  1  0.606543  0.325762  0.000000  1
  Tc  Tc12  1  0.674238  0.674238  0.280781  1
  Tc  Tc13  1  0.393457  0.393457  0.719219  1
  Tc  Tc14  1  0.626292  0.000000  0.806041  1
  Tc  Tc15  1  0.000000  0.626292  0.806041  1
  Tc  Tc16  1  0.806041  0.000000  0.626292  1
  Tc  Tc17  1  0.820250  0.193959  0.193959  1
  Tc  Tc18  1  0.193959  0.820250  0.193959  1
  Tc  Tc19  1  0.000000  0.806041  0.626292  1
  Tc  Tc20  1  0.373710  0.179749  0.373710  1
  Tc  Tc21  1  0.179749  0.373710  0.373710  1
  Tc  Tc22  1  0.806041  0.626292  0.000000  1
  Tc  Tc23  1  0.626292  0.806041  0.000000  1
  Tc  Tc24  1  0.193959  0.193959  0.820250  1
  Tc  Tc25  1  0.373710  0.373710  0.179749  1
  Tc  Tc26  1  0.325762  0.000000  0.606543  1
  Tc  Tc27  1  0.280781  0.674238  0.674238  1
  Tc  Tc28  1  0.674238  0.280781  0.674238  1
