# generated using pymatgen
data_Nd2Th(Co3P2)3
_symmetry_space_group_name_H-M   'P 1'
_cell_length_a   3.79014100
_cell_length_b   10.66350300
_cell_length_c   12.38266600
_cell_angle_alpha   90.00000000
_cell_angle_beta   90.00000000
_cell_angle_gamma   90.00000000
_symmetry_Int_Tables_number   1
_chemical_formula_structural   Nd2Th(Co3P2)3
_chemical_formula_sum   'Nd4 Th2 Co18 P12'
_cell_volume   500.46005699
_cell_formula_units_Z   2
loop_
 _symmetry_equiv_pos_site_id
 _symmetry_equiv_pos_as_xyz
  1  'x, y, z'
loop_
 _atom_site_type_symbol
 _atom_site_label
 _atom_site_symmetry_multiplicity
 _atom_site_fract_x
 _atom_site_fract_y
 _atom_site_fract_z
 _atom_site_occupancy
  Nd  Nd0  1  0.500000  0.815944  0.204921  1
  Nd  Nd1  1  0.500000  0.184056  0.204921  1
  Nd  Nd2  1  0.000000  0.684056  0.795079  1
  Nd  Nd3  1  0.000000  0.315944  0.795079  1
  Th  Th4  1  0.000000  0.500000  0.523820  1
  Th  Th5  1  0.500000  0.000000  0.476180  1
  Co  Co6  1  0.500000  0.500000  0.156940  1
  Co  Co7  1  0.000000  0.000000  0.843060  1
  Co  Co8  1  0.500000  0.500000  0.701102  1
  Co  Co9  1  0.000000  0.000000  0.298898  1
  Co  Co10  1  0.000000  0.500000  0.987290  1
  Co  Co11  1  0.500000  0.000000  0.012710  1
  Co  Co12  1  0.500000  0.333889  0.996296  1
  Co  Co13  1  0.500000  0.666111  0.996296  1
  Co  Co14  1  0.000000  0.166111  0.003704  1
  Co  Co15  1  0.000000  0.833889  0.003704  1
  Co  Co16  1  0.500000  0.299249  0.430276  1
  Co  Co17  1  0.500000  0.700751  0.430276  1
  Co  Co18  1  0.000000  0.200751  0.569724  1
  Co  Co19  1  0.000000  0.799249  0.569724  1
  Co  Co20  1  0.500000  0.882092  0.711295  1
  Co  Co21  1  0.500000  0.117908  0.711295  1
  Co  Co22  1  0.000000  0.617908  0.288705  1
  Co  Co23  1  0.000000  0.382092  0.288705  1
  P  P24  1  0.500000  0.500000  0.885641  1
  P  P25  1  0.000000  0.000000  0.114359  1
  P  P26  1  0.500000  0.500000  0.338499  1
  P  P27  1  0.000000  0.000000  0.661501  1
  P  P28  1  0.500000  0.304575  0.614929  1
  P  P29  1  0.500000  0.695425  0.614929  1
  P  P30  1  0.000000  0.195425  0.385071  1
  P  P31  1  0.000000  0.804575  0.385071  1
  P  P32  1  0.500000  0.848280  0.896141  1
  P  P33  1  0.500000  0.151720  0.896141  1
  P  P34  1  0.000000  0.651720  0.103859  1
  P  P35  1  0.000000  0.348280  0.103859  1
