# generated using pymatgen
data_Ce16TmAl12
_symmetry_space_group_name_H-M   'P 1'
_cell_length_a   9.55892086
_cell_length_b   9.55892094
_cell_length_c   9.55892100
_cell_angle_alpha   109.47122075
_cell_angle_beta   109.47122093
_cell_angle_gamma   109.47122316
_symmetry_Int_Tables_number   1
_chemical_formula_structural   Ce16TmAl12
_chemical_formula_sum   'Ce16 Tm1 Al12'
_cell_volume   672.36438651
_cell_formula_units_Z   1
loop_
 _symmetry_equiv_pos_site_id
 _symmetry_equiv_pos_as_xyz
  1  'x, y, z'
loop_
 _atom_site_type_symbol
 _atom_site_label
 _atom_site_symmetry_multiplicity
 _atom_site_fract_x
 _atom_site_fract_y
 _atom_site_fract_z
 _atom_site_occupancy
  Ce  Ce0  1  0.308967  0.587690  0.000000  1
  Ce  Ce1  1  0.587690  0.308967  0.000000  1
  Ce  Ce2  1  0.374578  0.000000  0.000000  1
  Ce  Ce3  1  0.000000  0.374578  0.000000  1
  Ce  Ce4  1  0.412310  0.412310  0.721276  1
  Ce  Ce5  1  0.278724  0.691033  0.691033  1
  Ce  Ce6  1  0.691033  0.278724  0.691033  1
  Ce  Ce7  1  0.625422  0.625422  0.625422  1
  Ce  Ce8  1  0.308967  0.000000  0.587690  1
  Ce  Ce9  1  0.000000  0.308967  0.587690  1
  Ce  Ce10  1  0.721276  0.412310  0.412310  1
  Ce  Ce11  1  0.412310  0.721276  0.412310  1
  Ce  Ce12  1  0.000000  0.000000  0.374578  1
  Ce  Ce13  1  0.587690  0.000000  0.308967  1
  Ce  Ce14  1  0.000000  0.587690  0.308967  1
  Ce  Ce15  1  0.691033  0.691033  0.278724  1
  Tm  Tm16  1  0.000000  0.000000  0.000000  1
  Al  Al17  1  0.820513  0.643921  0.000000  1
  Al  Al18  1  0.643921  0.820513  0.000000  1
  Al  Al19  1  0.179487  0.179487  0.823408  1
  Al  Al20  1  0.643921  0.000000  0.820513  1
  Al  Al21  1  0.000000  0.643921  0.820513  1
  Al  Al22  1  0.000000  0.820513  0.643921  1
  Al  Al23  1  0.820513  0.000000  0.643921  1
  Al  Al24  1  0.176592  0.356079  0.356079  1
  Al  Al25  1  0.356079  0.176592  0.356079  1
  Al  Al26  1  0.179487  0.823408  0.179487  1
  Al  Al27  1  0.823408  0.179487  0.179487  1
  Al  Al28  1  0.356079  0.356079  0.176592  1
