# generated using pymatgen
data_CaBe8CdCo2(PO4)8
_symmetry_space_group_name_H-M   'P 1'
_cell_length_a   8.20027614
_cell_length_b   8.62439684
_cell_length_c   7.66799200
_cell_angle_alpha   90.08441175
_cell_angle_beta   89.54891108
_cell_angle_gamma   90.01973733
_symmetry_Int_Tables_number   1
_chemical_formula_structural   CaBe8CdCo2(PO4)8
_chemical_formula_sum   'Ca1 Be8 Cd1 Co2 P8 O32'
_cell_volume   542.28164517
_cell_formula_units_Z   1
loop_
 _symmetry_equiv_pos_site_id
 _symmetry_equiv_pos_as_xyz
  1  'x, y, z'
loop_
 _atom_site_type_symbol
 _atom_site_label
 _atom_site_symmetry_multiplicity
 _atom_site_fract_x
 _atom_site_fract_y
 _atom_site_fract_z
 _atom_site_occupancy
  Ca  Ca0  1  0.377682  0.085676  0.754893  1
  Be  Be1  1  0.740739  0.574353  0.069750  1
  Be  Be2  1  0.234291  0.920873  0.071598  1
  Be  Be3  1  0.549182  0.304654  0.430100  1
  Be  Be4  1  0.044975  0.201105  0.427466  1
  Be  Be5  1  0.450821  0.694991  0.569991  1
  Be  Be6  1  0.956335  0.798291  0.572350  1
  Be  Be7  1  0.765106  0.079250  0.927961  1
  Be  Be8  1  0.259175  0.426867  0.931195  1
  Cd  Cd9  1  0.619529  0.913457  0.245639  1
  Co  Co10  1  0.112405  0.585086  0.240872  1
  Co  Co11  1  0.888278  0.415017  0.759436  1
  P  P12  1  0.554382  0.303356  0.057219  1
  P  P13  1  0.048286  0.205208  0.061765  1
  P  P14  1  0.239017  0.915598  0.435962  1
  P  P15  1  0.747304  0.576260  0.444801  1
  P  P16  1  0.762588  0.082659  0.563318  1
  P  P17  1  0.253708  0.423930  0.554671  1
  P  P18  1  0.444242  0.697525  0.943336  1
  P  P19  1  0.951162  0.795404  0.938927  1
  O  O20  1  0.819746  0.912565  0.002774  1
  O  O21  1  0.309981  0.588157  0.017484  1
  O  O22  1  0.618714  0.133466  0.057082  1
  O  O23  1  0.117789  0.373299  0.066108  1
  O  O24  1  0.086765  0.793844  0.079580  1
  O  O25  1  0.588676  0.694671  0.073495  1
  O  O26  1  0.979910  0.158471  0.239036  1
  O  O27  1  0.500128  0.352828  0.238699  1
  O  O28  1  0.832349  0.569987  0.261469  1
  O  O29  1  0.324437  0.928491  0.255962  1
  O  O30  1  0.608366  0.696981  0.437076  1
  O  O31  1  0.101070  0.793278  0.424514  1
  O  O32  1  0.626124  0.128852  0.433169  1
  O  O33  1  0.120240  0.378250  0.421241  1
  O  O34  1  0.827622  0.926575  0.496596  1
  O  O35  1  0.317224  0.578911  0.485817  1
  O  O36  1  0.682845  0.421451  0.513750  1
  O  O37  1  0.175391  0.072491  0.502977  1
  O  O38  1  0.373701  0.868609  0.566172  1
  O  O39  1  0.880627  0.621331  0.578705  1
  O  O40  1  0.392428  0.303940  0.562870  1
  O  O41  1  0.899501  0.206208  0.574468  1
  O  O42  1  0.168302  0.429458  0.738343  1
  O  O43  1  0.676651  0.070442  0.742657  1
  O  O44  1  0.019957  0.842215  0.761534  1
  O  O45  1  0.499548  0.646210  0.762555  1
  O  O46  1  0.912612  0.206604  0.920862  1
  O  O47  1  0.410957  0.308491  0.927638  1
  O  O48  1  0.378016  0.865750  0.939791  1
  O  O49  1  0.881297  0.627562  0.933849  1
  O  O50  1  0.179996  0.088655  0.997664  1
  O  O51  1  0.689825  0.412396  0.984824  1
