# generated using pymatgen
data_Li2Mn3Ni9As7
_symmetry_space_group_name_H-M   'P 1'
_cell_length_a   9.42534600
_cell_length_b   9.42534557
_cell_length_c   3.69551900
_cell_angle_alpha   90.00000000
_cell_angle_beta   90.00000000
_cell_angle_gamma   120.00000245
_symmetry_Int_Tables_number   1
_chemical_formula_structural   Li2Mn3Ni9As7
_chemical_formula_sum   'Li2 Mn3 Ni9 As7'
_cell_volume   284.31557049
_cell_formula_units_Z   1
loop_
 _symmetry_equiv_pos_site_id
 _symmetry_equiv_pos_as_xyz
  1  'x, y, z'
loop_
 _atom_site_type_symbol
 _atom_site_label
 _atom_site_symmetry_multiplicity
 _atom_site_fract_x
 _atom_site_fract_y
 _atom_site_fract_z
 _atom_site_occupancy
  Li  Li0  1  0.333333  0.666667  0.000000  1
  Li  Li1  1  0.000000  0.000000  0.500000  1
  Mn  Mn2  1  0.760903  0.554995  0.500000  1
  Mn  Mn3  1  0.445005  0.205908  0.500000  1
  Mn  Mn4  1  0.794092  0.239097  0.500000  1
  Ni  Ni5  1  0.283428  0.379865  0.500000  1
  Ni  Ni6  1  0.620135  0.903562  0.500000  1
  Ni  Ni7  1  0.096438  0.716572  0.500000  1
  Ni  Ni8  1  0.504442  0.453175  0.000000  1
  Ni  Ni9  1  0.546825  0.051267  0.000000  1
  Ni  Ni10  1  0.948733  0.495558  0.000000  1
  Ni  Ni11  1  0.720606  0.764866  0.000000  1
  Ni  Ni12  1  0.235134  0.955740  0.000000  1
  Ni  Ni13  1  0.044260  0.279394  0.000000  1
  As  As14  1  0.959391  0.753982  0.000000  1
  As  As15  1  0.246018  0.205409  0.000000  1
  As  As16  1  0.794591  0.040609  0.000000  1
  As  As17  1  0.666667  0.333333  0.000000  1
  As  As18  1  0.540142  0.626784  0.500000  1
  As  As19  1  0.373216  0.913358  0.500000  1
  As  As20  1  0.086642  0.459858  0.500000  1
