# generated using pymatgen
data_Cs2KMoO4
_symmetry_space_group_name_H-M   'P 1'
_cell_length_a   6.71275100
_cell_length_b   6.91732436
_cell_length_c   8.51286100
_cell_angle_alpha   87.21154940
_cell_angle_beta   90.00000000
_cell_angle_gamma   90.00000000
_symmetry_Int_Tables_number   1
_chemical_formula_structural   Cs2KMoO4
_chemical_formula_sum   'Cs4 K2 Mo2 O8'
_cell_volume   394.82050155
_cell_formula_units_Z   2
loop_
 _symmetry_equiv_pos_site_id
 _symmetry_equiv_pos_as_xyz
  1  'x, y, z'
loop_
 _atom_site_type_symbol
 _atom_site_label
 _atom_site_symmetry_multiplicity
 _atom_site_fract_x
 _atom_site_fract_y
 _atom_site_fract_z
 _atom_site_occupancy
  Cs  Cs0  1  0.750000  0.172037  0.518875  1
  Cs  Cs1  1  0.250000  0.827963  0.481125  1
  Cs  Cs2  1  0.250000  0.411047  0.174666  1
  Cs  Cs3  1  0.750000  0.588953  0.825334  1
  K  K4  1  0.250000  0.892254  0.964248  1
  K  K5  1  0.750000  0.107746  0.035752  1
  Mo  Mo6  1  0.750000  0.678916  0.272009  1
  Mo  Mo7  1  0.250000  0.321084  0.727991  1
  O  O8  1  0.981628  0.799460  0.187838  1
  O  O9  1  0.481628  0.200540  0.812162  1
  O  O10  1  0.018372  0.200540  0.812162  1
  O  O11  1  0.518372  0.799460  0.187838  1
  O  O12  1  0.250000  0.572828  0.799233  1
  O  O13  1  0.250000  0.279534  0.513710  1
  O  O14  1  0.750000  0.427172  0.200767  1
  O  O15  1  0.750000  0.720466  0.486290  1
