# generated using pymatgen
data_NdTm(NbS2)8
_symmetry_space_group_name_H-M   'P 1'
_cell_length_a   6.68865600
_cell_length_b   6.68865599
_cell_length_c   13.75372800
_cell_angle_alpha   90.00000000
_cell_angle_beta   90.00000000
_cell_angle_gamma   120.00000006
_symmetry_Int_Tables_number   1
_chemical_formula_structural   NdTm(NbS2)8
_chemical_formula_sum   'Nd1 Tm1 Nb8 S16'
_cell_volume   532.87921785
_cell_formula_units_Z   1
loop_
 _symmetry_equiv_pos_site_id
 _symmetry_equiv_pos_as_xyz
  1  'x, y, z'
loop_
 _atom_site_type_symbol
 _atom_site_label
 _atom_site_symmetry_multiplicity
 _atom_site_fract_x
 _atom_site_fract_y
 _atom_site_fract_z
 _atom_site_occupancy
  Nd  Nd0  1  0.000000  0.000000  0.000000  1
  Tm  Tm1  1  0.000000  0.000000  0.500000  1
  Nb  Nb2  1  0.000000  0.000000  0.254903  1
  Nb  Nb3  1  0.000000  0.000000  0.745097  1
  Nb  Nb4  1  0.504895  0.009790  0.256324  1
  Nb  Nb5  1  0.990210  0.495105  0.256324  1
  Nb  Nb6  1  0.504895  0.495105  0.256324  1
  Nb  Nb7  1  0.495105  0.990210  0.743676  1
  Nb  Nb8  1  0.009790  0.504895  0.743676  1
  Nb  Nb9  1  0.495105  0.504895  0.743676  1
  S  S10  1  0.333333  0.666667  0.861103  1
  S  S11  1  0.666667  0.333333  0.138897  1
  S  S12  1  0.666667  0.333333  0.373292  1
  S  S13  1  0.333333  0.666667  0.626708  1
  S  S14  1  0.168834  0.831166  0.369594  1
  S  S15  1  0.168834  0.337668  0.369594  1
  S  S16  1  0.662332  0.831166  0.369594  1
  S  S17  1  0.831166  0.168834  0.630406  1
  S  S18  1  0.831166  0.662332  0.630406  1
  S  S19  1  0.337668  0.168834  0.630406  1
  S  S20  1  0.829319  0.170681  0.857702  1
  S  S21  1  0.829319  0.658640  0.857702  1
  S  S22  1  0.341360  0.170681  0.857702  1
  S  S23  1  0.170681  0.829319  0.142298  1
  S  S24  1  0.170681  0.341360  0.142298  1
  S  S25  1  0.658640  0.829319  0.142298  1
