# generated using pymatgen
data_Sr12La8Si15Pd
_symmetry_space_group_name_H-M   'P 1'
_cell_length_a   8.19582605
_cell_length_b   8.17051427
_cell_length_c   15.46695200
_cell_angle_alpha   89.74630073
_cell_angle_beta   89.46070399
_cell_angle_gamma   89.98572643
_symmetry_Int_Tables_number   1
_chemical_formula_structural   Sr12La8Si15Pd
_chemical_formula_sum   'Sr12 La8 Si15 Pd1'
_cell_volume   1035.67467763
_cell_formula_units_Z   1
loop_
 _symmetry_equiv_pos_site_id
 _symmetry_equiv_pos_as_xyz
  1  'x, y, z'
loop_
 _atom_site_type_symbol
 _atom_site_label
 _atom_site_symmetry_multiplicity
 _atom_site_fract_x
 _atom_site_fract_y
 _atom_site_fract_z
 _atom_site_occupancy
  Sr  Sr0  1  0.313940  0.312811  0.000486  1
  Sr  Sr1  1  0.187423  0.809895  0.249691  1
  Sr  Sr2  1  0.813637  0.189896  0.749081  1
  Sr  Sr3  1  0.683358  0.685014  0.499948  1
  Sr  Sr4  1  0.364364  0.010007  0.454044  1
  Sr  Sr5  1  0.490064  0.868484  0.705012  1
  Sr  Sr6  1  0.512532  0.132610  0.207224  1
  Sr  Sr7  1  0.865706  0.486426  0.293045  1
  Sr  Sr8  1  0.134085  0.514862  0.793644  1
  Sr  Sr9  1  0.633928  0.991498  0.955968  1
  Sr  Sr10  1  0.005337  0.364281  0.540591  1
  Sr  Sr11  1  0.989683  0.633835  0.043963  1
  La  La12  1  0.137629  0.995016  0.873796  1
  La  La13  1  0.510754  0.630040  0.124595  1
  La  La14  1  0.483906  0.360940  0.628168  1
  La  La15  1  0.635395  0.511044  0.876486  1
  La  La16  1  0.367838  0.488450  0.375876  1
  La  La17  1  0.867190  0.007993  0.374929  1
  La  La18  1  0.991626  0.129773  0.125229  1
  La  La19  1  0.009680  0.875702  0.621838  1
  Si  Si20  1  0.350268  0.712518  0.944714  1
  Si  Si21  1  0.647334  0.287021  0.445075  1
  Si  Si22  1  0.715920  0.350893  0.056463  1
  Si  Si23  1  0.283784  0.651197  0.556227  1
  Si  Si24  1  0.787741  0.849182  0.195421  1
  Si  Si25  1  0.150260  0.210132  0.304254  1
  Si  Si26  1  0.854774  0.792288  0.801554  1
  Si  Si27  1  0.277046  0.914792  0.053322  1
  Si  Si28  1  0.583150  0.776638  0.303959  1
  Si  Si29  1  0.429097  0.217489  0.810272  1
  Si  Si30  1  0.775518  0.586711  0.695399  1
  Si  Si31  1  0.223762  0.414698  0.196429  1
  Si  Si32  1  0.709950  0.079426  0.553514  1
  Si  Si33  1  0.919158  0.278632  0.946323  1
  Si  Si34  1  0.081999  0.721522  0.446461  1
  Pd  Pd35  1  0.212161  0.158279  0.696996  1
