# generated using pymatgen
data_Th4Ga24PdPt
_symmetry_space_group_name_H-M   'P 1'
_cell_length_a   6.16907500
_cell_length_b   6.16907500
_cell_length_c   15.51006100
_cell_angle_alpha   90.00000000
_cell_angle_beta   90.00000000
_cell_angle_gamma   90.00000000
_symmetry_Int_Tables_number   1
_chemical_formula_structural   Th4Ga24PdPt
_chemical_formula_sum   'Th4 Ga24 Pd1 Pt1'
_cell_volume   590.27393488
_cell_formula_units_Z   1
loop_
 _symmetry_equiv_pos_site_id
 _symmetry_equiv_pos_as_xyz
  1  'x, y, z'
loop_
 _atom_site_type_symbol
 _atom_site_label
 _atom_site_symmetry_multiplicity
 _atom_site_fract_x
 _atom_site_fract_y
 _atom_site_fract_z
 _atom_site_occupancy
  Th  Th0  1  0.750000  0.250000  0.246430  1
  Th  Th1  1  0.250000  0.750000  0.245923  1
  Th  Th2  1  0.250000  0.750000  0.754077  1
  Th  Th3  1  0.750000  0.250000  0.753570  1
  Ga  Ga4  1  0.250000  0.250000  0.185681  1
  Ga  Ga5  1  0.750000  0.750000  0.185681  1
  Ga  Ga6  1  0.750000  0.750000  0.814319  1
  Ga  Ga7  1  0.250000  0.250000  0.814319  1
  Ga  Ga8  1  0.250000  0.250000  0.343305  1
  Ga  Ga9  1  0.750000  0.750000  0.343305  1
  Ga  Ga10  1  0.750000  0.750000  0.656695  1
  Ga  Ga11  1  0.250000  0.250000  0.656695  1
  Ga  Ga12  1  0.500139  0.000139  0.910533  1
  Ga  Ga13  1  0.001057  0.998943  0.910496  1
  Ga  Ga14  1  0.498943  0.501057  0.910496  1
  Ga  Ga15  1  0.999861  0.499861  0.910533  1
  Ga  Ga16  1  0.498943  0.998943  0.089504  1
  Ga  Ga17  1  0.999861  0.000139  0.089467  1
  Ga  Ga18  1  0.500139  0.499861  0.089467  1
  Ga  Ga19  1  0.001057  0.501057  0.089504  1
  Ga  Ga20  1  0.578111  0.078111  0.429275  1
  Ga  Ga21  1  0.077974  0.922026  0.429374  1
  Ga  Ga22  1  0.422026  0.577974  0.429374  1
  Ga  Ga23  1  0.921889  0.421889  0.429275  1
  Ga  Ga24  1  0.422026  0.922026  0.570626  1
  Ga  Ga25  1  0.921889  0.078111  0.570725  1
  Ga  Ga26  1  0.578111  0.421889  0.570725  1
  Ga  Ga27  1  0.077974  0.577974  0.570626  1
  Pd  Pd28  1  0.250000  0.750000  0.000000  1
  Pt  Pt29  1  0.750000  0.250000  0.000000  1
