# generated using pymatgen
data_Hf4Co17(Si4W)3
_symmetry_space_group_name_H-M   'P 1'
_cell_length_a   3.64288100
_cell_length_b   10.47176391
_cell_length_c   12.04236300
_cell_angle_alpha   90.31861538
_cell_angle_beta   90.00000000
_cell_angle_gamma   90.00000000
_symmetry_Int_Tables_number   1
_chemical_formula_structural   Hf4Co17(Si4W)3
_chemical_formula_sum   'Hf4 Co17 Si12 W3'
_cell_volume   459.37761247
_cell_formula_units_Z   1
loop_
 _symmetry_equiv_pos_site_id
 _symmetry_equiv_pos_as_xyz
  1  'x, y, z'
loop_
 _atom_site_type_symbol
 _atom_site_label
 _atom_site_symmetry_multiplicity
 _atom_site_fract_x
 _atom_site_fract_y
 _atom_site_fract_z
 _atom_site_occupancy
  Hf  Hf0  1  0.250000  0.577285  0.702671  1
  Hf  Hf1  1  0.250000  0.922537  0.203069  1
  Hf  Hf2  1  0.750000  0.419225  0.294014  1
  Hf  Hf3  1  0.750000  0.074238  0.793582  1
  Co  Co4  1  0.750000  0.206160  0.508251  1
  Co  Co5  1  0.250000  0.404463  0.486488  1
  Co  Co6  1  0.250000  0.095029  0.988717  1
  Co  Co7  1  0.750000  0.593866  0.514791  1
  Co  Co8  1  0.750000  0.906424  0.016200  1
  Co  Co9  1  0.250000  0.219679  0.177108  1
  Co  Co10  1  0.250000  0.283456  0.670547  1
  Co  Co11  1  0.750000  0.784074  0.828170  1
  Co  Co12  1  0.750000  0.716112  0.328531  1
  Co  Co13  1  0.250000  0.887507  0.701354  1
  Co  Co14  1  0.250000  0.615683  0.199796  1
  Co  Co15  1  0.750000  0.117577  0.302109  1
  Co  Co16  1  0.750000  0.381623  0.796737  1
  Co  Co17  1  0.250000  0.463249  0.930288  1
  Co  Co18  1  0.250000  0.034126  0.431193  1
  Co  Co19  1  0.750000  0.535264  0.065652  1
  Co  Co20  1  0.750000  0.968100  0.567843  1
  Si  Si21  1  0.250000  0.421335  0.119133  1
  Si  Si22  1  0.250000  0.084614  0.612418  1
  Si  Si23  1  0.750000  0.578456  0.878114  1
  Si  Si24  1  0.750000  0.921619  0.381038  1
  Si  Si25  1  0.250000  0.260340  0.857283  1
  Si  Si26  1  0.250000  0.234590  0.368126  1
  Si  Si27  1  0.750000  0.736413  0.142331  1
  Si  Si28  1  0.750000  0.767041  0.642638  1
  Si  Si29  1  0.250000  0.589810  0.388377  1
  Si  Si30  1  0.250000  0.909139  0.891162  1
  Si  Si31  1  0.750000  0.400182  0.605279  1
  Si  Si32  1  0.750000  0.094529  0.113863  1
  W  W33  1  0.250000  0.700972  0.993152  1
  W  W34  1  0.250000  0.796772  0.493767  1
  W  W35  1  0.750000  0.298515  0.006212  1
