# generated using pymatgen
data_Th3Co2Sn3Os
_symmetry_space_group_name_H-M   'P 1'
_cell_length_a   7.49143100
_cell_length_b   7.49143027
_cell_length_c   4.05834100
_cell_angle_alpha   90.00000000
_cell_angle_beta   90.00000000
_cell_angle_gamma   119.99999882
_symmetry_Int_Tables_number   1
_chemical_formula_structural   Th3Co2Sn3Os
_chemical_formula_sum   'Th3 Co2 Sn3 Os1'
_cell_volume   197.24622382
_cell_formula_units_Z   1
loop_
 _symmetry_equiv_pos_site_id
 _symmetry_equiv_pos_as_xyz
  1  'x, y, z'
loop_
 _atom_site_type_symbol
 _atom_site_label
 _atom_site_symmetry_multiplicity
 _atom_site_fract_x
 _atom_site_fract_y
 _atom_site_fract_z
 _atom_site_occupancy
  Th  Th0  1  0.999384  0.586002  0.500000  1
  Th  Th1  1  0.413998  0.413382  0.500000  1
  Th  Th2  1  0.586618  0.000616  0.500000  1
  Co  Co3  1  0.000000  0.000000  0.500000  1
  Co  Co4  1  0.666667  0.333333  0.000000  1
  Sn  Sn5  1  0.756083  0.753045  0.000000  1
  Sn  Sn6  1  0.996962  0.243917  0.000000  1
  Sn  Sn7  1  0.246955  0.003038  0.000000  1
  Os  Os8  1  0.333333  0.666667  0.000000  1
