# generated using pymatgen
data_La5Cd2Ru3
_symmetry_space_group_name_H-M   'P 1'
_cell_length_a   8.78012372
_cell_length_b   8.78012375
_cell_length_c   8.78012400
_cell_angle_alpha   109.47122122
_cell_angle_beta   109.47122127
_cell_angle_gamma   109.47121994
_symmetry_Int_Tables_number   1
_chemical_formula_structural   La5Cd2Ru3
_chemical_formula_sum   'La10 Cd4 Ru6'
_cell_volume   521.05075362
_cell_formula_units_Z   2
loop_
 _symmetry_equiv_pos_site_id
 _symmetry_equiv_pos_as_xyz
  1  'x, y, z'
loop_
 _atom_site_type_symbol
 _atom_site_label
 _atom_site_symmetry_multiplicity
 _atom_site_fract_x
 _atom_site_fract_y
 _atom_site_fract_z
 _atom_site_occupancy
  La  La0  1  0.250000  0.687373  0.437374  1
  La  La1  1  0.750000  0.812627  0.062627  1
  La  La2  1  0.437374  0.250000  0.687373  1
  La  La3  1  0.687373  0.437374  0.250000  1
  La  La4  1  0.062627  0.750000  0.812627  1
  La  La5  1  0.812627  0.062627  0.750000  1
  La  La6  1  0.208176  0.208176  0.208176  1
  La  La7  1  0.500001  0.000000  0.291824  1
  La  La8  1  0.291824  0.500001  0.000000  1
  La  La9  1  0.000000  0.291824  0.500001  1
  Cd  Cd10  1  0.500001  0.000000  0.914204  1
  Cd  Cd11  1  0.585796  0.585796  0.585796  1
  Cd  Cd12  1  0.914204  0.500001  0.000000  1
  Cd  Cd13  1  0.000000  0.914204  0.500001  1
  Ru  Ru14  1  0.250001  0.138601  0.888601  1
  Ru  Ru15  1  0.750000  0.361398  0.611398  1
  Ru  Ru16  1  0.888601  0.250001  0.138601  1
  Ru  Ru17  1  0.138601  0.888601  0.250001  1
  Ru  Ru18  1  0.611398  0.750000  0.361398  1
  Ru  Ru19  1  0.361398  0.611398  0.750000  1
