# generated using pymatgen
data_Nb4O7F5
_symmetry_space_group_name_H-M   'P 1'
_cell_length_a   5.67250967
_cell_length_b   5.67250950
_cell_length_c   9.66599529
_cell_angle_alpha   74.32455924
_cell_angle_beta   74.32456075
_cell_angle_gamma   60.29596595
_symmetry_Int_Tables_number   1
_chemical_formula_structural   Nb4O7F5
_chemical_formula_sum   'Nb4 O7 F5'
_cell_volume   256.63050823
_cell_formula_units_Z   1
loop_
 _symmetry_equiv_pos_site_id
 _symmetry_equiv_pos_as_xyz
  1  'x, y, z'
loop_
 _atom_site_type_symbol
 _atom_site_label
 _atom_site_symmetry_multiplicity
 _atom_site_fract_x
 _atom_site_fract_y
 _atom_site_fract_z
 _atom_site_occupancy
  Nb  Nb0  1  0.790729  0.506672  0.621974  1
  Nb  Nb1  1  0.493328  0.209271  0.378026  1
  Nb  Nb2  1  0.205746  0.011476  0.133972  1
  Nb  Nb3  1  0.988524  0.794254  0.866028  1
  O  O4  1  0.854418  0.652409  0.752998  1
  O  O5  1  0.861995  0.142347  0.762364  1
  O  O6  1  0.857653  0.138005  0.237636  1
  O  O7  1  0.145069  0.360832  0.512975  1
  O  O8  1  0.347591  0.145582  0.247002  1
  O  O9  1  0.154577  0.845423  0.000000  1
  O  O10  1  0.639168  0.854931  0.487025  1
  F  F11  1  0.361626  0.639364  0.264860  1
  F  F12  1  0.360636  0.638374  0.735140  1
  F  F13  1  0.649102  0.350898  0.500000  1
  F  F14  1  0.145738  0.355899  0.983295  1
  F  F15  1  0.644101  0.854262  0.016705  1
