# generated using pymatgen
data_Nd3Fe(Co4P3)2
_symmetry_space_group_name_H-M   'P 1'
_cell_length_a   3.75572400
_cell_length_b   10.63207800
_cell_length_c   12.34321000
_cell_angle_alpha   90.00000000
_cell_angle_beta   90.00000000
_cell_angle_gamma   90.00000000
_symmetry_Int_Tables_number   1
_chemical_formula_structural   Nd3Fe(Co4P3)2
_chemical_formula_sum   'Nd6 Fe2 Co16 P12'
_cell_volume   492.87857634
_cell_formula_units_Z   2
loop_
 _symmetry_equiv_pos_site_id
 _symmetry_equiv_pos_as_xyz
  1  'x, y, z'
loop_
 _atom_site_type_symbol
 _atom_site_label
 _atom_site_symmetry_multiplicity
 _atom_site_fract_x
 _atom_site_fract_y
 _atom_site_fract_z
 _atom_site_occupancy
  Nd  Nd0  1  0.000000  0.500000  0.520831  1
  Nd  Nd1  1  0.500000  0.000000  0.479169  1
  Nd  Nd2  1  0.500000  0.818334  0.205358  1
  Nd  Nd3  1  0.500000  0.181666  0.205358  1
  Nd  Nd4  1  0.000000  0.681666  0.794642  1
  Nd  Nd5  1  0.000000  0.318334  0.794642  1
  Fe  Fe6  1  0.500000  0.500000  0.156010  1
  Fe  Fe7  1  0.000000  0.000000  0.843990  1
  Co  Co8  1  0.500000  0.500000  0.704392  1
  Co  Co9  1  0.000000  0.000000  0.295608  1
  Co  Co10  1  0.000000  0.500000  0.988805  1
  Co  Co11  1  0.500000  0.000000  0.011195  1
  Co  Co12  1  0.500000  0.333151  0.996161  1
  Co  Co13  1  0.500000  0.666849  0.996161  1
  Co  Co14  1  0.000000  0.166849  0.003839  1
  Co  Co15  1  0.000000  0.833151  0.003839  1
  Co  Co16  1  0.500000  0.296927  0.430268  1
  Co  Co17  1  0.500000  0.703073  0.430268  1
  Co  Co18  1  0.000000  0.203073  0.569732  1
  Co  Co19  1  0.000000  0.796927  0.569732  1
  Co  Co20  1  0.500000  0.880813  0.710181  1
  Co  Co21  1  0.500000  0.119187  0.710181  1
  Co  Co22  1  0.000000  0.619187  0.289819  1
  Co  Co23  1  0.000000  0.380813  0.289819  1
  P  P24  1  0.500000  0.500000  0.887422  1
  P  P25  1  0.000000  0.000000  0.112578  1
  P  P26  1  0.500000  0.500000  0.338777  1
  P  P27  1  0.000000  0.000000  0.661223  1
  P  P28  1  0.500000  0.306157  0.614243  1
  P  P29  1  0.500000  0.693843  0.614243  1
  P  P30  1  0.000000  0.193843  0.385757  1
  P  P31  1  0.000000  0.806157  0.385757  1
  P  P32  1  0.500000  0.848211  0.894222  1
  P  P33  1  0.500000  0.151789  0.894222  1
  P  P34  1  0.000000  0.651789  0.105778  1
  P  P35  1  0.000000  0.348211  0.105778  1
