# generated using pymatgen
data_YbPrB12
_symmetry_space_group_name_H-M   'P 1'
_cell_length_a   5.84411297
_cell_length_b   5.84411380
_cell_length_c   5.84411300
_cell_angle_alpha   59.99999889
_cell_angle_beta   59.99999418
_cell_angle_gamma   60.00000083
_symmetry_Int_Tables_number   1
_chemical_formula_structural   YbPrB12
_chemical_formula_sum   'Yb1 Pr1 B12'
_cell_volume   141.13699098
_cell_formula_units_Z   1
loop_
 _symmetry_equiv_pos_site_id
 _symmetry_equiv_pos_as_xyz
  1  'x, y, z'
loop_
 _atom_site_type_symbol
 _atom_site_label
 _atom_site_symmetry_multiplicity
 _atom_site_fract_x
 _atom_site_fract_y
 _atom_site_fract_z
 _atom_site_occupancy
  Yb  Yb0  1  0.500000  0.500000  0.500000  1
  Pr  Pr1  1  0.000000  0.000000  0.000000  1
  B  B2  1  0.399855  0.100145  0.100145  1
  B  B3  1  0.899855  0.600145  0.600145  1
  B  B4  1  0.399855  0.399855  0.100145  1
  B  B5  1  0.899855  0.899855  0.600145  1
  B  B6  1  0.100145  0.399855  0.100145  1
  B  B7  1  0.600145  0.899855  0.600145  1
  B  B8  1  0.100145  0.100145  0.399855  1
  B  B9  1  0.600145  0.600145  0.899855  1
  B  B10  1  0.399855  0.100145  0.399855  1
  B  B11  1  0.899855  0.600145  0.899855  1
  B  B12  1  0.100145  0.399855  0.399855  1
  B  B13  1  0.600145  0.899855  0.899855  1
