# generated using pymatgen
data_Nb4Si3Os2
_symmetry_space_group_name_H-M   'P 1'
_cell_length_a   7.54695142
_cell_length_b   7.54695014
_cell_length_c   7.54695100
_cell_angle_alpha   126.95586671
_cell_angle_beta   124.14462239
_cell_angle_gamma   80.64892441
_symmetry_Int_Tables_number   1
_chemical_formula_structural   Nb4Si3Os2
_chemical_formula_sum   'Nb8 Si6 Os4'
_cell_volume   274.15273368
_cell_formula_units_Z   2
loop_
 _symmetry_equiv_pos_site_id
 _symmetry_equiv_pos_as_xyz
  1  'x, y, z'
loop_
 _atom_site_type_symbol
 _atom_site_label
 _atom_site_symmetry_multiplicity
 _atom_site_fract_x
 _atom_site_fract_y
 _atom_site_fract_z
 _atom_site_occupancy
  Nb  Nb0  1  0.558201  0.092271  0.034071  1
  Nb  Nb1  1  0.441799  0.475870  0.534071  1
  Nb  Nb2  1  0.961461  0.485646  0.024185  1
  Nb  Nb3  1  0.038539  0.062724  0.524185  1
  Nb  Nb4  1  0.753666  0.916942  0.663276  1
  Nb  Nb5  1  0.246334  0.909610  0.163276  1
  Nb  Nb6  1  0.500000  0.251331  0.751331  1
  Nb  Nb7  1  0.000000  0.251331  0.251331  1
  Si  Si8  1  0.783592  0.559320  0.275727  1
  Si  Si9  1  0.216408  0.492135  0.775727  1
  Si  Si10  1  0.335514  0.817313  0.494013  1
  Si  Si11  1  0.664486  0.158498  0.481798  1
  Si  Si12  1  0.823300  0.817313  0.981798  1
  Si  Si13  1  0.176700  0.158498  0.994013  1
  Os  Os14  1  0.165364  0.750026  0.662038  1
  Os  Os15  1  0.834636  0.496674  0.584662  1
  Os  Os16  1  0.587987  0.750026  0.084662  1
  Os  Os17  1  0.412013  0.496674  0.162038  1
