# generated using pymatgen
data_Tb7Tm3(GaSb)4
_symmetry_space_group_name_H-M   'P 1'
_cell_length_a   8.63166892
_cell_length_b   8.65506503
_cell_length_c   7.91706057
_cell_angle_alpha   90.14104813
_cell_angle_beta   90.11466547
_cell_angle_gamma   125.39779267
_symmetry_Int_Tables_number   1
_chemical_formula_structural   Tb7Tm3(GaSb)4
_chemical_formula_sum   'Tb7 Tm3 Ga4 Sb4'
_cell_volume   482.12706767
_cell_formula_units_Z   1
loop_
 _symmetry_equiv_pos_site_id
 _symmetry_equiv_pos_as_xyz
  1  'x, y, z'
loop_
 _atom_site_type_symbol
 _atom_site_label
 _atom_site_symmetry_multiplicity
 _atom_site_fract_x
 _atom_site_fract_y
 _atom_site_fract_z
 _atom_site_occupancy
  Tb  Tb0  1  0.538748  0.801609  0.168392  1
  Tb  Tb1  1  0.301909  0.039140  0.331543  1
  Tb  Tb2  1  0.197683  0.460949  0.831313  1
  Tb  Tb3  1  0.961210  0.700017  0.668200  1
  Tb  Tb4  1  0.698237  0.961221  0.667928  1
  Tb  Tb5  1  0.461812  0.199421  0.831639  1
  Tb  Tb6  1  0.802351  0.539612  0.168685  1
  Tm  Tm7  1  0.038389  0.296903  0.333798  1
  Tm  Tm8  1  0.498954  0.499113  0.499331  1
  Tm  Tm9  1  0.000402  0.001113  0.000921  1
  Ga  Ga10  1  0.624189  0.624575  0.875724  1
  Ga  Ga11  1  0.124580  0.125331  0.623261  1
  Ga  Ga12  1  0.875976  0.876959  0.375619  1
  Ga  Ga13  1  0.374323  0.375305  0.125266  1
  Sb  Sb14  1  0.292332  0.700864  0.497212  1
  Sb  Sb15  1  0.204823  0.796871  0.998961  1
  Sb  Sb16  1  0.706962  0.295981  0.499208  1
  Sb  Sb17  1  0.797122  0.205015  0.002999  1
