# generated using pymatgen
data_Er2Tm8In8CoPt3
_symmetry_space_group_name_H-M   'P 1'
_cell_length_a   3.57268800
_cell_length_b   8.01848700
_cell_length_c   17.97741002
_cell_angle_alpha   89.99880093
_cell_angle_beta   90.00000000
_cell_angle_gamma   90.00000000
_symmetry_Int_Tables_number   1
_chemical_formula_structural   Er2Tm8In8CoPt3
_chemical_formula_sum   'Er2 Tm8 In8 Co1 Pt3'
_cell_volume   515.00879371
_cell_formula_units_Z   1
loop_
 _symmetry_equiv_pos_site_id
 _symmetry_equiv_pos_as_xyz
  1  'x, y, z'
loop_
 _atom_site_type_symbol
 _atom_site_label
 _atom_site_symmetry_multiplicity
 _atom_site_fract_x
 _atom_site_fract_y
 _atom_site_fract_z
 _atom_site_occupancy
  Er  Er0  1  0.000000  0.999670  0.001119  1
  Er  Er1  1  0.000000  0.500565  0.498693  1
  Tm  Tm2  1  0.000000  0.112708  0.408762  1
  Tm  Tm3  1  0.000000  0.883186  0.583988  1
  Tm  Tm4  1  0.000000  0.382902  0.915394  1
  Tm  Tm5  1  0.000000  0.617891  0.087113  1
  Tm  Tm6  1  0.000000  0.233691  0.223809  1
  Tm  Tm7  1  0.000000  0.757705  0.779151  1
  Tm  Tm8  1  0.000000  0.256841  0.720724  1
  Tm  Tm9  1  0.000000  0.755869  0.279832  1
  In  In10  1  0.500000  0.421639  0.351428  1
  In  In11  1  0.500000  0.575711  0.647440  1
  In  In12  1  0.500000  0.075492  0.852165  1
  In  In13  1  0.500000  0.929131  0.151948  1
  In  In14  1  0.500000  0.292278  0.068006  1
  In  In15  1  0.500000  0.708241  0.934141  1
  In  In16  1  0.500000  0.207641  0.564837  1
  In  In17  1  0.500000  0.795766  0.429552  1
  Co  Co18  1  0.500000  0.019955  0.304918  1
  Pt  Pt19  1  0.500000  0.975371  0.695532  1
  Pt  Pt20  1  0.500000  0.475591  0.804082  1
  Pt  Pt21  1  0.500000  0.522155  0.197364  1
