# generated using pymatgen
data_Nd7Dy(SBr6)2
_symmetry_space_group_name_H-M   'P 1'
_cell_length_a   4.09659400
_cell_length_b   13.36732840
_cell_length_c   14.12990400
_cell_angle_alpha   90.40101244
_cell_angle_beta   90.00000000
_cell_angle_gamma   90.00000000
_symmetry_Int_Tables_number   1
_chemical_formula_structural   Nd7Dy(SBr6)2
_chemical_formula_sum   'Nd7 Dy1 S2 Br12'
_cell_volume   773.74190134
_cell_formula_units_Z   1
loop_
 _symmetry_equiv_pos_site_id
 _symmetry_equiv_pos_as_xyz
  1  'x, y, z'
loop_
 _atom_site_type_symbol
 _atom_site_label
 _atom_site_symmetry_multiplicity
 _atom_site_fract_x
 _atom_site_fract_y
 _atom_site_fract_z
 _atom_site_occupancy
  Nd  Nd0  1  0.500000  0.118098  0.342919  1
  Nd  Nd1  1  0.500000  0.882945  0.657804  1
  Nd  Nd2  1  0.500000  0.616466  0.155810  1
  Nd  Nd3  1  0.000000  0.116302  0.578015  1
  Nd  Nd4  1  0.000000  0.885432  0.423809  1
  Nd  Nd5  1  0.000000  0.614755  0.923596  1
  Nd  Nd6  1  0.000000  0.384998  0.075950  1
  Dy  Dy7  1  0.500000  0.383198  0.843192  1
  S  S8  1  0.500000  0.001151  0.500762  1
  S  S9  1  0.500000  0.497422  0.996522  1
  Br  Br10  1  0.500000  0.242991  0.160108  1
  Br  Br11  1  0.500000  0.755585  0.838084  1
  Br  Br12  1  0.500000  0.742964  0.338306  1
  Br  Br13  1  0.500000  0.258903  0.667134  1
  Br  Br14  1  0.000000  0.261742  0.415083  1
  Br  Br15  1  0.000000  0.738953  0.585945  1
  Br  Br16  1  0.000000  0.760444  0.086527  1
  Br  Br17  1  0.000000  0.247084  0.905636  1
  Br  Br18  1  0.000000  0.997475  0.238937  1
  Br  Br19  1  0.000000  0.003030  0.762278  1
  Br  Br20  1  0.000000  0.498203  0.260517  1
  Br  Br21  1  0.000000  0.491857  0.743069  1
