# generated using pymatgen
data_Na2Dy3P12Ir13Ru6
_symmetry_space_group_name_H-M   'P 1'
_cell_length_a   12.57878329
_cell_length_b   12.58804245
_cell_length_c   3.98568800
_cell_angle_alpha   90.00000000
_cell_angle_beta   90.00000000
_cell_angle_gamma   119.60189414
_symmetry_Int_Tables_number   1
_chemical_formula_structural   Na2Dy3P12Ir13Ru6
_chemical_formula_sum   'Na2 Dy3 P12 Ir13 Ru6'
_cell_volume   548.73041154
_cell_formula_units_Z   1
loop_
 _symmetry_equiv_pos_site_id
 _symmetry_equiv_pos_as_xyz
  1  'x, y, z'
loop_
 _atom_site_type_symbol
 _atom_site_label
 _atom_site_symmetry_multiplicity
 _atom_site_fract_x
 _atom_site_fract_y
 _atom_site_fract_z
 _atom_site_occupancy
  Na  Na0  1  0.819023  0.002098  0.500000  1
  Na  Na1  1  0.181035  0.182496  0.500000  1
  Dy  Dy2  1  0.669675  0.335187  0.000000  1
  Dy  Dy3  1  0.331055  0.663989  0.000000  1
  Dy  Dy4  1  0.999642  0.822204  0.500000  1
  P  P5  1  0.643832  0.003580  0.000000  1
  P  P6  1  0.364173  0.363382  0.000000  1
  P  P7  1  0.999885  0.635849  0.000000  1
  P  P8  1  0.688422  0.520891  0.500000  1
  P  P9  1  0.830590  0.306225  0.500000  1
  P  P10  1  0.308461  0.828627  0.500000  1
  P  P11  1  0.520327  0.688599  0.500000  1
  P  P12  1  0.182680  0.003900  0.000000  1
  P  P13  1  0.817788  0.821975  0.000000  1
  P  P14  1  0.997727  0.180873  0.000000  1
  P  P15  1  0.479806  0.171510  0.500000  1
  P  P16  1  0.166575  0.477075  0.500000  1
  Ir  Ir17  1  0.619746  0.804365  0.000000  1
  Ir  Ir18  1  0.184976  0.378599  0.000000  1
  Ir  Ir19  1  0.381190  0.183070  0.000000  1
  Ir  Ir20  1  0.193355  0.818039  0.000000  1
  Ir  Ir21  1  0.807720  0.625789  0.000000  1
  Ir  Ir22  1  0.867545  0.505375  0.500000  1
  Ir  Ir23  1  0.492083  0.363098  0.500000  1
  Ir  Ir24  1  0.634462  0.127721  0.500000  1
  Ir  Ir25  1  0.128836  0.637972  0.500000  1
  Ir  Ir26  1  0.362474  0.493463  0.500000  1
  Ir  Ir27  1  0.504000  0.865313  0.500000  1
  Ir  Ir28  1  0.000056  0.997261  0.000000  1
  Ir  Ir29  1  0.454861  0.993831  0.000000  1
  Ru  Ru30  1  0.713010  0.712609  0.500000  1
  Ru  Ru31  1  0.001815  0.286785  0.500000  1
  Ru  Ru32  1  0.546777  0.545323  0.000000  1
  Ru  Ru33  1  0.001295  0.455924  0.000000  1
  Ru  Ru34  1  0.816592  0.198007  0.000000  1
  Ru  Ru35  1  0.288513  0.998999  0.500000  1
