# generated using pymatgen
data_ReIr4RhW2
_symmetry_space_group_name_H-M   'P 1'
_cell_length_a   5.53994100
_cell_length_b   5.56862986
_cell_length_c   4.42451700
_cell_angle_alpha   90.00000000
_cell_angle_beta   90.00000000
_cell_angle_gamma   119.82972926
_symmetry_Int_Tables_number   1
_chemical_formula_structural   ReIr4RhW2
_chemical_formula_sum   'Re1 Ir4 Rh1 W2'
_cell_volume   118.41114551
_cell_formula_units_Z   1
loop_
 _symmetry_equiv_pos_site_id
 _symmetry_equiv_pos_as_xyz
  1  'x, y, z'
loop_
 _atom_site_type_symbol
 _atom_site_label
 _atom_site_symmetry_multiplicity
 _atom_site_fract_x
 _atom_site_fract_y
 _atom_site_fract_z
 _atom_site_occupancy
  Re  Re0  1  0.834591  0.669181  0.250000  1
  Ir  Ir1  1  0.168187  0.832735  0.750000  1
  Ir  Ir2  1  0.664547  0.832735  0.750000  1
  Ir  Ir3  1  0.333021  0.169070  0.250000  1
  Ir  Ir4  1  0.836050  0.169070  0.250000  1
  Rh  Rh5  1  0.165300  0.330602  0.750000  1
  W  W6  1  0.332121  0.664244  0.250000  1
  W  W7  1  0.666183  0.332364  0.750000  1
