# generated using pymatgen
data_Be8ZnCo2Si
_symmetry_space_group_name_H-M   'P 1'
_cell_length_a   4.18131600
_cell_length_b   4.18131661
_cell_length_c   6.80467300
_cell_angle_alpha   90.00000000
_cell_angle_beta   90.00000000
_cell_angle_gamma   120.00001103
_symmetry_Int_Tables_number   1
_chemical_formula_structural   Be8ZnCo2Si
_chemical_formula_sum   'Be8 Zn1 Co2 Si1'
_cell_volume   103.03004439
_cell_formula_units_Z   1
loop_
 _symmetry_equiv_pos_site_id
 _symmetry_equiv_pos_as_xyz
  1  'x, y, z'
loop_
 _atom_site_type_symbol
 _atom_site_label
 _atom_site_symmetry_multiplicity
 _atom_site_fract_x
 _atom_site_fract_y
 _atom_site_fract_z
 _atom_site_occupancy
  Be  Be0  1  0.167949  0.335898  0.749837  1
  Be  Be1  1  0.167949  0.832051  0.749837  1
  Be  Be2  1  0.334081  0.167040  0.250092  1
  Be  Be3  1  0.832960  0.665919  0.250092  1
  Be  Be4  1  0.000000  0.000000  0.996669  1
  Be  Be5  1  0.664102  0.832051  0.749837  1
  Be  Be6  1  0.832960  0.167040  0.250092  1
  Be  Be7  1  0.000000  0.000000  0.494558  1
  Zn  Zn8  1  0.666667  0.333333  0.562290  1
  Co  Co9  1  0.333333  0.666667  0.428673  1
  Co  Co10  1  0.666667  0.333333  0.953187  1
  Si  Si11  1  0.333333  0.666667  0.064841  1
