# generated using pymatgen
data_Hf12Ti4Mo5Os3
_symmetry_space_group_name_H-M   'P 1'
_cell_length_a   8.65907227
_cell_length_b   8.62973841
_cell_length_c   8.62973900
_cell_angle_alpha   60.00000159
_cell_angle_beta   60.11200083
_cell_angle_gamma   60.11199757
_symmetry_Int_Tables_number   1
_chemical_formula_structural   Hf12Ti4Mo5Os3
_chemical_formula_sum   'Hf12 Ti4 Mo5 Os3'
_cell_volume   456.75656351
_cell_formula_units_Z   1
loop_
 _symmetry_equiv_pos_site_id
 _symmetry_equiv_pos_as_xyz
  1  'x, y, z'
loop_
 _atom_site_type_symbol
 _atom_site_label
 _atom_site_symmetry_multiplicity
 _atom_site_fract_x
 _atom_site_fract_y
 _atom_site_fract_z
 _atom_site_occupancy
  Hf  Hf0  1  0.808733  0.809138  0.191064  1
  Hf  Hf1  1  0.188451  0.192001  0.809774  1
  Hf  Hf2  1  0.808733  0.191064  0.809138  1
  Hf  Hf3  1  0.188451  0.809774  0.192001  1
  Hf  Hf4  1  0.188451  0.809774  0.809774  1
  Hf  Hf5  1  0.808733  0.191064  0.191064  1
  Hf  Hf6  1  0.443248  0.444948  0.055902  1
  Hf  Hf7  1  0.054361  0.056008  0.444816  1
  Hf  Hf8  1  0.443248  0.055902  0.444948  1
  Hf  Hf9  1  0.054361  0.444816  0.056008  1
  Hf  Hf10  1  0.054361  0.444816  0.444816  1
  Hf  Hf11  1  0.443248  0.055902  0.055902  1
  Ti  Ti12  1  0.119010  0.626997  0.626997  1
  Ti  Ti13  1  0.628193  0.121179  0.625314  1
  Ti  Ti14  1  0.628193  0.625314  0.121179  1
  Ti  Ti15  1  0.628193  0.625314  0.625314  1
  Mo  Mo16  1  0.752168  0.415943  0.415943  1
  Mo  Mo17  1  0.415324  0.751946  0.416364  1
  Mo  Mo18  1  0.415324  0.416364  0.751946  1
  Mo  Mo19  1  0.415324  0.416364  0.416364  1
  Mo  Mo20  1  0.501954  0.832683  0.832683  1
  Os  Os21  1  0.837313  0.494193  0.834248  1
  Os  Os22  1  0.837313  0.834248  0.494193  1
  Os  Os23  1  0.837313  0.834248  0.834248  1
