# generated using pymatgen
data_NdYCo9Mo3As7
_symmetry_space_group_name_H-M   'P 1'
_cell_length_a   3.86961300
_cell_length_b   9.43236724
_cell_length_c   9.43236800
_cell_angle_alpha   119.99999567
_cell_angle_beta   90.00000000
_cell_angle_gamma   90.00000000
_symmetry_Int_Tables_number   1
_chemical_formula_structural   NdYCo9Mo3As7
_chemical_formula_sum   'Nd1 Y1 Co9 Mo3 As7'
_cell_volume   298.15330053
_cell_formula_units_Z   1
loop_
 _symmetry_equiv_pos_site_id
 _symmetry_equiv_pos_as_xyz
  1  'x, y, z'
loop_
 _atom_site_type_symbol
 _atom_site_label
 _atom_site_symmetry_multiplicity
 _atom_site_fract_x
 _atom_site_fract_y
 _atom_site_fract_z
 _atom_site_occupancy
  Nd  Nd0  1  0.500000  0.333333  0.666667  1
  Y  Y1  1  0.000000  0.666667  0.333333  1
  Co  Co2  1  0.000000  0.572069  0.942949  1
  Co  Co3  1  0.000000  0.370880  0.427931  1
  Co  Co4  1  0.000000  0.057051  0.629120  1
  Co  Co5  1  0.000000  0.875763  0.156824  1
  Co  Co6  1  0.000000  0.281061  0.124237  1
  Co  Co7  1  0.000000  0.843176  0.718939  1
  Co  Co8  1  0.500000  0.947815  0.381122  1
  Co  Co9  1  0.500000  0.433306  0.052185  1
  Co  Co10  1  0.500000  0.618878  0.566694  1
  Mo  Mo11  1  0.500000  0.782354  0.902901  1
  Mo  Mo12  1  0.500000  0.120547  0.217646  1
  Mo  Mo13  1  0.500000  0.097099  0.879453  1
  As  As14  1  0.000000  0.000000  0.000000  1
  As  As15  1  0.500000  0.706859  0.118922  1
  As  As16  1  0.500000  0.412064  0.293141  1
  As  As17  1  0.500000  0.881078  0.587936  1
  As  As18  1  0.000000  0.589450  0.699428  1
  As  As19  1  0.000000  0.109979  0.410550  1
  As  As20  1  0.000000  0.300572  0.890021  1
