# generated using pymatgen
data_Pr6IrPd7
_symmetry_space_group_name_H-M   'P 1'
_cell_length_a   8.20259502
_cell_length_b   8.20259450
_cell_length_c   8.20259492
_cell_angle_alpha   114.42338583
_cell_angle_beta   114.42338743
_cell_angle_gamma   114.42338771
_symmetry_Int_Tables_number   1
_chemical_formula_structural   Pr6IrPd7
_chemical_formula_sum   'Pr6 Ir1 Pd7'
_cell_volume   324.50788050
_cell_formula_units_Z   1
loop_
 _symmetry_equiv_pos_site_id
 _symmetry_equiv_pos_as_xyz
  1  'x, y, z'
loop_
 _atom_site_type_symbol
 _atom_site_label
 _atom_site_symmetry_multiplicity
 _atom_site_fract_x
 _atom_site_fract_y
 _atom_site_fract_z
 _atom_site_occupancy
  Pr  Pr0  1  0.396614  0.026541  0.274982  1
  Pr  Pr1  1  0.026541  0.274982  0.396614  1
  Pr  Pr2  1  0.274982  0.396614  0.026541  1
  Pr  Pr3  1  0.603386  0.973459  0.725018  1
  Pr  Pr4  1  0.973459  0.725018  0.603386  1
  Pr  Pr5  1  0.725018  0.603386  0.973459  1
  Ir  Ir6  1  0.000000  0.000000  0.000000  1
  Pd  Pd7  1  0.500000  0.500000  0.500000  1
  Pd  Pd8  1  0.223902  0.058525  0.555742  1
  Pd  Pd9  1  0.058525  0.555742  0.223902  1
  Pd  Pd10  1  0.555742  0.223902  0.058525  1
  Pd  Pd11  1  0.776098  0.941475  0.444258  1
  Pd  Pd12  1  0.941475  0.444258  0.776098  1
  Pd  Pd13  1  0.444258  0.776098  0.941475  1
