# generated using pymatgen
data_MgTa8AlS16
_symmetry_space_group_name_H-M   'P 1'
_cell_length_a   6.67546400
_cell_length_b   6.67546415
_cell_length_c   12.38392100
_cell_angle_alpha   90.00000000
_cell_angle_beta   90.00000000
_cell_angle_gamma   120.00000918
_symmetry_Int_Tables_number   1
_chemical_formula_structural   MgTa8AlS16
_chemical_formula_sum   'Mg1 Ta8 Al1 S16'
_cell_volume   477.91613204
_cell_formula_units_Z   1
loop_
 _symmetry_equiv_pos_site_id
 _symmetry_equiv_pos_as_xyz
  1  'x, y, z'
loop_
 _atom_site_type_symbol
 _atom_site_label
 _atom_site_symmetry_multiplicity
 _atom_site_fract_x
 _atom_site_fract_y
 _atom_site_fract_z
 _atom_site_occupancy
  Mg  Mg0  1  0.000000  0.000000  0.000000  1
  Ta  Ta1  1  0.504998  0.495002  0.742606  1
  Ta  Ta2  1  0.009995  0.504998  0.257394  1
  Ta  Ta3  1  0.495002  0.990005  0.257394  1
  Ta  Ta4  1  0.504998  0.009995  0.742606  1
  Ta  Ta5  1  0.990005  0.495002  0.742606  1
  Ta  Ta6  1  0.495002  0.504998  0.257394  1
  Ta  Ta7  1  0.000000  0.000000  0.743672  1
  Ta  Ta8  1  0.000000  0.000000  0.256328  1
  Al  Al9  1  0.000000  0.000000  0.500000  1
  S  S10  1  0.831912  0.168088  0.383577  1
  S  S11  1  0.831912  0.663824  0.383577  1
  S  S12  1  0.336176  0.168088  0.383577  1
  S  S13  1  0.662222  0.831111  0.868216  1
  S  S14  1  0.168088  0.336176  0.616423  1
  S  S15  1  0.168889  0.831111  0.868216  1
  S  S16  1  0.168889  0.337778  0.868216  1
  S  S17  1  0.831111  0.168889  0.131784  1
  S  S18  1  0.337778  0.168889  0.131784  1
  S  S19  1  0.663824  0.831912  0.616423  1
  S  S20  1  0.333333  0.666667  0.128805  1
  S  S21  1  0.666667  0.333333  0.615353  1
  S  S22  1  0.666667  0.333333  0.871195  1
  S  S23  1  0.333333  0.666667  0.384647  1
  S  S24  1  0.831111  0.662222  0.131784  1
  S  S25  1  0.168088  0.831912  0.616423  1
