# generated using pymatgen
data_Ho16Tl3InPt3Rh
_symmetry_space_group_name_H-M   'P 1'
_cell_length_a   9.68600479
_cell_length_b   9.68731476
_cell_length_c   9.66802574
_cell_angle_alpha   59.97758540
_cell_angle_beta   59.93846016
_cell_angle_gamma   60.00447705
_symmetry_Int_Tables_number   1
_chemical_formula_structural   Ho16Tl3InPt3Rh
_chemical_formula_sum   'Ho16 Tl3 In1 Pt3 Rh1'
_cell_volume   641.07614704
_cell_formula_units_Z   1
loop_
 _symmetry_equiv_pos_site_id
 _symmetry_equiv_pos_as_xyz
  1  'x, y, z'
loop_
 _atom_site_type_symbol
 _atom_site_label
 _atom_site_symmetry_multiplicity
 _atom_site_fract_x
 _atom_site_fract_y
 _atom_site_fract_z
 _atom_site_occupancy
  Ho  Ho0  1  0.187509  0.188020  0.812826  1
  Ho  Ho1  1  0.602086  0.601238  0.194591  1
  Ho  Ho2  1  0.439352  0.060479  0.439997  1
  Ho  Ho3  1  0.439878  0.438834  0.058164  1
  Ho  Ho4  1  0.811643  0.188020  0.812826  1
  Ho  Ho5  1  0.189121  0.811187  0.188144  1
  Ho  Ho6  1  0.439180  0.063858  0.057782  1
  Ho  Ho7  1  0.187481  0.811788  0.813248  1
  Ho  Ho8  1  0.063125  0.438834  0.058164  1
  Ho  Ho9  1  0.811547  0.811187  0.188144  1
  Ho  Ho10  1  0.199897  0.598396  0.602789  1
  Ho  Ho11  1  0.060104  0.439307  0.440483  1
  Ho  Ho12  1  0.060171  0.060479  0.439997  1
  Ho  Ho13  1  0.811123  0.189449  0.188306  1
  Ho  Ho14  1  0.599252  0.198277  0.603219  1
  Ho  Ho15  1  0.598918  0.598396  0.602789  1
  Tl  Tl16  1  0.836428  0.835007  0.836203  1
  Tl  Tl17  1  0.836102  0.834695  0.493101  1
  Tl  Tl18  1  0.492362  0.835007  0.836203  1
  In  In19  1  0.833858  0.498631  0.833654  1
  Pt  Pt20  1  0.393256  0.821698  0.391790  1
  Pt  Pt21  1  0.393755  0.392756  0.392191  1
  Pt  Pt22  1  0.821297  0.392756  0.392191  1
  Rh  Rh23  1  0.392553  0.391699  0.823194  1
