# generated using pymatgen
data_Y3Th(Ga5Ir3)2
_symmetry_space_group_name_H-M   'P 1'
_cell_length_a   8.60017647
_cell_length_b   8.65189313
_cell_length_c   8.65189435
_cell_angle_alpha   141.23405031
_cell_angle_beta   109.28575714
_cell_angle_gamma   83.76161984
_symmetry_Int_Tables_number   1
_chemical_formula_structural   Y3Th(Ga5Ir3)2
_chemical_formula_sum   'Y3 Th1 Ga10 Ir6'
_cell_volume   368.20328984
_cell_formula_units_Z   1
loop_
 _symmetry_equiv_pos_site_id
 _symmetry_equiv_pos_as_xyz
  1  'x, y, z'
loop_
 _atom_site_type_symbol
 _atom_site_label
 _atom_site_symmetry_multiplicity
 _atom_site_fract_x
 _atom_site_fract_y
 _atom_site_fract_z
 _atom_site_occupancy
  Y  Y0  1  0.370221  0.641205  0.729016  1
  Y  Y1  1  0.914855  0.142267  0.772589  1
  Y  Y2  1  0.084796  0.857357  0.227438  1
  Th  Th3  1  0.629279  0.356052  0.273226  1
  Ga  Ga4  1  0.405697  0.083609  0.322087  1
  Ga  Ga5  1  0.592316  0.916863  0.675454  1
  Ga  Ga6  1  0.236297  0.415635  0.820662  1
  Ga  Ga7  1  0.765463  0.587121  0.178342  1
  Ga  Ga8  1  0.292770  0.549971  0.247898  1
  Ga  Ga9  1  0.702747  0.949551  0.250316  1
  Ga  Ga10  1  0.702747  0.452431  0.753196  1
  Ga  Ga11  1  0.292770  0.044872  0.742800  1
  Ga  Ga12  1  0.004639  0.248844  0.251282  1
  Ga  Ga13  1  0.004639  0.753357  0.755795  1
  Ir  Ir14  1  0.248850  0.155280  0.093571  1
  Ir  Ir15  1  0.754417  0.848426  0.905991  1
  Ir  Ir16  1  0.937461  0.348243  0.589219  1
  Ir  Ir17  1  0.060552  0.649753  0.410798  1
  Ir  Ir18  1  0.499742  0.249794  0.750372  1
  Ir  Ir19  1  0.499742  0.749370  0.249948  1
