# generated using pymatgen
data_Yb3ErTh6(Pb3C)2
_symmetry_space_group_name_H-M   'P 1'
_cell_length_a   9.33441500
_cell_length_b   9.33441430
_cell_length_c   6.62062700
_cell_angle_alpha   90.00000000
_cell_angle_beta   90.00000000
_cell_angle_gamma   119.99999894
_symmetry_Int_Tables_number   1
_chemical_formula_structural   Yb3ErTh6(Pb3C)2
_chemical_formula_sum   'Yb3 Er1 Th6 Pb6 C2'
_cell_volume   499.57872500
_cell_formula_units_Z   1
loop_
 _symmetry_equiv_pos_site_id
 _symmetry_equiv_pos_as_xyz
  1  'x, y, z'
loop_
 _atom_site_type_symbol
 _atom_site_label
 _atom_site_symmetry_multiplicity
 _atom_site_fract_x
 _atom_site_fract_y
 _atom_site_fract_z
 _atom_site_occupancy
  Yb  Yb0  1  0.666667  0.333333  0.000000  1
  Yb  Yb1  1  0.333333  0.666667  0.000000  1
  Yb  Yb2  1  0.333333  0.666667  0.500000  1
  Er  Er3  1  0.666667  0.333333  0.500000  1
  Th  Th4  1  0.781809  0.782092  0.749866  1
  Th  Th5  1  0.217908  0.999717  0.749866  1
  Th  Th6  1  0.000283  0.218191  0.749866  1
  Th  Th7  1  0.217908  0.218191  0.250134  1
  Th  Th8  1  0.781809  0.999717  0.250134  1
  Th  Th9  1  0.000283  0.782092  0.250134  1
  Pb  Pb10  1  0.409392  0.406832  0.746450  1
  Pb  Pb11  1  0.593168  0.002560  0.746450  1
  Pb  Pb12  1  0.997440  0.590608  0.746450  1
  Pb  Pb13  1  0.593168  0.590608  0.253550  1
  Pb  Pb14  1  0.409392  0.002560  0.253550  1
  Pb  Pb15  1  0.997440  0.406832  0.253550  1
  C  C16  1  0.000000  0.000000  0.000000  1
  C  C17  1  0.000000  0.000000  0.500000  1
