# generated using pymatgen
data_Y20Ir3RuRh8
_symmetry_space_group_name_H-M   'P 1'
_cell_length_a   10.92608407
_cell_length_b   10.92357610
_cell_length_c   6.42557101
_cell_angle_alpha   89.99259684
_cell_angle_beta   90.00183973
_cell_angle_gamma   89.94920662
_symmetry_Int_Tables_number   1
_chemical_formula_structural   Y20Ir3RuRh8
_chemical_formula_sum   'Y20 Ir3 Ru1 Rh8'
_cell_volume   766.90387051
_cell_formula_units_Z   1
loop_
 _symmetry_equiv_pos_site_id
 _symmetry_equiv_pos_as_xyz
  1  'x, y, z'
loop_
 _atom_site_type_symbol
 _atom_site_label
 _atom_site_symmetry_multiplicity
 _atom_site_fract_x
 _atom_site_fract_y
 _atom_site_fract_z
 _atom_site_occupancy
  Y  Y0  1  0.292811  0.088688  0.376566  1
  Y  Y1  1  0.293713  0.911060  0.881462  1
  Y  Y2  1  0.706463  0.087369  0.881578  1
  Y  Y3  1  0.707046  0.911194  0.376352  1
  Y  Y4  1  0.586413  0.791839  0.882611  1
  Y  Y5  1  0.586102  0.207903  0.376470  1
  Y  Y6  1  0.413526  0.791375  0.377367  1
  Y  Y7  1  0.412030  0.207392  0.882868  1
  Y  Y8  1  0.210560  0.412272  0.620234  1
  Y  Y9  1  0.210278  0.587354  0.120197  1
  Y  Y10  1  0.790385  0.412951  0.120812  1
  Y  Y11  1  0.790250  0.589415  0.619888  1
  Y  Y12  1  0.910150  0.708833  0.120743  1
  Y  Y13  1  0.911143  0.291077  0.621393  1
  Y  Y14  1  0.090444  0.708740  0.621415  1
  Y  Y15  1  0.089886  0.291263  0.120998  1
  Y  Y16  1  0.999890  0.999933  0.498800  1
  Y  Y17  1  0.000086  0.000124  0.998841  1
  Y  Y18  1  0.499675  0.500142  0.998639  1
  Y  Y19  1  0.499860  0.500273  0.498896  1
  Ir  Ir20  1  0.655166  0.652813  0.250168  1
  Ir  Ir21  1  0.345371  0.346647  0.250026  1
  Ir  Ir22  1  0.345363  0.653693  0.749717  1
  Ru  Ru23  1  0.500228  0.000497  0.127360  1
  Rh  Rh24  1  0.847026  0.154651  0.250218  1
  Rh  Rh25  1  0.847616  0.846672  0.749868  1
  Rh  Rh26  1  0.152245  0.153426  0.749607  1
  Rh  Rh27  1  0.152368  0.846056  0.250193  1
  Rh  Rh28  1  0.654693  0.346324  0.749821  1
  Rh  Rh29  1  0.500229  0.000502  0.625913  1
  Rh  Rh30  1  0.999425  0.499727  0.875065  1
  Rh  Rh31  1  0.999559  0.499795  0.375907  1
