# generated using pymatgen
data_Tm5ThCo16(P6W)2
_symmetry_space_group_name_H-M   'P 1'
_cell_length_a   3.71925000
_cell_length_b   10.54401500
_cell_length_c   12.21399600
_cell_angle_alpha   90.00000000
_cell_angle_beta   90.00000000
_cell_angle_gamma   90.00000000
_symmetry_Int_Tables_number   1
_chemical_formula_structural   Tm5ThCo16(P6W)2
_chemical_formula_sum   'Tm5 Th1 Co16 P12 W2'
_cell_volume   478.98196375
_cell_formula_units_Z   1
loop_
 _symmetry_equiv_pos_site_id
 _symmetry_equiv_pos_as_xyz
  1  'x, y, z'
loop_
 _atom_site_type_symbol
 _atom_site_label
 _atom_site_symmetry_multiplicity
 _atom_site_fract_x
 _atom_site_fract_y
 _atom_site_fract_z
 _atom_site_occupancy
  Tm  Tm0  1  0.500000  0.000000  0.475087  1
  Tm  Tm1  1  0.500000  0.819656  0.204861  1
  Tm  Tm2  1  0.500000  0.180344  0.204861  1
  Tm  Tm3  1  0.000000  0.682195  0.797236  1
  Tm  Tm4  1  0.000000  0.317805  0.797236  1
  Th  Th5  1  0.000000  0.500000  0.528008  1
  Co  Co6  1  0.500000  0.500000  0.701236  1
  Co  Co7  1  0.000000  0.000000  0.298120  1
  Co  Co8  1  0.000000  0.500000  0.986689  1
  Co  Co9  1  0.500000  0.000000  0.013447  1
  Co  Co10  1  0.500000  0.332338  0.989701  1
  Co  Co11  1  0.500000  0.667662  0.989701  1
  Co  Co12  1  0.000000  0.166828  0.009787  1
  Co  Co13  1  0.000000  0.833172  0.009787  1
  Co  Co14  1  0.500000  0.293757  0.431284  1
  Co  Co15  1  0.500000  0.706243  0.431284  1
  Co  Co16  1  0.000000  0.200877  0.568806  1
  Co  Co17  1  0.000000  0.799123  0.568806  1
  Co  Co18  1  0.500000  0.879219  0.708879  1
  Co  Co19  1  0.500000  0.120781  0.708879  1
  Co  Co20  1  0.000000  0.622430  0.290888  1
  Co  Co21  1  0.000000  0.377570  0.290888  1
  P  P22  1  0.500000  0.500000  0.879460  1
  P  P23  1  0.000000  0.000000  0.120451  1
  P  P24  1  0.500000  0.500000  0.345567  1
  P  P25  1  0.000000  0.000000  0.648564  1
  P  P26  1  0.500000  0.305904  0.619250  1
  P  P27  1  0.500000  0.694096  0.619250  1
  P  P28  1  0.000000  0.186401  0.383114  1
  P  P29  1  0.000000  0.813599  0.383114  1
  P  P30  1  0.500000  0.844273  0.892464  1
  P  P31  1  0.500000  0.155727  0.892464  1
  P  P32  1  0.000000  0.657298  0.107030  1
  P  P33  1  0.000000  0.342702  0.107030  1
  W  W34  1  0.500000  0.500000  0.153301  1
  W  W35  1  0.000000  0.000000  0.843466  1
