# generated using pymatgen
data_Cs4V2AgTe8Au
_symmetry_space_group_name_H-M   'P 1'
_cell_length_a   15.63496163
_cell_length_b   13.91629107
_cell_length_c   8.41117409
_cell_angle_alpha   85.10922738
_cell_angle_beta   62.47810284
_cell_angle_gamma   32.41265708
_symmetry_Int_Tables_number   1
_chemical_formula_structural   Cs4V2AgTe8Au
_chemical_formula_sum   'Cs4 V2 Ag1 Te8 Au1'
_cell_volume   667.50961402
_cell_formula_units_Z   1
loop_
 _symmetry_equiv_pos_site_id
 _symmetry_equiv_pos_as_xyz
  1  'x, y, z'
loop_
 _atom_site_type_symbol
 _atom_site_label
 _atom_site_symmetry_multiplicity
 _atom_site_fract_x
 _atom_site_fract_y
 _atom_site_fract_z
 _atom_site_occupancy
  Cs  Cs0  1  0.680205  0.680205  0.319795  1
  Cs  Cs1  1  0.319795  0.319795  0.680205  1
  Cs  Cs2  1  0.930463  0.930463  0.569537  1
  Cs  Cs3  1  0.569537  0.569537  0.930463  1
  V  V4  1  0.750000  0.750000  0.750000  1
  V  V5  1  0.500000  0.500000  0.500000  1
  Ag  Ag6  1  0.250000  0.250000  0.250000  1
  Te  Te7  1  0.379702  0.009031  0.926589  1
  Te  Te8  1  0.684680  0.926589  0.009031  1
  Te  Te9  1  0.926589  0.684680  0.379702  1
  Te  Te10  1  0.009031  0.379702  0.684680  1
  Te  Te11  1  0.237059  0.874013  0.569251  1
  Te  Te12  1  0.569251  0.319675  0.237059  1
  Te  Te13  1  0.319675  0.569251  0.874013  1
  Te  Te14  1  0.874013  0.237059  0.319675  1
  Au  Au15  1  0.000000  0.000000  0.000000  1
