# generated using pymatgen
data_CoMo12Pt7N4
_symmetry_space_group_name_H-M   'P 1'
_cell_length_a   6.87606145
_cell_length_b   6.87606132
_cell_length_c   6.87606059
_cell_angle_alpha   89.99747893
_cell_angle_beta   89.99747859
_cell_angle_gamma   89.99747258
_symmetry_Int_Tables_number   1
_chemical_formula_structural   CoMo12Pt7N4
_chemical_formula_sum   'Co1 Mo12 Pt7 N4'
_cell_volume   325.10165782
_cell_formula_units_Z   1
loop_
 _symmetry_equiv_pos_site_id
 _symmetry_equiv_pos_as_xyz
  1  'x, y, z'
loop_
 _atom_site_type_symbol
 _atom_site_label
 _atom_site_symmetry_multiplicity
 _atom_site_fract_x
 _atom_site_fract_y
 _atom_site_fract_z
 _atom_site_occupancy
  Co  Co0  1  0.195586  0.195586  0.195586  1
  Mo  Mo1  1  0.622526  0.702912  0.949749  1
  Mo  Mo2  1  0.452854  0.876226  0.301500  1
  Mo  Mo3  1  0.702912  0.949749  0.622526  1
  Mo  Mo4  1  0.540527  0.371053  0.197951  1
  Mo  Mo5  1  0.371053  0.197951  0.540527  1
  Mo  Mo6  1  0.197951  0.540527  0.371053  1
  Mo  Mo7  1  0.876226  0.301500  0.452854  1
  Mo  Mo8  1  0.050647  0.123474  0.803092  1
  Mo  Mo9  1  0.301500  0.452854  0.876226  1
  Mo  Mo10  1  0.123474  0.803092  0.050647  1
  Mo  Mo11  1  0.803092  0.050647  0.123474  1
  Mo  Mo12  1  0.949749  0.622526  0.702912  1
  Pt  Pt13  1  0.306373  0.810909  0.691872  1
  Pt  Pt14  1  0.431862  0.062926  0.952332  1
  Pt  Pt15  1  0.810909  0.691872  0.306373  1
  Pt  Pt16  1  0.691872  0.306373  0.810909  1
  Pt  Pt17  1  0.556007  0.556007  0.556007  1
  Pt  Pt18  1  0.062926  0.952332  0.431862  1
  Pt  Pt19  1  0.952332  0.431862  0.062926  1
  N  N20  1  0.374371  0.626086  0.124660  1
  N  N21  1  0.874506  0.874506  0.874506  1
  N  N22  1  0.124660  0.374371  0.626086  1
  N  N23  1  0.626086  0.124660  0.374371  1
