# generated using pymatgen
data_YEr3Fe13Co
_symmetry_space_group_name_H-M   'P 1'
_cell_length_a   12.32179010
_cell_length_b   12.32179043
_cell_length_c   12.32179026
_cell_angle_alpha   23.74293791
_cell_angle_beta   23.74293385
_cell_angle_gamma   23.74293764
_symmetry_Int_Tables_number   1
_chemical_formula_structural   YEr3Fe13Co
_chemical_formula_sum   'Y1 Er3 Fe13 Co1'
_cell_volume   266.40351780
_cell_formula_units_Z   1
loop_
 _symmetry_equiv_pos_site_id
 _symmetry_equiv_pos_as_xyz
  1  'x, y, z'
loop_
 _atom_site_type_symbol
 _atom_site_label
 _atom_site_symmetry_multiplicity
 _atom_site_fract_x
 _atom_site_fract_y
 _atom_site_fract_z
 _atom_site_occupancy
  Y  Y0  1  0.947614  0.947614  0.947614  1
  Er  Er1  1  0.149685  0.149685  0.149685  1
  Er  Er2  1  0.052391  0.052391  0.052391  1
  Er  Er3  1  0.850297  0.850297  0.850297  1
  Fe  Fe4  1  0.612327  0.612327  0.612327  1
  Fe  Fe5  1  0.387663  0.387663  0.387663  1
  Fe  Fe6  1  0.107745  0.609998  0.609998  1
  Fe  Fe7  1  0.389870  0.389870  0.891912  1
  Fe  Fe8  1  0.609998  0.609998  0.107745  1
  Fe  Fe9  1  0.609998  0.107745  0.609998  1
  Fe  Fe10  1  0.389870  0.891912  0.389870  1
  Fe  Fe11  1  0.500292  0.000084  0.500292  1
  Fe  Fe12  1  0.721052  0.721052  0.721052  1
  Fe  Fe13  1  0.891912  0.389870  0.389870  1
  Fe  Fe14  1  0.000084  0.500292  0.500292  1
  Fe  Fe15  1  0.278924  0.278924  0.278924  1
  Fe  Fe16  1  0.500292  0.500292  0.000084  1
  Co  Co17  1  0.499987  0.499987  0.499987  1
