# generated using pymatgen
data_Ho2Er3Tm5(CoSb2)2
_symmetry_space_group_name_H-M   'P 1'
_cell_length_a   7.78549200
_cell_length_b   8.73693900
_cell_length_c   12.08817700
_cell_angle_alpha   90.00000000
_cell_angle_beta   90.00000000
_cell_angle_gamma   90.00000000
_symmetry_Int_Tables_number   1
_chemical_formula_structural   Ho2Er3Tm5(CoSb2)2
_chemical_formula_sum   'Ho4 Er6 Tm10 Co4 Sb8'
_cell_volume   822.25434449
_cell_formula_units_Z   2
loop_
 _symmetry_equiv_pos_site_id
 _symmetry_equiv_pos_as_xyz
  1  'x, y, z'
loop_
 _atom_site_type_symbol
 _atom_site_label
 _atom_site_symmetry_multiplicity
 _atom_site_fract_x
 _atom_site_fract_y
 _atom_site_fract_z
 _atom_site_occupancy
  Ho  Ho0  1  0.622873  0.750000  0.307778  1
  Ho  Ho1  1  0.122873  0.250000  0.192222  1
  Ho  Ho2  1  0.377093  0.250000  0.692234  1
  Ho  Ho3  1  0.877093  0.750000  0.807766  1
  Er  Er4  1  0.156453  0.750000  0.204318  1
  Er  Er5  1  0.656453  0.250000  0.295682  1
  Er  Er6  1  0.843432  0.250000  0.796011  1
  Er  Er7  1  0.343432  0.750000  0.703989  1
  Er  Er8  1  0.450708  0.750000  0.997823  1
  Er  Er9  1  0.950708  0.250000  0.502177  1
  Tm  Tm10  1  0.549464  0.250000  0.002136  1
  Tm  Tm11  1  0.049464  0.750000  0.497864  1
  Tm  Tm12  1  0.823476  0.963481  0.065501  1
  Tm  Tm13  1  0.323476  0.036519  0.434499  1
  Tm  Tm14  1  0.176497  0.463093  0.934443  1
  Tm  Tm15  1  0.676497  0.536907  0.565557  1
  Tm  Tm16  1  0.176497  0.036907  0.934443  1
  Tm  Tm17  1  0.676497  0.963093  0.565557  1
  Tm  Tm18  1  0.823476  0.536519  0.065501  1
  Tm  Tm19  1  0.323476  0.463481  0.434499  1
  Co  Co20  1  0.432380  0.750000  0.490952  1
  Co  Co21  1  0.932380  0.250000  0.009048  1
  Co  Co22  1  0.567372  0.250000  0.509016  1
  Co  Co23  1  0.067372  0.750000  0.990984  1
  Sb  Sb24  1  0.931069  0.991396  0.327772  1
  Sb  Sb25  1  0.431069  0.008604  0.172228  1
  Sb  Sb26  1  0.069072  0.491863  0.672201  1
  Sb  Sb27  1  0.569072  0.508137  0.827799  1
  Sb  Sb28  1  0.069072  0.008137  0.672201  1
  Sb  Sb29  1  0.569072  0.991863  0.827799  1
  Sb  Sb30  1  0.931069  0.508604  0.327772  1
  Sb  Sb31  1  0.431069  0.491396  0.172228  1
