# generated using pymatgen
data_CaNdGa9Ru5
_symmetry_space_group_name_H-M   'P 1'
_cell_length_a   8.10190003
_cell_length_b   8.10189856
_cell_length_c   8.10189924
_cell_angle_alpha   135.41277339
_cell_angle_beta   134.29064622
_cell_angle_gamma   65.76494842
_symmetry_Int_Tables_number   1
_chemical_formula_structural   CaNdGa9Ru5
_chemical_formula_sum   'Ca1 Nd1 Ga9 Ru5'
_cell_volume   263.21247036
_cell_formula_units_Z   1
loop_
 _symmetry_equiv_pos_site_id
 _symmetry_equiv_pos_as_xyz
  1  'x, y, z'
loop_
 _atom_site_type_symbol
 _atom_site_label
 _atom_site_symmetry_multiplicity
 _atom_site_fract_x
 _atom_site_fract_y
 _atom_site_fract_z
 _atom_site_occupancy
  Ca  Ca0  1  0.500000  0.000000  0.500000  1
  Nd  Nd1  1  0.000000  0.500000  0.500000  1
  Ga  Ga2  1  0.441646  0.861853  0.005082  1
  Ga  Ga3  1  0.143229  0.138147  0.579793  1
  Ga  Ga4  1  0.856771  0.436564  0.994918  1
  Ga  Ga5  1  0.856771  0.861853  0.420207  1
  Ga  Ga6  1  0.558354  0.138147  0.994918  1
  Ga  Ga7  1  0.143229  0.563436  0.005082  1
  Ga  Ga8  1  0.558354  0.563436  0.420207  1
  Ga  Ga9  1  0.000000  0.000000  0.000000  1
  Ga  Ga10  1  0.441646  0.436564  0.579793  1
  Ru  Ru11  1  0.180997  0.180997  0.000000  1
  Ru  Ru12  1  0.819003  0.819003  0.000000  1
  Ru  Ru13  1  0.248535  0.748535  0.500000  1
  Ru  Ru14  1  0.751465  0.251465  0.500000  1
  Ru  Ru15  1  0.500000  0.500000  0.000000  1
