# generated using pymatgen
data_Ba6NbFe3(SbO9)2
_symmetry_space_group_name_H-M   'P 1'
_cell_length_a   5.87001800
_cell_length_b   5.87001825
_cell_length_c   14.43194100
_cell_angle_alpha   90.00000000
_cell_angle_beta   90.00000000
_cell_angle_gamma   119.99999858
_symmetry_Int_Tables_number   1
_chemical_formula_structural   Ba6NbFe3(SbO9)2
_chemical_formula_sum   'Ba6 Nb1 Fe3 Sb2 O18'
_cell_volume   430.65973348
_cell_formula_units_Z   1
loop_
 _symmetry_equiv_pos_site_id
 _symmetry_equiv_pos_as_xyz
  1  'x, y, z'
loop_
 _atom_site_type_symbol
 _atom_site_label
 _atom_site_symmetry_multiplicity
 _atom_site_fract_x
 _atom_site_fract_y
 _atom_site_fract_z
 _atom_site_occupancy
  Ba  Ba0  1  0.000000  0.000000  0.751559  1
  Ba  Ba1  1  0.000000  0.000000  0.248441  1
  Ba  Ba2  1  0.666667  0.333333  0.906724  1
  Ba  Ba3  1  0.333333  0.666667  0.093276  1
  Ba  Ba4  1  0.666667  0.333333  0.602051  1
  Ba  Ba5  1  0.333333  0.666667  0.397949  1
  Nb  Nb6  1  0.000000  0.000000  0.500000  1
  Fe  Fe7  1  0.000000  0.000000  0.000000  1
  Fe  Fe8  1  0.666667  0.333333  0.350128  1
  Fe  Fe9  1  0.333333  0.666667  0.649872  1
  Sb  Sb10  1  0.666667  0.333333  0.157039  1
  Sb  Sb11  1  0.333333  0.666667  0.842961  1
  O  O12  1  0.028837  0.514419  0.751879  1
  O  O13  1  0.485581  0.971163  0.751879  1
  O  O14  1  0.485581  0.514419  0.751879  1
  O  O15  1  0.971163  0.485581  0.248121  1
  O  O16  1  0.514419  0.028837  0.248121  1
  O  O17  1  0.514419  0.485581  0.248121  1
  O  O18  1  0.665791  0.832896  0.918376  1
  O  O19  1  0.167104  0.334209  0.918376  1
  O  O20  1  0.167104  0.832896  0.918376  1
  O  O21  1  0.334209  0.167104  0.081624  1
  O  O22  1  0.832896  0.665791  0.081624  1
  O  O23  1  0.832896  0.167104  0.081624  1
  O  O24  1  0.673199  0.836599  0.580169  1
  O  O25  1  0.163401  0.326801  0.580169  1
  O  O26  1  0.163401  0.836599  0.580169  1
  O  O27  1  0.326801  0.163401  0.419831  1
  O  O28  1  0.836599  0.673199  0.419831  1
  O  O29  1  0.836599  0.163401  0.419831  1
