# generated using pymatgen
data_PrDy3(WO6)2
_symmetry_space_group_name_H-M   'P 1'
_cell_length_a   5.45942500
_cell_length_b   7.78667880
_cell_length_c   11.57735549
_cell_angle_alpha   75.57855103
_cell_angle_beta   90.00000000
_cell_angle_gamma   90.00000000
_symmetry_Int_Tables_number   1
_chemical_formula_structural   PrDy3(WO6)2
_chemical_formula_sum   'Pr2 Dy6 W4 O24'
_cell_volume   476.65447221
_cell_formula_units_Z   2
loop_
 _symmetry_equiv_pos_site_id
 _symmetry_equiv_pos_as_xyz
  1  'x, y, z'
loop_
 _atom_site_type_symbol
 _atom_site_label
 _atom_site_symmetry_multiplicity
 _atom_site_fract_x
 _atom_site_fract_y
 _atom_site_fract_z
 _atom_site_occupancy
  Pr  Pr0  1  0.685663  0.500000  0.750000  1
  Pr  Pr1  1  0.314337  0.500000  0.250000  1
  Dy  Dy2  1  0.740857  0.000000  0.750000  1
  Dy  Dy3  1  0.259143  0.000000  0.250000  1
  Dy  Dy4  1  0.187783  0.798260  0.576698  1
  Dy  Dy5  1  0.812217  0.798260  0.076698  1
  Dy  Dy6  1  0.187783  0.201740  0.923302  1
  Dy  Dy7  1  0.812217  0.201740  0.423302  1
  W  W8  1  0.252793  0.727708  0.884540  1
  W  W9  1  0.747207  0.727708  0.384540  1
  W  W10  1  0.252793  0.272292  0.615460  1
  W  W11  1  0.747207  0.272292  0.115460  1
  O  O12  1  0.040714  0.941013  0.895852  1
  O  O13  1  0.530348  0.847365  0.930669  1
  O  O14  1  0.959286  0.941013  0.395852  1
  O  O15  1  0.455807  0.794353  0.727854  1
  O  O16  1  0.469652  0.847365  0.430669  1
  O  O17  1  0.987133  0.719530  0.769754  1
  O  O18  1  0.544193  0.794353  0.227854  1
  O  O19  1  0.855805  0.641914  0.545199  1
  O  O20  1  0.348812  0.493786  0.888013  1
  O  O21  1  0.012867  0.719530  0.269754  1
  O  O22  1  0.348812  0.506214  0.611987  1
  O  O23  1  0.855805  0.358086  0.954801  1
  O  O24  1  0.144195  0.641914  0.045199  1
  O  O25  1  0.651188  0.493786  0.388013  1
  O  O26  1  0.987133  0.280470  0.730246  1
  O  O27  1  0.651188  0.506214  0.111987  1
  O  O28  1  0.144195  0.358086  0.454801  1
  O  O29  1  0.455807  0.205647  0.772146  1
  O  O30  1  0.012867  0.280470  0.230246  1
  O  O31  1  0.530348  0.152635  0.569331  1
  O  O32  1  0.544193  0.205647  0.272146  1
  O  O33  1  0.040714  0.058987  0.604148  1
  O  O34  1  0.469652  0.152635  0.069331  1
  O  O35  1  0.959286  0.058987  0.104148  1
