# generated using pymatgen
data_Nd2ErZr(Al3Ir)6
_symmetry_space_group_name_H-M   'P 1'
_cell_length_a   7.56686904
_cell_length_b   7.55808269
_cell_length_c   9.48023000
_cell_angle_alpha   90.00000000
_cell_angle_beta   90.00000000
_cell_angle_gamma   119.54525286
_symmetry_Int_Tables_number   1
_chemical_formula_structural   Nd2ErZr(Al3Ir)6
_chemical_formula_sum   'Nd2 Er1 Zr1 Al18 Ir6'
_cell_volume   471.68195442
_cell_formula_units_Z   1
loop_
 _symmetry_equiv_pos_site_id
 _symmetry_equiv_pos_as_xyz
  1  'x, y, z'
loop_
 _atom_site_type_symbol
 _atom_site_label
 _atom_site_symmetry_multiplicity
 _atom_site_fract_x
 _atom_site_fract_y
 _atom_site_fract_z
 _atom_site_occupancy
  Nd  Nd0  1  0.004741  0.327490  0.750000  1
  Nd  Nd1  1  0.329764  0.005998  0.750000  1
  Er  Er2  1  0.671015  0.995627  0.250000  1
  Zr  Zr3  1  0.998197  0.673502  0.250000  1
  Al  Al4  1  0.124242  0.122331  0.250000  1
  Al  Al5  1  0.868141  0.866666  0.750000  1
  Al  Al6  1  0.999604  0.338103  0.080965  1
  Al  Al7  1  0.997939  0.665186  0.934824  1
  Al  Al8  1  0.997939  0.665186  0.565176  1
  Al  Al9  1  0.332660  0.997752  0.418852  1
  Al  Al10  1  0.999604  0.338103  0.419035  1
  Al  Al11  1  0.664646  0.996354  0.569500  1
  Al  Al12  1  0.664646  0.996354  0.930500  1
  Al  Al13  1  0.332660  0.997752  0.081148  1
  Al  Al14  1  0.334649  0.334895  0.542368  1
  Al  Al15  1  0.669336  0.667510  0.441492  1
  Al  Al16  1  0.669336  0.667510  0.058508  1
  Al  Al17  1  0.334649  0.334895  0.957632  1
  Al  Al18  1  0.336693  0.550860  0.250000  1
  Al  Al19  1  0.661003  0.454930  0.750000  1
  Al  Al20  1  0.556469  0.344421  0.250000  1
  Al  Al21  1  0.453406  0.659589  0.750000  1
  Ir  Ir22  1  0.672308  0.328763  0.002852  1
  Ir  Ir23  1  0.329096  0.672459  0.003600  1
  Ir  Ir24  1  0.329096  0.672459  0.496400  1
  Ir  Ir25  1  0.672308  0.328763  0.497148  1
  Ir  Ir26  1  0.997927  0.998271  0.003327  1
  Ir  Ir27  1  0.997927  0.998271  0.496673  1
