# generated using pymatgen
data_Nd7Th(CdRh)2
_symmetry_space_group_name_H-M   'P 1'
_cell_length_a   9.97551763
_cell_length_b   9.97551765
_cell_length_c   10.01657700
_cell_angle_alpha   59.86374643
_cell_angle_beta   59.86374636
_cell_angle_gamma   59.93754984
_symmetry_Int_Tables_number   1
_chemical_formula_structural   Nd7Th(CdRh)2
_chemical_formula_sum   'Nd14 Th2 Cd4 Rh4'
_cell_volume   703.02890157
_cell_formula_units_Z   2
loop_
 _symmetry_equiv_pos_site_id
 _symmetry_equiv_pos_as_xyz
  1  'x, y, z'
loop_
 _atom_site_type_symbol
 _atom_site_label
 _atom_site_symmetry_multiplicity
 _atom_site_fract_x
 _atom_site_fract_y
 _atom_site_fract_z
 _atom_site_occupancy
  Nd  Nd0  1  0.349888  0.949779  0.350164  1
  Nd  Nd1  1  0.949776  0.349890  0.350167  1
  Nd  Nd2  1  0.810339  0.190064  0.190096  1
  Nd  Nd3  1  0.190074  0.810337  0.809502  1
  Nd  Nd4  1  0.190072  0.810341  0.190088  1
  Nd  Nd5  1  0.810336  0.190069  0.809502  1
  Nd  Nd6  1  0.189818  0.189822  0.810181  1
  Nd  Nd7  1  0.809293  0.809285  0.190713  1
  Nd  Nd8  1  0.939908  0.562299  0.563156  1
  Nd  Nd9  1  0.562301  0.939905  0.934638  1
  Nd  Nd10  1  0.562300  0.939908  0.563157  1
  Nd  Nd11  1  0.939904  0.562303  0.934638  1
  Nd  Nd12  1  0.562972  0.562975  0.937030  1
  Nd  Nd13  1  0.937703  0.937702  0.562299  1
  Th  Th14  1  0.345064  0.345066  0.346723  1
  Th  Th15  1  0.345069  0.345068  0.963141  1
  Cd  Cd16  1  0.579076  0.579074  0.582245  1
  Cd  Cd17  1  0.579074  0.579076  0.259610  1
  Cd  Cd18  1  0.578486  0.258454  0.581531  1
  Cd  Cd19  1  0.258454  0.578486  0.581530  1
  Rh  Rh20  1  0.147532  0.147529  0.138060  1
  Rh  Rh21  1  0.147530  0.147531  0.566855  1
  Rh  Rh22  1  0.151619  0.563413  0.142492  1
  Rh  Rh23  1  0.563408  0.151623  0.142483  1
