# generated using pymatgen
data_Lu2Zn14Cu3
_symmetry_space_group_name_H-M   'P 1'
_cell_length_a   8.84773500
_cell_length_b   8.84773551
_cell_length_c   8.57780100
_cell_angle_alpha   90.00000000
_cell_angle_beta   90.00000000
_cell_angle_gamma   120.00000931
_symmetry_Int_Tables_number   1
_chemical_formula_structural   Lu2Zn14Cu3
_chemical_formula_sum   'Lu4 Zn28 Cu6'
_cell_volume   581.52822138
_cell_formula_units_Z   2
loop_
 _symmetry_equiv_pos_site_id
 _symmetry_equiv_pos_as_xyz
  1  'x, y, z'
loop_
 _atom_site_type_symbol
 _atom_site_label
 _atom_site_symmetry_multiplicity
 _atom_site_fract_x
 _atom_site_fract_y
 _atom_site_fract_z
 _atom_site_occupancy
  Lu  Lu0  1  0.000000  0.000000  0.250000  1
  Lu  Lu1  1  0.000000  0.000000  0.750000  1
  Lu  Lu2  1  0.333333  0.666667  0.750000  1
  Lu  Lu3  1  0.666667  0.333333  0.250000  1
  Zn  Zn4  1  0.333333  0.666667  0.404713  1
  Zn  Zn5  1  0.666667  0.333333  0.595287  1
  Zn  Zn6  1  0.666667  0.333333  0.904713  1
  Zn  Zn7  1  0.333333  0.666667  0.095287  1
  Zn  Zn8  1  0.332656  0.367015  0.250000  1
  Zn  Zn9  1  0.632985  0.965641  0.250000  1
  Zn  Zn10  1  0.034359  0.667344  0.250000  1
  Zn  Zn11  1  0.632985  0.667344  0.250000  1
  Zn  Zn12  1  0.034359  0.367015  0.250000  1
  Zn  Zn13  1  0.332656  0.965641  0.250000  1
  Zn  Zn14  1  0.667344  0.632985  0.750000  1
  Zn  Zn15  1  0.367015  0.034359  0.750000  1
  Zn  Zn16  1  0.965641  0.332656  0.750000  1
  Zn  Zn17  1  0.367015  0.332656  0.750000  1
  Zn  Zn18  1  0.965641  0.632985  0.750000  1
  Zn  Zn19  1  0.667344  0.034359  0.750000  1
  Zn  Zn20  1  0.164035  0.835965  0.521084  1
  Zn  Zn21  1  0.164035  0.328070  0.521084  1
  Zn  Zn22  1  0.671930  0.835965  0.521084  1
  Zn  Zn23  1  0.835965  0.164035  0.478916  1
  Zn  Zn24  1  0.835965  0.671930  0.478916  1
  Zn  Zn25  1  0.328070  0.164035  0.478916  1
  Zn  Zn26  1  0.835965  0.164035  0.021084  1
  Zn  Zn27  1  0.835965  0.671930  0.021084  1
  Zn  Zn28  1  0.328070  0.164035  0.021084  1
  Zn  Zn29  1  0.164035  0.835965  0.978916  1
  Zn  Zn30  1  0.164035  0.328070  0.978916  1
  Zn  Zn31  1  0.671930  0.835965  0.978916  1
  Cu  Cu32  1  0.500000  0.500000  0.500000  1
  Cu  Cu33  1  0.500000  0.000000  0.500000  1
  Cu  Cu34  1  0.000000  0.500000  0.500000  1
  Cu  Cu35  1  0.500000  0.500000  0.000000  1
  Cu  Cu36  1  0.500000  0.000000  0.000000  1
  Cu  Cu37  1  0.000000  0.500000  0.000000  1
