# generated using pymatgen
data_Te14Os
_symmetry_space_group_name_H-M   'P 1'
_cell_length_a   9.84804455
_cell_length_b   10.45364867
_cell_length_c   12.58650145
_cell_angle_alpha   100.47734737
_cell_angle_beta   114.00780137
_cell_angle_gamma   104.42642746
_symmetry_Int_Tables_number   1
_chemical_formula_structural   Te14Os
_chemical_formula_sum   'Te28 Os2'
_cell_volume   1086.01084230
_cell_formula_units_Z   2
loop_
 _symmetry_equiv_pos_site_id
 _symmetry_equiv_pos_as_xyz
  1  'x, y, z'
loop_
 _atom_site_type_symbol
 _atom_site_label
 _atom_site_symmetry_multiplicity
 _atom_site_fract_x
 _atom_site_fract_y
 _atom_site_fract_z
 _atom_site_occupancy
  Te  Te0  1  0.866367  0.038464  0.716880  1
  Te  Te1  1  0.133633  0.961536  0.283120  1
  Te  Te2  1  0.190462  0.293219  0.914370  1
  Te  Te3  1  0.809538  0.706781  0.085630  1
  Te  Te4  1  0.692895  0.161447  0.820971  1
  Te  Te5  1  0.307105  0.838553  0.179029  1
  Te  Te6  1  0.979688  0.318914  0.046858  1
  Te  Te7  1  0.020312  0.681086  0.953142  1
  Te  Te8  1  0.193346  0.066921  0.020154  1
  Te  Te9  1  0.806654  0.933079  0.979846  1
  Te  Te10  1  0.069218  0.806014  0.700145  1
  Te  Te11  1  0.930782  0.193986  0.299855  1
  Te  Te12  1  0.664823  0.653112  0.669934  1
  Te  Te13  1  0.335177  0.346888  0.330066  1
  Te  Te14  1  0.326655  0.720085  0.823331  1
  Te  Te15  1  0.673345  0.279915  0.176669  1
  Te  Te16  1  0.845560  0.500355  0.555012  1
  Te  Te17  1  0.154440  0.499645  0.444988  1
  Te  Te18  1  0.759619  0.684377  0.396765  1
  Te  Te19  1  0.240381  0.315623  0.603235  1
  Te  Te20  1  0.320564  0.148703  0.781268  1
  Te  Te21  1  0.679436  0.851297  0.218732  1
  Te  Te22  1  0.547867  0.502401  0.805165  1
  Te  Te23  1  0.452133  0.497599  0.194835  1
  Te  Te24  1  0.406049  0.781813  0.641780  1
  Te  Te25  1  0.593951  0.218187  0.358220  1
  Te  Te26  1  0.562465  0.892130  0.478889  1
  Te  Te27  1  0.437535  0.107870  0.521111  1
  Os  Os28  1  0.930137  0.858178  0.836334  1
  Os  Os29  1  0.069863  0.141822  0.163666  1
