# generated using pymatgen
data_Th2Zn2CoSi2Ir3
_symmetry_space_group_name_H-M   'P 1'
_cell_length_a   3.98772200
_cell_length_b   3.98772200
_cell_length_c   11.13620000
_cell_angle_alpha   90.00000000
_cell_angle_beta   90.00000000
_cell_angle_gamma   90.00000000
_symmetry_Int_Tables_number   1
_chemical_formula_structural   Th2Zn2CoSi2Ir3
_chemical_formula_sum   'Th2 Zn2 Co1 Si2 Ir3'
_cell_volume   177.08703667
_cell_formula_units_Z   1
loop_
 _symmetry_equiv_pos_site_id
 _symmetry_equiv_pos_as_xyz
  1  'x, y, z'
loop_
 _atom_site_type_symbol
 _atom_site_label
 _atom_site_symmetry_multiplicity
 _atom_site_fract_x
 _atom_site_fract_y
 _atom_site_fract_z
 _atom_site_occupancy
  Th  Th0  1  0.000000  0.500000  0.245894  1
  Th  Th1  1  0.500000  0.000000  0.754106  1
  Zn  Zn2  1  0.000000  0.000000  0.500000  1
  Zn  Zn3  1  0.500000  0.500000  0.500000  1
  Co  Co4  1  0.000000  0.000000  0.000000  1
  Si  Si5  1  0.000000  0.500000  0.886364  1
  Si  Si6  1  0.500000  0.000000  0.113636  1
  Ir  Ir7  1  0.500000  0.500000  0.000000  1
  Ir  Ir8  1  0.000000  0.500000  0.667096  1
  Ir  Ir9  1  0.500000  0.000000  0.332904  1
