# generated using pymatgen
data_Sr4ScMnO7F
_symmetry_space_group_name_H-M   'P 1'
_cell_length_a   6.96254013
_cell_length_b   6.96253971
_cell_length_c   5.59246200
_cell_angle_alpha   90.00000000
_cell_angle_beta   90.00000000
_cell_angle_gamma   132.51091884
_symmetry_Int_Tables_number   1
_chemical_formula_structural   Sr4ScMnO7F
_chemical_formula_sum   'Sr4 Sc1 Mn1 O7 F1'
_cell_volume   199.84508393
_cell_formula_units_Z   1
loop_
 _symmetry_equiv_pos_site_id
 _symmetry_equiv_pos_as_xyz
  1  'x, y, z'
loop_
 _atom_site_type_symbol
 _atom_site_label
 _atom_site_symmetry_multiplicity
 _atom_site_fract_x
 _atom_site_fract_y
 _atom_site_fract_z
 _atom_site_occupancy
  Sr  Sr0  1  0.646799  0.353201  0.000000  1
  Sr  Sr1  1  0.135693  0.864307  0.500000  1
  Sr  Sr2  1  0.861118  0.138882  0.500000  1
  Sr  Sr3  1  0.358626  0.641374  0.000000  1
  Sc  Sc4  1  0.514086  0.485914  0.500000  1
  Mn  Mn5  1  0.998155  0.001845  0.000000  1
  O  O6  1  0.754192  0.760737  0.757438  1
  O  O7  1  0.239263  0.245808  0.242562  1
  O  O8  1  0.239263  0.245808  0.757438  1
  O  O9  1  0.754192  0.760737  0.242562  1
  O  O10  1  0.842195  0.157805  0.000000  1
  O  O11  1  0.670516  0.329484  0.500000  1
  O  O12  1  0.157338  0.842662  0.000000  1
  F  F13  1  0.328563  0.671437  0.500000  1
