# generated using pymatgen
data_TbGdC2Br
_symmetry_space_group_name_H-M   'P 1'
_cell_length_a   7.67795734
_cell_length_b   7.67795696
_cell_length_c   6.57599269
_cell_angle_alpha   78.76397426
_cell_angle_beta   78.76397487
_cell_angle_gamma   31.00054688
_symmetry_Int_Tables_number   1
_chemical_formula_structural   TbGdC2Br
_chemical_formula_sum   'Tb2 Gd2 C4 Br2'
_cell_volume   195.53918520
_cell_formula_units_Z   2
loop_
 _symmetry_equiv_pos_site_id
 _symmetry_equiv_pos_as_xyz
  1  'x, y, z'
loop_
 _atom_site_type_symbol
 _atom_site_label
 _atom_site_symmetry_multiplicity
 _atom_site_fract_x
 _atom_site_fract_y
 _atom_site_fract_z
 _atom_site_occupancy
  Tb  Tb0  1  0.845208  0.472614  0.348387  1
  Tb  Tb1  1  0.527386  0.154792  0.151613  1
  Gd  Gd2  1  0.153715  0.531235  0.651282  1
  Gd  Gd3  1  0.468765  0.846285  0.848718  1
  C  C4  1  0.351196  0.092655  0.472779  1
  C  C5  1  0.907345  0.648804  0.027221  1
  C  C6  1  0.647623  0.907198  0.524911  1
  C  C7  1  0.092802  0.352377  0.975089  1
  Br  Br8  1  0.241282  0.758718  0.250000  1
  Br  Br9  1  0.764678  0.235322  0.750000  1
