# generated using pymatgen
data_U8OsS17
_symmetry_space_group_name_H-M   'P 1'
_cell_length_a   7.79301485
_cell_length_b   7.79301572
_cell_length_c   10.26443381
_cell_angle_alpha   80.76655748
_cell_angle_beta   80.76655961
_cell_angle_gamma   64.61436323
_symmetry_Int_Tables_number   1
_chemical_formula_structural   U8OsS17
_chemical_formula_sum   'U8 Os1 S17'
_cell_volume   552.93723170
_cell_formula_units_Z   1
loop_
 _symmetry_equiv_pos_site_id
 _symmetry_equiv_pos_as_xyz
  1  'x, y, z'
loop_
 _atom_site_type_symbol
 _atom_site_label
 _atom_site_symmetry_multiplicity
 _atom_site_fract_x
 _atom_site_fract_y
 _atom_site_fract_z
 _atom_site_occupancy
  U  U0  1  0.180822  0.699934  0.703844  1
  U  U1  1  0.699934  0.180822  0.703844  1
  U  U2  1  0.819178  0.300066  0.296156  1
  U  U3  1  0.300066  0.819178  0.296156  1
  U  U4  1  0.204267  0.204267  0.543475  1
  U  U5  1  0.795733  0.795733  0.456525  1
  U  U6  1  0.679585  0.679585  0.983475  1
  U  U7  1  0.320415  0.320415  0.016525  1
  Os  Os8  1  0.000000  0.000000  0.000000  1
  S  S9  1  0.820498  0.432708  0.535322  1
  S  S10  1  0.432708  0.820498  0.535322  1
  S  S11  1  0.179502  0.567292  0.464678  1
  S  S12  1  0.567292  0.179502  0.464678  1
  S  S13  1  0.054803  0.678567  0.975155  1
  S  S14  1  0.678567  0.054803  0.975155  1
  S  S15  1  0.945197  0.321433  0.024845  1
  S  S16  1  0.321433  0.945197  0.024845  1
  S  S17  1  0.058667  0.058667  0.770524  1
  S  S18  1  0.941333  0.941333  0.229476  1
  S  S19  1  0.212512  0.212512  0.277060  1
  S  S20  1  0.787488  0.787488  0.722940  1
  S  S21  1  0.300654  0.300654  0.756362  1
  S  S22  1  0.699346  0.699346  0.243638  1
  S  S23  1  0.520861  0.520861  0.830631  1
  S  S24  1  0.479139  0.479139  0.169369  1
  S  S25  1  0.000000  0.000000  0.500000  1
