# generated using pymatgen
data_Li8LaEr4Th3Sn8
_symmetry_space_group_name_H-M   'P 1'
_cell_length_a   9.46674101
_cell_length_b   9.46691150
_cell_length_c   7.42611721
_cell_angle_alpha   89.99393058
_cell_angle_beta   90.01794207
_cell_angle_gamma   119.99939877
_symmetry_Int_Tables_number   1
_chemical_formula_structural   Li8LaEr4Th3Sn8
_chemical_formula_sum   'Li8 La1 Er4 Th3 Sn8'
_cell_volume   576.37329869
_cell_formula_units_Z   1
loop_
 _symmetry_equiv_pos_site_id
 _symmetry_equiv_pos_as_xyz
  1  'x, y, z'
loop_
 _atom_site_type_symbol
 _atom_site_label
 _atom_site_symmetry_multiplicity
 _atom_site_fract_x
 _atom_site_fract_y
 _atom_site_fract_z
 _atom_site_occupancy
  Li  Li0  1  0.166633  0.332766  0.262999  1
  Li  Li1  1  0.166740  0.833833  0.263231  1
  Li  Li2  1  0.667865  0.833977  0.287819  1
  Li  Li3  1  0.666700  0.333459  0.325653  1
  Li  Li4  1  0.832381  0.665407  0.695078  1
  Li  Li5  1  0.334801  0.167525  0.698076  1
  Li  Li6  1  0.832434  0.167143  0.695080  1
  Li  Li7  1  0.332374  0.666214  0.788949  1
  La  La8  1  0.985242  0.492701  0.003063  1
  Er  Er9  1  0.003287  0.001682  0.499318  1
  Er  Er10  1  0.489414  0.983520  0.504148  1
  Er  Er11  1  0.018075  0.509025  0.503269  1
  Er  Er12  1  0.489316  0.505837  0.504027  1
  Th  Th13  1  0.996307  0.998115  0.000219  1
  Th  Th14  1  0.508524  0.013384  0.003441  1
  Th  Th15  1  0.508570  0.495168  0.003438  1
  Sn  Sn16  1  0.336128  0.668072  0.240296  1
  Sn  Sn17  1  0.832505  0.666929  0.270726  1
  Sn  Sn18  1  0.334404  0.167202  0.267718  1
  Sn  Sn19  1  0.832348  0.165378  0.270594  1
  Sn  Sn20  1  0.665290  0.332568  0.732097  1
  Sn  Sn21  1  0.167082  0.331984  0.748337  1
  Sn  Sn22  1  0.167222  0.835018  0.748408  1
  Sn  Sn23  1  0.666360  0.833095  0.742002  1
