# generated using pymatgen
data_Li6Ga13Cu
_symmetry_space_group_name_H-M   'P 1'
_cell_length_a   7.44163993
_cell_length_b   7.50167282
_cell_length_c   7.44163784
_cell_angle_alpha   69.36458678
_cell_angle_beta   69.39898152
_cell_angle_gamma   69.36458512
_symmetry_Int_Tables_number   1
_chemical_formula_structural   Li6Ga13Cu
_chemical_formula_sum   'Li6 Ga13 Cu1'
_cell_volume   351.32435880
_cell_formula_units_Z   1
loop_
 _symmetry_equiv_pos_site_id
 _symmetry_equiv_pos_as_xyz
  1  'x, y, z'
loop_
 _atom_site_type_symbol
 _atom_site_label
 _atom_site_symmetry_multiplicity
 _atom_site_fract_x
 _atom_site_fract_y
 _atom_site_fract_z
 _atom_site_occupancy
  Li  Li0  1  0.882042  0.470219  0.882042  1
  Li  Li1  1  0.469162  0.884574  0.874737  1
  Li  Li2  1  0.529734  0.120328  0.126849  1
  Li  Li3  1  0.874737  0.884574  0.469162  1
  Li  Li4  1  0.126849  0.120328  0.529734  1
  Li  Li5  1  0.118354  0.526168  0.118354  1
  Ga  Ga6  1  0.698240  0.182162  0.698240  1
  Ga  Ga7  1  0.302431  0.290163  0.806626  1
  Ga  Ga8  1  0.509013  0.842995  0.509013  1
  Ga  Ga9  1  0.702054  0.702988  0.186819  1
  Ga  Ga10  1  0.824907  0.510585  0.509269  1
  Ga  Ga11  1  0.297338  0.812934  0.297338  1
  Ga  Ga12  1  0.080861  0.081750  0.080861  1
  Ga  Ga13  1  0.509269  0.510585  0.824907  1
  Ga  Ga14  1  0.806626  0.290163  0.302431  1
  Ga  Ga15  1  0.179930  0.480659  0.491078  1
  Ga  Ga16  1  0.186819  0.702988  0.702054  1
  Ga  Ga17  1  0.491078  0.480659  0.179930  1
  Ga  Ga18  1  0.920047  0.926696  0.920047  1
  Cu  Cu19  1  0.490508  0.178484  0.490508  1
