# generated using pymatgen
data_Sr4Zr(TcO4)3
_symmetry_space_group_name_H-M   'P 1'
_cell_length_a   5.70659920
_cell_length_b   5.70761364
_cell_length_c   8.07396802
_cell_angle_alpha   90.05038899
_cell_angle_beta   90.19187828
_cell_angle_gamma   90.02309961
_symmetry_Int_Tables_number   1
_chemical_formula_structural   Sr4Zr(TcO4)3
_chemical_formula_sum   'Sr4 Zr1 Tc3 O12'
_cell_volume   262.97612667
_cell_formula_units_Z   1
loop_
 _symmetry_equiv_pos_site_id
 _symmetry_equiv_pos_as_xyz
  1  'x, y, z'
loop_
 _atom_site_type_symbol
 _atom_site_label
 _atom_site_symmetry_multiplicity
 _atom_site_fract_x
 _atom_site_fract_y
 _atom_site_fract_z
 _atom_site_occupancy
  Sr  Sr0  1  0.477106  0.002685  0.755602  1
  Sr  Sr1  1  0.980595  0.497972  0.756516  1
  Sr  Sr2  1  0.522894  0.997315  0.244398  1
  Sr  Sr3  1  0.019405  0.502028  0.243484  1
  Zr  Zr4  1  0.500000  0.500000  0.500000  1
  Tc  Tc5  1  0.000000  0.000000  0.000000  1
  Tc  Tc6  1  0.500000  0.500000  0.000000  1
  Tc  Tc7  1  0.000000  0.000000  0.500000  1
  O  O8  1  0.007251  0.949943  0.750097  1
  O  O9  1  0.511071  0.555884  0.754579  1
  O  O10  1  0.992749  0.050057  0.249903  1
  O  O11  1  0.488929  0.444116  0.245421  1
  O  O12  1  0.710894  0.201799  0.526652  1
  O  O13  1  0.234846  0.265366  0.972363  1
  O  O14  1  0.264980  0.764607  0.025931  1
  O  O15  1  0.797790  0.711387  0.471596  1
  O  O16  1  0.289106  0.798201  0.473348  1
  O  O17  1  0.765154  0.734634  0.027637  1
  O  O18  1  0.735020  0.235393  0.974069  1
  O  O19  1  0.202210  0.288613  0.528404  1
