# generated using pymatgen
data_Dy3In2HgPd3
_symmetry_space_group_name_H-M   'P 1'
_cell_length_a   7.72089400
_cell_length_b   7.72089344
_cell_length_c   3.78825800
_cell_angle_alpha   90.00000000
_cell_angle_beta   90.00000000
_cell_angle_gamma   119.14559456
_symmetry_Int_Tables_number   1
_chemical_formula_structural   Dy3In2HgPd3
_chemical_formula_sum   'Dy3 In2 Hg1 Pd3'
_cell_volume   197.23336906
_cell_formula_units_Z   1
loop_
 _symmetry_equiv_pos_site_id
 _symmetry_equiv_pos_as_xyz
  1  'x, y, z'
loop_
 _atom_site_type_symbol
 _atom_site_label
 _atom_site_symmetry_multiplicity
 _atom_site_fract_x
 _atom_site_fract_y
 _atom_site_fract_z
 _atom_site_occupancy
  Dy  Dy0  1  0.995670  0.600107  0.000000  1
  Dy  Dy1  1  0.410302  0.410302  0.000000  1
  Dy  Dy2  1  0.600107  0.995670  0.000000  1
  In  In3  1  0.004469  0.265633  0.500000  1
  In  In4  1  0.265633  0.004469  0.500000  1
  Hg  Hg5  1  0.729222  0.729222  0.500000  1
  Pd  Pd6  1  0.322863  0.665336  0.500000  1
  Pd  Pd7  1  0.006397  0.006397  0.000000  1
  Pd  Pd8  1  0.665336  0.322863  0.500000  1
