# generated using pymatgen
data_DyHo3(LuPb)6
_symmetry_space_group_name_H-M   'P 1'
_cell_length_a   8.93676442
_cell_length_b   8.96195212
_cell_length_c   6.52008600
_cell_angle_alpha   90.00000000
_cell_angle_beta   90.00000000
_cell_angle_gamma   120.02085700
_symmetry_Int_Tables_number   1
_chemical_formula_structural   DyHo3(LuPb)6
_chemical_formula_sum   'Dy1 Ho3 Lu6 Pb6'
_cell_volume   452.14274947
_cell_formula_units_Z   1
loop_
 _symmetry_equiv_pos_site_id
 _symmetry_equiv_pos_as_xyz
  1  'x, y, z'
loop_
 _atom_site_type_symbol
 _atom_site_label
 _atom_site_symmetry_multiplicity
 _atom_site_fract_x
 _atom_site_fract_y
 _atom_site_fract_z
 _atom_site_occupancy
  Dy  Dy0  1  0.764446  0.999847  0.750000  1
  Ho  Ho1  1  0.235043  0.235743  0.750000  1
  Ho  Ho2  1  0.234082  0.000151  0.250000  1
  Ho  Ho3  1  0.764495  0.763544  0.250000  1
  Lu  Lu4  1  0.334041  0.667771  0.000057  1
  Lu  Lu5  1  0.666593  0.332217  0.000049  1
  Lu  Lu6  1  0.999222  0.763692  0.750000  1
  Lu  Lu7  1  0.000976  0.236879  0.250000  1
  Lu  Lu8  1  0.334041  0.667771  0.499943  1
  Lu  Lu9  1  0.666593  0.332217  0.499951  1
  Pb  Pb10  1  0.000984  0.398625  0.750000  1
  Pb  Pb11  1  0.394699  0.395741  0.250000  1
  Pb  Pb12  1  0.605604  0.000945  0.250000  1
  Pb  Pb13  1  0.605164  0.603266  0.750000  1
  Pb  Pb14  1  0.394022  0.999013  0.750000  1
  Pb  Pb15  1  0.999994  0.602578  0.250000  1
