# generated using pymatgen
data_Sm6Zn18Ir5S
_symmetry_space_group_name_H-M   'P 1'
_cell_length_a   8.97089766
_cell_length_b   9.00910411
_cell_length_c   8.97089800
_cell_angle_alpha   59.85901270
_cell_angle_beta   60.14192321
_cell_angle_gamma   59.85901528
_symmetry_Int_Tables_number   1
_chemical_formula_structural   Sm6Zn18Ir5S
_chemical_formula_sum   'Sm6 Zn18 Ir5 S1'
_cell_volume   512.11948786
_cell_formula_units_Z   1
loop_
 _symmetry_equiv_pos_site_id
 _symmetry_equiv_pos_as_xyz
  1  'x, y, z'
loop_
 _atom_site_type_symbol
 _atom_site_label
 _atom_site_symmetry_multiplicity
 _atom_site_fract_x
 _atom_site_fract_y
 _atom_site_fract_z
 _atom_site_occupancy
  Sm  Sm0  1  0.715862  0.277079  0.284138  1
  Sm  Sm1  1  0.718401  0.281599  0.718401  1
  Sm  Sm2  1  0.715862  0.722921  0.284138  1
  Sm  Sm3  1  0.284138  0.722921  0.715862  1
  Sm  Sm4  1  0.281599  0.718401  0.281599  1
  Sm  Sm5  1  0.284138  0.277079  0.715862  1
  Zn  Zn6  1  0.620018  0.126618  0.126747  1
  Zn  Zn7  1  0.126221  0.623281  0.126221  1
  Zn  Zn8  1  0.126747  0.126618  0.620018  1
  Zn  Zn9  1  0.126221  0.124278  0.126221  1
  Zn  Zn10  1  0.379982  0.873382  0.873253  1
  Zn  Zn11  1  0.873779  0.376719  0.873779  1
  Zn  Zn12  1  0.873253  0.873382  0.379982  1
  Zn  Zn13  1  0.873779  0.875722  0.873779  1
  Zn  Zn14  1  0.000000  0.500000  0.000000  1
  Zn  Zn15  1  0.000000  0.000000  0.000000  1
  Zn  Zn16  1  0.006689  0.331107  0.331093  1
  Zn  Zn17  1  0.328200  0.013149  0.328200  1
  Zn  Zn18  1  0.331093  0.331107  0.006689  1
  Zn  Zn19  1  0.328200  0.330450  0.328200  1
  Zn  Zn20  1  0.993311  0.668893  0.668907  1
  Zn  Zn21  1  0.671800  0.986851  0.671800  1
  Zn  Zn22  1  0.668907  0.668893  0.993311  1
  Zn  Zn23  1  0.671800  0.669550  0.671800  1
  Ir  Ir24  1  0.500000  0.000000  0.000000  1
  Ir  Ir25  1  0.500000  0.000000  0.500000  1
  Ir  Ir26  1  0.500000  0.500000  0.000000  1
  Ir  Ir27  1  0.000000  0.500000  0.500000  1
  Ir  Ir28  1  0.000000  0.000000  0.500000  1
  S  S29  1  0.500000  0.500000  0.500000  1
