# generated using pymatgen
data_Hf16Co4PdRu3
_symmetry_space_group_name_H-M   'P 1'
_cell_length_a   8.60209045
_cell_length_b   8.60472567
_cell_length_c   8.60720290
_cell_angle_alpha   60.00917334
_cell_angle_beta   60.02173387
_cell_angle_gamma   59.98303681
_symmetry_Int_Tables_number   1
_chemical_formula_structural   Hf16Co4PdRu3
_chemical_formula_sum   'Hf16 Co4 Pd1 Ru3'
_cell_volume   450.54039634
_cell_formula_units_Z   1
loop_
 _symmetry_equiv_pos_site_id
 _symmetry_equiv_pos_as_xyz
  1  'x, y, z'
loop_
 _atom_site_type_symbol
 _atom_site_label
 _atom_site_symmetry_multiplicity
 _atom_site_fract_x
 _atom_site_fract_y
 _atom_site_fract_z
 _atom_site_occupancy
  Hf  Hf0  1  0.061350  0.646313  0.646099  1
  Hf  Hf1  1  0.644460  0.063014  0.646181  1
  Hf  Hf2  1  0.644348  0.646282  0.063131  1
  Hf  Hf3  1  0.644397  0.646337  0.646124  1
  Hf  Hf4  1  0.802382  0.806799  0.195486  1
  Hf  Hf5  1  0.197250  0.196955  0.802918  1
  Hf  Hf6  1  0.802358  0.195395  0.806763  1
  Hf  Hf7  1  0.197121  0.802933  0.197059  1
  Hf  Hf8  1  0.197155  0.802946  0.802937  1
  Hf  Hf9  1  0.802362  0.195325  0.195560  1
  Hf  Hf10  1  0.436780  0.436076  0.063582  1
  Hf  Hf11  1  0.070478  0.057454  0.436044  1
  Hf  Hf12  1  0.436758  0.063605  0.436065  1
  Hf  Hf13  1  0.070466  0.436059  0.057430  1
  Hf  Hf14  1  0.070472  0.436071  0.436077  1
  Hf  Hf15  1  0.436762  0.063609  0.063597  1
  Co  Co16  1  0.427868  0.857352  0.857370  1
  Co  Co17  1  0.856677  0.426852  0.858195  1
  Co  Co18  1  0.856658  0.858146  0.426963  1
  Co  Co19  1  0.856615  0.858210  0.858233  1
  Pd  Pd20  1  0.749202  0.416929  0.416922  1
  Ru  Ru21  1  0.412683  0.755217  0.416038  1
  Ru  Ru22  1  0.412685  0.416057  0.755201  1
  Ru  Ru23  1  0.412711  0.416062  0.416023  1
