# generated using pymatgen
data_Nd3Gd5TePt(IO12)2
_symmetry_space_group_name_H-M   'P 1'
_cell_length_a   5.39023510
_cell_length_b   9.32443653
_cell_length_c   10.20509200
_cell_angle_alpha   89.77923300
_cell_angle_beta   90.05055415
_cell_angle_gamma   89.85170823
_symmetry_Int_Tables_number   1
_chemical_formula_structural   Nd3Gd5TePt(IO12)2
_chemical_formula_sum   'Nd3 Gd5 Te1 Pt1 I2 O24'
_cell_volume   512.91143049
_cell_formula_units_Z   1
loop_
 _symmetry_equiv_pos_site_id
 _symmetry_equiv_pos_as_xyz
  1  'x, y, z'
loop_
 _atom_site_type_symbol
 _atom_site_label
 _atom_site_symmetry_multiplicity
 _atom_site_fract_x
 _atom_site_fract_y
 _atom_site_fract_z
 _atom_site_occupancy
  Nd  Nd0  1  0.484597  0.907359  0.027728  1
  Nd  Nd1  1  0.973143  0.618663  0.957674  1
  Nd  Nd2  1  0.530688  0.383658  0.460547  1
  Gd  Gd3  1  0.015351  0.090585  0.553283  1
  Gd  Gd4  1  0.467708  0.795302  0.643120  1
  Gd  Gd5  1  0.962840  0.724489  0.364774  1
  Gd  Gd6  1  0.547319  0.269478  0.864638  1
  Gd  Gd7  1  0.036836  0.206626  0.131771  1
  Te  Te8  1  0.536260  0.003695  0.352926  1
  Pt  Pt9  1  0.957372  0.999556  0.857715  1
  I  I10  1  0.455379  0.502117  0.145261  1
  I  I11  1  0.048109  0.496013  0.642687  1
  O  O12  1  0.246563  0.580601  0.505316  1
  O  O13  1  0.742731  0.909550  0.491428  1
  O  O14  1  0.752155  0.102112  0.999753  1
  O  O15  1  0.254343  0.418673  0.010222  1
  O  O16  1  0.271810  0.880333  0.426454  1
  O  O17  1  0.782736  0.608376  0.564878  1
  O  O18  1  0.724403  0.392320  0.072182  1
  O  O19  1  0.236781  0.125367  0.933644  1
  O  O20  1  0.184959  0.627636  0.185756  1
  O  O21  1  0.683546  0.849951  0.819493  1
  O  O22  1  0.803958  0.143861  0.327269  1
  O  O23  1  0.318283  0.369590  0.680377  1
  O  O24  1  0.327006  0.356846  0.254667  1
  O  O25  1  0.795863  0.145573  0.731944  1
  O  O26  1  0.690108  0.863459  0.239404  1
  O  O27  1  0.182596  0.638851  0.751680  1
  O  O28  1  0.328932  0.054002  0.207505  1
  O  O29  1  0.842290  0.449633  0.785515  1
  O  O30  1  0.657229  0.554416  0.289396  1
  O  O31  1  0.170655  0.939533  0.703115  1
  O  O32  1  0.406446  0.145208  0.475454  1
  O  O33  1  0.944175  0.348066  0.526163  1
  O  O34  1  0.558686  0.648489  0.027842  1
  O  O35  1  0.078149  0.850010  0.988417  1
