# generated using pymatgen
data_Nd6Zn4IrPd12
_symmetry_space_group_name_H-M   'P 1'
_cell_length_a   8.38279064
_cell_length_b   8.38279082
_cell_length_c   8.38279100
_cell_angle_alpha   109.47121623
_cell_angle_beta   109.47121668
_cell_angle_gamma   109.47122756
_symmetry_Int_Tables_number   1
_chemical_formula_structural   Nd6Zn4IrPd12
_chemical_formula_sum   'Nd6 Zn4 Ir1 Pd12'
_cell_volume   453.46524228
_cell_formula_units_Z   1
loop_
 _symmetry_equiv_pos_site_id
 _symmetry_equiv_pos_as_xyz
  1  'x, y, z'
loop_
 _atom_site_type_symbol
 _atom_site_label
 _atom_site_symmetry_multiplicity
 _atom_site_fract_x
 _atom_site_fract_y
 _atom_site_fract_z
 _atom_site_occupancy
  Nd  Nd0  1  0.702598  0.702598  0.000000  1
  Nd  Nd1  1  0.297402  0.000000  0.297402  1
  Nd  Nd2  1  0.000000  0.297402  0.297402  1
  Nd  Nd3  1  0.297402  0.297402  0.000000  1
  Nd  Nd4  1  0.702598  0.000000  0.702598  1
  Nd  Nd5  1  0.000000  0.702598  0.702598  1
  Zn  Zn6  1  0.000000  0.000000  0.500000  1
  Zn  Zn7  1  0.000000  0.500000  0.000000  1
  Zn  Zn8  1  0.500000  0.000000  0.000000  1
  Zn  Zn9  1  0.500000  0.500000  0.500000  1
  Ir  Ir10  1  0.000000  0.000000  0.000000  1
  Pd  Pd11  1  0.331440  0.331440  0.662880  1
  Pd  Pd12  1  0.668560  0.000000  0.331440  1
  Pd  Pd13  1  0.000000  0.668560  0.331440  1
  Pd  Pd14  1  0.668560  0.331440  0.000000  1
  Pd  Pd15  1  0.331440  0.662880  0.331440  1
  Pd  Pd16  1  0.000000  0.331440  0.668560  1
  Pd  Pd17  1  0.331440  0.668560  0.000000  1
  Pd  Pd18  1  0.331440  0.000000  0.668560  1
  Pd  Pd19  1  0.662880  0.331440  0.331440  1
  Pd  Pd20  1  0.668560  0.668560  0.337120  1
  Pd  Pd21  1  0.668560  0.337120  0.668560  1
  Pd  Pd22  1  0.337120  0.668560  0.668560  1
