# generated using pymatgen
data_MgAlB4Ru5
_symmetry_space_group_name_H-M   'P 1'
_cell_length_a   2.94716300
_cell_length_b   8.31767924
_cell_length_c   10.12553992
_cell_angle_alpha   88.94085385
_cell_angle_beta   90.00000000
_cell_angle_gamma   90.00000000
_symmetry_Int_Tables_number   1
_chemical_formula_structural   MgAlB4Ru5
_chemical_formula_sum   'Mg2 Al2 B8 Ru10'
_cell_volume   248.17058690
_cell_formula_units_Z   2
loop_
 _symmetry_equiv_pos_site_id
 _symmetry_equiv_pos_as_xyz
  1  'x, y, z'
loop_
 _atom_site_type_symbol
 _atom_site_label
 _atom_site_symmetry_multiplicity
 _atom_site_fract_x
 _atom_site_fract_y
 _atom_site_fract_z
 _atom_site_occupancy
  Mg  Mg0  1  0.500000  0.149058  0.683836  1
  Mg  Mg1  1  0.500000  0.850942  0.316164  1
  Al  Al2  1  0.500000  0.639722  0.818354  1
  Al  Al3  1  0.500000  0.360278  0.181646  1
  B  B4  1  0.500000  0.851993  0.602465  1
  B  B5  1  0.500000  0.148007  0.397535  1
  B  B6  1  0.500000  0.349849  0.895129  1
  B  B7  1  0.500000  0.650151  0.104871  1
  B  B8  1  0.500000  0.959397  0.910233  1
  B  B9  1  0.500000  0.040603  0.089767  1
  B  B10  1  0.500000  0.459287  0.586874  1
  B  B11  1  0.500000  0.540713  0.413126  1
  Ru  Ru12  1  0.000000  0.406553  0.738894  1
  Ru  Ru13  1  0.000000  0.593447  0.261106  1
  Ru  Ru14  1  0.000000  0.877372  0.766014  1
  Ru  Ru15  1  0.000000  0.122628  0.233986  1
  Ru  Ru16  1  0.000000  0.000000  0.500000  1
  Ru  Ru17  1  0.000000  0.500000  0.000000  1
  Ru  Ru18  1  0.000000  0.657322  0.544336  1
  Ru  Ru19  1  0.000000  0.342678  0.455664  1
  Ru  Ru20  1  0.000000  0.155621  0.948370  1
  Ru  Ru21  1  0.000000  0.844379  0.051630  1
