# generated using pymatgen
data_RbAcF4
_symmetry_space_group_name_H-M   'P 1'
_cell_length_a   4.02582800
_cell_length_b   6.66361700
_cell_length_c   16.61214900
_cell_angle_alpha   90.00000000
_cell_angle_beta   90.00000000
_cell_angle_gamma   90.00000000
_symmetry_Int_Tables_number   1
_chemical_formula_structural   RbAcF4
_chemical_formula_sum   'Rb4 Ac4 F16'
_cell_volume   445.64707601
_cell_formula_units_Z   4
loop_
 _symmetry_equiv_pos_site_id
 _symmetry_equiv_pos_as_xyz
  1  'x, y, z'
loop_
 _atom_site_type_symbol
 _atom_site_label
 _atom_site_symmetry_multiplicity
 _atom_site_fract_x
 _atom_site_fract_y
 _atom_site_fract_z
 _atom_site_occupancy
  Rb  Rb0  1  0.250000  0.722259  0.701760  1
  Rb  Rb1  1  0.750000  0.277741  0.298240  1
  Rb  Rb2  1  0.750000  0.777741  0.201760  1
  Rb  Rb3  1  0.250000  0.222259  0.798240  1
  Ac  Ac4  1  0.250000  0.251959  0.060583  1
  Ac  Ac5  1  0.750000  0.748041  0.939417  1
  Ac  Ac6  1  0.750000  0.248041  0.560583  1
  Ac  Ac7  1  0.250000  0.751959  0.439417  1
  F  F8  1  0.250000  0.605375  0.866664  1
  F  F9  1  0.750000  0.394625  0.133336  1
  F  F10  1  0.750000  0.894625  0.366664  1
  F  F11  1  0.250000  0.105375  0.633336  1
  F  F12  1  0.250000  0.634448  0.035794  1
  F  F13  1  0.750000  0.365552  0.964206  1
  F  F14  1  0.750000  0.865552  0.535794  1
  F  F15  1  0.250000  0.134448  0.464206  1
  F  F16  1  0.250000  0.501138  0.557326  1
  F  F17  1  0.750000  0.498862  0.442674  1
  F  F18  1  0.750000  0.998862  0.057326  1
  F  F19  1  0.250000  0.001138  0.942674  1
  F  F20  1  0.250000  0.589327  0.307868  1
  F  F21  1  0.750000  0.410673  0.692132  1
  F  F22  1  0.750000  0.910673  0.807868  1
  F  F23  1  0.250000  0.089327  0.192132  1
