# generated using pymatgen
data_Yb6IrRh
_symmetry_space_group_name_H-M   'P 1'
_cell_length_a   6.11696600
_cell_length_b   7.81301000
_cell_length_c   9.05317000
_cell_angle_alpha   90.00000000
_cell_angle_beta   90.00000000
_cell_angle_gamma   90.00000000
_symmetry_Int_Tables_number   1
_chemical_formula_structural   Yb6IrRh
_chemical_formula_sum   'Yb12 Ir2 Rh2'
_cell_volume   432.66834495
_cell_formula_units_Z   2
loop_
 _symmetry_equiv_pos_site_id
 _symmetry_equiv_pos_as_xyz
  1  'x, y, z'
loop_
 _atom_site_type_symbol
 _atom_site_label
 _atom_site_symmetry_multiplicity
 _atom_site_fract_x
 _atom_site_fract_y
 _atom_site_fract_z
 _atom_site_occupancy
  Yb  Yb0  1  0.354101  0.666726  0.063255  1
  Yb  Yb1  1  0.145899  0.166726  0.436745  1
  Yb  Yb2  1  0.648825  0.333061  0.565464  1
  Yb  Yb3  1  0.851175  0.833061  0.934536  1
  Yb  Yb4  1  0.648825  0.333061  0.934536  1
  Yb  Yb5  1  0.851175  0.833061  0.565464  1
  Yb  Yb6  1  0.354101  0.666726  0.436745  1
  Yb  Yb7  1  0.145899  0.166726  0.063255  1
  Yb  Yb8  1  0.879573  0.534888  0.250000  1
  Yb  Yb9  1  0.620427  0.034888  0.250000  1
  Yb  Yb10  1  0.121583  0.466391  0.750000  1
  Yb  Yb11  1  0.378417  0.966391  0.750000  1
  Ir  Ir12  1  0.947007  0.126550  0.750000  1
  Ir  Ir13  1  0.552993  0.626550  0.750000  1
  Rh  Rh14  1  0.051325  0.872599  0.250000  1
  Rh  Rh15  1  0.448675  0.372599  0.250000  1
