# generated using pymatgen
data_Hf18Mn2GaRe6Se
_symmetry_space_group_name_H-M   'P 1'
_cell_length_a   8.59269500
_cell_length_b   8.59269461
_cell_length_c   8.56434200
_cell_angle_alpha   90.00000000
_cell_angle_beta   90.00000000
_cell_angle_gamma   119.99999764
_symmetry_Int_Tables_number   1
_chemical_formula_structural   Hf18Mn2GaRe6Se
_chemical_formula_sum   'Hf18 Mn2 Ga1 Re6 Se1'
_cell_volume   547.62519083
_cell_formula_units_Z   1
loop_
 _symmetry_equiv_pos_site_id
 _symmetry_equiv_pos_as_xyz
  1  'x, y, z'
loop_
 _atom_site_type_symbol
 _atom_site_label
 _atom_site_symmetry_multiplicity
 _atom_site_fract_x
 _atom_site_fract_y
 _atom_site_fract_z
 _atom_site_occupancy
  Hf  Hf0  1  0.190540  0.809460  0.450356  1
  Hf  Hf1  1  0.190540  0.381080  0.450356  1
  Hf  Hf2  1  0.618920  0.809460  0.450356  1
  Hf  Hf3  1  0.809000  0.191000  0.548298  1
  Hf  Hf4  1  0.809000  0.617999  0.548298  1
  Hf  Hf5  1  0.382001  0.191000  0.548298  1
  Hf  Hf6  1  0.809000  0.191000  0.951702  1
  Hf  Hf7  1  0.809000  0.617999  0.951702  1
  Hf  Hf8  1  0.382001  0.191000  0.951702  1
  Hf  Hf9  1  0.190540  0.809460  0.049644  1
  Hf  Hf10  1  0.190540  0.381080  0.049644  1
  Hf  Hf11  1  0.618920  0.809460  0.049644  1
  Hf  Hf12  1  0.541431  0.458569  0.250000  1
  Hf  Hf13  1  0.541431  0.082862  0.250000  1
  Hf  Hf14  1  0.917138  0.458569  0.250000  1
  Hf  Hf15  1  0.454609  0.545391  0.750000  1
  Hf  Hf16  1  0.454609  0.909217  0.750000  1
  Hf  Hf17  1  0.090783  0.545391  0.750000  1
  Mn  Mn18  1  0.000000  0.000000  0.500562  1
  Mn  Mn19  1  0.000000  0.000000  0.999438  1
  Ga  Ga20  1  0.333333  0.666667  0.250000  1
  Re  Re21  1  0.892848  0.107152  0.250000  1
  Re  Re22  1  0.892848  0.785698  0.250000  1
  Re  Re23  1  0.214302  0.107152  0.250000  1
  Re  Re24  1  0.107116  0.892884  0.750000  1
  Re  Re25  1  0.107116  0.214231  0.750000  1
  Re  Re26  1  0.785769  0.892884  0.750000  1
  Se  Se27  1  0.666667  0.333333  0.750000  1
