# generated using pymatgen
data_SIF34
_symmetry_space_group_name_H-M   'P 1'
_cell_length_a   8.80476030
_cell_length_b   8.60695190
_cell_length_c   10.13168349
_cell_angle_alpha   80.34326436
_cell_angle_beta   86.67104085
_cell_angle_gamma   66.23946253
_symmetry_Int_Tables_number   1
_chemical_formula_structural   SIF34
_chemical_formula_sum   'S1 I1 F34'
_cell_volume   692.72414952
_cell_formula_units_Z   1
loop_
 _symmetry_equiv_pos_site_id
 _symmetry_equiv_pos_as_xyz
  1  'x, y, z'
loop_
 _atom_site_type_symbol
 _atom_site_label
 _atom_site_symmetry_multiplicity
 _atom_site_fract_x
 _atom_site_fract_y
 _atom_site_fract_z
 _atom_site_occupancy
  S  S0  1  0.863892  0.248585  0.759054  1
  I  I1  1  0.132671  0.748603  0.241614  1
  F  F2  1  0.621920  0.200958  0.477132  1
  F  F3  1  0.389619  0.789395  0.531453  1
  F  F4  1  0.828041  0.698922  0.711836  1
  F  F5  1  0.173619  0.291570  0.279450  1
  F  F6  1  0.088678  0.749512  0.858635  1
  F  F7  1  0.903627  0.255068  0.132398  1
  F  F8  1  0.559778  0.144804  0.375453  1
  F  F9  1  0.439383  0.861858  0.629375  1
  F  F10  1  0.677483  0.317176  0.704796  1
  F  F11  1  0.355629  0.666502  0.309696  1
  F  F12  1  0.918283  0.094751  0.674110  1
  F  F13  1  0.059790  0.928347  0.348966  1
  F  F14  1  0.905389  0.365482  0.635222  1
  F  F15  1  0.082938  0.605782  0.388412  1
  F  F16  1  0.854794  0.821556  0.610756  1
  F  F17  1  0.156638  0.181345  0.395761  1
  F  F18  1  0.809377  0.403021  0.844064  1
  F  F19  1  0.199171  0.565468  0.136331  1
  F  F20  1  0.216877  0.687095  0.764672  1
  F  F21  1  0.784742  0.315512  0.233357  1
  F  F22  1  0.912046  0.830459  0.169888  1
  F  F23  1  0.049570  0.179740  0.814224  1
  F  F24  1  0.821635  0.131774  0.883280  1
  F  F25  1  0.185393  0.895097  0.097624  1
  F  F26  1  0.501902  0.587222  0.984719  1
  F  F27  1  0.513430  0.414930  0.005296  1
  F  F28  1  0.448973  0.093907  0.865120  1
  F  F29  1  0.549936  0.916547  0.132788  1
  F  F30  1  0.286283  0.264997  0.603664  1
  F  F31  1  0.709676  0.734684  0.399625  1
  F  F32  1  0.258829  0.400543  0.678292  1
  F  F33  1  0.740530  0.597556  0.325952  1
  F  F34  1  0.559165  0.931121  0.832923  1
  F  F35  1  0.440295  0.080113  0.164063  1
