# generated using pymatgen
data_Tm10MnIn8Ir3
_symmetry_space_group_name_H-M   'P 1'
_cell_length_a   3.57117100
_cell_length_b   8.02608408
_cell_length_c   18.11489600
_cell_angle_alpha   89.99167628
_cell_angle_beta   90.00000000
_cell_angle_gamma   90.00000000
_symmetry_Int_Tables_number   1
_chemical_formula_structural   Tm10MnIn8Ir3
_chemical_formula_sum   'Tm10 Mn1 In8 Ir3'
_cell_volume   519.21854036
_cell_formula_units_Z   1
loop_
 _symmetry_equiv_pos_site_id
 _symmetry_equiv_pos_as_xyz
  1  'x, y, z'
loop_
 _atom_site_type_symbol
 _atom_site_label
 _atom_site_symmetry_multiplicity
 _atom_site_fract_x
 _atom_site_fract_y
 _atom_site_fract_z
 _atom_site_occupancy
  Tm  Tm0  1  0.000000  0.117522  0.414199  1
  Tm  Tm1  1  0.000000  0.883180  0.587858  1
  Tm  Tm2  1  0.000000  0.383440  0.912050  1
  Tm  Tm3  1  0.000000  0.620743  0.082673  1
  Tm  Tm4  1  0.000000  0.226043  0.220567  1
  Tm  Tm5  1  0.000000  0.757026  0.778248  1
  Tm  Tm6  1  0.000000  0.255768  0.722006  1
  Tm  Tm7  1  0.000000  0.756423  0.282058  1
  Tm  Tm8  1  0.000000  0.001640  0.998767  1
  Tm  Tm9  1  0.000000  0.499047  0.500653  1
  Mn  Mn10  1  0.500000  0.523577  0.197073  1
  In  In11  1  0.500000  0.426582  0.349458  1
  In  In12  1  0.500000  0.572718  0.649071  1
  In  In13  1  0.500000  0.073052  0.850937  1
  In  In14  1  0.500000  0.918294  0.148127  1
  In  In15  1  0.500000  0.295874  0.068795  1
  In  In16  1  0.500000  0.708252  0.931968  1
  In  In17  1  0.500000  0.207381  0.567243  1
  In  In18  1  0.500000  0.793054  0.433872  1
  Ir  Ir19  1  0.500000  0.023303  0.304441  1
  Ir  Ir20  1  0.500000  0.978078  0.696265  1
  Ir  Ir21  1  0.500000  0.479004  0.803667  1
