# generated using pymatgen
data_CaSc2(H6Ir)2
_symmetry_space_group_name_H-M   'P 1'
_cell_length_a   4.65668500
_cell_length_b   4.65668654
_cell_length_c   8.15009600
_cell_angle_alpha   90.00000000
_cell_angle_beta   90.00000000
_cell_angle_gamma   119.99999615
_symmetry_Int_Tables_number   1
_chemical_formula_structural   CaSc2(H6Ir)2
_chemical_formula_sum   'Ca1 Sc2 H12 Ir2'
_cell_volume   153.05490044
_cell_formula_units_Z   1
loop_
 _symmetry_equiv_pos_site_id
 _symmetry_equiv_pos_as_xyz
  1  'x, y, z'
loop_
 _atom_site_type_symbol
 _atom_site_label
 _atom_site_symmetry_multiplicity
 _atom_site_fract_x
 _atom_site_fract_y
 _atom_site_fract_z
 _atom_site_occupancy
  Ca  Ca0  1  0.000000  0.000000  0.000000  1
  Sc  Sc1  1  0.666667  0.333333  0.371034  1
  Sc  Sc2  1  0.333333  0.666667  0.628966  1
  H  H3  1  0.164584  0.835416  0.387648  1
  H  H4  1  0.670832  0.835416  0.387648  1
  H  H5  1  0.164584  0.329168  0.387648  1
  H  H6  1  0.835416  0.164584  0.612352  1
  H  H7  1  0.329168  0.164584  0.612352  1
  H  H8  1  0.835416  0.670832  0.612352  1
  H  H9  1  0.495617  0.991232  0.858156  1
  H  H10  1  0.495617  0.504383  0.858156  1
  H  H11  1  0.008768  0.504383  0.858156  1
  H  H12  1  0.504383  0.008768  0.141844  1
  H  H13  1  0.504383  0.495617  0.141844  1
  H  H14  1  0.991232  0.495617  0.141844  1
  Ir  Ir15  1  0.666667  0.333333  0.739592  1
  Ir  Ir16  1  0.333333  0.666667  0.260408  1
