# generated using pymatgen
data_Tm8Lu12Si15Sn
_symmetry_space_group_name_H-M   'P 1'
_cell_length_a   7.28136215
_cell_length_b   7.58340971
_cell_length_c   14.34516329
_cell_angle_alpha   90.08389145
_cell_angle_beta   89.16486685
_cell_angle_gamma   89.92711580
_symmetry_Int_Tables_number   1
_chemical_formula_structural   Tm8Lu12Si15Sn
_chemical_formula_sum   'Tm8 Lu12 Si15 Sn1'
_cell_volume   792.01915373
_cell_formula_units_Z   1
loop_
 _symmetry_equiv_pos_site_id
 _symmetry_equiv_pos_as_xyz
  1  'x, y, z'
loop_
 _atom_site_type_symbol
 _atom_site_label
 _atom_site_symmetry_multiplicity
 _atom_site_fract_x
 _atom_site_fract_y
 _atom_site_fract_z
 _atom_site_occupancy
  Tm  Tm0  1  0.014810  0.178129  0.096649  1
  Tm  Tm1  1  0.984451  0.822248  0.904234  1
  Tm  Tm2  1  0.485184  0.679398  0.904266  1
  Tm  Tm3  1  0.988114  0.827741  0.598574  1
  Tm  Tm4  1  0.514788  0.320419  0.096975  1
  Tm  Tm5  1  0.006679  0.171533  0.399541  1
  Tm  Tm6  1  0.514788  0.316965  0.400181  1
  Tm  Tm7  1  0.499584  0.687602  0.600084  1
  Lu  Lu8  1  0.163164  0.508399  0.753746  1
  Lu  Lu9  1  0.835528  0.490090  0.249928  1
  Lu  Lu10  1  0.335914  0.010066  0.249754  1
  Lu  Lu11  1  0.666688  0.990011  0.751501  1
  Lu  Lu12  1  0.342753  0.162824  0.628780  1
  Lu  Lu13  1  0.663311  0.824602  0.374857  1
  Lu  Lu14  1  0.161245  0.686026  0.370097  1
  Lu  Lu15  1  0.668767  0.821099  0.122462  1
  Lu  Lu16  1  0.825313  0.323177  0.625003  1
  Lu  Lu17  1  0.329728  0.177400  0.877476  1
  Lu  Lu18  1  0.829145  0.321400  0.876919  1
  Lu  Lu19  1  0.170357  0.678772  0.123523  1
  Si  Si20  1  0.036460  0.109588  0.751312  1
  Si  Si21  1  0.961814  0.895364  0.246680  1
  Si  Si22  1  0.465070  0.605829  0.248457  1
  Si  Si23  1  0.532740  0.394842  0.752514  1
  Si  Si24  1  0.284790  0.866834  0.753079  1
  Si  Si25  1  0.715253  0.130160  0.247353  1
  Si  Si26  1  0.215373  0.369339  0.248695  1
  Si  Si27  1  0.785612  0.631624  0.751883  1
  Si  Si28  1  0.826524  0.535006  0.459168  1
  Si  Si29  1  0.330106  0.967735  0.459624  1
  Si  Si30  1  0.842867  0.530914  0.039248  1
  Si  Si31  1  0.671108  0.033321  0.538784  1
  Si  Si32  1  0.155809  0.468501  0.961639  1
  Si  Si33  1  0.658710  0.031913  0.960937  1
  Si  Si34  1  0.340022  0.969159  0.039987  1
  Sn  Sn35  1  0.177429  0.461967  0.536090  1
