# generated using pymatgen
data_AlZnInF6
_symmetry_space_group_name_H-M   'P 1'
_cell_length_a   7.16380500
_cell_length_b   7.19871100
_cell_length_c   10.06931900
_cell_angle_alpha   90.00000000
_cell_angle_beta   90.00000000
_cell_angle_gamma   90.00000000
_symmetry_Int_Tables_number   1
_chemical_formula_structural   AlZnInF6
_chemical_formula_sum   'Al4 Zn4 In4 F24'
_cell_volume   519.27641060
_cell_formula_units_Z   4
loop_
 _symmetry_equiv_pos_site_id
 _symmetry_equiv_pos_as_xyz
  1  'x, y, z'
loop_
 _atom_site_type_symbol
 _atom_site_label
 _atom_site_symmetry_multiplicity
 _atom_site_fract_x
 _atom_site_fract_y
 _atom_site_fract_z
 _atom_site_occupancy
  Al  Al0  1  0.000000  0.500000  0.500000  1
  Al  Al1  1  0.000000  0.000000  0.000000  1
  Al  Al2  1  0.500000  0.500000  0.500000  1
  Al  Al3  1  0.500000  0.000000  0.000000  1
  Zn  Zn4  1  0.250000  0.719977  0.760757  1
  Zn  Zn5  1  0.750000  0.280023  0.239243  1
  Zn  Zn6  1  0.750000  0.780023  0.260757  1
  Zn  Zn7  1  0.250000  0.219977  0.739243  1
  In  In8  1  0.250000  0.508738  0.110923  1
  In  In9  1  0.750000  0.491262  0.889077  1
  In  In10  1  0.750000  0.991262  0.610923  1
  In  In11  1  0.250000  0.008738  0.389077  1
  F  F12  1  0.051770  0.790320  0.905386  1
  F  F13  1  0.948230  0.209680  0.094614  1
  F  F14  1  0.948230  0.709680  0.405386  1
  F  F15  1  0.551770  0.209680  0.094614  1
  F  F16  1  0.051770  0.290320  0.594614  1
  F  F17  1  0.448230  0.790320  0.905386  1
  F  F18  1  0.448230  0.290320  0.594614  1
  F  F19  1  0.551770  0.709680  0.405386  1
  F  F20  1  0.250000  0.038484  0.033973  1
  F  F21  1  0.750000  0.961516  0.966027  1
  F  F22  1  0.750000  0.461516  0.533973  1
  F  F23  1  0.250000  0.538484  0.466027  1
  F  F24  1  0.481977  0.639253  0.649660  1
  F  F25  1  0.518023  0.360747  0.350340  1
  F  F26  1  0.518023  0.860747  0.149660  1
  F  F27  1  0.981977  0.360747  0.350340  1
  F  F28  1  0.481977  0.139253  0.850340  1
  F  F29  1  0.018023  0.639253  0.649660  1
  F  F30  1  0.018023  0.139253  0.850340  1
  F  F31  1  0.981977  0.860747  0.149660  1
  F  F32  1  0.250000  0.960166  0.656864  1
  F  F33  1  0.750000  0.039834  0.343136  1
  F  F34  1  0.750000  0.539834  0.156864  1
  F  F35  1  0.250000  0.460166  0.843136  1
