# generated using pymatgen
data_LiCa2LaCd2Sn3
_symmetry_space_group_name_H-M   'P 1'
_cell_length_a   7.69317846
_cell_length_b   7.59324782
_cell_length_c   4.77825500
_cell_angle_alpha   90.00000000
_cell_angle_beta   90.00000000
_cell_angle_gamma   119.41114645
_symmetry_Int_Tables_number   1
_chemical_formula_structural   LiCa2LaCd2Sn3
_chemical_formula_sum   'Li1 Ca2 La1 Cd2 Sn3'
_cell_volume   243.15311509
_cell_formula_units_Z   1
loop_
 _symmetry_equiv_pos_site_id
 _symmetry_equiv_pos_as_xyz
  1  'x, y, z'
loop_
 _atom_site_type_symbol
 _atom_site_label
 _atom_site_symmetry_multiplicity
 _atom_site_fract_x
 _atom_site_fract_y
 _atom_site_fract_z
 _atom_site_occupancy
  Li  Li0  1  0.236449  0.000341  0.000000  1
  Ca  Ca1  1  0.571191  0.999386  0.500000  1
  Ca  Ca2  1  0.431937  0.432610  0.500000  1
  La  La3  1  0.998453  0.566406  0.500000  1
  Cd  Cd4  1  0.755454  0.754788  0.000000  1
  Cd  Cd5  1  0.000885  0.242715  0.000000  1
  Sn  Sn6  1  0.013255  0.002123  0.500000  1
  Sn  Sn7  1  0.656319  0.324490  0.000000  1
  Sn  Sn8  1  0.336055  0.677141  0.000000  1
