# generated using pymatgen
data_Zr2BiF11
_symmetry_space_group_name_H-M   'P 1'
_cell_length_a   8.44938677
_cell_length_b   8.44938728
_cell_length_c   8.44938705
_cell_angle_alpha   124.40305940
_cell_angle_beta   106.25577478
_cell_angle_gamma   98.92045895
_symmetry_Int_Tables_number   1
_chemical_formula_structural   Zr2BiF11
_chemical_formula_sum   'Zr4 Bi2 F22'
_cell_volume   438.86452279
_cell_formula_units_Z   2
loop_
 _symmetry_equiv_pos_site_id
 _symmetry_equiv_pos_as_xyz
  1  'x, y, z'
loop_
 _atom_site_type_symbol
 _atom_site_label
 _atom_site_symmetry_multiplicity
 _atom_site_fract_x
 _atom_site_fract_y
 _atom_site_fract_z
 _atom_site_occupancy
  Zr  Zr0  1  0.181126  0.135012  0.316138  1
  Zr  Zr1  1  0.818874  0.864988  0.683862  1
  Zr  Zr2  1  0.681126  0.364988  0.046113  1
  Zr  Zr3  1  0.318874  0.635012  0.953887  1
  Bi  Bi4  1  0.250000  0.750000  0.500000  1
  Bi  Bi5  1  0.750000  0.250000  0.500000  1
  F  F6  1  0.207081  0.397210  0.341728  1
  F  F7  1  0.792919  0.602790  0.658272  1
  F  F8  1  0.055482  0.865353  0.658272  1
  F  F9  1  0.444518  0.102790  0.809871  1
  F  F10  1  0.944518  0.134647  0.341728  1
  F  F11  1  0.555482  0.897210  0.190129  1
  F  F12  1  0.292919  0.634647  0.190129  1
  F  F13  1  0.707081  0.365353  0.809871  1
  F  F14  1  0.000000  0.000000  0.000000  1
  F  F15  1  0.500000  0.500000  0.000000  1
  F  F16  1  0.281526  0.370824  0.652351  1
  F  F17  1  0.718474  0.629176  0.347649  1
  F  F18  1  0.781526  0.129176  0.910703  1
  F  F19  1  0.218474  0.870824  0.089297  1
  F  F20  1  0.454894  0.239963  0.418868  1
  F  F21  1  0.545106  0.760037  0.581132  1
  F  F22  1  0.821094  0.036025  0.581132  1
  F  F23  1  0.678906  0.260037  0.214931  1
  F  F24  1  0.178906  0.963975  0.418868  1
  F  F25  1  0.321094  0.739963  0.785069  1
  F  F26  1  0.045106  0.463975  0.785069  1
  F  F27  1  0.954894  0.536025  0.214931  1
