# generated using pymatgen
data_Ce3SmSiSe3
_symmetry_space_group_name_H-M   'P 1'
_cell_length_a   7.29320012
_cell_length_b   7.29320046
_cell_length_c   7.29320021
_cell_angle_alpha   131.97896398
_cell_angle_beta   131.94659480
_cell_angle_gamma   70.28782423
_symmetry_Int_Tables_number   1
_chemical_formula_structural   Ce3SmSiSe3
_chemical_formula_sum   'Ce3 Sm1 Si1 Se3'
_cell_volume   210.21950649
_cell_formula_units_Z   1
loop_
 _symmetry_equiv_pos_site_id
 _symmetry_equiv_pos_as_xyz
  1  'x, y, z'
loop_
 _atom_site_type_symbol
 _atom_site_label
 _atom_site_symmetry_multiplicity
 _atom_site_fract_x
 _atom_site_fract_y
 _atom_site_fract_z
 _atom_site_occupancy
  Ce  Ce0  1  0.245912  0.245912  0.000000  1
  Ce  Ce1  1  0.754088  0.754088  0.000000  1
  Ce  Ce2  1  0.499999  0.000000  0.499999  1
  Sm  Sm3  1  0.000000  0.499999  0.499999  1
  Si  Si4  1  0.000000  0.000000  0.000000  1
  Se  Se5  1  0.500000  0.500000  0.000000  1
  Se  Se6  1  0.750360  0.250361  0.499999  1
  Se  Se7  1  0.249639  0.749638  0.499999  1
