# generated using pymatgen
data_Al4V12Zn3CuN4
_symmetry_space_group_name_H-M   'P 1'
_cell_length_a   6.58615504
_cell_length_b   6.58615504
_cell_length_c   6.58615504
_cell_angle_alpha   89.99157864
_cell_angle_beta   90.00842136
_cell_angle_gamma   90.00842136
_symmetry_Int_Tables_number   1
_chemical_formula_structural   Al4V12Zn3CuN4
_chemical_formula_sum   'Al4 V12 Zn3 Cu1 N4'
_cell_volume   285.69052346
_cell_formula_units_Z   1
loop_
 _symmetry_equiv_pos_site_id
 _symmetry_equiv_pos_as_xyz
  1  'x, y, z'
loop_
 _atom_site_type_symbol
 _atom_site_label
 _atom_site_symmetry_multiplicity
 _atom_site_fract_x
 _atom_site_fract_y
 _atom_site_fract_z
 _atom_site_occupancy
  Al  Al0  1  0.177440  0.822560  0.322560  1
  Al  Al1  1  0.327446  0.182047  0.824737  1
  Al  Al2  1  0.817953  0.324737  0.172554  1
  Al  Al3  1  0.675263  0.672554  0.682047  1
  V  V4  1  0.790053  0.961568  0.375881  1
  V  V5  1  0.709713  0.038644  0.876081  1
  V  V6  1  0.210335  0.461035  0.123721  1
  V  V7  1  0.290317  0.538870  0.623426  1
  V  V8  1  0.961356  0.376081  0.790287  1
  V  V9  1  0.038432  0.875881  0.709947  1
  V  V10  1  0.461130  0.123426  0.209683  1
  V  V11  1  0.538965  0.623721  0.289665  1
  V  V12  1  0.376279  0.789665  0.961035  1
  V  V13  1  0.876574  0.709683  0.038870  1
  V  V14  1  0.124119  0.209947  0.461568  1
  V  V15  1  0.623919  0.290287  0.538644  1
  Zn  Zn16  1  0.428910  0.928820  0.572337  1
  Zn  Zn17  1  0.927663  0.571090  0.428820  1
  Zn  Zn18  1  0.071180  0.072337  0.071090  1
  Cu  Cu19  1  0.571581  0.428419  0.928419  1
  N  N20  1  0.872886  0.127114  0.627114  1
  N  N21  1  0.627239  0.872529  0.126225  1
  N  N22  1  0.127471  0.626225  0.872761  1
  N  N23  1  0.373775  0.372761  0.372529  1
