# generated using pymatgen
data_PrFe3B4Os
_symmetry_space_group_name_H-M   'P 1'
_cell_length_a   7.14687198
_cell_length_b   7.33616850
_cell_length_c   3.86571300
_cell_angle_alpha   90.00000000
_cell_angle_beta   90.00000000
_cell_angle_gamma   91.27153437
_symmetry_Int_Tables_number   1
_chemical_formula_structural   PrFe3B4Os
_chemical_formula_sum   'Pr2 Fe6 B8 Os2'
_cell_volume   202.63196388
_cell_formula_units_Z   2
loop_
 _symmetry_equiv_pos_site_id
 _symmetry_equiv_pos_as_xyz
  1  'x, y, z'
loop_
 _atom_site_type_symbol
 _atom_site_label
 _atom_site_symmetry_multiplicity
 _atom_site_fract_x
 _atom_site_fract_y
 _atom_site_fract_z
 _atom_site_occupancy
  Pr  Pr0  1  0.000000  0.000000  0.937461  1
  Pr  Pr1  1  0.500000  0.500000  0.430095  1
  Fe  Fe2  1  0.891863  0.347609  0.395502  1
  Fe  Fe3  1  0.108137  0.652391  0.395502  1
  Fe  Fe4  1  0.377627  0.110066  0.618817  1
  Fe  Fe5  1  0.622373  0.889934  0.618817  1
  Fe  Fe6  1  0.617844  0.123621  0.119366  1
  Fe  Fe7  1  0.382156  0.876379  0.119366  1
  B  B8  1  0.659661  0.816358  0.119035  1
  B  B9  1  0.340339  0.183642  0.119035  1
  B  B10  1  0.311616  0.833579  0.616203  1
  B  B11  1  0.688384  0.166421  0.616203  1
  B  B12  1  0.828443  0.729620  0.401979  1
  B  B13  1  0.171557  0.270380  0.401979  1
  B  B14  1  0.211949  0.670684  0.898422  1
  B  B15  1  0.788051  0.329316  0.898422  1
  Os  Os16  1  0.146244  0.389378  0.896897  1
  Os  Os17  1  0.853756  0.610622  0.896897  1
