# generated using pymatgen
data_La2Sc3Se7
_symmetry_space_group_name_H-M   'P 1'
_cell_length_a   6.75213700
_cell_length_b   6.75213784
_cell_length_c   12.05157659
_cell_angle_alpha   75.71800980
_cell_angle_beta   75.71800849
_cell_angle_gamma   34.46056175
_symmetry_Int_Tables_number   1
_chemical_formula_structural   La2Sc3Se7
_chemical_formula_sum   'La2 Sc3 Se7'
_cell_volume   300.34963388
_cell_formula_units_Z   1
loop_
 _symmetry_equiv_pos_site_id
 _symmetry_equiv_pos_as_xyz
  1  'x, y, z'
loop_
 _atom_site_type_symbol
 _atom_site_label
 _atom_site_symmetry_multiplicity
 _atom_site_fract_x
 _atom_site_fract_y
 _atom_site_fract_z
 _atom_site_occupancy
  La  La0  1  0.301149  0.301149  0.803356  1
  La  La1  1  0.698851  0.698851  0.196644  1
  Sc  Sc2  1  0.111226  0.111226  0.572060  1
  Sc  Sc3  1  0.888774  0.888774  0.427940  1
  Sc  Sc4  1  0.000000  0.000000  0.000000  1
  Se  Se5  1  0.264786  0.264786  0.366361  1
  Se  Se6  1  0.735214  0.735214  0.633639  1
  Se  Se7  1  0.979633  0.979633  0.782632  1
  Se  Se8  1  0.020367  0.020367  0.217368  1
  Se  Se9  1  0.649126  0.649126  0.952744  1
  Se  Se10  1  0.500000  0.500000  0.500000  1
  Se  Se11  1  0.350874  0.350874  0.047256  1
