# generated using pymatgen
data_Tl2OsRu3Pb2O13
_symmetry_space_group_name_H-M   'P 1'
_cell_length_a   7.33481378
_cell_length_b   7.36111633
_cell_length_c   7.36466394
_cell_angle_alpha   60.16806729
_cell_angle_beta   60.13398804
_cell_angle_gamma   60.11811951
_symmetry_Int_Tables_number   1
_chemical_formula_structural   Tl2OsRu3Pb2O13
_chemical_formula_sum   'Tl2 Os1 Ru3 Pb2 O13'
_cell_volume   282.06306701
_cell_formula_units_Z   1
loop_
 _symmetry_equiv_pos_site_id
 _symmetry_equiv_pos_as_xyz
  1  'x, y, z'
loop_
 _atom_site_type_symbol
 _atom_site_label
 _atom_site_symmetry_multiplicity
 _atom_site_fract_x
 _atom_site_fract_y
 _atom_site_fract_z
 _atom_site_occupancy
  Tl  Tl0  1  0.888201  0.370972  0.370657  1
  Tl  Tl1  1  0.370171  0.370972  0.370657  1
  Os  Os2  1  0.875039  0.375014  0.874909  1
  Ru  Ru3  1  0.875302  0.875869  0.373526  1
  Ru  Ru4  1  0.874462  0.875949  0.875389  1
  Ru  Ru5  1  0.374198  0.875949  0.875389  1
  Pb  Pb6  1  0.372933  0.376245  0.877891  1
  Pb  Pb7  1  0.374119  0.874369  0.377392  1
  O  O8  1  0.198933  0.799093  0.803039  1
  O  O9  1  0.197498  0.801419  0.196345  1
  O  O10  1  0.553388  0.950441  0.942784  1
  O  O11  1  0.553674  0.946865  0.553899  1
  O  O12  1  0.945562  0.946865  0.553899  1
  O  O13  1  0.804736  0.801419  0.196345  1
  O  O14  1  0.561538  0.555165  0.939335  1
  O  O15  1  0.805652  0.196014  0.809751  1
  O  O16  1  0.809597  0.194253  0.186552  1
  O  O17  1  0.943963  0.555165  0.939335  1
  O  O18  1  0.939024  0.557762  0.564190  1
  O  O19  1  0.188583  0.196014  0.809751  1
  O  O20  1  0.493426  0.504186  0.508964  1
