# generated using pymatgen
data_CaPa2(GaPt)3
_symmetry_space_group_name_H-M   'P 1'
_cell_length_a   7.18714500
_cell_length_b   7.23310554
_cell_length_c   3.99271100
_cell_angle_alpha   90.00000000
_cell_angle_beta   90.00000000
_cell_angle_gamma   120.21177479
_symmetry_Int_Tables_number   1
_chemical_formula_structural   CaPa2(GaPt)3
_chemical_formula_sum   'Ca1 Pa2 Ga3 Pt3'
_cell_volume   179.36965728
_cell_formula_units_Z   1
loop_
 _symmetry_equiv_pos_site_id
 _symmetry_equiv_pos_as_xyz
  1  'x, y, z'
loop_
 _atom_site_type_symbol
 _atom_site_label
 _atom_site_symmetry_multiplicity
 _atom_site_fract_x
 _atom_site_fract_y
 _atom_site_fract_z
 _atom_site_occupancy
  Ca  Ca0  1  0.000000  0.591061  0.500000  1
  Pa  Pa1  1  0.416795  0.415259  0.500000  1
  Pa  Pa2  1  0.583205  0.998464  0.500000  1
  Ga  Ga3  1  0.763961  0.751737  0.000000  1
  Ga  Ga4  1  0.236039  0.987776  0.000000  1
  Ga  Ga5  1  0.000000  0.255118  0.000000  1
  Pt  Pt6  1  0.645568  0.315154  0.000000  1
  Pt  Pt7  1  0.354432  0.669588  0.000000  1
  Pt  Pt8  1  0.000000  0.015844  0.500000  1
