# generated using pymatgen
data_Na10Mn5FeS8(O4F)8
_symmetry_space_group_name_H-M   'P 1'
_cell_length_a   9.10611023
_cell_length_b   9.36763333
_cell_length_c   9.75668100
_cell_angle_alpha   89.56197902
_cell_angle_beta   88.50582951
_cell_angle_gamma   98.44075880
_symmetry_Int_Tables_number   1
_chemical_formula_structural   Na10Mn5FeS8(O4F)8
_chemical_formula_sum   'Na10 Mn5 Fe1 S8 O32 F8'
_cell_volume   822.92091164
_cell_formula_units_Z   1
loop_
 _symmetry_equiv_pos_site_id
 _symmetry_equiv_pos_as_xyz
  1  'x, y, z'
loop_
 _atom_site_type_symbol
 _atom_site_label
 _atom_site_symmetry_multiplicity
 _atom_site_fract_x
 _atom_site_fract_y
 _atom_site_fract_z
 _atom_site_occupancy
  Na  Na0  1  0.001482  0.251545  0.748910  1
  Na  Na1  1  0.998514  0.748471  0.251091  1
  Na  Na2  1  0.016008  0.850223  0.884926  1
  Na  Na3  1  0.017955  0.352350  0.385570  1
  Na  Na4  1  0.983990  0.149775  0.115077  1
  Na  Na5  1  0.982042  0.647670  0.614436  1
  Na  Na6  1  0.338966  0.377169  0.117917  1
  Na  Na7  1  0.339693  0.875912  0.617131  1
  Na  Na8  1  0.661059  0.622834  0.882092  1
  Na  Na9  1  0.660304  0.124100  0.382861  1
  Mn  Mn10  1  0.357317  0.284196  0.555908  1
  Mn  Mn11  1  0.642649  0.715749  0.444118  1
  Mn  Mn12  1  0.999992  0.000012  0.499976  1
  Mn  Mn13  1  0.358646  0.781815  0.055436  1
  Mn  Mn14  1  0.641307  0.218103  0.944545  1
  Fe  Fe15  1  0.000010  0.499985  0.000019  1
  S  S16  1  0.298286  0.589290  0.366033  1
  S  S17  1  0.297314  0.087807  0.866932  1
  S  S18  1  0.701713  0.410706  0.633974  1
  S  S19  1  0.702674  0.912194  0.133079  1
  S  S20  1  0.282421  0.546090  0.797193  1
  S  S21  1  0.280475  0.045538  0.298412  1
  S  S22  1  0.717585  0.453906  0.202802  1
  S  S23  1  0.719529  0.954465  0.701571  1
  O  O24  1  0.219158  0.661524  0.727856  1
  O  O25  1  0.218164  0.160829  0.228619  1
  O  O26  1  0.780845  0.338480  0.272149  1
  O  O27  1  0.781858  0.839185  0.771367  1
  O  O28  1  0.315672  0.435174  0.392578  1
  O  O29  1  0.313320  0.933202  0.895276  1
  O  O30  1  0.684333  0.564829  0.607444  1
  O  O31  1  0.686672  0.066806  0.104728  1
  O  O32  1  0.336553  0.619032  0.217819  1
  O  O33  1  0.336680  0.116308  0.719026  1
  O  O34  1  0.663454  0.380959  0.782187  1
  O  O35  1  0.663317  0.883688  0.280984  1
  O  O36  1  0.600299  0.812517  0.047239  1
  O  O37  1  0.599284  0.310895  0.548259  1
  O  O38  1  0.399693  0.187494  0.952766  1
  O  O39  1  0.400707  0.689115  0.451741  1
  O  O40  1  0.354909  0.455885  0.702437  1
  O  O41  1  0.348823  0.951654  0.204173  1
  O  O42  1  0.645091  0.544120  0.297546  1
  O  O43  1  0.651178  0.048343  0.795808  1
  O  O44  1  0.157431  0.445378  0.871105  1
  O  O45  1  0.153825  0.945205  0.373231  1
  O  O46  1  0.842590  0.554623  0.128905  1
  O  O47  1  0.846165  0.054806  0.626743  1
  O  O48  1  0.389838  0.606433  0.903658  1
  O  O49  1  0.388767  0.104655  0.403849  1
  O  O50  1  0.610181  0.393571  0.096328  1
  O  O51  1  0.611237  0.895339  0.596140  1
  O  O52  1  0.140384  0.106973  0.898341  1
  O  O53  1  0.141509  0.608093  0.398186  1
  O  O54  1  0.859605  0.893031  0.101655  1
  O  O55  1  0.858491  0.391918  0.601815  1
  F  F56  1  0.916705  0.603364  0.855959  1
  F  F57  1  0.918962  0.101769  0.359599  1
  F  F58  1  0.083332  0.396625  0.144095  1
  F  F59  1  0.081030  0.898271  0.640363  1
  F  F60  1  0.115155  0.695404  0.045630  1
  F  F61  1  0.121244  0.210877  0.547892  1
  F  F62  1  0.884862  0.304588  0.954397  1
  F  F63  1  0.878740  0.789135  0.452095  1
