# generated using pymatgen
data_Hf2Ag(PO4)3
_symmetry_space_group_name_H-M   'P 1'
_cell_length_a   8.88775665
_cell_length_b   8.88775710
_cell_length_c   9.21595945
_cell_angle_alpha   61.25707779
_cell_angle_beta   61.25707695
_cell_angle_gamma   60.06333876
_symmetry_Int_Tables_number   1
_chemical_formula_structural   Hf2Ag(PO4)3
_chemical_formula_sum   'Hf4 Ag2 P6 O24'
_cell_volume   524.59070234
_cell_formula_units_Z   2
loop_
 _symmetry_equiv_pos_site_id
 _symmetry_equiv_pos_as_xyz
  1  'x, y, z'
loop_
 _atom_site_type_symbol
 _atom_site_label
 _atom_site_symmetry_multiplicity
 _atom_site_fract_x
 _atom_site_fract_y
 _atom_site_fract_z
 _atom_site_occupancy
  Hf  Hf0  1  0.647181  0.141787  0.813804  1
  Hf  Hf1  1  0.858213  0.352819  0.186196  1
  Hf  Hf2  1  0.148347  0.642400  0.313935  1
  Hf  Hf3  1  0.357600  0.851653  0.686065  1
  Ag  Ag4  1  0.034502  0.463200  0.750581  1
  Ag  Ag5  1  0.536800  0.965498  0.249419  1
  P  P6  1  0.253878  0.458483  0.999808  1
  P  P7  1  0.466598  0.244917  0.498872  1
  P  P8  1  0.040516  0.959484  0.500000  1
  P  P9  1  0.965828  0.034172  0.000000  1
  P  P10  1  0.541517  0.746122  0.000192  1
  P  P11  1  0.755083  0.533402  0.501128  1
  O  O12  1  0.007753  0.125055  0.336873  1
  O  O13  1  0.788479  0.503388  0.335223  1
  O  O14  1  0.422367  0.283290  0.979974  1
  O  O15  1  0.286643  0.623767  0.837374  1
  O  O16  1  0.215589  0.932436  0.521322  1
  O  O17  1  0.629893  0.280350  0.336364  1
  O  O18  1  0.496612  0.211521  0.664777  1
  O  O19  1  0.085085  0.434097  0.015016  1
  O  O20  1  0.441445  0.077229  0.514373  1
  O  O21  1  0.289762  0.414528  0.481718  1
  O  O22  1  0.874945  0.992247  0.663127  1
  O  O23  1  0.067564  0.784411  0.478678  1
  O  O24  1  0.940085  0.210324  0.018925  1
  O  O25  1  0.129966  0.003024  0.836092  1
  O  O26  1  0.565903  0.914915  0.984984  1
  O  O27  1  0.716710  0.577633  0.020026  1
  O  O28  1  0.922771  0.558555  0.485627  1
  O  O29  1  0.509274  0.781639  0.834927  1
  O  O30  1  0.376233  0.713357  0.162626  1
  O  O31  1  0.789676  0.059915  0.981075  1
  O  O32  1  0.719650  0.370107  0.663636  1
  O  O33  1  0.585472  0.710238  0.518282  1
  O  O34  1  0.218361  0.490726  0.165073  1
  O  O35  1  0.996976  0.870034  0.163908  1
