# generated using pymatgen
data_Y6Tm2Sc12GaSi15
_symmetry_space_group_name_H-M   'P 1'
_cell_length_a   7.08915410
_cell_length_b   7.38832419
_cell_length_c   14.00152501
_cell_angle_alpha   89.90209397
_cell_angle_beta   89.98929828
_cell_angle_gamma   90.04987717
_symmetry_Int_Tables_number   1
_chemical_formula_structural   Y6Tm2Sc12GaSi15
_chemical_formula_sum   'Y6 Tm2 Sc12 Ga1 Si15'
_cell_volume   733.35607646
_cell_formula_units_Z   1
loop_
 _symmetry_equiv_pos_site_id
 _symmetry_equiv_pos_as_xyz
  1  'x, y, z'
loop_
 _atom_site_type_symbol
 _atom_site_label
 _atom_site_symmetry_multiplicity
 _atom_site_fract_x
 _atom_site_fract_y
 _atom_site_fract_z
 _atom_site_occupancy
  Y  Y0  1  0.011472  0.175747  0.096867  1
  Y  Y1  1  0.988397  0.824532  0.903601  1
  Y  Y2  1  0.488179  0.676462  0.903797  1
  Y  Y3  1  0.987619  0.826096  0.597221  1
  Y  Y4  1  0.511737  0.323815  0.096410  1
  Y  Y5  1  0.010801  0.174405  0.401941  1
  Tm  Tm6  1  0.512637  0.322792  0.401573  1
  Tm  Tm7  1  0.490102  0.679064  0.597589  1
  Sc  Sc8  1  0.161207  0.502522  0.751513  1
  Sc  Sc9  1  0.838817  0.497689  0.250076  1
  Sc  Sc10  1  0.339050  0.002785  0.249841  1
  Sc  Sc11  1  0.661339  0.996417  0.750000  1
  Sc  Sc12  1  0.333256  0.174142  0.626275  1
  Sc  Sc13  1  0.667862  0.823588  0.374205  1
  Sc  Sc14  1  0.170122  0.677128  0.373282  1
  Sc  Sc15  1  0.669380  0.823600  0.125637  1
  Sc  Sc16  1  0.828104  0.323592  0.625683  1
  Sc  Sc17  1  0.330525  0.175869  0.874614  1
  Sc  Sc18  1  0.830487  0.323021  0.874615  1
  Sc  Sc19  1  0.169007  0.676739  0.125736  1
  Ga  Ga20  1  0.161939  0.462951  0.539390  1
  Si  Si21  1  0.033587  0.117289  0.750541  1
  Si  Si22  1  0.966460  0.883899  0.249799  1
  Si  Si23  1  0.467835  0.614593  0.250306  1
  Si  Si24  1  0.531844  0.386037  0.749438  1
  Si  Si25  1  0.285290  0.871988  0.749829  1
  Si  Si26  1  0.713909  0.128093  0.250042  1
  Si  Si27  1  0.215130  0.372229  0.249867  1
  Si  Si28  1  0.784968  0.627487  0.750292  1
  Si  Si29  1  0.839844  0.535428  0.460206  1
  Si  Si30  1  0.342300  0.964383  0.460277  1
  Si  Si31  1  0.842004  0.535677  0.038699  1
  Si  Si32  1  0.656997  0.035696  0.538962  1
  Si  Si33  1  0.157911  0.464078  0.961651  1
  Si  Si34  1  0.657631  0.035512  0.960678  1
  Si  Si35  1  0.342251  0.964654  0.039550  1
