# generated using pymatgen
data_Lu3Sc3FeBi2
_symmetry_space_group_name_H-M   'P 1'
_cell_length_a   7.91508900
_cell_length_b   7.91508912
_cell_length_c   4.08610100
_cell_angle_alpha   90.00000000
_cell_angle_beta   90.00000000
_cell_angle_gamma   120.00000367
_symmetry_Int_Tables_number   1
_chemical_formula_structural   Lu3Sc3FeBi2
_chemical_formula_sum   'Lu3 Sc3 Fe1 Bi2'
_cell_volume   221.69266535
_cell_formula_units_Z   1
loop_
 _symmetry_equiv_pos_site_id
 _symmetry_equiv_pos_as_xyz
  1  'x, y, z'
loop_
 _atom_site_type_symbol
 _atom_site_label
 _atom_site_symmetry_multiplicity
 _atom_site_fract_x
 _atom_site_fract_y
 _atom_site_fract_z
 _atom_site_occupancy
  Lu  Lu0  1  0.618449  0.000000  0.000000  1
  Lu  Lu1  1  0.000000  0.618449  0.000000  1
  Lu  Lu2  1  0.381551  0.381551  0.000000  1
  Sc  Sc3  1  0.225001  0.000000  0.500000  1
  Sc  Sc4  1  0.000000  0.225001  0.500000  1
  Sc  Sc5  1  0.774999  0.774999  0.500000  1
  Fe  Fe6  1  0.000000  0.000000  0.000000  1
  Bi  Bi7  1  0.333333  0.666667  0.500000  1
  Bi  Bi8  1  0.666667  0.333333  0.500000  1
