# generated using pymatgen
data_Pr15NdGa5Co2Hg
_symmetry_space_group_name_H-M   'P 1'
_cell_length_a   10.55957700
_cell_length_b   10.57951154
_cell_length_c   7.15835303
_cell_angle_alpha   89.98309961
_cell_angle_beta   90.00000000
_cell_angle_gamma   119.93769812
_symmetry_Int_Tables_number   1
_chemical_formula_structural   Pr15NdGa5Co2Hg
_chemical_formula_sum   'Pr15 Nd1 Ga5 Co2 Hg1'
_cell_volume   692.99190790
_cell_formula_units_Z   1
loop_
 _symmetry_equiv_pos_site_id
 _symmetry_equiv_pos_as_xyz
  1  'x, y, z'
loop_
 _atom_site_type_symbol
 _atom_site_label
 _atom_site_symmetry_multiplicity
 _atom_site_fract_x
 _atom_site_fract_y
 _atom_site_fract_z
 _atom_site_occupancy
  Pr  Pr0  1  0.829113  0.658226  0.487890  1
  Pr  Pr1  1  0.340093  0.169312  0.488213  1
  Pr  Pr2  1  0.829219  0.169312  0.488213  1
  Pr  Pr3  1  0.170344  0.340689  0.987829  1
  Pr  Pr4  1  0.659416  0.832228  0.988964  1
  Pr  Pr5  1  0.172813  0.832228  0.988964  1
  Pr  Pr6  1  0.664300  0.328599  0.179479  1
  Pr  Pr7  1  0.333244  0.666488  0.677745  1
  Pr  Pr8  1  0.539369  0.078735  0.789857  1
  Pr  Pr9  1  0.921829  0.458083  0.788593  1
  Pr  Pr10  1  0.536256  0.458083  0.788593  1
  Pr  Pr11  1  0.460309  0.920619  0.292118  1
  Pr  Pr12  1  0.080757  0.539862  0.290097  1
  Pr  Pr13  1  0.459105  0.539862  0.290097  1
  Pr  Pr14  1  0.001068  0.002136  0.773747  1
  Nd  Nd15  1  0.004140  0.008280  0.277620  1
  Ga  Ga16  1  0.327520  0.164723  0.040471  1
  Ga  Ga17  1  0.837205  0.164723  0.040471  1
  Ga  Ga18  1  0.163968  0.327937  0.541467  1
  Ga  Ga19  1  0.673119  0.836524  0.539318  1
  Ga  Ga20  1  0.163403  0.836524  0.539318  1
  Co  Co21  1  0.665620  0.331238  0.552385  1
  Co  Co22  1  0.334457  0.668914  0.052281  1
  Hg  Hg23  1  0.833337  0.666672  0.042508  1
