# generated using pymatgen
data_Tb7ErSbPd24
_symmetry_space_group_name_H-M   'P 1'
_cell_length_a   8.41972735
_cell_length_b   8.41972735
_cell_length_c   8.41972735
_cell_angle_alpha   89.90860041
_cell_angle_beta   89.90860041
_cell_angle_gamma   89.90860041
_symmetry_Int_Tables_number   1
_chemical_formula_structural   Tb7ErSbPd24
_chemical_formula_sum   'Tb7 Er1 Sb1 Pd24'
_cell_volume   596.88742467
_cell_formula_units_Z   1
loop_
 _symmetry_equiv_pos_site_id
 _symmetry_equiv_pos_as_xyz
  1  'x, y, z'
loop_
 _atom_site_type_symbol
 _atom_site_label
 _atom_site_symmetry_multiplicity
 _atom_site_fract_x
 _atom_site_fract_y
 _atom_site_fract_z
 _atom_site_occupancy
  Tb  Tb0  1  0.746509  0.746509  0.253565  1
  Tb  Tb1  1  0.746509  0.253565  0.746509  1
  Tb  Tb2  1  0.253565  0.746509  0.746509  1
  Tb  Tb3  1  0.746440  0.746440  0.746440  1
  Tb  Tb4  1  0.746373  0.253535  0.253535  1
  Tb  Tb5  1  0.253535  0.253535  0.746373  1
  Tb  Tb6  1  0.253535  0.746373  0.253535  1
  Er  Er7  1  0.253702  0.253702  0.253702  1
  Sb  Sb8  1  0.999907  0.999907  0.999907  1
  Pd  Pd9  1  0.000656  0.000656  0.305943  1
  Pd  Pd10  1  0.735864  0.999964  0.499936  1
  Pd  Pd11  1  0.735864  0.499936  0.999964  1
  Pd  Pd12  1  0.499936  0.999964  0.735864  1
  Pd  Pd13  1  0.999964  0.735864  0.499936  1
  Pd  Pd14  1  0.499489  0.000695  0.264156  1
  Pd  Pd15  1  0.000695  0.264156  0.499489  1
  Pd  Pd16  1  0.499936  0.735864  0.999964  1
  Pd  Pd17  1  0.254326  0.499300  0.499300  1
  Pd  Pd18  1  0.500005  0.500005  0.745666  1
  Pd  Pd19  1  0.499300  0.499300  0.254326  1
  Pd  Pd20  1  0.499300  0.254326  0.499300  1
  Pd  Pd21  1  0.500005  0.745666  0.500005  1
  Pd  Pd22  1  0.745666  0.500005  0.500005  1
  Pd  Pd23  1  0.305943  0.000656  0.000656  1
  Pd  Pd24  1  0.000002  0.000002  0.693857  1
  Pd  Pd25  1  0.000695  0.499489  0.264156  1
  Pd  Pd26  1  0.000656  0.305943  0.000656  1
  Pd  Pd27  1  0.000002  0.693857  0.000002  1
  Pd  Pd28  1  0.693857  0.000002  0.000002  1
  Pd  Pd29  1  0.264156  0.499489  0.000695  1
  Pd  Pd30  1  0.264156  0.000695  0.499489  1
  Pd  Pd31  1  0.999964  0.499936  0.735864  1
  Pd  Pd32  1  0.499489  0.264156  0.000695  1
