# generated using pymatgen
data_Sc6Ni2B4Ir7Rh
_symmetry_space_group_name_H-M   'P 1'
_cell_length_a   3.11306600
_cell_length_b   9.40435063
_cell_length_c   9.38827165
_cell_angle_alpha   90.06772717
_cell_angle_beta   90.00000000
_cell_angle_gamma   90.00000000
_symmetry_Int_Tables_number   1
_chemical_formula_structural   Sc6Ni2B4Ir7Rh
_chemical_formula_sum   'Sc6 Ni2 B4 Ir7 Rh1'
_cell_volume   274.85426806
_cell_formula_units_Z   1
loop_
 _symmetry_equiv_pos_site_id
 _symmetry_equiv_pos_as_xyz
  1  'x, y, z'
loop_
 _atom_site_type_symbol
 _atom_site_label
 _atom_site_symmetry_multiplicity
 _atom_site_fract_x
 _atom_site_fract_y
 _atom_site_fract_z
 _atom_site_occupancy
  Sc  Sc0  1  0.000000  0.178674  0.678763  1
  Sc  Sc1  1  0.000000  0.820951  0.321662  1
  Sc  Sc2  1  0.000000  0.321635  0.178397  1
  Sc  Sc3  1  0.000000  0.679023  0.821336  1
  Sc  Sc4  1  0.000000  0.000681  0.003109  1
  Sc  Sc5  1  0.000000  0.499824  0.499555  1
  Ni  Ni6  1  0.500000  0.000418  0.499890  1
  Ni  Ni7  1  0.500000  0.499049  0.999695  1
  B  B8  1  0.000000  0.609377  0.108624  1
  B  B9  1  0.000000  0.390107  0.890169  1
  B  B10  1  0.000000  0.891081  0.610265  1
  B  B11  1  0.000000  0.109707  0.391556  1
  Ir  Ir12  1  0.500000  0.936844  0.771583  1
  Ir  Ir13  1  0.500000  0.770180  0.063258  1
  Ir  Ir14  1  0.500000  0.437182  0.728602  1
  Ir  Ir15  1  0.500000  0.228972  0.935246  1
  Ir  Ir16  1  0.500000  0.563628  0.270283  1
  Ir  Ir17  1  0.500000  0.729908  0.563311  1
  Ir  Ir18  1  0.500000  0.269603  0.434994  1
  Rh  Rh19  1  0.500000  0.063156  0.229702  1
