# generated using pymatgen
data_Nd8NbSi16Mo11
_symmetry_space_group_name_H-M   'P 1'
_cell_length_a   6.92883424
_cell_length_b   7.10453595
_cell_length_c   13.13863200
_cell_angle_alpha   90.00000000
_cell_angle_beta   90.00000000
_cell_angle_gamma   90.09018111
_symmetry_Int_Tables_number   1
_chemical_formula_structural   Nd8NbSi16Mo11
_chemical_formula_sum   'Nd8 Nb1 Si16 Mo11'
_cell_volume   646.76349405
_cell_formula_units_Z   1
loop_
 _symmetry_equiv_pos_site_id
 _symmetry_equiv_pos_as_xyz
  1  'x, y, z'
loop_
 _atom_site_type_symbol
 _atom_site_label
 _atom_site_symmetry_multiplicity
 _atom_site_fract_x
 _atom_site_fract_y
 _atom_site_fract_z
 _atom_site_occupancy
  Nd  Nd0  1  0.498883  0.334804  0.093886  1
  Nd  Nd1  1  0.996661  0.165719  0.405988  1
  Nd  Nd2  1  0.503166  0.664323  0.594683  1
  Nd  Nd3  1  0.003754  0.836665  0.905442  1
  Nd  Nd4  1  0.503166  0.664323  0.905317  1
  Nd  Nd5  1  0.003754  0.836665  0.594558  1
  Nd  Nd6  1  0.498883  0.334804  0.406114  1
  Nd  Nd7  1  0.996661  0.165719  0.094012  1
  Nb  Nb8  1  0.835904  0.508395  0.250000  1
  Si  Si9  1  0.810033  0.619338  0.750000  1
  Si  Si10  1  0.309487  0.881731  0.750000  1
  Si  Si11  1  0.197626  0.378718  0.250000  1
  Si  Si12  1  0.690964  0.115006  0.250000  1
  Si  Si13  1  0.536308  0.358053  0.750000  1
  Si  Si14  1  0.037533  0.143488  0.750000  1
  Si  Si15  1  0.458256  0.642138  0.250000  1
  Si  Si16  1  0.965338  0.865137  0.250000  1
  Si  Si17  1  0.654674  0.046054  0.549707  1
  Si  Si18  1  0.154611  0.452988  0.950200  1
  Si  Si19  1  0.343999  0.952826  0.049333  1
  Si  Si20  1  0.844364  0.546734  0.454755  1
  Si  Si21  1  0.343999  0.952826  0.450667  1
  Si  Si22  1  0.844364  0.546734  0.045245  1
  Si  Si23  1  0.654674  0.046054  0.950293  1
  Si  Si24  1  0.154611  0.452988  0.549800  1
  Mo  Mo25  1  0.666240  0.005420  0.750000  1
  Mo  Mo26  1  0.165226  0.495270  0.750000  1
  Mo  Mo27  1  0.333350  0.992970  0.250000  1
  Mo  Mo28  1  0.830856  0.335634  0.627985  1
  Mo  Mo29  1  0.332705  0.164692  0.872992  1
  Mo  Mo30  1  0.166430  0.664141  0.126197  1
  Mo  Mo31  1  0.666764  0.832587  0.373803  1
  Mo  Mo32  1  0.166430  0.664141  0.373803  1
  Mo  Mo33  1  0.666764  0.832587  0.126197  1
  Mo  Mo34  1  0.830856  0.335634  0.872015  1
  Mo  Mo35  1  0.332705  0.164692  0.627008  1
