# generated using pymatgen
data_Nd3Si2Ir3
_symmetry_space_group_name_H-M   'P 1'
_cell_length_a   5.73083800
_cell_length_b   7.78016944
_cell_length_c   15.02861100
_cell_angle_alpha   90.00000000
_cell_angle_beta   90.00000000
_cell_angle_gamma   90.01933875
_symmetry_Int_Tables_number   1
_chemical_formula_structural   Nd3Si2Ir3
_chemical_formula_sum   'Nd12 Si8 Ir12'
_cell_volume   670.07899773
_cell_formula_units_Z   4
loop_
 _symmetry_equiv_pos_site_id
 _symmetry_equiv_pos_as_xyz
  1  'x, y, z'
loop_
 _atom_site_type_symbol
 _atom_site_label
 _atom_site_symmetry_multiplicity
 _atom_site_fract_x
 _atom_site_fract_y
 _atom_site_fract_z
 _atom_site_occupancy
  Nd  Nd0  1  0.135527  0.473410  0.890717  1
  Nd  Nd1  1  0.364492  0.973255  0.890663  1
  Nd  Nd2  1  0.601843  0.329405  0.750000  1
  Nd  Nd3  1  0.398701  0.670826  0.250000  1
  Nd  Nd4  1  0.635324  0.026563  0.391169  1
  Nd  Nd5  1  0.864521  0.526977  0.109013  1
  Nd  Nd6  1  0.864521  0.526977  0.390987  1
  Nd  Nd7  1  0.364492  0.973255  0.609337  1
  Nd  Nd8  1  0.897992  0.829605  0.750000  1
  Nd  Nd9  1  0.135527  0.473410  0.609283  1
  Nd  Nd10  1  0.635324  0.026563  0.108831  1
  Nd  Nd11  1  0.101571  0.170618  0.250000  1
  Si  Si12  1  0.374880  0.372862  0.099027  1
  Si  Si13  1  0.625175  0.627243  0.901656  1
  Si  Si14  1  0.874986  0.127525  0.901684  1
  Si  Si15  1  0.374880  0.372862  0.400973  1
  Si  Si16  1  0.874986  0.127525  0.598316  1
  Si  Si17  1  0.625175  0.627243  0.598344  1
  Si  Si18  1  0.125061  0.872871  0.401047  1
  Si  Si19  1  0.125061  0.872871  0.098953  1
  Ir  Ir20  1  0.571568  0.321218  0.250000  1
  Ir  Ir21  1  0.604349  0.336164  0.960512  1
  Ir  Ir22  1  0.393869  0.663518  0.039760  1
  Ir  Ir23  1  0.393869  0.663518  0.460240  1
  Ir  Ir24  1  0.071041  0.178764  0.750000  1
  Ir  Ir25  1  0.106479  0.163296  0.460325  1
  Ir  Ir26  1  0.429297  0.678314  0.750000  1
  Ir  Ir27  1  0.928034  0.821373  0.250000  1
  Ir  Ir28  1  0.106479  0.163296  0.039675  1
  Ir  Ir29  1  0.604349  0.336164  0.539488  1
  Ir  Ir30  1  0.895314  0.836253  0.539606  1
  Ir  Ir31  1  0.895314  0.836253  0.960394  1
