# generated using pymatgen
data_Th2Ga8GeRu3
_symmetry_space_group_name_H-M   'P 1'
_cell_length_a   7.67282752
_cell_length_b   7.62597801
_cell_length_c   9.62009749
_cell_angle_alpha   90.16164162
_cell_angle_beta   89.65215773
_cell_angle_gamma   119.47536592
_symmetry_Int_Tables_number   1
_chemical_formula_structural   Th2Ga8GeRu3
_chemical_formula_sum   'Th4 Ga16 Ge2 Ru6'
_cell_volume   490.03241841
_cell_formula_units_Z   2
loop_
 _symmetry_equiv_pos_site_id
 _symmetry_equiv_pos_as_xyz
  1  'x, y, z'
loop_
 _atom_site_type_symbol
 _atom_site_label
 _atom_site_symmetry_multiplicity
 _atom_site_fract_x
 _atom_site_fract_y
 _atom_site_fract_z
 _atom_site_occupancy
  Th  Th0  1  0.998114  0.670176  0.246758  1
  Th  Th1  1  0.001886  0.329824  0.753242  1
  Th  Th2  1  0.674327  0.001155  0.249023  1
  Th  Th3  1  0.325673  0.998845  0.750977  1
  Ga  Ga4  1  0.134682  0.130338  0.251013  1
  Ga  Ga5  1  0.865318  0.869662  0.748987  1
  Ga  Ga6  1  0.991075  0.663045  0.575469  1
  Ga  Ga7  1  0.336701  0.008630  0.422868  1
  Ga  Ga8  1  0.008925  0.336955  0.424531  1
  Ga  Ga9  1  0.663299  0.991370  0.577132  1
  Ga  Ga10  1  0.659072  0.988897  0.920779  1
  Ga  Ga11  1  0.340928  0.011103  0.079221  1
  Ga  Ga12  1  0.337422  0.336582  0.556412  1
  Ga  Ga13  1  0.662578  0.663418  0.443588  1
  Ga  Ga14  1  0.658650  0.662499  0.058461  1
  Ga  Ga15  1  0.341350  0.337501  0.941539  1
  Ga  Ga16  1  0.342915  0.548966  0.251837  1
  Ga  Ga17  1  0.657085  0.451034  0.748163  1
  Ga  Ga18  1  0.548511  0.341213  0.249852  1
  Ga  Ga19  1  0.451489  0.658787  0.750148  1
  Ge  Ge20  1  0.006073  0.332587  0.079202  1
  Ge  Ge21  1  0.993927  0.667413  0.920798  1
  Ru  Ru22  1  0.683132  0.333741  0.999484  1
  Ru  Ru23  1  0.316868  0.666259  0.000516  1
  Ru  Ru24  1  0.325428  0.673612  0.500734  1
  Ru  Ru25  1  0.674572  0.326388  0.499266  1
  Ru  Ru26  1  0.000000  0.000000  0.000000  1
  Ru  Ru27  1  0.000000  0.000000  0.500000  1
