# generated using pymatgen
data_Cs4VPPtS8
_symmetry_space_group_name_H-M   'P 1'
_cell_length_a   13.60150400
_cell_length_b   7.55948422
_cell_length_c   9.79075108
_cell_angle_alpha   84.29433722
_cell_angle_beta   90.00000000
_cell_angle_gamma   90.00000000
_symmetry_Int_Tables_number   1
_chemical_formula_structural   Cs4VPPtS8
_chemical_formula_sum   'Cs8 V2 P2 Pt2 S16'
_cell_volume   1001.70111299
_cell_formula_units_Z   2
loop_
 _symmetry_equiv_pos_site_id
 _symmetry_equiv_pos_as_xyz
  1  'x, y, z'
loop_
 _atom_site_type_symbol
 _atom_site_label
 _atom_site_symmetry_multiplicity
 _atom_site_fract_x
 _atom_site_fract_y
 _atom_site_fract_z
 _atom_site_occupancy
  Cs  Cs0  1  0.132336  0.820790  0.680816  1
  Cs  Cs1  1  0.632336  0.179210  0.819184  1
  Cs  Cs2  1  0.866925  0.176386  0.318170  1
  Cs  Cs3  1  0.366925  0.823614  0.181830  1
  Cs  Cs4  1  0.345988  0.285204  0.540570  1
  Cs  Cs5  1  0.845988  0.714796  0.959430  1
  Cs  Cs6  1  0.650375  0.722554  0.466203  1
  Cs  Cs7  1  0.150375  0.277446  0.033797  1
  V  V8  1  0.425343  0.748540  0.769527  1
  V  V9  1  0.925343  0.251460  0.730473  1
  P  P10  1  0.578953  0.242708  0.237252  1
  P  P11  1  0.078953  0.757292  0.262748  1
  Pt  Pt12  1  0.998097  0.490625  0.509860  1
  Pt  Pt13  1  0.498097  0.509375  0.990140  1
  S  S14  1  0.081554  0.293919  0.672796  1
  S  S15  1  0.581554  0.706081  0.827204  1
  S  S16  1  0.934241  0.690187  0.330019  1
  S  S17  1  0.434241  0.309813  0.169981  1
  S  S18  1  0.403238  0.752703  0.553527  1
  S  S19  1  0.903238  0.247297  0.946473  1
  S  S20  1  0.600423  0.244038  0.440363  1
  S  S21  1  0.100423  0.755962  0.059637  1
  S  S22  1  0.141114  0.531211  0.374955  1
  S  S23  1  0.641114  0.468789  0.125045  1
  S  S24  1  0.844984  0.474682  0.622227  1
  S  S25  1  0.344984  0.525318  0.877773  1
  S  S26  1  0.372724  0.993459  0.832329  1
  S  S27  1  0.872724  0.006541  0.667671  1
  S  S28  1  0.623706  0.013594  0.167809  1
  S  S29  1  0.123706  0.986406  0.332191  1
