# generated using pymatgen
data_NdCd2Ga2Pd
_symmetry_space_group_name_H-M   'P 1'
_cell_length_a   4.37210612
_cell_length_b   6.79326800
_cell_length_c   8.74602665
_cell_angle_alpha   90.00000000
_cell_angle_beta   104.47443958
_cell_angle_gamma   90.00000000
_symmetry_Int_Tables_number   1
_chemical_formula_structural   NdCd2Ga2Pd
_chemical_formula_sum   'Nd2 Cd4 Ga4 Pd2'
_cell_volume   251.51963250
_cell_formula_units_Z   2
loop_
 _symmetry_equiv_pos_site_id
 _symmetry_equiv_pos_as_xyz
  1  'x, y, z'
loop_
 _atom_site_type_symbol
 _atom_site_label
 _atom_site_symmetry_multiplicity
 _atom_site_fract_x
 _atom_site_fract_y
 _atom_site_fract_z
 _atom_site_occupancy
  Nd  Nd0  1  0.870507  0.750000  0.741013  1
  Nd  Nd1  1  0.129493  0.250000  0.258987  1
  Cd  Cd2  1  0.500000  0.500000  0.000000  1
  Cd  Cd3  1  0.500000  0.000000  0.000000  1
  Cd  Cd4  1  0.065657  0.750000  0.131315  1
  Cd  Cd5  1  0.934343  0.250000  0.868685  1
  Ga  Ga6  1  0.685401  0.553041  0.370804  1
  Ga  Ga7  1  0.314599  0.446959  0.629196  1
  Ga  Ga8  1  0.685401  0.946959  0.370804  1
  Ga  Ga9  1  0.314599  0.053041  0.629196  1
  Pd  Pd10  1  0.224868  0.750000  0.449736  1
  Pd  Pd11  1  0.775132  0.250000  0.550264  1
