# generated using pymatgen
data_Sr4CuRe2HN8
_symmetry_space_group_name_H-M   'P 1'
_cell_length_a   5.91957400
_cell_length_b   6.29167310
_cell_length_c   7.18991904
_cell_angle_alpha   69.59423332
_cell_angle_beta   90.00000000
_cell_angle_gamma   90.00000000
_symmetry_Int_Tables_number   1
_chemical_formula_structural   Sr4CuRe2HN8
_chemical_formula_sum   'Sr4 Cu1 Re2 H1 N8'
_cell_volume   250.97740104
_cell_formula_units_Z   1
loop_
 _symmetry_equiv_pos_site_id
 _symmetry_equiv_pos_as_xyz
  1  'x, y, z'
loop_
 _atom_site_type_symbol
 _atom_site_label
 _atom_site_symmetry_multiplicity
 _atom_site_fract_x
 _atom_site_fract_y
 _atom_site_fract_z
 _atom_site_occupancy
  Sr  Sr0  1  0.250000  0.282184  0.053264  1
  Sr  Sr1  1  0.750000  0.727678  0.944151  1
  Sr  Sr2  1  0.750000  0.796376  0.409484  1
  Sr  Sr3  1  0.250000  0.197401  0.567202  1
  Cu  Cu4  1  0.250000  0.671768  0.618720  1
  Re  Re5  1  0.250000  0.731538  0.195743  1
  Re  Re6  1  0.750000  0.289617  0.791740  1
  H  H7  1  0.750000  0.224439  0.475816  1
  N  N8  1  0.505843  0.477557  0.743999  1
  N  N9  1  0.006309  0.542867  0.247224  1
  N  N10  1  0.493691  0.542867  0.247224  1
  N  N11  1  0.994157  0.477557  0.743999  1
  N  N12  1  0.750000  0.107513  0.620046  1
  N  N13  1  0.250000  0.913779  0.361530  1
  N  N14  1  0.750000  0.101705  0.043776  1
  N  N15  1  0.250000  0.915155  0.936081  1
