# generated using pymatgen
data_HoTm5FeSb2
_symmetry_space_group_name_H-M   'P 1'
_cell_length_a   8.10102839
_cell_length_b   8.10537368
_cell_length_c   4.10767000
_cell_angle_alpha   90.00000000
_cell_angle_beta   90.00000000
_cell_angle_gamma   120.01773843
_symmetry_Int_Tables_number   1
_chemical_formula_structural   HoTm5FeSb2
_chemical_formula_sum   'Ho1 Tm5 Fe1 Sb2'
_cell_volume   233.54023799
_cell_formula_units_Z   1
loop_
 _symmetry_equiv_pos_site_id
 _symmetry_equiv_pos_as_xyz
  1  'x, y, z'
loop_
 _atom_site_type_symbol
 _atom_site_label
 _atom_site_symmetry_multiplicity
 _atom_site_fract_x
 _atom_site_fract_y
 _atom_site_fract_z
 _atom_site_occupancy
  Ho  Ho0  1  0.000000  0.605540  0.500000  1
  Tm  Tm1  1  0.234379  0.000483  0.000000  1
  Tm  Tm2  1  0.765621  0.766104  0.000000  1
  Tm  Tm3  1  0.000000  0.234136  0.000000  1
  Tm  Tm4  1  0.393950  0.393866  0.500000  1
  Tm  Tm5  1  0.606050  0.999916  0.500000  1
  Fe  Fe6  1  0.000000  0.000600  0.500000  1
  Sb  Sb7  1  0.333959  0.666658  0.000000  1
  Sb  Sb8  1  0.666041  0.332698  0.000000  1
