# generated using pymatgen
data_TbEr7Hf9Si16Mo3
_symmetry_space_group_name_H-M   'P 1'
_cell_length_a   7.17612214
_cell_length_b   7.17510116
_cell_length_c   13.11708293
_cell_angle_alpha   90.09726404
_cell_angle_beta   90.07605050
_cell_angle_gamma   90.08401048
_symmetry_Int_Tables_number   1
_chemical_formula_structural   TbEr7Hf9Si16Mo3
_chemical_formula_sum   'Tb1 Er7 Hf9 Si16 Mo3'
_cell_volume   675.38846416
_cell_formula_units_Z   1
loop_
 _symmetry_equiv_pos_site_id
 _symmetry_equiv_pos_as_xyz
  1  'x, y, z'
loop_
 _atom_site_type_symbol
 _atom_site_label
 _atom_site_symmetry_multiplicity
 _atom_site_fract_x
 _atom_site_fract_y
 _atom_site_fract_z
 _atom_site_occupancy
  Tb  Tb0  1  0.655656  0.001172  0.284626  1
  Er  Er1  1  0.999795  0.344826  0.215154  1
  Er  Er2  1  0.003376  0.656404  0.714530  1
  Er  Er3  1  0.154372  0.500542  0.464166  1
  Er  Er4  1  0.499388  0.845422  0.035851  1
  Er  Er5  1  0.846773  0.501358  0.967684  1
  Er  Er6  1  0.498664  0.153273  0.532387  1
  Er  Er7  1  0.343584  0.996549  0.785436  1
  Hf  Hf8  1  0.675556  0.324486  0.750017  1
  Hf  Hf9  1  0.146095  0.993337  0.373772  1
  Hf  Hf10  1  0.855610  0.004236  0.876713  1
  Hf  Hf11  1  0.505439  0.648371  0.621789  1
  Hf  Hf12  1  0.351538  0.494576  0.878294  1
  Hf  Hf13  1  0.492973  0.353463  0.125454  1
  Hf  Hf14  1  0.646620  0.506795  0.374406  1
  Hf  Hf15  1  0.995886  0.144465  0.623395  1
  Hf  Hf16  1  0.006584  0.853879  0.126055  1
  Si  Si17  1  0.359157  0.297426  0.317533  1
  Si  Si18  1  0.639231  0.705434  0.818196  1
  Si  Si19  1  0.204508  0.860390  0.566668  1
  Si  Si20  1  0.139551  0.795357  0.933305  1
  Si  Si21  1  0.796155  0.139498  0.067739  1
  Si  Si22  1  0.861601  0.204982  0.432704  1
  Si  Si23  1  0.294577  0.360810  0.681853  1
  Si  Si24  1  0.703771  0.638991  0.182075  1
  Si  Si25  1  0.295642  0.051520  0.183885  1
  Si  Si26  1  0.703652  0.947660  0.682470  1
  Si  Si27  1  0.447665  0.795641  0.432905  1
  Si  Si28  1  0.203574  0.551511  0.067497  1
  Si  Si29  1  0.547836  0.201856  0.935980  1
  Si  Si30  1  0.798214  0.452439  0.564037  1
  Si  Si31  1  0.052299  0.296439  0.817516  1
  Si  Si32  1  0.949589  0.702667  0.315750  1
  Mo  Mo33  1  0.176334  0.175485  0.001267  1
  Mo  Mo34  1  0.824851  0.823341  0.498929  1
  Mo  Mo35  1  0.323885  0.675400  0.249962  1
