# generated using pymatgen
data_Nd2Sm5FeBr12
_symmetry_space_group_name_H-M   'P 1'
_cell_length_a   9.42608358
_cell_length_b   9.32206569
_cell_length_c   9.43918671
_cell_angle_alpha   106.64741198
_cell_angle_beta   106.83658336
_cell_angle_gamma   107.08342738
_symmetry_Int_Tables_number   1
_chemical_formula_structural   Nd2Sm5FeBr12
_chemical_formula_sum   'Nd2 Sm5 Fe1 Br12'
_cell_volume   693.44575898
_cell_formula_units_Z   1
loop_
 _symmetry_equiv_pos_site_id
 _symmetry_equiv_pos_as_xyz
  1  'x, y, z'
loop_
 _atom_site_type_symbol
 _atom_site_label
 _atom_site_symmetry_multiplicity
 _atom_site_fract_x
 _atom_site_fract_y
 _atom_site_fract_z
 _atom_site_occupancy
  Nd  Nd0  1  0.596439  0.798825  0.523177  1
  Nd  Nd1  1  0.403561  0.201175  0.476823  1
  Sm  Sm2  1  0.810321  0.524196  0.600222  1
  Sm  Sm3  1  0.523565  0.600238  0.808985  1
  Sm  Sm4  1  0.189679  0.475804  0.399778  1
  Sm  Sm5  1  0.476435  0.399762  0.191015  1
  Sm  Sm6  1  0.000000  0.000000  0.000000  1
  Fe  Fe7  1  0.500000  0.500000  0.500000  1
  Br  Br8  1  0.728331  0.186632  0.575050  1
  Br  Br9  1  0.965988  0.887269  0.668622  1
  Br  Br10  1  0.572963  0.722861  0.181169  1
  Br  Br11  1  0.114466  0.336259  0.037483  1
  Br  Br12  1  0.667205  0.964049  0.888717  1
  Br  Br13  1  0.885534  0.663741  0.962517  1
  Br  Br14  1  0.034012  0.112731  0.331378  1
  Br  Br15  1  0.816113  0.426909  0.276611  1
  Br  Br16  1  0.332795  0.035951  0.111283  1
  Br  Br17  1  0.271669  0.813368  0.424950  1
  Br  Br18  1  0.183887  0.573091  0.723389  1
  Br  Br19  1  0.427037  0.277139  0.818831  1
