# generated using pymatgen
data_NpCu2Rh3S8
_symmetry_space_group_name_H-M   'P 1'
_cell_length_a   6.98245634
_cell_length_b   6.98265530
_cell_length_c   6.98184630
_cell_angle_alpha   62.40275492
_cell_angle_beta   62.40051594
_cell_angle_gamma   62.40620600
_symmetry_Int_Tables_number   1
_chemical_formula_structural   NpCu2Rh3S8
_chemical_formula_sum   'Np1 Cu2 Rh3 S8'
_cell_volume   253.60471491
_cell_formula_units_Z   1
loop_
 _symmetry_equiv_pos_site_id
 _symmetry_equiv_pos_as_xyz
  1  'x, y, z'
loop_
 _atom_site_type_symbol
 _atom_site_label
 _atom_site_symmetry_multiplicity
 _atom_site_fract_x
 _atom_site_fract_y
 _atom_site_fract_z
 _atom_site_occupancy
  Np  Np0  1  0.125000  0.125000  0.125000  1
  Cu  Cu1  1  0.750285  0.750227  0.750348  1
  Cu  Cu2  1  0.499715  0.499773  0.499652  1
  Rh  Rh3  1  0.125000  0.125000  0.625000  1
  Rh  Rh4  1  0.125000  0.625000  0.125000  1
  Rh  Rh5  1  0.625000  0.125000  0.125000  1
  S  S6  1  0.867668  0.360499  0.867535  1
  S  S7  1  0.382457  0.382344  0.889486  1
  S  S8  1  0.363522  0.363534  0.363513  1
  S  S9  1  0.889492  0.382477  0.382333  1
  S  S10  1  0.886478  0.886466  0.886487  1
  S  S11  1  0.360508  0.867523  0.867667  1
  S  S12  1  0.382332  0.889501  0.382465  1
  S  S13  1  0.867543  0.867656  0.360514  1
