# generated using pymatgen
data_Y2Er10Co5Sn
_symmetry_space_group_name_H-M   'P 1'
_cell_length_a   8.22806925
_cell_length_b   8.22807007
_cell_length_c   8.22806924
_cell_angle_alpha   106.96713651
_cell_angle_beta   110.77277504
_cell_angle_gamma   110.70240348
_symmetry_Int_Tables_number   1
_chemical_formula_structural   Y2Er10Co5Sn
_chemical_formula_sum   'Y2 Er10 Co5 Sn1'
_cell_volume   428.20588300
_cell_formula_units_Z   1
loop_
 _symmetry_equiv_pos_site_id
 _symmetry_equiv_pos_as_xyz
  1  'x, y, z'
loop_
 _atom_site_type_symbol
 _atom_site_label
 _atom_site_symmetry_multiplicity
 _atom_site_fract_x
 _atom_site_fract_y
 _atom_site_fract_z
 _atom_site_occupancy
  Y  Y0  1  0.480169  0.292193  0.187976  1
  Y  Y1  1  0.104218  0.292193  0.812024  1
  Er  Er2  1  0.894621  0.708489  0.186132  1
  Er  Er3  1  0.522358  0.708489  0.813868  1
  Er  Er4  1  0.306453  0.620437  0.313984  1
  Er  Er5  1  0.306453  0.992470  0.686016  1
  Er  Er6  1  0.693322  0.380688  0.687365  1
  Er  Er7  1  0.693322  0.005956  0.312635  1
  Er  Er8  1  0.192759  0.207675  0.400829  1
  Er  Er9  1  0.806846  0.791930  0.599171  1
  Er  Er10  1  0.192759  0.791930  0.985082  1
  Er  Er11  1  0.806846  0.207675  0.014918  1
  Co  Co12  1  0.501813  0.614507  0.112694  1
  Co  Co13  1  0.501813  0.389119  0.887306  1
  Co  Co14  1  0.377215  0.999615  0.377600  1
  Co  Co15  1  0.622016  0.999615  0.622400  1
  Co  Co16  1  0.997707  0.997707  0.000000  1
  Sn  Sn17  1  0.999309  0.499309  0.500000  1
