# generated using pymatgen
data_Dy4AsIO8
_symmetry_space_group_name_H-M   'P 1'
_cell_length_a   8.14940900
_cell_length_b   8.14940900
_cell_length_c   12.94266000
_cell_angle_alpha   90.00000000
_cell_angle_beta   90.00000000
_cell_angle_gamma   90.00000000
_symmetry_Int_Tables_number   1
_chemical_formula_structural   Dy4AsIO8
_chemical_formula_sum   'Dy16 As4 I4 O32'
_cell_volume   859.55915784
_cell_formula_units_Z   4
loop_
 _symmetry_equiv_pos_site_id
 _symmetry_equiv_pos_as_xyz
  1  'x, y, z'
loop_
 _atom_site_type_symbol
 _atom_site_label
 _atom_site_symmetry_multiplicity
 _atom_site_fract_x
 _atom_site_fract_y
 _atom_site_fract_z
 _atom_site_occupancy
  Dy  Dy0  1  0.014259  0.243080  0.171850  1
  Dy  Dy1  1  0.985741  0.756920  0.171850  1
  Dy  Dy2  1  0.481539  0.242663  0.173024  1
  Dy  Dy3  1  0.518461  0.757336  0.173024  1
  Dy  Dy4  1  0.757336  0.481539  0.326976  1
  Dy  Dy5  1  0.242663  0.518461  0.326976  1
  Dy  Dy6  1  0.756920  0.014259  0.328150  1
  Dy  Dy7  1  0.243080  0.985741  0.328150  1
  Dy  Dy8  1  0.756920  0.014259  0.671850  1
  Dy  Dy9  1  0.243080  0.985741  0.671850  1
  Dy  Dy10  1  0.757336  0.481539  0.673023  1
  Dy  Dy11  1  0.242663  0.518461  0.673023  1
  Dy  Dy12  1  0.481539  0.242663  0.826976  1
  Dy  Dy13  1  0.518461  0.757336  0.826976  1
  Dy  Dy14  1  0.014259  0.243080  0.828150  1
  Dy  Dy15  1  0.985741  0.756920  0.828150  1
  As  As16  1  0.748038  0.045091  0.000000  1
  As  As17  1  0.251962  0.954909  0.000000  1
  As  As18  1  0.045091  0.251962  0.500000  1
  As  As19  1  0.954909  0.748038  0.500000  1
  I  I20  1  0.252162  0.452557  0.000000  1
  I  I21  1  0.747838  0.547443  0.000000  1
  I  I22  1  0.547443  0.252162  0.500000  1
  I  I23  1  0.452557  0.747838  0.500000  1
  O  O24  1  0.574435  0.169062  0.000000  1
  O  O25  1  0.922254  0.168743  0.000000  1
  O  O26  1  0.077745  0.831256  0.000000  1
  O  O27  1  0.425565  0.830938  0.000000  1
  O  O28  1  0.251945  0.074489  0.108893  1
  O  O29  1  0.748054  0.925511  0.108893  1
  O  O30  1  0.743081  0.248138  0.227690  1
  O  O31  1  0.256919  0.751862  0.227690  1
  O  O32  1  0.000000  0.500000  0.237344  1
  O  O33  1  0.000000  0.000000  0.250000  1
  O  O34  1  0.500000  0.500000  0.250000  1
  O  O35  1  0.500000  0.000000  0.262656  1
  O  O36  1  0.248138  0.256919  0.272311  1
  O  O37  1  0.751862  0.743081  0.272311  1
  O  O38  1  0.925511  0.251945  0.391107  1
  O  O39  1  0.074489  0.748054  0.391107  1
  O  O40  1  0.168743  0.077745  0.500000  1
  O  O41  1  0.169062  0.425565  0.500000  1
  O  O42  1  0.830938  0.574435  0.500000  1
  O  O43  1  0.831256  0.922254  0.500000  1
  O  O44  1  0.925511  0.251945  0.608893  1
  O  O45  1  0.074489  0.748054  0.608893  1
  O  O46  1  0.248138  0.256919  0.727690  1
  O  O47  1  0.751862  0.743081  0.727690  1
  O  O48  1  0.500000  0.000000  0.737344  1
  O  O49  1  0.000000  0.000000  0.750000  1
  O  O50  1  0.500000  0.500000  0.750000  1
  O  O51  1  0.000000  0.500000  0.762657  1
  O  O52  1  0.743081  0.248138  0.772311  1
  O  O53  1  0.256919  0.751862  0.772311  1
  O  O54  1  0.251945  0.074489  0.891107  1
  O  O55  1  0.748054  0.925511  0.891107  1
