# generated using pymatgen
data_Tb9Th3Tc3Rh
_symmetry_space_group_name_H-M   'P 1'
_cell_length_a   6.39407194
_cell_length_b   7.30504389
_cell_length_c   9.53884600
_cell_angle_alpha   90.00000000
_cell_angle_beta   90.00000000
_cell_angle_gamma   90.49520386
_symmetry_Int_Tables_number   1
_chemical_formula_structural   Tb9Th3Tc3Rh
_chemical_formula_sum   'Tb9 Th3 Tc3 Rh1'
_cell_volume   445.53308919
_cell_formula_units_Z   1
loop_
 _symmetry_equiv_pos_site_id
 _symmetry_equiv_pos_as_xyz
  1  'x, y, z'
loop_
 _atom_site_type_symbol
 _atom_site_label
 _atom_site_symmetry_multiplicity
 _atom_site_fract_x
 _atom_site_fract_y
 _atom_site_fract_z
 _atom_site_occupancy
  Tb  Tb0  1  0.329365  0.676765  0.067274  1
  Tb  Tb1  1  0.165763  0.176119  0.435533  1
  Tb  Tb2  1  0.664695  0.322243  0.565220  1
  Tb  Tb3  1  0.834533  0.824279  0.933347  1
  Tb  Tb4  1  0.664695  0.322243  0.934780  1
  Tb  Tb5  1  0.834533  0.824279  0.566653  1
  Tb  Tb6  1  0.329365  0.676765  0.432726  1
  Tb  Tb7  1  0.165763  0.176119  0.064467  1
  Tb  Tb8  1  0.365255  0.961393  0.750000  1
  Th  Th9  1  0.852612  0.550346  0.250000  1
  Th  Th10  1  0.639311  0.046775  0.250000  1
  Th  Th11  1  0.143537  0.449686  0.750000  1
  Tc  Tc12  1  0.017621  0.873136  0.250000  1
  Tc  Tc13  1  0.482553  0.371220  0.250000  1
  Tc  Tc14  1  0.969982  0.132800  0.750000  1
  Rh  Rh15  1  0.540418  0.615834  0.750000  1
