# generated using pymatgen
data_Ta3NiS6
_symmetry_space_group_name_H-M   'P 1'
_cell_length_a   5.75788200
_cell_length_b   5.75788329
_cell_length_c   11.92872700
_cell_angle_alpha   90.00000000
_cell_angle_beta   90.00000000
_cell_angle_gamma   120.00000406
_symmetry_Int_Tables_number   1
_chemical_formula_structural   Ta3NiS6
_chemical_formula_sum   'Ta6 Ni2 S12'
_cell_volume   342.49192117
_cell_formula_units_Z   2
loop_
 _symmetry_equiv_pos_site_id
 _symmetry_equiv_pos_as_xyz
  1  'x, y, z'
loop_
 _atom_site_type_symbol
 _atom_site_label
 _atom_site_symmetry_multiplicity
 _atom_site_fract_x
 _atom_site_fract_y
 _atom_site_fract_z
 _atom_site_occupancy
  Ta  Ta0  1  0.000000  0.000000  0.000000  1
  Ta  Ta1  1  0.000000  0.000000  0.500000  1
  Ta  Ta2  1  0.333333  0.666667  0.502298  1
  Ta  Ta3  1  0.666667  0.333333  0.002298  1
  Ta  Ta4  1  0.666667  0.333333  0.497702  1
  Ta  Ta5  1  0.333333  0.666667  0.997702  1
  Ni  Ni6  1  0.333333  0.666667  0.250000  1
  Ni  Ni7  1  0.666667  0.333333  0.750000  1
  S  S8  1  0.332484  0.000582  0.131573  1
  S  S9  1  0.999418  0.331903  0.131573  1
  S  S10  1  0.667516  0.999418  0.631573  1
  S  S11  1  0.000582  0.332484  0.868427  1
  S  S12  1  0.668097  0.667516  0.131573  1
  S  S13  1  0.000582  0.668097  0.631573  1
  S  S14  1  0.331903  0.999418  0.868427  1
  S  S15  1  0.999418  0.667516  0.368427  1
  S  S16  1  0.331903  0.332484  0.631573  1
  S  S17  1  0.668097  0.000582  0.368427  1
  S  S18  1  0.667516  0.668097  0.868427  1
  S  S19  1  0.332484  0.331903  0.368427  1
