# generated using pymatgen
data_Er7Co4Sn23Ru2
_symmetry_space_group_name_H-M   'P 1'
_cell_length_a   9.71374278
_cell_length_b   9.71374331
_cell_length_c   9.99168841
_cell_angle_alpha   90.37580093
_cell_angle_beta   89.62419315
_cell_angle_gamma   119.82173789
_symmetry_Int_Tables_number   1
_chemical_formula_structural   Er7Co4Sn23Ru2
_chemical_formula_sum   'Er7 Co4 Sn23 Ru2'
_cell_volume   817.91387598
_cell_formula_units_Z   1
loop_
 _symmetry_equiv_pos_site_id
 _symmetry_equiv_pos_as_xyz
  1  'x, y, z'
loop_
 _atom_site_type_symbol
 _atom_site_label
 _atom_site_symmetry_multiplicity
 _atom_site_fract_x
 _atom_site_fract_y
 _atom_site_fract_z
 _atom_site_occupancy
  Er  Er0  1  0.480090  0.519910  0.307172  1
  Er  Er1  1  0.519910  0.480090  0.692828  1
  Er  Er2  1  0.481733  0.960376  0.305660  1
  Er  Er3  1  0.518267  0.039624  0.694340  1
  Er  Er4  1  0.039624  0.518267  0.305660  1
  Er  Er5  1  0.960376  0.481733  0.694340  1
  Er  Er6  1  0.000000  0.000000  0.000000  1
  Co  Co7  1  0.830308  0.662654  0.198234  1
  Co  Co8  1  0.169692  0.337346  0.801766  1
  Co  Co9  1  0.337346  0.169692  0.198234  1
  Co  Co10  1  0.662654  0.830308  0.801766  1
  Sn  Sn11  1  0.117435  0.882565  0.272159  1
  Sn  Sn12  1  0.882565  0.117435  0.727841  1
  Sn  Sn13  1  0.123689  0.237647  0.276340  1
  Sn  Sn14  1  0.876311  0.762353  0.723660  1
  Sn  Sn15  1  0.762353  0.876311  0.276340  1
  Sn  Sn16  1  0.237647  0.123689  0.723660  1
  Sn  Sn17  1  0.779638  0.220362  0.457475  1
  Sn  Sn18  1  0.220362  0.779638  0.542525  1
  Sn  Sn19  1  0.781092  0.562347  0.451601  1
  Sn  Sn20  1  0.218908  0.437653  0.548399  1
  Sn  Sn21  1  0.437653  0.218908  0.451601  1
  Sn  Sn22  1  0.562347  0.781092  0.548399  1
  Sn  Sn23  1  0.349536  0.003399  0.003988  1
  Sn  Sn24  1  0.650464  0.996601  0.996012  1
  Sn  Sn25  1  0.003399  0.349536  0.996012  1
  Sn  Sn26  1  0.996601  0.650464  0.003988  1
  Sn  Sn27  1  0.653602  0.653602  0.000000  1
  Sn  Sn28  1  0.346398  0.346398  0.000000  1
  Sn  Sn29  1  0.333545  0.666455  0.120831  1
  Sn  Sn30  1  0.666455  0.333545  0.879169  1
  Sn  Sn31  1  0.334913  0.665087  0.818255  1
  Sn  Sn32  1  0.665087  0.334913  0.181745  1
  Sn  Sn33  1  0.000000  0.000000  0.500000  1
  Ru  Ru34  1  0.832282  0.167718  0.198360  1
  Ru  Ru35  1  0.167718  0.832282  0.801640  1
