# generated using pymatgen
data_Ta6Al4CrRuC2
_symmetry_space_group_name_H-M   'P 1'
_cell_length_a   8.28740325
_cell_length_b   8.28740312
_cell_length_c   8.28893600
_cell_angle_alpha   59.99387321
_cell_angle_beta   59.99387375
_cell_angle_gamma   59.96869956
_symmetry_Int_Tables_number   1
_chemical_formula_structural   Ta6Al4CrRuC2
_chemical_formula_sum   'Ta12 Al8 Cr2 Ru2 C4'
_cell_volume   402.41826217
_cell_formula_units_Z   2
loop_
 _symmetry_equiv_pos_site_id
 _symmetry_equiv_pos_as_xyz
  1  'x, y, z'
loop_
 _atom_site_type_symbol
 _atom_site_label
 _atom_site_symmetry_multiplicity
 _atom_site_fract_x
 _atom_site_fract_y
 _atom_site_fract_z
 _atom_site_occupancy
  Ta  Ta0  1  0.555182  0.942490  0.559848  1
  Ta  Ta1  1  0.307510  0.694818  0.690152  1
  Ta  Ta2  1  0.694818  0.307510  0.307519  1
  Ta  Ta3  1  0.307510  0.694818  0.307519  1
  Ta  Ta4  1  0.689070  0.689070  0.310930  1
  Ta  Ta5  1  0.305707  0.305707  0.694293  1
  Ta  Ta6  1  0.560930  0.560930  0.939070  1
  Ta  Ta7  1  0.942490  0.555182  0.559848  1
  Ta  Ta8  1  0.555182  0.942490  0.942481  1
  Ta  Ta9  1  0.944293  0.944293  0.555707  1
  Ta  Ta10  1  0.694818  0.307510  0.690152  1
  Ta  Ta11  1  0.942490  0.555182  0.942481  1
  Al  Al12  1  0.915994  0.915994  0.915541  1
  Al  Al13  1  0.000133  0.334103  0.332881  1
  Al  Al14  1  0.334103  0.000133  0.332881  1
  Al  Al15  1  0.334006  0.334006  0.997528  1
  Al  Al16  1  0.915897  0.249867  0.917119  1
  Al  Al17  1  0.915994  0.915994  0.252472  1
  Al  Al18  1  0.249867  0.915897  0.917119  1
  Al  Al19  1  0.334006  0.334006  0.334459  1
  Cr  Cr20  1  0.125000  0.125000  0.125000  1
  Cr  Cr21  1  0.125000  0.125000  0.625000  1
  Ru  Ru22  1  0.625000  0.125000  0.125000  1
  Ru  Ru23  1  0.125000  0.625000  0.125000  1
  C  C24  1  0.625000  0.625000  0.625000  1
  C  C25  1  0.125000  0.625000  0.625000  1
  C  C26  1  0.625000  0.125000  0.625000  1
  C  C27  1  0.625000  0.625000  0.125000  1
