# generated using pymatgen
data_Ho7(IrSe)2
_symmetry_space_group_name_H-M   'P 1'
_cell_length_a   9.11248220
_cell_length_b   9.11248189
_cell_length_c   9.11248210
_cell_angle_alpha   155.36498865
_cell_angle_beta   119.10524716
_cell_angle_gamma   66.70926920
_symmetry_Int_Tables_number   1
_chemical_formula_structural   Ho7(IrSe)2
_chemical_formula_sum   'Ho7 Ir2 Se2'
_cell_volume   273.30313544
_cell_formula_units_Z   1
loop_
 _symmetry_equiv_pos_site_id
 _symmetry_equiv_pos_as_xyz
  1  'x, y, z'
loop_
 _atom_site_type_symbol
 _atom_site_label
 _atom_site_symmetry_multiplicity
 _atom_site_fract_x
 _atom_site_fract_y
 _atom_site_fract_z
 _atom_site_occupancy
  Ho  Ho0  1  0.540193  0.124362  0.415832  1
  Ho  Ho1  1  0.291469  0.875638  0.415832  1
  Ho  Ho2  1  0.945891  0.318323  0.627568  1
  Ho  Ho3  1  0.309246  0.681677  0.627568  1
  Ho  Ho4  1  0.619474  0.359704  0.259770  1
  Ho  Ho5  1  0.900065  0.640296  0.259770  1
  Ho  Ho6  1  0.004226  0.000000  0.004226  1
  Ir  Ir7  1  0.167353  0.238457  0.928897  1
  Ir  Ir8  1  0.690440  0.761543  0.928897  1
  Se  Se9  1  0.260893  0.500000  0.760893  1
  Se  Se10  1  0.661609  0.000000  0.661609  1
