# generated using pymatgen
data_NdTh2(AlRh)3
_symmetry_space_group_name_H-M   'P 1'
_cell_length_a   7.23535912
_cell_length_b   7.15694682
_cell_length_c   4.15823300
_cell_angle_alpha   90.00000000
_cell_angle_beta   90.00000000
_cell_angle_gamma   119.64214861
_symmetry_Int_Tables_number   1
_chemical_formula_structural   NdTh2(AlRh)3
_chemical_formula_sum   'Nd1 Th2 Al3 Rh3'
_cell_volume   187.14667285
_cell_formula_units_Z   1
loop_
 _symmetry_equiv_pos_site_id
 _symmetry_equiv_pos_as_xyz
  1  'x, y, z'
loop_
 _atom_site_type_symbol
 _atom_site_label
 _atom_site_symmetry_multiplicity
 _atom_site_fract_x
 _atom_site_fract_y
 _atom_site_fract_z
 _atom_site_occupancy
  Nd  Nd0  1  0.000000  0.418948  0.500000  1
  Th  Th1  1  0.580439  0.582989  0.500000  1
  Th  Th2  1  0.419561  0.002550  0.500000  1
  Al  Al3  1  0.000000  0.762306  0.000000  1
  Al  Al4  1  0.220626  0.228208  0.000000  1
  Al  Al5  1  0.779374  0.007582  0.000000  1
  Rh  Rh6  1  0.359029  0.686878  0.000000  1
  Rh  Rh7  1  0.640971  0.327848  0.000000  1
  Rh  Rh8  1  0.000000  0.982693  0.500000  1
