# generated using pymatgen
data_Dy4AgPt10Au
_symmetry_space_group_name_H-M   'P 1'
_cell_length_a   4.23536600
_cell_length_b   5.85292881
_cell_length_c   11.71235300
_cell_angle_alpha   86.87906365
_cell_angle_beta   90.00000000
_cell_angle_gamma   90.00000000
_symmetry_Int_Tables_number   1
_chemical_formula_structural   Dy4AgPt10Au
_chemical_formula_sum   'Dy4 Ag1 Pt10 Au1'
_cell_volume   289.91036051
_cell_formula_units_Z   1
loop_
 _symmetry_equiv_pos_site_id
 _symmetry_equiv_pos_as_xyz
  1  'x, y, z'
loop_
 _atom_site_type_symbol
 _atom_site_label
 _atom_site_symmetry_multiplicity
 _atom_site_fract_x
 _atom_site_fract_y
 _atom_site_fract_z
 _atom_site_occupancy
  Dy  Dy0  1  0.500000  0.748261  0.370050  1
  Dy  Dy1  1  0.500000  0.731572  0.869783  1
  Dy  Dy2  1  0.500000  0.268428  0.130217  1
  Dy  Dy3  1  0.500000  0.251739  0.629950  1
  Ag  Ag4  1  0.000000  0.000000  0.000000  1
  Pt  Pt5  1  0.000000  0.009882  0.249486  1
  Pt  Pt6  1  0.000000  0.990118  0.750514  1
  Pt  Pt7  1  0.000000  0.500000  0.000000  1
  Pt  Pt8  1  0.000000  0.500000  0.500000  1
  Pt  Pt9  1  0.000000  0.509876  0.249298  1
  Pt  Pt10  1  0.000000  0.490124  0.750702  1
  Pt  Pt11  1  0.500000  0.254098  0.377108  1
  Pt  Pt12  1  0.500000  0.237355  0.876996  1
  Pt  Pt13  1  0.500000  0.762645  0.123004  1
  Pt  Pt14  1  0.500000  0.745902  0.622892  1
  Au  Au15  1  0.000000  0.000000  0.500000  1
