# generated using pymatgen
data_Tb4Y4AlPd24
_symmetry_space_group_name_H-M   'P 1'
_cell_length_a   8.36079304
_cell_length_b   8.36044102
_cell_length_c   8.36042802
_cell_angle_alpha   90.00187749
_cell_angle_beta   89.99179010
_cell_angle_gamma   89.99185864
_symmetry_Int_Tables_number   1
_chemical_formula_structural   Tb4Y4AlPd24
_chemical_formula_sum   'Tb4 Y4 Al1 Pd24'
_cell_volume   584.39321375
_cell_formula_units_Z   1
loop_
 _symmetry_equiv_pos_site_id
 _symmetry_equiv_pos_as_xyz
  1  'x, y, z'
loop_
 _atom_site_type_symbol
 _atom_site_label
 _atom_site_symmetry_multiplicity
 _atom_site_fract_x
 _atom_site_fract_y
 _atom_site_fract_z
 _atom_site_occupancy
  Tb  Tb0  1  0.251639  0.251632  0.251632  1
  Tb  Tb1  1  0.748372  0.748371  0.748371  1
  Tb  Tb2  1  0.748344  0.748341  0.251661  1
  Tb  Tb3  1  0.748344  0.251661  0.748341  1
  Y  Y4  1  0.251510  0.251513  0.748490  1
  Y  Y5  1  0.251512  0.748489  0.251513  1
  Y  Y6  1  0.251544  0.748458  0.748458  1
  Y  Y7  1  0.748474  0.251526  0.251525  1
  Al  Al8  1  0.000123  0.000003  0.000003  1
  Pd  Pd9  1  0.259882  0.499939  0.000035  1
  Pd  Pd10  1  0.740095  0.500054  0.999974  1
  Pd  Pd11  1  0.000025  0.259893  0.499998  1
  Pd  Pd12  1  0.499978  0.259893  0.000005  1
  Pd  Pd13  1  0.999969  0.740109  0.499995  1
  Pd  Pd14  1  0.500090  0.740106  0.000003  1
  Pd  Pd15  1  0.499977  0.000005  0.259893  1
  Pd  Pd16  1  0.259882  0.000035  0.499941  1
  Pd  Pd17  1  0.500090  0.000003  0.740107  1
  Pd  Pd18  1  0.740095  0.999974  0.500053  1
  Pd  Pd19  1  0.000026  0.499998  0.259893  1
  Pd  Pd20  1  0.999969  0.499995  0.740110  1
  Pd  Pd21  1  0.252668  0.499955  0.499952  1
  Pd  Pd22  1  0.747284  0.500039  0.500039  1
  Pd  Pd23  1  0.499974  0.252689  0.499998  1
  Pd  Pd24  1  0.500057  0.747310  0.499992  1
  Pd  Pd25  1  0.499973  0.499998  0.252690  1
  Pd  Pd26  1  0.500057  0.499993  0.747311  1
  Pd  Pd27  1  0.289515  0.000010  0.000010  1
  Pd  Pd28  1  0.710441  0.999996  0.999996  1
  Pd  Pd29  1  0.000027  0.289542  0.000003  1
  Pd  Pd30  1  0.000017  0.710462  0.000005  1
  Pd  Pd31  1  0.000028  0.000002  0.289540  1
  Pd  Pd32  1  0.000017  0.000004  0.710462  1
