# generated using pymatgen
data_La9Pr7Mg3AlIr4
_symmetry_space_group_name_H-M   'P 1'
_cell_length_a   10.12515819
_cell_length_b   10.12515821
_cell_length_c   10.12994345
_cell_angle_alpha   59.83811011
_cell_angle_beta   59.83810240
_cell_angle_gamma   60.18584382
_symmetry_Int_Tables_number   1
_chemical_formula_structural   La9Pr7Mg3AlIr4
_chemical_formula_sum   'La9 Pr7 Mg3 Al1 Ir4'
_cell_volume   733.55356224
_cell_formula_units_Z   1
loop_
 _symmetry_equiv_pos_site_id
 _symmetry_equiv_pos_as_xyz
  1  'x, y, z'
loop_
 _atom_site_type_symbol
 _atom_site_label
 _atom_site_symmetry_multiplicity
 _atom_site_fract_x
 _atom_site_fract_y
 _atom_site_fract_z
 _atom_site_occupancy
  La  La0  1  0.345175  0.345175  0.346375  1
  La  La1  1  0.348307  0.348307  0.958780  1
  La  La2  1  0.349333  0.961034  0.346759  1
  La  La3  1  0.961034  0.349333  0.346759  1
  La  La4  1  0.810827  0.186686  0.188656  1
  La  La5  1  0.190536  0.805638  0.807911  1
  La  La6  1  0.186686  0.810827  0.188656  1
  La  La7  1  0.805638  0.190536  0.807911  1
  La  La8  1  0.188075  0.188075  0.811360  1
  Pr  Pr9  1  0.802984  0.802984  0.196131  1
  Pr  Pr10  1  0.935090  0.564418  0.563540  1
  Pr  Pr11  1  0.562549  0.935019  0.935948  1
  Pr  Pr12  1  0.564418  0.935090  0.563540  1
  Pr  Pr13  1  0.935019  0.562549  0.935948  1
  Pr  Pr14  1  0.562282  0.562282  0.936541  1
  Pr  Pr15  1  0.936842  0.936842  0.561493  1
  Mg  Mg16  1  0.579069  0.579069  0.267429  1
  Mg  Mg17  1  0.578937  0.267843  0.578138  1
  Mg  Mg18  1  0.267843  0.578937  0.578138  1
  Al  Al19  1  0.583237  0.583237  0.580109  1
  Ir  Ir20  1  0.140630  0.140630  0.141017  1
  Ir  Ir21  1  0.141200  0.141200  0.578609  1
  Ir  Ir22  1  0.146628  0.577661  0.140126  1
  Ir  Ir23  1  0.577661  0.146628  0.140126  1
