# generated using pymatgen
data_Li4IrO5
_symmetry_space_group_name_H-M   'P 1'
_cell_length_a   5.10455254
_cell_length_b   5.15066169
_cell_length_c   7.78725820
_cell_angle_alpha   108.55078705
_cell_angle_beta   101.60989128
_cell_angle_gamma   101.35128488
_symmetry_Int_Tables_number   1
_chemical_formula_structural   Li4IrO5
_chemical_formula_sum   'Li8 Ir2 O10'
_cell_volume   182.47716511
_cell_formula_units_Z   2
loop_
 _symmetry_equiv_pos_site_id
 _symmetry_equiv_pos_as_xyz
  1  'x, y, z'
loop_
 _atom_site_type_symbol
 _atom_site_label
 _atom_site_symmetry_multiplicity
 _atom_site_fract_x
 _atom_site_fract_y
 _atom_site_fract_z
 _atom_site_occupancy
  Li  Li0  1  0.420410  0.800896  0.305252  1
  Li  Li1  1  0.579590  0.199104  0.694748  1
  Li  Li2  1  0.000000  0.000000  0.500000  1
  Li  Li3  1  0.500000  0.000000  0.000000  1
  Li  Li4  1  0.218412  0.400326  0.898099  1
  Li  Li5  1  0.781588  0.599674  0.101901  1
  Li  Li6  1  0.301596  0.607819  0.605068  1
  Li  Li7  1  0.698404  0.392181  0.394932  1
  Ir  Ir8  1  0.893791  0.790551  0.789049  1
  Ir  Ir9  1  0.106209  0.209449  0.210951  1
  O  O10  1  0.569208  0.606416  0.846245  1
  O  O11  1  0.430792  0.393584  0.153755  1
  O  O12  1  0.052306  0.570439  0.336218  1
  O  O13  1  0.947694  0.429561  0.663782  1
  O  O14  1  0.133438  0.821879  0.043580  1
  O  O15  1  0.866562  0.178121  0.956420  1
  O  O16  1  0.227253  0.992134  0.749882  1
  O  O17  1  0.772747  0.007866  0.250118  1
  O  O18  1  0.335305  0.190462  0.431661  1
  O  O19  1  0.664695  0.809538  0.568339  1
