# generated using pymatgen
data_RbSr(PRu)4
_symmetry_space_group_name_H-M   'P 1'
_cell_length_a   4.06876400
_cell_length_b   4.06876400
_cell_length_c   12.33963200
_cell_angle_alpha   90.00000000
_cell_angle_beta   90.00000000
_cell_angle_gamma   90.00000000
_symmetry_Int_Tables_number   1
_chemical_formula_structural   RbSr(PRu)4
_chemical_formula_sum   'Rb1 Sr1 P4 Ru4'
_cell_volume   204.28063944
_cell_formula_units_Z   1
loop_
 _symmetry_equiv_pos_site_id
 _symmetry_equiv_pos_as_xyz
  1  'x, y, z'
loop_
 _atom_site_type_symbol
 _atom_site_label
 _atom_site_symmetry_multiplicity
 _atom_site_fract_x
 _atom_site_fract_y
 _atom_site_fract_z
 _atom_site_occupancy
  Rb  Rb0  1  0.500000  0.500000  0.500000  1
  Sr  Sr1  1  0.000000  0.000000  0.000000  1
  P  P2  1  0.000000  0.000000  0.681686  1
  P  P3  1  0.000000  0.000000  0.318314  1
  P  P4  1  0.500000  0.500000  0.864714  1
  P  P5  1  0.500000  0.500000  0.135286  1
  Ru  Ru6  1  0.500000  0.000000  0.773433  1
  Ru  Ru7  1  0.000000  0.500000  0.773433  1
  Ru  Ru8  1  0.500000  0.000000  0.226567  1
  Ru  Ru9  1  0.000000  0.500000  0.226567  1
