# generated using pymatgen
data_La16Mg4Tc3Ni
_symmetry_space_group_name_H-M   'P 1'
_cell_length_a   10.23954137
_cell_length_b   10.06251543
_cell_length_c   10.23634769
_cell_angle_alpha   59.33025267
_cell_angle_beta   59.98862718
_cell_angle_gamma   59.41589954
_symmetry_Int_Tables_number   1
_chemical_formula_structural   La16Mg4Tc3Ni
_chemical_formula_sum   'La16 Mg4 Tc3 Ni1'
_cell_volume   738.58243993
_cell_formula_units_Z   1
loop_
 _symmetry_equiv_pos_site_id
 _symmetry_equiv_pos_as_xyz
  1  'x, y, z'
loop_
 _atom_site_type_symbol
 _atom_site_label
 _atom_site_symmetry_multiplicity
 _atom_site_fract_x
 _atom_site_fract_y
 _atom_site_fract_z
 _atom_site_occupancy
  La  La0  1  0.557268  0.940954  0.557305  1
  La  La1  1  0.185677  0.187945  0.813122  1
  La  La2  1  0.563386  0.556346  0.940128  1
  La  La3  1  0.968085  0.345270  0.342830  1
  La  La4  1  0.813324  0.187871  0.813156  1
  La  La5  1  0.186715  0.816468  0.187285  1
  La  La6  1  0.343539  0.345395  0.967552  1
  La  La7  1  0.344047  0.968476  0.343422  1
  La  La8  1  0.944510  0.940980  0.557229  1
  La  La9  1  0.939259  0.557985  0.563495  1
  La  La10  1  0.343838  0.345199  0.342874  1
  La  La11  1  0.809427  0.816406  0.187354  1
  La  La12  1  0.812590  0.188002  0.186827  1
  La  La13  1  0.556196  0.942734  0.944905  1
  La  La14  1  0.940031  0.556396  0.940189  1
  La  La15  1  0.186783  0.817302  0.809276  1
  Mg  Mg16  1  0.578081  0.577471  0.578128  1
  Mg  Mg17  1  0.578305  0.265723  0.577623  1
  Mg  Mg18  1  0.578243  0.577378  0.266135  1
  Mg  Mg19  1  0.266309  0.577446  0.578168  1
  Tc  Tc20  1  0.595515  0.135066  0.134315  1
  Tc  Tc21  1  0.135024  0.134042  0.596027  1
  Tc  Tc22  1  0.134980  0.135208  0.134311  1
  Ni  Ni23  1  0.138872  0.583941  0.138346  1
