# generated using pymatgen
data_Ho4Hf5TaGe8
_symmetry_space_group_name_H-M   'P 1'
_cell_length_a   7.33516149
_cell_length_b   7.33516229
_cell_length_c   13.46541900
_cell_angle_alpha   90.00000000
_cell_angle_beta   90.00000000
_cell_angle_gamma   90.03713406
_symmetry_Int_Tables_number   1
_chemical_formula_structural   Ho4Hf5TaGe8
_chemical_formula_sum   'Ho8 Hf10 Ta2 Ge16'
_cell_volume   724.50133038
_cell_formula_units_Z   2
loop_
 _symmetry_equiv_pos_site_id
 _symmetry_equiv_pos_as_xyz
  1  'x, y, z'
loop_
 _atom_site_type_symbol
 _atom_site_label
 _atom_site_symmetry_multiplicity
 _atom_site_fract_x
 _atom_site_fract_y
 _atom_site_fract_z
 _atom_site_occupancy
  Ho  Ho0  1  0.997553  0.342217  0.217182  1
  Ho  Ho1  1  0.002447  0.657783  0.717182  1
  Ho  Ho2  1  0.157309  0.498184  0.468235  1
  Ho  Ho3  1  0.501816  0.842691  0.031765  1
  Ho  Ho4  1  0.842691  0.501816  0.968235  1
  Ho  Ho5  1  0.498184  0.157309  0.531765  1
  Ho  Ho6  1  0.342217  0.997553  0.782818  1
  Ho  Ho7  1  0.657783  0.002447  0.282818  1
  Hf  Hf8  1  0.325897  0.674103  0.250000  1
  Hf  Hf9  1  0.674103  0.325897  0.750000  1
  Hf  Hf10  1  0.151301  0.996415  0.376883  1
  Hf  Hf11  1  0.848699  0.003585  0.876883  1
  Hf  Hf12  1  0.505747  0.654707  0.623775  1
  Hf  Hf13  1  0.345293  0.494253  0.876225  1
  Hf  Hf14  1  0.494253  0.345293  0.123775  1
  Hf  Hf15  1  0.654707  0.505747  0.376225  1
  Hf  Hf16  1  0.996415  0.151301  0.623117  1
  Hf  Hf17  1  0.003585  0.848699  0.123117  1
  Ta  Ta18  1  0.173066  0.173066  0.000000  1
  Ta  Ta19  1  0.826934  0.826934  0.500000  1
  Ge  Ge20  1  0.364045  0.300937  0.321955  1
  Ge  Ge21  1  0.635955  0.699063  0.821955  1
  Ge  Ge22  1  0.197699  0.862428  0.571639  1
  Ge  Ge23  1  0.137572  0.802301  0.928361  1
  Ge  Ge24  1  0.802301  0.137572  0.071639  1
  Ge  Ge25  1  0.862428  0.197699  0.428361  1
  Ge  Ge26  1  0.300937  0.364045  0.678045  1
  Ge  Ge27  1  0.699063  0.635955  0.178045  1
  Ge  Ge28  1  0.297131  0.040787  0.180748  1
  Ge  Ge29  1  0.702869  0.959213  0.680748  1
  Ge  Ge30  1  0.461545  0.799085  0.431920  1
  Ge  Ge31  1  0.200915  0.538455  0.068080  1
  Ge  Ge32  1  0.538455  0.200915  0.931920  1
  Ge  Ge33  1  0.799085  0.461545  0.568080  1
  Ge  Ge34  1  0.040787  0.297131  0.819252  1
  Ge  Ge35  1  0.959213  0.702869  0.319252  1
