# generated using pymatgen
data_Li3Cr2Co6Ni3P7
_symmetry_space_group_name_H-M   'P 1'
_cell_length_a   8.97074700
_cell_length_b   8.90952970
_cell_length_c   3.53284200
_cell_angle_alpha   90.00000000
_cell_angle_beta   90.00000000
_cell_angle_gamma   119.34667329
_symmetry_Int_Tables_number   1
_chemical_formula_structural   Li3Cr2Co6Ni3P7
_chemical_formula_sum   'Li3 Cr2 Co6 Ni3 P7'
_cell_volume   246.12734530
_cell_formula_units_Z   1
loop_
 _symmetry_equiv_pos_site_id
 _symmetry_equiv_pos_as_xyz
  1  'x, y, z'
loop_
 _atom_site_type_symbol
 _atom_site_label
 _atom_site_symmetry_multiplicity
 _atom_site_fract_x
 _atom_site_fract_y
 _atom_site_fract_z
 _atom_site_occupancy
  Li  Li0  1  0.224318  0.101141  0.500000  1
  Li  Li1  1  0.334549  0.667636  0.000000  1
  Li  Li2  1  0.664966  0.336294  0.500000  1
  Cr  Cr3  1  0.874151  0.780972  0.500000  1
  Cr  Cr4  1  0.903780  0.119922  0.500000  1
  Co  Co5  1  0.721642  0.882206  0.000000  1
  Co  Co6  1  0.163238  0.280767  0.000000  1
  Co  Co7  1  0.118174  0.835003  0.000000  1
  Co  Co8  1  0.626529  0.573440  0.000000  1
  Co  Co9  1  0.561734  0.947746  0.500000  1
  Co  Co10  1  0.389365  0.437331  0.500000  1
  Ni  Ni11  1  0.934452  0.369616  0.000000  1
  Ni  Ni12  1  0.433663  0.061811  0.000000  1
  Ni  Ni13  1  0.050501  0.607366  0.500000  1
  P  P14  1  0.583335  0.710019  0.500000  1
  P  P15  1  0.128327  0.408230  0.500000  1
  P  P16  1  0.289805  0.873864  0.500000  1
  P  P17  1  0.999559  0.999272  0.000000  1
  P  P18  1  0.874401  0.584928  0.000000  1
  P  P19  1  0.699409  0.116569  0.000000  1
  P  P20  1  0.424104  0.305867  0.000000  1
