# generated using pymatgen
data_Sc8Mn7Si14Ru
_symmetry_space_group_name_H-M   'P 1'
_cell_length_a   5.14799170
_cell_length_b   9.64866450
_cell_length_c   9.63474436
_cell_angle_alpha   85.87738878
_cell_angle_beta   74.50480028
_cell_angle_gamma   74.38952018
_symmetry_Int_Tables_number   1
_chemical_formula_structural   Sc8Mn7Si14Ru
_chemical_formula_sum   'Sc8 Mn7 Si14 Ru1'
_cell_volume   444.16389595
_cell_formula_units_Z   1
loop_
 _symmetry_equiv_pos_site_id
 _symmetry_equiv_pos_as_xyz
  1  'x, y, z'
loop_
 _atom_site_type_symbol
 _atom_site_label
 _atom_site_symmetry_multiplicity
 _atom_site_fract_x
 _atom_site_fract_y
 _atom_site_fract_z
 _atom_site_occupancy
  Sc  Sc0  1  0.199065  0.804332  0.802465  1
  Sc  Sc1  1  0.803208  0.195658  0.196465  1
  Sc  Sc2  1  0.998471  0.195668  0.802465  1
  Sc  Sc3  1  0.000327  0.804342  0.196465  1
  Sc  Sc4  1  0.361904  0.000000  0.276194  1
  Sc  Sc5  1  0.638569  0.000000  0.722860  1
  Sc  Sc6  1  0.642303  0.723904  0.999507  1
  Sc  Sc7  1  0.358190  0.276096  0.999507  1
  Mn  Mn8  1  0.603710  0.500000  0.792580  1
  Mn  Mn9  1  0.100532  0.500000  0.798935  1
  Mn  Mn10  1  0.600865  0.796900  0.502108  1
  Mn  Mn11  1  0.900700  0.500000  0.198601  1
  Mn  Mn12  1  0.397764  0.204175  0.499214  1
  Mn  Mn13  1  0.897027  0.203100  0.502108  1
  Mn  Mn14  1  0.103022  0.795825  0.499214  1
  Si  Si15  1  0.405518  0.591578  0.589703  1
  Si  Si16  1  0.600419  0.407370  0.415002  1
  Si  Si17  1  0.004780  0.408422  0.589703  1
  Si  Si18  1  0.984579  0.592630  0.415002  1
  Si  Si19  1  0.249917  0.999459  0.999496  1
  Si  Si20  1  0.750587  0.000541  0.999496  1
  Si  Si21  1  0.196014  0.292815  0.298668  1
  Si  Si22  1  0.800449  0.702805  0.702594  1
  Si  Si23  1  0.505318  0.707185  0.298668  1
  Si  Si24  1  0.496957  0.297195  0.702594  1
  Si  Si25  1  0.209421  0.000000  0.581160  1
  Si  Si26  1  0.790431  0.000000  0.419137  1
  Si  Si27  1  0.784984  0.415567  0.995425  1
  Si  Si28  1  0.219591  0.584433  0.995425  1
  Ru  Ru29  1  0.395379  0.500000  0.209242  1
