# generated using pymatgen
data_La4HfZr(MoO7)2
_symmetry_space_group_name_H-M   'P 1'
_cell_length_a   7.68908830
_cell_length_b   7.61904995
_cell_length_c   7.61904834
_cell_angle_alpha   59.65091435
_cell_angle_beta   59.80797368
_cell_angle_gamma   59.80798155
_symmetry_Int_Tables_number   1
_chemical_formula_structural   La4HfZr(MoO7)2
_chemical_formula_sum   'La4 Hf1 Zr1 Mo2 O14'
_cell_volume   313.86476293
_cell_formula_units_Z   1
loop_
 _symmetry_equiv_pos_site_id
 _symmetry_equiv_pos_as_xyz
  1  'x, y, z'
loop_
 _atom_site_type_symbol
 _atom_site_label
 _atom_site_symmetry_multiplicity
 _atom_site_fract_x
 _atom_site_fract_y
 _atom_site_fract_z
 _atom_site_occupancy
  La  La0  1  0.125000  0.625000  0.125000  1
  La  La1  1  0.125000  0.125000  0.625000  1
  La  La2  1  0.625000  0.125000  0.125000  1
  La  La3  1  0.125000  0.125000  0.125000  1
  Hf  Hf4  1  0.125000  0.625000  0.625000  1
  Zr  Zr5  1  0.625000  0.625000  0.625000  1
  Mo  Mo6  1  0.625000  0.125000  0.625000  1
  Mo  Mo7  1  0.625000  0.625000  0.125000  1
  O  O8  1  0.998539  0.001623  0.001623  1
  O  O9  1  0.251461  0.248377  0.248377  1
  O  O10  1  0.294724  0.292594  0.707234  1
  O  O11  1  0.540691  0.542131  0.962412  1
  O  O12  1  0.709309  0.287588  0.707869  1
  O  O13  1  0.704948  0.297312  0.297312  1
  O  O14  1  0.292107  0.706341  0.706341  1
  O  O15  1  0.294724  0.707234  0.292594  1
  O  O16  1  0.709309  0.707869  0.287588  1
  O  O17  1  0.957893  0.543659  0.543659  1
  O  O18  1  0.545052  0.952688  0.952688  1
  O  O19  1  0.955276  0.957406  0.542766  1
  O  O20  1  0.955276  0.542766  0.957406  1
  O  O21  1  0.540691  0.962412  0.542131  1
