# generated using pymatgen
data_Er3Nb(Pd3Pt)3
_symmetry_space_group_name_H-M   'P 1'
_cell_length_a   6.99760836
_cell_length_b   6.99759927
_cell_length_c   6.99184000
_cell_angle_alpha   109.53557684
_cell_angle_beta   109.53151923
_cell_angle_gamma   109.38013991
_symmetry_Int_Tables_number   1
_chemical_formula_structural   Er3Nb(Pd3Pt)3
_chemical_formula_sum   'Er3 Nb1 Pd9 Pt3'
_cell_volume   263.44346703
_cell_formula_units_Z   1
loop_
 _symmetry_equiv_pos_site_id
 _symmetry_equiv_pos_as_xyz
  1  'x, y, z'
loop_
 _atom_site_type_symbol
 _atom_site_label
 _atom_site_symmetry_multiplicity
 _atom_site_fract_x
 _atom_site_fract_y
 _atom_site_fract_z
 _atom_site_occupancy
  Er  Er0  1  0.749770  0.749777  0.499545  1
  Er  Er1  1  0.250362  0.749932  0.000296  1
  Er  Er2  1  0.749940  0.250346  0.000283  1
  Nb  Nb3  1  0.252205  0.252205  0.504409  1
  Pd  Pd4  1  0.496529  0.250905  0.253987  1
  Pd  Pd5  1  0.497226  0.743798  0.745994  1
  Pd  Pd6  1  0.002196  0.248768  0.745994  1
  Pd  Pd7  1  0.248763  0.002201  0.746003  1
  Pd  Pd8  1  0.003082  0.757458  0.253987  1
  Pd  Pd9  1  0.757464  0.003087  0.253991  1
  Pd  Pd10  1  0.250903  0.496527  0.253989  1
  Pd  Pd11  1  0.743802  0.497240  0.746002  1
  Pd  Pd12  1  0.004039  0.004039  0.008078  1
  Pt  Pt13  1  0.494153  0.005461  0.499614  1
  Pt  Pt14  1  0.005457  0.494149  0.499605  1
  Pt  Pt15  1  0.494111  0.494108  0.988220  1
