# generated using pymatgen
data_Tm5Ga3Ge2P7Ir19
_symmetry_space_group_name_H-M   'P 1'
_cell_length_a   12.92883616
_cell_length_b   12.93300238
_cell_length_c   3.94768000
_cell_angle_alpha   90.00000000
_cell_angle_beta   90.00000000
_cell_angle_gamma   120.14625558
_symmetry_Int_Tables_number   1
_chemical_formula_structural   Tm5Ga3Ge2P7Ir19
_chemical_formula_sum   'Tm5 Ga3 Ge2 P7 Ir19'
_cell_volume   570.80717658
_cell_formula_units_Z   1
loop_
 _symmetry_equiv_pos_site_id
 _symmetry_equiv_pos_as_xyz
  1  'x, y, z'
loop_
 _atom_site_type_symbol
 _atom_site_label
 _atom_site_symmetry_multiplicity
 _atom_site_fract_x
 _atom_site_fract_y
 _atom_site_fract_z
 _atom_site_occupancy
  Tm  Tm0  1  0.336628  0.669545  0.500000  1
  Tm  Tm1  1  0.667298  0.332612  0.500000  1
  Tm  Tm2  1  0.181336  0.184106  0.000000  1
  Tm  Tm3  1  0.818682  0.998087  0.000000  1
  Tm  Tm4  1  0.001150  0.817824  0.000000  1
  Ga  Ga5  1  0.360690  0.358072  0.500000  1
  Ga  Ga6  1  0.642055  0.000504  0.500000  1
  Ga  Ga7  1  0.995908  0.637915  0.500000  1
  Ge  Ge8  1  0.319499  0.839324  0.000000  1
  Ge  Ge9  1  0.164810  0.484795  0.000000  1
  P  P10  1  0.520722  0.686678  0.000000  1
  P  P11  1  0.821124  0.304262  0.000000  1
  P  P12  1  0.485240  0.178908  0.000000  1
  P  P13  1  0.694597  0.514066  0.000000  1
  P  P14  1  0.822458  0.818289  0.500000  1
  P  P15  1  0.178694  0.005055  0.500000  1
  P  P16  1  0.997983  0.177047  0.500000  1
  Ir  Ir17  1  0.189224  0.830048  0.500000  1
  Ir  Ir18  1  0.174406  0.366261  0.500000  1
  Ir  Ir19  1  0.626828  0.796703  0.500000  1
  Ir  Ir20  1  0.822357  0.207444  0.500000  1
  Ir  Ir21  1  0.389290  0.178955  0.500000  1
  Ir  Ir22  1  0.790258  0.613948  0.500000  1
  Ir  Ir23  1  0.129252  0.649392  0.000000  1
  Ir  Ir24  1  0.363014  0.496560  0.000000  1
  Ir  Ir25  1  0.517829  0.865875  0.000000  1
  Ir  Ir26  1  0.630916  0.130113  0.000000  1
  Ir  Ir27  1  0.499788  0.368251  0.000000  1
  Ir  Ir28  1  0.868059  0.498744  0.000000  1
  Ir  Ir29  1  0.549283  0.552885  0.500000  1
  Ir  Ir30  1  0.442803  0.989410  0.500000  1
  Ir  Ir31  1  0.007066  0.450001  0.500000  1
  Ir  Ir32  1  0.720925  0.716904  0.000000  1
  Ir  Ir33  1  0.279449  0.010300  0.000000  1
  Ir  Ir34  1  0.992890  0.272122  0.000000  1
  Ir  Ir35  1  0.997487  0.998994  0.500000  1
