# generated using pymatgen
data_Na2SeF6
_symmetry_space_group_name_H-M   'P 1'
_cell_length_a   9.48029500
_cell_length_b   9.48029535
_cell_length_c   5.30536600
_cell_angle_alpha   90.00000000
_cell_angle_beta   90.00000000
_cell_angle_gamma   119.99999528
_symmetry_Int_Tables_number   1
_chemical_formula_structural   Na2SeF6
_chemical_formula_sum   'Na6 Se3 F18'
_cell_volume   412.94263187
_cell_formula_units_Z   3
loop_
 _symmetry_equiv_pos_site_id
 _symmetry_equiv_pos_as_xyz
  1  'x, y, z'
loop_
 _atom_site_type_symbol
 _atom_site_label
 _atom_site_symmetry_multiplicity
 _atom_site_fract_x
 _atom_site_fract_y
 _atom_site_fract_z
 _atom_site_occupancy
  Na  Na0  1  0.291552  0.000000  0.500000  1
  Na  Na1  1  0.000000  0.291552  0.500000  1
  Na  Na2  1  0.708448  0.708448  0.500000  1
  Na  Na3  1  0.626367  0.000000  0.000000  1
  Na  Na4  1  0.000000  0.626367  0.000000  1
  Na  Na5  1  0.373633  0.373633  0.000000  1
  Se  Se6  1  0.333333  0.666667  0.494176  1
  Se  Se7  1  0.666667  0.333333  0.505824  1
  Se  Se8  1  0.000000  0.000000  0.000000  1
  F  F9  1  0.468431  0.248667  0.297038  1
  F  F10  1  0.751333  0.219763  0.297038  1
  F  F11  1  0.248667  0.468431  0.702962  1
  F  F12  1  0.780237  0.531569  0.297038  1
  F  F13  1  0.219763  0.751333  0.702962  1
  F  F14  1  0.531569  0.780237  0.702962  1
  F  F15  1  0.109501  0.198191  0.206860  1
  F  F16  1  0.801809  0.911310  0.206860  1
  F  F17  1  0.198191  0.109501  0.793140  1
  F  F18  1  0.088690  0.890499  0.206860  1
  F  F19  1  0.911310  0.801809  0.793140  1
  F  F20  1  0.890499  0.088690  0.793140  1
  F  F21  1  0.137877  0.545866  0.283640  1
  F  F22  1  0.454134  0.592012  0.283640  1
  F  F23  1  0.545866  0.137877  0.716360  1
  F  F24  1  0.407988  0.862123  0.283640  1
  F  F25  1  0.592012  0.454134  0.716360  1
  F  F26  1  0.862123  0.407988  0.716360  1
