# generated using pymatgen
data_Ac5Pr5Pb8
_symmetry_space_group_name_H-M   'P 1'
_cell_length_a   8.69033084
_cell_length_b   16.71210100
_cell_length_c   8.76119600
_cell_angle_alpha   90.00000000
_cell_angle_beta   89.83775803
_cell_angle_gamma   90.00000000
_symmetry_Int_Tables_number   1
_chemical_formula_structural   Ac5Pr5Pb8
_chemical_formula_sum   'Ac10 Pr10 Pb16'
_cell_volume   1272.41569397
_cell_formula_units_Z   2
loop_
 _symmetry_equiv_pos_site_id
 _symmetry_equiv_pos_as_xyz
  1  'x, y, z'
loop_
 _atom_site_type_symbol
 _atom_site_label
 _atom_site_symmetry_multiplicity
 _atom_site_fract_x
 _atom_site_fract_y
 _atom_site_fract_z
 _atom_site_occupancy
  Ac  Ac0  1  0.476459  0.600176  0.678092  1
  Ac  Ac1  1  0.976521  0.900043  0.821396  1
  Ac  Ac2  1  0.520853  0.095511  0.320545  1
  Ac  Ac3  1  0.021188  0.404260  0.180335  1
  Ac  Ac4  1  0.520853  0.404489  0.320545  1
  Ac  Ac5  1  0.021188  0.095740  0.180335  1
  Ac  Ac6  1  0.476459  0.899824  0.678092  1
  Ac  Ac7  1  0.976521  0.599957  0.821396  1
  Ac  Ac8  1  0.207617  0.250000  0.502712  1
  Ac  Ac9  1  0.706898  0.250000  0.998057  1
  Pr  Pr10  1  0.629887  0.620857  0.156390  1
  Pr  Pr11  1  0.129496  0.879065  0.342983  1
  Pr  Pr12  1  0.371282  0.116477  0.843150  1
  Pr  Pr13  1  0.871413  0.383537  0.656614  1
  Pr  Pr14  1  0.371282  0.383523  0.843150  1
  Pr  Pr15  1  0.871413  0.116463  0.656614  1
  Pr  Pr16  1  0.629887  0.879143  0.156390  1
  Pr  Pr17  1  0.129496  0.620935  0.342983  1
  Pr  Pr18  1  0.792225  0.750000  0.498747  1
  Pr  Pr19  1  0.292659  0.750000  0.000733  1
  Pb  Pb20  1  0.708562  0.458548  0.958693  1
  Pb  Pb21  1  0.208122  0.040630  0.542253  1
  Pb  Pb22  1  0.291350  0.954289  0.040558  1
  Pb  Pb23  1  0.791182  0.545442  0.458642  1
  Pb  Pb24  1  0.291350  0.545711  0.040558  1
  Pb  Pb25  1  0.791182  0.954558  0.458642  1
  Pb  Pb26  1  0.708562  0.041452  0.958693  1
  Pb  Pb27  1  0.208122  0.459370  0.542253  1
  Pb  Pb28  1  0.430861  0.750000  0.368177  1
  Pb  Pb29  1  0.931589  0.750000  0.131662  1
  Pb  Pb30  1  0.576536  0.250000  0.626661  1
  Pb  Pb31  1  0.075182  0.250000  0.875239  1
  Pb  Pb32  1  0.666220  0.750000  0.858555  1
  Pb  Pb33  1  0.166422  0.750000  0.640832  1
  Pb  Pb34  1  0.331408  0.250000  0.135993  1
  Pb  Pb35  1  0.829755  0.250000  0.363331  1
