# generated using pymatgen
data_Lu3Ga2PdC
_symmetry_space_group_name_H-M   'P 1'
_cell_length_a   8.91788752
_cell_length_b   8.91788862
_cell_length_c   8.91788800
_cell_angle_alpha   60.00000229
_cell_angle_beta   59.99999821
_cell_angle_gamma   60.00000503
_symmetry_Int_Tables_number   1
_chemical_formula_structural   Lu3Ga2PdC
_chemical_formula_sum   'Lu12 Ga8 Pd4 C4'
_cell_volume   501.50015097
_cell_formula_units_Z   4
loop_
 _symmetry_equiv_pos_site_id
 _symmetry_equiv_pos_as_xyz
  1  'x, y, z'
loop_
 _atom_site_type_symbol
 _atom_site_label
 _atom_site_symmetry_multiplicity
 _atom_site_fract_x
 _atom_site_fract_y
 _atom_site_fract_z
 _atom_site_occupancy
  Lu  Lu0  1  0.947179  0.947173  0.552827  1
  Lu  Lu1  1  0.697176  0.302829  0.302830  1
  Lu  Lu2  1  0.302817  0.697176  0.697181  1
  Lu  Lu3  1  0.697184  0.697164  0.302827  1
  Lu  Lu4  1  0.697182  0.302826  0.697165  1
  Lu  Lu5  1  0.302820  0.697174  0.302827  1
  Lu  Lu6  1  0.552818  0.947174  0.552835  1
  Lu  Lu7  1  0.552824  0.947171  0.947170  1
  Lu  Lu8  1  0.947183  0.552824  0.552819  1
  Lu  Lu9  1  0.947180  0.552826  0.947173  1
  Lu  Lu10  1  0.302821  0.302827  0.697173  1
  Lu  Lu11  1  0.552816  0.552836  0.947173  1
  Ga  Ga12  1  0.920441  0.238689  0.920434  1
  Ga  Ga13  1  0.329557  0.329566  0.011311  1
  Ga  Ga14  1  0.011319  0.329560  0.329560  1
  Ga  Ga15  1  0.329559  0.329563  0.329566  1
  Ga  Ga16  1  0.238681  0.920440  0.920440  1
  Ga  Ga17  1  0.920441  0.920437  0.920434  1
  Ga  Ga18  1  0.920443  0.920434  0.238689  1
  Ga  Ga19  1  0.329559  0.011311  0.329566  1
  Pd  Pd20  1  0.125000  0.625000  0.125000  1
  Pd  Pd21  1  0.125000  0.125000  0.625000  1
  Pd  Pd22  1  0.625000  0.125000  0.125000  1
  Pd  Pd23  1  0.125000  0.125000  0.125000  1
  C  C24  1  0.625000  0.125000  0.625000  1
  C  C25  1  0.625000  0.625000  0.125000  1
  C  C26  1  0.125000  0.625000  0.625000  1
  C  C27  1  0.625000  0.625000  0.625000  1
