# generated using pymatgen
data_LiCo4ReP3
_symmetry_space_group_name_H-M   'P 1'
_cell_length_a   3.60885000
_cell_length_b   10.15249200
_cell_length_c   11.69365200
_cell_angle_alpha   90.00000000
_cell_angle_beta   90.00000000
_cell_angle_gamma   90.00000000
_symmetry_Int_Tables_number   1
_chemical_formula_structural   LiCo4ReP3
_chemical_formula_sum   'Li4 Co16 Re4 P12'
_cell_volume   428.44161959
_cell_formula_units_Z   4
loop_
 _symmetry_equiv_pos_site_id
 _symmetry_equiv_pos_as_xyz
  1  'x, y, z'
loop_
 _atom_site_type_symbol
 _atom_site_label
 _atom_site_symmetry_multiplicity
 _atom_site_fract_x
 _atom_site_fract_y
 _atom_site_fract_z
 _atom_site_occupancy
  Li  Li0  1  0.250000  0.581399  0.703231  1
  Li  Li1  1  0.250000  0.918601  0.203231  1
  Li  Li2  1  0.750000  0.418601  0.296769  1
  Li  Li3  1  0.750000  0.081399  0.796769  1
  Co  Co4  1  0.250000  0.407413  0.487362  1
  Co  Co5  1  0.250000  0.092587  0.987362  1
  Co  Co6  1  0.750000  0.592587  0.512638  1
  Co  Co7  1  0.750000  0.907413  0.012638  1
  Co  Co8  1  0.250000  0.219234  0.177726  1
  Co  Co9  1  0.250000  0.280766  0.677726  1
  Co  Co10  1  0.750000  0.780766  0.822274  1
  Co  Co11  1  0.750000  0.719234  0.322274  1
  Co  Co12  1  0.250000  0.884733  0.700507  1
  Co  Co13  1  0.250000  0.615267  0.200507  1
  Co  Co14  1  0.750000  0.115267  0.299493  1
  Co  Co15  1  0.750000  0.384733  0.799493  1
  Co  Co16  1  0.250000  0.464246  0.934521  1
  Co  Co17  1  0.250000  0.035754  0.434521  1
  Co  Co18  1  0.750000  0.535754  0.065479  1
  Co  Co19  1  0.750000  0.964246  0.565479  1
  Re  Re20  1  0.250000  0.710606  0.987474  1
  Re  Re21  1  0.250000  0.789394  0.487474  1
  Re  Re22  1  0.750000  0.289394  0.012526  1
  Re  Re23  1  0.750000  0.210606  0.512526  1
  P  P24  1  0.250000  0.418796  0.121219  1
  P  P25  1  0.250000  0.081204  0.621219  1
  P  P26  1  0.750000  0.581204  0.878781  1
  P  P27  1  0.750000  0.918796  0.378781  1
  P  P28  1  0.250000  0.260530  0.863942  1
  P  P29  1  0.250000  0.239470  0.363942  1
  P  P30  1  0.750000  0.739470  0.136058  1
  P  P31  1  0.750000  0.760530  0.636058  1
  P  P32  1  0.250000  0.590247  0.387335  1
  P  P33  1  0.250000  0.909753  0.887335  1
  P  P34  1  0.750000  0.409753  0.612665  1
  P  P35  1  0.750000  0.090247  0.112665  1
