# generated using pymatgen
data_Tb8BPtBr12
_symmetry_space_group_name_H-M   'P 1'
_cell_length_a   4.02405500
_cell_length_b   13.25713435
_cell_length_c   14.03383306
_cell_angle_alpha   89.71976650
_cell_angle_beta   90.00000000
_cell_angle_gamma   90.00000000
_symmetry_Int_Tables_number   1
_chemical_formula_structural   Tb8BPtBr12
_chemical_formula_sum   'Tb8 B1 Pt1 Br12'
_cell_volume   748.66008070
_cell_formula_units_Z   1
loop_
 _symmetry_equiv_pos_site_id
 _symmetry_equiv_pos_as_xyz
  1  'x, y, z'
loop_
 _atom_site_type_symbol
 _atom_site_label
 _atom_site_symmetry_multiplicity
 _atom_site_fract_x
 _atom_site_fract_y
 _atom_site_fract_z
 _atom_site_occupancy
  Tb  Tb0  1  0.500000  0.111848  0.350372  1
  Tb  Tb1  1  0.500000  0.888152  0.649628  1
  Tb  Tb2  1  0.500000  0.622857  0.163998  1
  Tb  Tb3  1  0.500000  0.377143  0.836002  1
  Tb  Tb4  1  0.000000  0.106524  0.571171  1
  Tb  Tb5  1  0.000000  0.893476  0.428829  1
  Tb  Tb6  1  0.000000  0.616113  0.921456  1
  Tb  Tb7  1  0.000000  0.383887  0.078544  1
  B  B8  1  0.500000  0.000000  0.500000  1
  Pt  Pt9  1  0.500000  0.500000  0.000000  1
  Br  Br10  1  0.500000  0.240106  0.168753  1
  Br  Br11  1  0.500000  0.759894  0.831247  1
  Br  Br12  1  0.500000  0.752372  0.339833  1
  Br  Br13  1  0.500000  0.247628  0.660167  1
  Br  Br14  1  0.000000  0.253717  0.414584  1
  Br  Br15  1  0.000000  0.746283  0.585416  1
  Br  Br16  1  0.000000  0.760807  0.089840  1
  Br  Br17  1  0.000000  0.239193  0.910160  1
  Br  Br18  1  0.000000  0.000277  0.245787  1
  Br  Br19  1  0.000000  0.999723  0.754213  1
  Br  Br20  1  0.000000  0.503572  0.263789  1
  Br  Br21  1  0.000000  0.496428  0.736211  1
