# generated using pymatgen
data_Y12Co6Sb
_symmetry_space_group_name_H-M   'P 1'
_cell_length_a   8.40612510
_cell_length_b   8.40612483
_cell_length_c   8.40612600
_cell_angle_alpha   109.47121622
_cell_angle_beta   109.47121557
_cell_angle_gamma   109.47122976
_symmetry_Int_Tables_number   1
_chemical_formula_structural   Y12Co6Sb
_chemical_formula_sum   'Y12 Co6 Sb1'
_cell_volume   457.26260974
_cell_formula_units_Z   1
loop_
 _symmetry_equiv_pos_site_id
 _symmetry_equiv_pos_as_xyz
  1  'x, y, z'
loop_
 _atom_site_type_symbol
 _atom_site_label
 _atom_site_symmetry_multiplicity
 _atom_site_fract_x
 _atom_site_fract_y
 _atom_site_fract_z
 _atom_site_occupancy
  Y  Y0  1  0.695792  0.195804  0.891595  1
  Y  Y1  1  0.804196  0.499988  0.695792  1
  Y  Y2  1  0.500012  0.304208  0.195804  1
  Y  Y3  1  0.804196  0.108405  0.304208  1
  Y  Y4  1  0.499988  0.695792  0.804196  1
  Y  Y5  1  0.195804  0.500012  0.304208  1
  Y  Y6  1  0.108405  0.304208  0.804196  1
  Y  Y7  1  0.891595  0.695792  0.195804  1
  Y  Y8  1  0.195804  0.891595  0.695792  1
  Y  Y9  1  0.695792  0.804196  0.499988  1
  Y  Y10  1  0.304208  0.195804  0.500012  1
  Y  Y11  1  0.304208  0.804196  0.108405  1
  Co  Co12  1  0.612284  0.112284  0.500000  1
  Co  Co13  1  0.887716  0.500000  0.387716  1
  Co  Co14  1  0.500000  0.387716  0.887716  1
  Co  Co15  1  0.112284  0.500000  0.612284  1
  Co  Co16  1  0.500000  0.612284  0.112284  1
  Co  Co17  1  0.387716  0.887716  0.500000  1
  Sb  Sb18  1  0.000000  0.000000  0.000000  1
