# generated using pymatgen
data_Er2Si5GeAsRh12
_symmetry_space_group_name_H-M   'P 1'
_cell_length_a   9.80527384
_cell_length_b   9.84815773
_cell_length_c   3.85534147
_cell_angle_alpha   89.99771057
_cell_angle_beta   89.97374482
_cell_angle_gamma   120.12982503
_symmetry_Int_Tables_number   1
_chemical_formula_structural   Er2Si5GeAsRh12
_chemical_formula_sum   'Er2 Si5 Ge1 As1 Rh12'
_cell_volume   321.98712402
_cell_formula_units_Z   1
loop_
 _symmetry_equiv_pos_site_id
 _symmetry_equiv_pos_as_xyz
  1  'x, y, z'
loop_
 _atom_site_type_symbol
 _atom_site_label
 _atom_site_symmetry_multiplicity
 _atom_site_fract_x
 _atom_site_fract_y
 _atom_site_fract_z
 _atom_site_occupancy
  Er  Er0  1  0.673513  0.333834  0.750373  1
  Er  Er1  1  0.331051  0.667323  0.251281  1
  Si  Si2  1  0.288505  0.886533  0.750184  1
  Si  Si3  1  0.108677  0.401134  0.751267  1
  Si  Si4  1  0.600109  0.712420  0.749582  1
  Si  Si5  1  0.708195  0.108224  0.250227  1
  Si  Si6  1  0.889848  0.598800  0.250189  1
  Ge  Ge7  1  0.998550  0.999694  0.592776  1
  As  As8  1  0.407358  0.291339  0.250552  1
  Rh  Rh9  1  0.066247  0.620143  0.751703  1
  Rh  Rh10  1  0.377465  0.452518  0.751417  1
  Rh  Rh11  1  0.552944  0.931130  0.751422  1
  Rh  Rh12  1  0.935554  0.382037  0.249629  1
  Rh  Rh13  1  0.618866  0.559555  0.248947  1
  Rh  Rh14  1  0.444718  0.057418  0.249155  1
  Rh  Rh15  1  0.273151  0.120907  0.750321  1
  Rh  Rh16  1  0.873467  0.149264  0.749195  1
  Rh  Rh17  1  0.850990  0.725238  0.748698  1
  Rh  Rh18  1  0.740168  0.881468  0.251054  1
  Rh  Rh19  1  0.118689  0.857897  0.251555  1
  Rh  Rh20  1  0.141933  0.263126  0.254096  1
