# generated using pymatgen
data_Y2Ho2MoOs7
_symmetry_space_group_name_H-M   'P 1'
_cell_length_a   5.29215802
_cell_length_b   5.29215655
_cell_length_c   8.88795904
_cell_angle_alpha   89.99014775
_cell_angle_beta   90.00985129
_cell_angle_gamma   118.02979302
_symmetry_Int_Tables_number   1
_chemical_formula_structural   Y2Ho2MoOs7
_chemical_formula_sum   'Y2 Ho2 Mo1 Os7'
_cell_volume   219.72642987
_cell_formula_units_Z   1
loop_
 _symmetry_equiv_pos_site_id
 _symmetry_equiv_pos_as_xyz
  1  'x, y, z'
loop_
 _atom_site_type_symbol
 _atom_site_label
 _atom_site_symmetry_multiplicity
 _atom_site_fract_x
 _atom_site_fract_y
 _atom_site_fract_z
 _atom_site_occupancy
  Y  Y0  1  0.330225  0.669775  0.437543  1
  Y  Y1  1  0.666875  0.333125  0.566361  1
  Ho  Ho2  1  0.666975  0.333025  0.934090  1
  Ho  Ho3  1  0.330113  0.669887  0.061840  1
  Mo  Mo4  1  0.832356  0.167644  0.249375  1
  Os  Os5  1  0.993743  0.006257  0.501892  1
  Os  Os6  1  0.993537  0.006463  0.998144  1
  Os  Os7  1  0.827110  0.653564  0.249125  1
  Os  Os8  1  0.346436  0.172890  0.249125  1
  Os  Os9  1  0.177666  0.822334  0.750831  1
  Os  Os10  1  0.172816  0.337852  0.750837  1
  Os  Os11  1  0.662148  0.827184  0.750837  1
