# generated using pymatgen
data_Zn4In8Ir3Rh
_symmetry_space_group_name_H-M   'P 1'
_cell_length_a   6.79910000
_cell_length_b   6.79909910
_cell_length_c   7.33050500
_cell_angle_alpha   90.00000000
_cell_angle_beta   90.00000000
_cell_angle_gamma   89.99012360
_symmetry_Int_Tables_number   1
_chemical_formula_structural   Zn4In8Ir3Rh
_chemical_formula_sum   'Zn4 In8 Ir3 Rh1'
_cell_volume   338.87278192
_cell_formula_units_Z   1
loop_
 _symmetry_equiv_pos_site_id
 _symmetry_equiv_pos_as_xyz
  1  'x, y, z'
loop_
 _atom_site_type_symbol
 _atom_site_label
 _atom_site_symmetry_multiplicity
 _atom_site_fract_x
 _atom_site_fract_y
 _atom_site_fract_z
 _atom_site_occupancy
  Zn  Zn0  1  0.002691  0.500858  0.000000  1
  Zn  Zn1  1  0.500858  0.002691  0.000000  1
  Zn  Zn2  1  0.998978  0.499263  0.500000  1
  Zn  Zn3  1  0.499263  0.998978  0.500000  1
  In  In4  1  0.333624  0.333624  0.268601  1
  In  In5  1  0.166087  0.837066  0.770160  1
  In  In6  1  0.166087  0.837066  0.229840  1
  In  In7  1  0.837066  0.166087  0.229840  1
  In  In8  1  0.837066  0.166087  0.770160  1
  In  In9  1  0.663475  0.663475  0.268403  1
  In  In10  1  0.663475  0.663475  0.731597  1
  In  In11  1  0.333624  0.333624  0.731399  1
  Ir  Ir12  1  0.655598  0.342290  0.500000  1
  Ir  Ir13  1  0.342290  0.655598  0.500000  1
  Ir  Ir14  1  0.843897  0.843897  0.000000  1
  Rh  Rh15  1  0.155920  0.155920  0.000000  1
