# generated using pymatgen
data_La10Pr6MgHg3Ir4
_symmetry_space_group_name_H-M   'P 1'
_cell_length_a   10.07386558
_cell_length_b   10.11119061
_cell_length_c   10.11119400
_cell_angle_alpha   60.00015537
_cell_angle_beta   59.87815811
_cell_angle_gamma   59.87841937
_symmetry_Int_Tables_number   1
_chemical_formula_structural   La10Pr6MgHg3Ir4
_chemical_formula_sum   'La10 Pr6 Mg1 Hg3 Ir4'
_cell_volume   726.91727745
_cell_formula_units_Z   1
loop_
 _symmetry_equiv_pos_site_id
 _symmetry_equiv_pos_as_xyz
  1  'x, y, z'
loop_
 _atom_site_type_symbol
 _atom_site_label
 _atom_site_symmetry_multiplicity
 _atom_site_fract_x
 _atom_site_fract_y
 _atom_site_fract_z
 _atom_site_occupancy
  La  La0  1  0.347678  0.346631  0.346628  1
  La  La1  1  0.347689  0.346605  0.959083  1
  La  La2  1  0.347682  0.959046  0.346642  1
  La  La3  1  0.953549  0.348808  0.348817  1
  La  La4  1  0.807736  0.191798  0.191773  1
  La  La5  1  0.187541  0.811354  0.811337  1
  La  La6  1  0.187543  0.811336  0.189780  1
  La  La7  1  0.807732  0.191800  0.808680  1
  La  La8  1  0.187532  0.189788  0.811335  1
  La  La9  1  0.807705  0.808693  0.191812  1
  Pr  Pr10  1  0.936781  0.562823  0.562817  1
  Pr  Pr11  1  0.561261  0.937884  0.937912  1
  Pr  Pr12  1  0.561270  0.937892  0.562943  1
  Pr  Pr13  1  0.936783  0.562828  0.937589  1
  Pr  Pr14  1  0.561262  0.562951  0.937883  1
  Pr  Pr15  1  0.936789  0.937580  0.562813  1
  Mg  Mg16  1  0.284415  0.571891  0.571848  1
  Hg  Hg17  1  0.579875  0.585522  0.585523  1
  Hg  Hg18  1  0.579867  0.585536  0.249068  1
  Hg  Hg19  1  0.579873  0.249067  0.585533  1
  Ir  Ir20  1  0.141259  0.141282  0.141308  1
  Ir  Ir21  1  0.141252  0.141303  0.576138  1
  Ir  Ir22  1  0.141255  0.576152  0.141298  1
  Ir  Ir23  1  0.575673  0.141433  0.141442  1
