# generated using pymatgen
data_PrUPd6
_symmetry_space_group_name_H-M   'P 1'
_cell_length_a   4.18249200
_cell_length_b   4.18082600
_cell_length_c   8.35979500
_cell_angle_alpha   90.00000000
_cell_angle_beta   90.00000000
_cell_angle_gamma   90.00000000
_symmetry_Int_Tables_number   1
_chemical_formula_structural   PrUPd6
_chemical_formula_sum   'Pr1 U1 Pd6'
_cell_volume   146.18164337
_cell_formula_units_Z   1
loop_
 _symmetry_equiv_pos_site_id
 _symmetry_equiv_pos_as_xyz
  1  'x, y, z'
loop_
 _atom_site_type_symbol
 _atom_site_label
 _atom_site_symmetry_multiplicity
 _atom_site_fract_x
 _atom_site_fract_y
 _atom_site_fract_z
 _atom_site_occupancy
  Pr  Pr0  1  0.000000  0.000000  0.000000  1
  U  U1  1  0.000000  0.000000  0.500000  1
  Pd  Pd2  1  0.500000  0.500000  0.000000  1
  Pd  Pd3  1  0.500000  0.500000  0.500000  1
  Pd  Pd4  1  0.500000  0.000000  0.261147  1
  Pd  Pd5  1  0.500000  0.000000  0.738853  1
  Pd  Pd6  1  0.000000  0.500000  0.261141  1
  Pd  Pd7  1  0.000000  0.500000  0.738859  1
