# generated using pymatgen
data_SrAl4SnI16
_symmetry_space_group_name_H-M   'P 1'
_cell_length_a   8.34705154
_cell_length_b   8.58128208
_cell_length_c   15.73783768
_cell_angle_alpha   87.54752957
_cell_angle_beta   90.18965616
_cell_angle_gamma   89.88211653
_symmetry_Int_Tables_number   1
_chemical_formula_structural   SrAl4SnI16
_chemical_formula_sum   'Sr1 Al4 Sn1 I16'
_cell_volume   1126.23477889
_cell_formula_units_Z   1
loop_
 _symmetry_equiv_pos_site_id
 _symmetry_equiv_pos_as_xyz
  1  'x, y, z'
loop_
 _atom_site_type_symbol
 _atom_site_label
 _atom_site_symmetry_multiplicity
 _atom_site_fract_x
 _atom_site_fract_y
 _atom_site_fract_z
 _atom_site_occupancy
  Sr  Sr0  1  0.753710  0.078505  0.813825  1
  Al  Al1  1  0.933406  0.220712  0.579241  1
  Al  Al2  1  0.066496  0.221600  0.080552  1
  Al  Al3  1  0.571912  0.642659  0.777345  1
  Al  Al4  1  0.429537  0.641307  0.278113  1
  Sn  Sn5  1  0.245521  0.072768  0.310519  1
  I  I6  1  0.423830  0.615976  0.640643  1
  I  I7  1  0.575552  0.615888  0.140731  1
  I  I8  1  0.869430  0.722014  0.759412  1
  I  I9  1  0.132351  0.732792  0.260428  1
  I  I10  1  0.938285  0.476338  0.496918  1
  I  I11  1  0.061606  0.475457  0.996987  1
  I  I12  1  0.923908  0.997806  0.004141  1
  I  I13  1  0.077981  0.999857  0.501255  1
  I  I14  1  0.641913  0.129913  0.611138  1
  I  I15  1  0.356749  0.127748  0.117013  1
  I  I16  1  0.558279  0.390444  0.875355  1
  I  I17  1  0.437630  0.387551  0.373140  1
  I  I18  1  0.439770  0.856830  0.866828  1
  I  I19  1  0.554889  0.861171  0.365745  1
  I  I20  1  0.931070  0.232268  0.228703  1
  I  I21  1  0.076175  0.235196  0.726370  1
