# generated using pymatgen
data_Gd3Ho2Pb3
_symmetry_space_group_name_H-M   'P 1'
_cell_length_a   9.07481700
_cell_length_b   9.07481857
_cell_length_c   6.65233700
_cell_angle_alpha   90.00000000
_cell_angle_beta   90.00000000
_cell_angle_gamma   120.00000522
_symmetry_Int_Tables_number   1
_chemical_formula_structural   Gd3Ho2Pb3
_chemical_formula_sum   'Gd6 Ho4 Pb6'
_cell_volume   474.43932319
_cell_formula_units_Z   2
loop_
 _symmetry_equiv_pos_site_id
 _symmetry_equiv_pos_as_xyz
  1  'x, y, z'
loop_
 _atom_site_type_symbol
 _atom_site_label
 _atom_site_symmetry_multiplicity
 _atom_site_fract_x
 _atom_site_fract_y
 _atom_site_fract_z
 _atom_site_occupancy
  Gd  Gd0  1  0.238767  0.000000  0.250000  1
  Gd  Gd1  1  0.238767  0.238767  0.750000  1
  Gd  Gd2  1  0.000000  0.761233  0.750000  1
  Gd  Gd3  1  0.000000  0.238767  0.250000  1
  Gd  Gd4  1  0.761233  0.761233  0.250000  1
  Gd  Gd5  1  0.761233  0.000000  0.750000  1
  Ho  Ho6  1  0.333333  0.666667  0.000000  1
  Ho  Ho7  1  0.666667  0.333333  0.500000  1
  Ho  Ho8  1  0.666667  0.333333  0.000000  1
  Ho  Ho9  1  0.333333  0.666667  0.500000  1
  Pb  Pb10  1  0.601685  0.000000  0.250000  1
  Pb  Pb11  1  0.601685  0.601685  0.750000  1
  Pb  Pb12  1  0.000000  0.398315  0.750000  1
  Pb  Pb13  1  0.000000  0.601685  0.250000  1
  Pb  Pb14  1  0.398315  0.398315  0.250000  1
  Pb  Pb15  1  0.398315  0.000000  0.750000  1
