# generated using pymatgen
data_Eu5Cu2Hg
_symmetry_space_group_name_H-M   'P 1'
_cell_length_a   9.39985045
_cell_length_b   9.39985002
_cell_length_c   9.39985102
_cell_angle_alpha   128.81555716
_cell_angle_beta   128.81555502
_cell_angle_gamma   75.30753575
_symmetry_Int_Tables_number   1
_chemical_formula_structural   Eu5Cu2Hg
_chemical_formula_sum   'Eu10 Cu4 Hg2'
_cell_volume   490.77946692
_cell_formula_units_Z   2
loop_
 _symmetry_equiv_pos_site_id
 _symmetry_equiv_pos_as_xyz
  1  'x, y, z'
loop_
 _atom_site_type_symbol
 _atom_site_label
 _atom_site_symmetry_multiplicity
 _atom_site_fract_x
 _atom_site_fract_y
 _atom_site_fract_z
 _atom_site_occupancy
  Eu  Eu0  1  0.500000  0.500000  0.000000  1
  Eu  Eu1  1  0.000000  0.000000  0.000000  1
  Eu  Eu2  1  0.526715  0.026715  0.833431  1
  Eu  Eu3  1  0.193284  0.693284  0.166569  1
  Eu  Eu4  1  0.026715  0.193284  0.500000  1
  Eu  Eu5  1  0.693284  0.526715  0.500000  1
  Eu  Eu6  1  0.473285  0.973285  0.166569  1
  Eu  Eu7  1  0.806716  0.306716  0.833431  1
  Eu  Eu8  1  0.973285  0.806716  0.500000  1
  Eu  Eu9  1  0.306716  0.473285  0.500000  1
  Cu  Cu10  1  0.115012  0.615012  0.730022  1
  Cu  Cu11  1  0.884988  0.384988  0.269978  1
  Cu  Cu12  1  0.615012  0.884988  0.500000  1
  Cu  Cu13  1  0.384988  0.115012  0.500000  1
  Hg  Hg14  1  0.250000  0.250000  0.000000  1
  Hg  Hg15  1  0.750000  0.750000  0.000000  1
