# generated using pymatgen
data_Ce2Ag3Hg
_symmetry_space_group_name_H-M   'P 1'
_cell_length_a   5.96621008
_cell_length_b   5.97336941
_cell_length_c   5.97336895
_cell_angle_alpha   130.56277956
_cell_angle_beta   114.36621866
_cell_angle_gamma   86.42076686
_symmetry_Int_Tables_number   1
_chemical_formula_structural   Ce2Ag3Hg
_chemical_formula_sum   'Ce2 Ag3 Hg1'
_cell_volume   140.65034577
_cell_formula_units_Z   1
loop_
 _symmetry_equiv_pos_site_id
 _symmetry_equiv_pos_as_xyz
  1  'x, y, z'
loop_
 _atom_site_type_symbol
 _atom_site_label
 _atom_site_symmetry_multiplicity
 _atom_site_fract_x
 _atom_site_fract_y
 _atom_site_fract_z
 _atom_site_occupancy
  Ce  Ce0  1  0.752908  0.504054  0.248854  1
  Ce  Ce1  1  0.246926  0.495975  0.750951  1
  Ag  Ag2  1  0.825704  0.830892  0.994811  1
  Ag  Ag3  1  0.662053  0.166570  0.495483  1
  Ag  Ag4  1  0.341355  0.836189  0.505166  1
  Hg  Hg5  1  0.171055  0.166321  0.004735  1
