# generated using pymatgen
data_Pa4Zn3GeIr4
_symmetry_space_group_name_H-M   'P 1'
_cell_length_a   4.22107600
_cell_length_b   6.81979030
_cell_length_c   8.04296098
_cell_angle_alpha   92.34392459
_cell_angle_beta   90.00000000
_cell_angle_gamma   90.00000000
_symmetry_Int_Tables_number   1
_chemical_formula_structural   Pa4Zn3GeIr4
_chemical_formula_sum   'Pa4 Zn3 Ge1 Ir4'
_cell_volume   231.33782233
_cell_formula_units_Z   1
loop_
 _symmetry_equiv_pos_site_id
 _symmetry_equiv_pos_as_xyz
  1  'x, y, z'
loop_
 _atom_site_type_symbol
 _atom_site_label
 _atom_site_symmetry_multiplicity
 _atom_site_fract_x
 _atom_site_fract_y
 _atom_site_fract_z
 _atom_site_occupancy
  Pa  Pa0  1  0.250000  0.468166  0.193539  1
  Pa  Pa1  1  0.750000  0.529745  0.807657  1
  Pa  Pa2  1  0.250000  0.974781  0.307354  1
  Pa  Pa3  1  0.750000  0.029670  0.691561  1
  Zn  Zn4  1  0.250000  0.855754  0.931542  1
  Zn  Zn5  1  0.750000  0.141666  0.066552  1
  Zn  Zn6  1  0.250000  0.346276  0.573002  1
  Ge  Ge7  1  0.750000  0.649089  0.431501  1
  Ir  Ir8  1  0.750000  0.743868  0.112338  1
  Ir  Ir9  1  0.250000  0.256090  0.890777  1
  Ir  Ir10  1  0.750000  0.250692  0.392110  1
  Ir  Ir11  1  0.250000  0.754201  0.602067  1
