# generated using pymatgen
data_Zn2InBCl2O3
_symmetry_space_group_name_H-M   'P 1'
_cell_length_a   9.52234760
_cell_length_b   9.52234759
_cell_length_c   9.52234807
_cell_angle_alpha   30.50895391
_cell_angle_beta   30.50895489
_cell_angle_gamma   30.50896440
_symmetry_Int_Tables_number   1
_chemical_formula_structural   Zn2InBCl2O3
_chemical_formula_sum   'Zn2 In1 B1 Cl2 O3'
_cell_volume   197.26837304
_cell_formula_units_Z   1
loop_
 _symmetry_equiv_pos_site_id
 _symmetry_equiv_pos_as_xyz
  1  'x, y, z'
loop_
 _atom_site_type_symbol
 _atom_site_label
 _atom_site_symmetry_multiplicity
 _atom_site_fract_x
 _atom_site_fract_y
 _atom_site_fract_z
 _atom_site_occupancy
  Zn  Zn0  1  0.305749  0.305749  0.305749  1
  Zn  Zn1  1  0.694251  0.694251  0.694251  1
  In  In2  1  0.500000  0.500000  0.500000  1
  B  B3  1  0.000000  0.000000  0.000000  1
  Cl  Cl4  1  0.221948  0.221948  0.221948  1
  Cl  Cl5  1  0.778052  0.778052  0.778052  1
  O  O6  1  0.723889  0.000000  0.276111  1
  O  O7  1  0.000000  0.276111  0.723889  1
  O  O8  1  0.276111  0.723889  0.000000  1
