# generated using pymatgen
data_NdLu2Th3Si4
_symmetry_space_group_name_H-M   'P 1'
_cell_length_a   7.56370731
_cell_length_b   7.56370711
_cell_length_c   4.30052700
_cell_angle_alpha   90.00000000
_cell_angle_beta   90.00000000
_cell_angle_gamma   90.16876624
_symmetry_Int_Tables_number   1
_chemical_formula_structural   NdLu2Th3Si4
_chemical_formula_sum   'Nd1 Lu2 Th3 Si4'
_cell_volume   246.03064922
_cell_formula_units_Z   1
loop_
 _symmetry_equiv_pos_site_id
 _symmetry_equiv_pos_as_xyz
  1  'x, y, z'
loop_
 _atom_site_type_symbol
 _atom_site_label
 _atom_site_symmetry_multiplicity
 _atom_site_fract_x
 _atom_site_fract_y
 _atom_site_fract_z
 _atom_site_occupancy
  Nd  Nd0  1  0.823050  0.676950  0.500000  1
  Lu  Lu1  1  0.998862  0.000564  0.000000  1
  Lu  Lu2  1  0.499436  0.501138  0.000000  1
  Th  Th3  1  0.678053  0.178670  0.500000  1
  Th  Th4  1  0.321330  0.821947  0.500000  1
  Th  Th5  1  0.178147  0.321853  0.500000  1
  Si  Si6  1  0.120059  0.616755  0.000000  1
  Si  Si7  1  0.883245  0.379941  0.000000  1
  Si  Si8  1  0.616517  0.883483  0.000000  1
  Si  Si9  1  0.381300  0.118700  0.000000  1
