# generated using pymatgen
data_YEr9(AlCo5)2
_symmetry_space_group_name_H-M   'P 1'
_cell_length_a   5.42448012
_cell_length_b   5.42447989
_cell_length_c   20.44066745
_cell_angle_alpha   90.07607140
_cell_angle_beta   89.92392964
_cell_angle_gamma   136.96085564
_symmetry_Int_Tables_number   1
_chemical_formula_structural   YEr9(AlCo5)2
_chemical_formula_sum   'Y1 Er9 Al2 Co10'
_cell_volume   410.49904367
_cell_formula_units_Z   1
loop_
 _symmetry_equiv_pos_site_id
 _symmetry_equiv_pos_as_xyz
  1  'x, y, z'
loop_
 _atom_site_type_symbol
 _atom_site_label
 _atom_site_symmetry_multiplicity
 _atom_site_fract_x
 _atom_site_fract_y
 _atom_site_fract_z
 _atom_site_occupancy
  Y  Y0  1  0.292639  0.707361  0.433831  1
  Er  Er1  1  0.289057  0.710943  0.249465  1
  Er  Er2  1  0.291909  0.708091  0.066095  1
  Er  Er3  1  0.997280  0.002720  0.842565  1
  Er  Er4  1  0.710783  0.289217  0.750351  1
  Er  Er5  1  0.708007  0.291993  0.566830  1
  Er  Er6  1  0.002865  0.997135  0.341648  1
  Er  Er7  1  0.997735  0.002265  0.657975  1
  Er  Er8  1  0.708124  0.291876  0.933920  1
  Er  Er9  1  0.002495  0.997505  0.157416  1
  Al  Al10  1  0.000782  0.999218  0.500355  1
  Al  Al11  1  0.999982  0.000018  0.999957  1
  Co  Co12  1  0.293623  0.706377  0.654847  1
  Co  Co13  1  0.582114  0.417886  0.441556  1
  Co  Co14  1  0.414158  0.585842  0.750175  1
  Co  Co15  1  0.417712  0.582288  0.941599  1
  Co  Co16  1  0.584737  0.415263  0.249308  1
  Co  Co17  1  0.419103  0.580897  0.559608  1
  Co  Co18  1  0.704767  0.295233  0.344309  1
  Co  Co19  1  0.706566  0.293434  0.154306  1
  Co  Co20  1  0.582300  0.417700  0.058318  1
  Co  Co21  1  0.293263  0.706737  0.845566  1
