# generated using pymatgen
data_ScTa2(CrP)3
_symmetry_space_group_name_H-M   'P 1'
_cell_length_a   6.55947388
_cell_length_b   6.49282501
_cell_length_c   3.31514000
_cell_angle_alpha   90.00000000
_cell_angle_beta   90.00000000
_cell_angle_gamma   119.66445115
_symmetry_Int_Tables_number   1
_chemical_formula_structural   ScTa2(CrP)3
_chemical_formula_sum   'Sc1 Ta2 Cr3 P3'
_cell_volume   122.68564336
_cell_formula_units_Z   1
loop_
 _symmetry_equiv_pos_site_id
 _symmetry_equiv_pos_as_xyz
  1  'x, y, z'
loop_
 _atom_site_type_symbol
 _atom_site_label
 _atom_site_symmetry_multiplicity
 _atom_site_fract_x
 _atom_site_fract_y
 _atom_site_fract_z
 _atom_site_occupancy
  Sc  Sc0  1  0.000000  0.595244  0.500000  1
  Ta  Ta1  1  0.405494  0.401706  0.500000  1
  Ta  Ta2  1  0.594506  0.996212  0.500000  1
  Cr  Cr3  1  0.000000  0.248785  0.000000  1
  Cr  Cr4  1  0.254734  0.006154  0.000000  1
  Cr  Cr5  1  0.745266  0.751420  0.000000  1
  P  P6  1  0.667181  0.333182  0.000000  1
  P  P7  1  0.332819  0.666002  0.000000  1
  P  P8  1  0.000000  0.001293  0.500000  1
