# generated using pymatgen
data_Ta3Ti6Si6MoC2
_symmetry_space_group_name_H-M   'P 1'
_cell_length_a   7.49119503
_cell_length_b   7.49148745
_cell_length_c   5.17835801
_cell_angle_alpha   89.99806737
_cell_angle_beta   89.99521633
_cell_angle_gamma   120.03296597
_symmetry_Int_Tables_number   1
_chemical_formula_structural   Ta3Ti6Si6MoC2
_chemical_formula_sum   'Ta3 Ti6 Si6 Mo1 C2'
_cell_volume   251.59238859
_cell_formula_units_Z   1
loop_
 _symmetry_equiv_pos_site_id
 _symmetry_equiv_pos_as_xyz
  1  'x, y, z'
loop_
 _atom_site_type_symbol
 _atom_site_label
 _atom_site_symmetry_multiplicity
 _atom_site_fract_x
 _atom_site_fract_y
 _atom_site_fract_z
 _atom_site_occupancy
  Ta  Ta0  1  0.235593  0.000946  0.250698  1
  Ta  Ta1  1  0.766023  0.000460  0.748967  1
  Ta  Ta2  1  0.998999  0.236593  0.251264  1
  Ti  Ti3  1  0.666480  0.331997  0.999907  1
  Ti  Ti4  1  0.666585  0.332243  0.500396  1
  Ti  Ti5  1  0.333247  0.666503  0.500419  1
  Ti  Ti6  1  0.998716  0.765879  0.749809  1
  Ti  Ti7  1  0.765259  0.763564  0.250484  1
  Ti  Ti8  1  0.236000  0.234501  0.749250  1
  Si  Si9  1  0.591585  0.997779  0.248849  1
  Si  Si10  1  0.406130  0.999964  0.751294  1
  Si  Si11  1  0.997918  0.592976  0.248406  1
  Si  Si12  1  0.001376  0.411285  0.751264  1
  Si  Si13  1  0.410686  0.410636  0.248579  1
  Si  Si14  1  0.591720  0.589688  0.751542  1
  Mo  Mo15  1  0.333246  0.666701  0.999314  1
  C  C16  1  0.000179  0.998845  0.998955  1
  C  C17  1  0.000260  0.999442  0.500604  1
