# generated using pymatgen
data_Tb6Mg(P3Rh5)4
_symmetry_space_group_name_H-M   'P 1'
_cell_length_a   13.48593800
_cell_length_b   13.48593672
_cell_length_c   3.92162600
_cell_angle_alpha   90.00000000
_cell_angle_beta   90.00000000
_cell_angle_gamma   119.99999824
_symmetry_Int_Tables_number   1
_chemical_formula_structural   Tb6Mg(P3Rh5)4
_chemical_formula_sum   'Tb6 Mg1 P12 Rh20'
_cell_volume   617.67367014
_cell_formula_units_Z   1
loop_
 _symmetry_equiv_pos_site_id
 _symmetry_equiv_pos_as_xyz
  1  'x, y, z'
loop_
 _atom_site_type_symbol
 _atom_site_label
 _atom_site_symmetry_multiplicity
 _atom_site_fract_x
 _atom_site_fract_y
 _atom_site_fract_z
 _atom_site_occupancy
  Tb  Tb0  1  0.529599  0.716941  0.251937  1
  Tb  Tb1  1  0.283059  0.812658  0.251937  1
  Tb  Tb2  1  0.187342  0.470401  0.251937  1
  Tb  Tb3  1  0.470401  0.283059  0.748063  1
  Tb  Tb4  1  0.716941  0.187342  0.748063  1
  Tb  Tb5  1  0.812658  0.529599  0.748063  1
  Mg  Mg6  1  0.000000  0.000000  0.000000  1
  P  P7  1  0.526962  0.138282  0.249707  1
  P  P8  1  0.861718  0.388681  0.249707  1
  P  P9  1  0.611319  0.473038  0.249707  1
  P  P10  1  0.949382  0.720133  0.244795  1
  P  P11  1  0.279867  0.229249  0.244795  1
  P  P12  1  0.770751  0.050618  0.244795  1
  P  P13  1  0.388681  0.526962  0.750293  1
  P  P14  1  0.473038  0.861718  0.750293  1
  P  P15  1  0.138282  0.611319  0.750293  1
  P  P16  1  0.720133  0.770751  0.755205  1
  P  P17  1  0.229249  0.949382  0.755205  1
  P  P18  1  0.050618  0.279867  0.755205  1
  Rh  Rh19  1  0.333333  0.666667  0.751269  1
  Rh  Rh20  1  0.919263  0.253179  0.244911  1
  Rh  Rh21  1  0.746821  0.666083  0.244911  1
  Rh  Rh22  1  0.333917  0.080737  0.244911  1
  Rh  Rh23  1  0.441470  0.025170  0.748698  1
  Rh  Rh24  1  0.974830  0.416302  0.748698  1
  Rh  Rh25  1  0.583698  0.558530  0.748698  1
  Rh  Rh26  1  0.666667  0.333333  0.248731  1
  Rh  Rh27  1  0.097433  0.207475  0.258959  1
  Rh  Rh28  1  0.792525  0.889958  0.258959  1
  Rh  Rh29  1  0.110042  0.902567  0.258959  1
  Rh  Rh30  1  0.025170  0.583698  0.251302  1
  Rh  Rh31  1  0.416302  0.441470  0.251302  1
  Rh  Rh32  1  0.558530  0.974830  0.251302  1
  Rh  Rh33  1  0.666083  0.919263  0.755089  1
  Rh  Rh34  1  0.080737  0.746821  0.755089  1
  Rh  Rh35  1  0.253179  0.333917  0.755089  1
  Rh  Rh36  1  0.902567  0.792525  0.741041  1
  Rh  Rh37  1  0.207475  0.110042  0.741041  1
  Rh  Rh38  1  0.889958  0.097433  0.741041  1
