# generated using pymatgen
data_Nd2Gd3YTa2O14
_symmetry_space_group_name_H-M   'P 1'
_cell_length_a   6.56190733
_cell_length_b   6.55363576
_cell_length_c   7.65161900
_cell_angle_alpha   90.00000000
_cell_angle_beta   90.00000000
_cell_angle_gamma   109.54729044
_symmetry_Int_Tables_number   1
_chemical_formula_structural   Nd2Gd3YTa2O14
_chemical_formula_sum   'Nd2 Gd3 Y1 Ta2 O14'
_cell_volume   310.08815669
_cell_formula_units_Z   1
loop_
 _symmetry_equiv_pos_site_id
 _symmetry_equiv_pos_as_xyz
  1  'x, y, z'
loop_
 _atom_site_type_symbol
 _atom_site_label
 _atom_site_symmetry_multiplicity
 _atom_site_fract_x
 _atom_site_fract_y
 _atom_site_fract_z
 _atom_site_occupancy
  Nd  Nd0  1  0.497690  0.498029  0.500742  1
  Nd  Nd1  1  0.497690  0.498029  0.999258  1
  Gd  Gd2  1  0.532793  0.999630  0.750000  1
  Gd  Gd3  1  0.999957  0.532263  0.250000  1
  Gd  Gd4  1  0.467187  0.999984  0.250000  1
  Y  Y5  1  0.999718  0.466231  0.750000  1
  Ta  Ta6  1  0.999671  0.999323  0.500605  1
  Ta  Ta7  1  0.999671  0.999323  0.999395  1
  O  O8  1  0.681794  0.928776  0.468481  1
  O  O9  1  0.933967  0.683309  0.534955  1
  O  O10  1  0.681794  0.928776  0.031519  1
  O  O11  1  0.933967  0.683309  0.965045  1
  O  O12  1  0.319108  0.071811  0.530931  1
  O  O13  1  0.069565  0.319589  0.470764  1
  O  O14  1  0.319108  0.071811  0.969069  1
  O  O15  1  0.069565  0.319589  0.029236  1
  O  O16  1  0.938711  0.063401  0.750000  1
  O  O17  1  0.059442  0.939176  0.250000  1
  O  O18  1  0.362928  0.631011  0.750000  1
  O  O19  1  0.633490  0.367347  0.250000  1
  O  O20  1  0.642826  0.359627  0.750000  1
  O  O21  1  0.359356  0.639656  0.250000  1
