# generated using pymatgen
data_YbY7GePd24
_symmetry_space_group_name_H-M   'P 1'
_cell_length_a   8.36954950
_cell_length_b   8.36954950
_cell_length_c   8.36954950
_cell_angle_alpha   90.02794091
_cell_angle_beta   89.97205909
_cell_angle_gamma   89.97205909
_symmetry_Int_Tables_number   1
_chemical_formula_structural   YbY7GePd24
_chemical_formula_sum   'Yb1 Y7 Ge1 Pd24'
_cell_volume   586.28136651
_cell_formula_units_Z   1
loop_
 _symmetry_equiv_pos_site_id
 _symmetry_equiv_pos_as_xyz
  1  'x, y, z'
loop_
 _atom_site_type_symbol
 _atom_site_label
 _atom_site_symmetry_multiplicity
 _atom_site_fract_x
 _atom_site_fract_y
 _atom_site_fract_z
 _atom_site_occupancy
  Yb  Yb0  1  0.748370  0.251630  0.251630  1
  Y  Y1  1  0.252764  0.252875  0.252875  1
  Y  Y2  1  0.747204  0.747102  0.747102  1
  Y  Y3  1  0.747125  0.747236  0.252875  1
  Y  Y4  1  0.747125  0.252875  0.747236  1
  Y  Y5  1  0.252898  0.252796  0.747102  1
  Y  Y6  1  0.252898  0.747102  0.252796  1
  Y  Y7  1  0.252643  0.747357  0.747357  1
  Ge  Ge8  1  0.999345  0.000655  0.000655  1
  Pd  Pd9  1  0.260281  0.500119  0.999739  1
  Pd  Pd10  1  0.739581  0.499649  0.000292  1
  Pd  Pd11  1  0.999708  0.260419  0.499649  1
  Pd  Pd12  1  0.500351  0.260419  0.000292  1
  Pd  Pd13  1  0.000261  0.739719  0.500119  1
  Pd  Pd14  1  0.499881  0.739719  0.999739  1
  Pd  Pd15  1  0.500351  0.000292  0.260419  1
  Pd  Pd16  1  0.260281  0.999739  0.500119  1
  Pd  Pd17  1  0.499881  0.999739  0.739719  1
  Pd  Pd18  1  0.739581  0.000292  0.499649  1
  Pd  Pd19  1  0.999708  0.499649  0.260419  1
  Pd  Pd20  1  0.000261  0.500119  0.739719  1
  Pd  Pd21  1  0.253262  0.500206  0.500206  1
  Pd  Pd22  1  0.746899  0.499502  0.499502  1
  Pd  Pd23  1  0.500498  0.253101  0.499502  1
  Pd  Pd24  1  0.499794  0.746738  0.500206  1
  Pd  Pd25  1  0.500498  0.499502  0.253101  1
  Pd  Pd26  1  0.499794  0.500206  0.746738  1
  Pd  Pd27  1  0.290196  0.999993  0.999993  1
  Pd  Pd28  1  0.709822  0.000637  0.000637  1
  Pd  Pd29  1  0.999363  0.290178  0.000637  1
  Pd  Pd30  1  0.000007  0.709804  0.999993  1
  Pd  Pd31  1  0.999363  0.000637  0.290178  1
  Pd  Pd32  1  0.000007  0.999993  0.709804  1
