# generated using pymatgen
data_SmHo(Lu2Rh9)2
_symmetry_space_group_name_H-M   'P 1'
_cell_length_a   5.24029300
_cell_length_b   5.24029424
_cell_length_c   17.48130400
_cell_angle_alpha   90.00000000
_cell_angle_beta   90.00000000
_cell_angle_gamma   119.99999851
_symmetry_Int_Tables_number   1
_chemical_formula_structural   SmHo(Lu2Rh9)2
_chemical_formula_sum   'Sm1 Ho1 Lu4 Rh18'
_cell_volume   415.73415574
_cell_formula_units_Z   1
loop_
 _symmetry_equiv_pos_site_id
 _symmetry_equiv_pos_as_xyz
  1  'x, y, z'
loop_
 _atom_site_type_symbol
 _atom_site_label
 _atom_site_symmetry_multiplicity
 _atom_site_fract_x
 _atom_site_fract_y
 _atom_site_fract_z
 _atom_site_occupancy
  Sm  Sm0  1  0.666667  0.333333  0.250000  1
  Ho  Ho1  1  0.333333  0.666667  0.750000  1
  Lu  Lu2  1  0.333333  0.666667  0.958069  1
  Lu  Lu3  1  0.666667  0.333333  0.041326  1
  Lu  Lu4  1  0.666667  0.333333  0.458674  1
  Lu  Lu5  1  0.333333  0.666667  0.541931  1
  Rh  Rh6  1  0.167517  0.832483  0.375675  1
  Rh  Rh7  1  0.167517  0.335033  0.375675  1
  Rh  Rh8  1  0.664967  0.832483  0.375675  1
  Rh  Rh9  1  0.832458  0.167542  0.624874  1
  Rh  Rh10  1  0.832458  0.664915  0.624874  1
  Rh  Rh11  1  0.335085  0.167542  0.624874  1
  Rh  Rh12  1  0.832458  0.167542  0.875126  1
  Rh  Rh13  1  0.832458  0.664915  0.875126  1
  Rh  Rh14  1  0.335085  0.167542  0.875126  1
  Rh  Rh15  1  0.167517  0.832483  0.124325  1
  Rh  Rh16  1  0.167517  0.335033  0.124325  1
  Rh  Rh17  1  0.664967  0.832483  0.124325  1
  Rh  Rh18  1  0.333333  0.666667  0.250000  1
  Rh  Rh19  1  0.666667  0.333333  0.750000  1
  Rh  Rh20  1  0.000000  0.000000  0.250000  1
  Rh  Rh21  1  0.000000  0.000000  0.750000  1
  Rh  Rh22  1  0.000000  0.000000  0.500220  1
  Rh  Rh23  1  0.000000  0.000000  0.999780  1
