# generated using pymatgen
data_Na3Tl(Ga2Se3)2
_symmetry_space_group_name_H-M   'P 1'
_cell_length_a   7.07275354
_cell_length_b   7.07275261
_cell_length_c   8.84491800
_cell_angle_alpha   82.27026083
_cell_angle_beta   82.27025368
_cell_angle_gamma   119.97018111
_symmetry_Int_Tables_number   1
_chemical_formula_structural   Na3Tl(Ga2Se3)2
_chemical_formula_sum   'Na3 Tl1 Ga4 Se6'
_cell_volume   369.17854846
_cell_formula_units_Z   1
loop_
 _symmetry_equiv_pos_site_id
 _symmetry_equiv_pos_as_xyz
  1  'x, y, z'
loop_
 _atom_site_type_symbol
 _atom_site_label
 _atom_site_symmetry_multiplicity
 _atom_site_fract_x
 _atom_site_fract_y
 _atom_site_fract_z
 _atom_site_occupancy
  Na  Na0  1  0.663905  0.336095  0.000000  1
  Na  Na1  1  0.336095  0.663905  0.000000  1
  Na  Na2  1  0.000000  0.000000  0.000000  1
  Tl  Tl3  1  0.500000  0.500000  0.500000  1
  Ga  Ga4  1  0.881223  0.214257  0.355079  1
  Ga  Ga5  1  0.785743  0.118777  0.644921  1
  Ga  Ga6  1  0.214257  0.881223  0.355079  1
  Ga  Ga7  1  0.118777  0.785743  0.644921  1
  Se  Se8  1  0.411552  0.053149  0.766870  1
  Se  Se9  1  0.053149  0.411552  0.766870  1
  Se  Se10  1  0.946851  0.588448  0.233130  1
  Se  Se11  1  0.768779  0.768779  0.769629  1
  Se  Se12  1  0.588448  0.946851  0.233130  1
  Se  Se13  1  0.231221  0.231221  0.230371  1
