# generated using pymatgen
data_Tm2Al16TcPt8
_symmetry_space_group_name_H-M   'P 1'
_cell_length_a   11.13035011
_cell_length_b   11.13034602
_cell_length_c   11.13034662
_cell_angle_alpha   158.50581766
_cell_angle_beta   116.99338243
_cell_angle_gamma   67.39708429
_symmetry_Int_Tables_number   1
_chemical_formula_structural   Tm2Al16TcPt8
_chemical_formula_sum   'Tm2 Al16 Tc1 Pt8'
_cell_volume   447.13390320
_cell_formula_units_Z   1
loop_
 _symmetry_equiv_pos_site_id
 _symmetry_equiv_pos_as_xyz
  1  'x, y, z'
loop_
 _atom_site_type_symbol
 _atom_site_label
 _atom_site_symmetry_multiplicity
 _atom_site_fract_x
 _atom_site_fract_y
 _atom_site_fract_z
 _atom_site_occupancy
  Tm  Tm0  1  0.230413  0.230613  0.999798  1
  Tm  Tm1  1  0.769184  0.769386  0.999799  1
  Al  Al2  1  0.271505  0.390062  0.881444  1
  Al  Al3  1  0.088524  0.922715  0.165809  1
  Al  Al4  1  0.506595  0.201769  0.304827  1
  Al  Al5  1  0.243093  0.077285  0.165809  1
  Al  Al6  1  0.908627  0.415976  0.492650  1
  Al  Al7  1  0.725085  0.599749  0.125336  1
  Al  Al8  1  0.899170  0.208315  0.690855  1
  Al  Al9  1  0.482541  0.791685  0.690855  1
  Al  Al10  1  0.388812  0.000000  0.388812  1
  Al  Al11  1  0.628367  0.000000  0.628367  1
  Al  Al12  1  0.491382  0.609938  0.881444  1
  Al  Al13  1  0.103059  0.798231  0.304827  1
  Al  Al14  1  0.909336  0.086774  0.822562  1
  Al  Al15  1  0.735788  0.913226  0.822562  1
  Al  Al16  1  0.525586  0.400251  0.125336  1
  Al  Al17  1  0.076674  0.584024  0.492650  1
  Tc  Tc18  1  0.786275  0.500000  0.286275  1
  Pt  Pt19  1  0.020130  0.341985  0.678144  1
  Pt  Pt20  1  0.629443  0.126953  0.502490  1
  Pt  Pt21  1  0.252065  0.500000  0.752065  1
  Pt  Pt22  1  0.375536  0.873046  0.502490  1
  Pt  Pt23  1  0.986084  0.000000  0.986084  1
  Pt  Pt24  1  0.650093  0.334809  0.315284  1
  Pt  Pt25  1  0.336158  0.658015  0.678144  1
  Pt  Pt26  1  0.980475  0.665191  0.315284  1
