# generated using pymatgen
data_NpU5O12
_symmetry_space_group_name_H-M   'P 1'
_cell_length_a   6.65001453
_cell_length_b   6.65001435
_cell_length_c   6.62573571
_cell_angle_alpha   80.36561877
_cell_angle_beta   80.36561361
_cell_angle_gamma   119.99999654
_symmetry_Int_Tables_number   1
_chemical_formula_structural   NpU5O12
_chemical_formula_sum   'Np1 U5 O12'
_cell_volume   239.11516145
_cell_formula_units_Z   1
loop_
 _symmetry_equiv_pos_site_id
 _symmetry_equiv_pos_as_xyz
  1  'x, y, z'
loop_
 _atom_site_type_symbol
 _atom_site_label
 _atom_site_symmetry_multiplicity
 _atom_site_fract_x
 _atom_site_fract_y
 _atom_site_fract_z
 _atom_site_occupancy
  Np  Np0  1  0.500000  0.500000  0.500000  1
  U  U1  1  0.833586  0.166414  0.500000  1
  U  U2  1  0.166414  0.833586  0.500000  1
  U  U3  1  0.666310  0.333690  0.000000  1
  U  U4  1  0.000000  0.000000  0.000000  1
  U  U5  1  0.333690  0.666310  0.000000  1
  O  O6  1  0.120625  0.120625  0.626874  1
  O  O7  1  0.707747  0.042160  0.876240  1
  O  O8  1  0.957840  0.292253  0.123760  1
  O  O9  1  0.372057  0.372057  0.880426  1
  O  O10  1  0.042160  0.707747  0.876240  1
  O  O11  1  0.541595  0.205235  0.373173  1
  O  O12  1  0.879375  0.879375  0.373126  1
  O  O13  1  0.458405  0.794765  0.626827  1
  O  O14  1  0.627943  0.627943  0.119574  1
  O  O15  1  0.292253  0.957840  0.123760  1
  O  O16  1  0.794765  0.458405  0.626827  1
  O  O17  1  0.205235  0.541595  0.373173  1
