# generated using pymatgen
data_Rb(ThS3)2
_symmetry_space_group_name_H-M   'P 1'
_cell_length_a   11.60071692
_cell_length_b   11.60071781
_cell_length_c   11.60071705
_cell_angle_alpha   159.39035246
_cell_angle_beta   154.16572840
_cell_angle_gamma   33.27377716
_symmetry_Int_Tables_number   1
_chemical_formula_structural   Rb(ThS3)2
_chemical_formula_sum   'Rb1 Th2 S6'
_cell_volume   239.26283599
_cell_formula_units_Z   1
loop_
 _symmetry_equiv_pos_site_id
 _symmetry_equiv_pos_as_xyz
  1  'x, y, z'
loop_
 _atom_site_type_symbol
 _atom_site_label
 _atom_site_symmetry_multiplicity
 _atom_site_fract_x
 _atom_site_fract_y
 _atom_site_fract_z
 _atom_site_occupancy
  Rb  Rb0  1  0.000000  0.000000  0.000000  1
  Th  Th1  1  0.320674  0.820674  0.500000  1
  Th  Th2  1  0.679326  0.179326  0.500000  1
  S  S3  1  0.146421  0.390705  0.755716  1
  S  S4  1  0.232197  0.232197  0.000000  1
  S  S5  1  0.365010  0.609295  0.755716  1
  S  S6  1  0.634990  0.390705  0.244284  1
  S  S7  1  0.853579  0.609295  0.244284  1
  S  S8  1  0.767803  0.767803  0.000000  1
