# generated using pymatgen
data_Hf6Ta4Al12Ir7
_symmetry_space_group_name_H-M   'P 1'
_cell_length_a   8.82590319
_cell_length_b   8.82584479
_cell_length_c   8.82578812
_cell_angle_alpha   59.99920338
_cell_angle_beta   59.99903534
_cell_angle_gamma   59.99962281
_symmetry_Int_Tables_number   1
_chemical_formula_structural   Hf6Ta4Al12Ir7
_chemical_formula_sum   'Hf6 Ta4 Al12 Ir7'
_cell_volume   486.12384687
_cell_formula_units_Z   1
loop_
 _symmetry_equiv_pos_site_id
 _symmetry_equiv_pos_as_xyz
  1  'x, y, z'
loop_
 _atom_site_type_symbol
 _atom_site_label
 _atom_site_symmetry_multiplicity
 _atom_site_fract_x
 _atom_site_fract_y
 _atom_site_fract_z
 _atom_site_occupancy
  Hf  Hf0  1  0.683766  0.683751  0.316228  1
  Hf  Hf1  1  0.316261  0.683751  0.316251  1
  Hf  Hf2  1  0.683766  0.316257  0.316242  1
  Hf  Hf3  1  0.316240  0.316247  0.683777  1
  Hf  Hf4  1  0.683743  0.316249  0.683751  1
  Hf  Hf5  1  0.316244  0.683735  0.683762  1
  Ta  Ta6  1  0.879790  0.879792  0.360626  1
  Ta  Ta7  1  0.879786  0.360628  0.879785  1
  Ta  Ta8  1  0.360628  0.879793  0.879789  1
  Ta  Ta9  1  0.879783  0.879801  0.879784  1
  Al  Al10  1  0.122294  0.122284  0.633139  1
  Al  Al11  1  0.122288  0.633148  0.122283  1
  Al  Al12  1  0.633151  0.122280  0.122294  1
  Al  Al13  1  0.122279  0.122279  0.122287  1
  Al  Al14  1  0.659807  0.659807  0.020575  1
  Al  Al15  1  0.659795  0.020609  0.659795  1
  Al  Al16  1  0.020591  0.659802  0.659798  1
  Al  Al17  1  0.659796  0.659792  0.659788  1
  Al  Al18  1  0.337738  0.337724  0.986800  1
  Al  Al19  1  0.337747  0.986758  0.337744  1
  Al  Al20  1  0.986794  0.337745  0.337748  1
  Al  Al21  1  0.337734  0.337765  0.337759  1
  Ir  Ir22  1  0.999990  0.000007  0.999999  1
  Ir  Ir23  1  0.996747  0.996751  0.503247  1
  Ir  Ir24  1  0.503252  0.996747  0.503252  1
  Ir  Ir25  1  0.996750  0.503252  0.503246  1
  Ir  Ir26  1  0.503247  0.503251  0.996750  1
  Ir  Ir27  1  0.996749  0.503249  0.996751  1
  Ir  Ir28  1  0.503248  0.996749  0.996750  1
