# generated using pymatgen
data_Tb12Th4MgIn3Co4
_symmetry_space_group_name_H-M   'P 1'
_cell_length_a   9.63293119
_cell_length_b   9.62627454
_cell_length_c   9.62627400
_cell_angle_alpha   60.00000184
_cell_angle_beta   60.02285833
_cell_angle_gamma   60.02286263
_symmetry_Int_Tables_number   1
_chemical_formula_structural   Tb12Th4MgIn3Co4
_chemical_formula_sum   'Tb12 Th4 Mg1 In3 Co4'
_cell_volume   631.40774788
_cell_formula_units_Z   1
loop_
 _symmetry_equiv_pos_site_id
 _symmetry_equiv_pos_as_xyz
  1  'x, y, z'
loop_
 _atom_site_type_symbol
 _atom_site_label
 _atom_site_symmetry_multiplicity
 _atom_site_fract_x
 _atom_site_fract_y
 _atom_site_fract_z
 _atom_site_occupancy
  Tb  Tb0  1  0.063516  0.436975  0.436975  1
  Tb  Tb1  1  0.435539  0.064217  0.064217  1
  Tb  Tb2  1  0.435539  0.064217  0.436028  1
  Tb  Tb3  1  0.063516  0.436975  0.062535  1
  Tb  Tb4  1  0.435539  0.436028  0.064217  1
  Tb  Tb5  1  0.063516  0.062535  0.436975  1
  Tb  Tb6  1  0.184915  0.815047  0.815047  1
  Tb  Tb7  1  0.815065  0.185492  0.185492  1
  Tb  Tb8  1  0.815065  0.185492  0.813952  1
  Tb  Tb9  1  0.184915  0.815047  0.184990  1
  Tb  Tb10  1  0.815065  0.813952  0.185492  1
  Tb  Tb11  1  0.184915  0.184990  0.815047  1
  Th  Th12  1  0.593847  0.594558  0.594558  1
  Th  Th13  1  0.593847  0.594558  0.217037  1
  Th  Th14  1  0.593847  0.217037  0.594558  1
  Th  Th15  1  0.215867  0.594712  0.594712  1
  Mg  Mg16  1  0.513090  0.828971  0.828971  1
  In  In17  1  0.831878  0.832501  0.832501  1
  In  In18  1  0.831878  0.832501  0.503122  1
  In  In19  1  0.831878  0.503122  0.832501  1
  Co  Co20  1  0.393782  0.394668  0.394668  1
  Co  Co21  1  0.393782  0.394668  0.816883  1
  Co  Co22  1  0.393782  0.816883  0.394668  1
  Co  Co23  1  0.815422  0.394859  0.394859  1
