# generated using pymatgen
data_Y6In7Pd16S
_symmetry_space_group_name_H-M   'P 1'
_cell_length_a   9.28028432
_cell_length_b   9.28065997
_cell_length_c   9.28033700
_cell_angle_alpha   59.99935829
_cell_angle_beta   59.99769131
_cell_angle_gamma   59.99679674
_symmetry_Int_Tables_number   1
_chemical_formula_structural   Y6In7Pd16S
_chemical_formula_sum   'Y6 In7 Pd16 S1'
_cell_volume   565.15645681
_cell_formula_units_Z   1
loop_
 _symmetry_equiv_pos_site_id
 _symmetry_equiv_pos_as_xyz
  1  'x, y, z'
loop_
 _atom_site_type_symbol
 _atom_site_label
 _atom_site_symmetry_multiplicity
 _atom_site_fract_x
 _atom_site_fract_y
 _atom_site_fract_z
 _atom_site_occupancy
  Y  Y0  1  0.714303  0.285684  0.285687  1
  Y  Y1  1  0.285697  0.714316  0.714313  1
  Y  Y2  1  0.285692  0.714307  0.285684  1
  Y  Y3  1  0.714308  0.285693  0.714316  1
  Y  Y4  1  0.285698  0.285687  0.714299  1
  Y  Y5  1  0.714302  0.714313  0.285701  1
  In  In6  1  0.000000  0.000000  0.000000  1
  In  In7  1  0.500000  0.000000  0.000000  1
  In  In8  1  0.000000  0.500000  0.500000  1
  In  In9  1  0.000000  0.500000  0.000000  1
  In  In10  1  0.500000  0.000000  0.500000  1
  In  In11  1  0.000000  0.000000  0.500000  1
  In  In12  1  0.500000  0.500000  0.000000  1
  Pd  Pd13  1  0.120455  0.120461  0.120458  1
  Pd  Pd14  1  0.879545  0.879539  0.879542  1
  Pd  Pd15  1  0.120449  0.120466  0.638618  1
  Pd  Pd16  1  0.120445  0.638624  0.120464  1
  Pd  Pd17  1  0.879551  0.879534  0.361382  1
  Pd  Pd18  1  0.879555  0.361376  0.879536  1
  Pd  Pd19  1  0.638627  0.120452  0.120456  1
  Pd  Pd20  1  0.361373  0.879548  0.879544  1
  Pd  Pd21  1  0.332854  0.332849  0.332849  1
  Pd  Pd22  1  0.667146  0.667151  0.667151  1
  Pd  Pd23  1  0.332854  0.332848  0.001452  1
  Pd  Pd24  1  0.332851  0.001450  0.332851  1
  Pd  Pd25  1  0.667146  0.667152  0.998548  1
  Pd  Pd26  1  0.667149  0.998550  0.667149  1
  Pd  Pd27  1  0.001466  0.332842  0.332846  1
  Pd  Pd28  1  0.998534  0.667158  0.667154  1
  S  S29  1  0.500000  0.500000  0.500000  1
