# generated using pymatgen
data_Li3Eu(GdTe2)4
_symmetry_space_group_name_H-M   'P 1'
_cell_length_a   8.88292157
_cell_length_b   8.88292100
_cell_length_c   8.89869000
_cell_angle_alpha   60.05860173
_cell_angle_beta   60.05859640
_cell_angle_gamma   59.99999877
_symmetry_Int_Tables_number   1
_chemical_formula_structural   Li3Eu(GdTe2)4
_chemical_formula_sum   'Li3 Eu1 Gd4 Te8'
_cell_volume   496.94325622
_cell_formula_units_Z   1
loop_
 _symmetry_equiv_pos_site_id
 _symmetry_equiv_pos_as_xyz
  1  'x, y, z'
loop_
 _atom_site_type_symbol
 _atom_site_label
 _atom_site_symmetry_multiplicity
 _atom_site_fract_x
 _atom_site_fract_y
 _atom_site_fract_z
 _atom_site_occupancy
  Li  Li0  1  0.125000  0.625000  0.125000  1
  Li  Li1  1  0.625000  0.125000  0.125000  1
  Li  Li2  1  0.125000  0.125000  0.125000  1
  Eu  Eu3  1  0.125000  0.125000  0.625000  1
  Gd  Gd4  1  0.625000  0.125000  0.625000  1
  Gd  Gd5  1  0.625000  0.625000  0.625000  1
  Gd  Gd6  1  0.125000  0.625000  0.625000  1
  Gd  Gd7  1  0.625000  0.625000  0.125000  1
  Te  Te8  1  0.378584  0.873676  0.369155  1
  Te  Te9  1  0.871416  0.376324  0.880845  1
  Te  Te10  1  0.875374  0.875374  0.373878  1
  Te  Te11  1  0.871416  0.871416  0.880845  1
  Te  Te12  1  0.873676  0.378584  0.369155  1
  Te  Te13  1  0.374626  0.374626  0.876122  1
  Te  Te14  1  0.378584  0.378584  0.369155  1
  Te  Te15  1  0.376324  0.871416  0.880845  1
