# generated using pymatgen
data_La2NdCCl5
_symmetry_space_group_name_H-M   'P 1'
_cell_length_a   7.46297394
_cell_length_b   8.85918767
_cell_length_c   8.95881100
_cell_angle_alpha   108.53832138
_cell_angle_beta   97.18983457
_cell_angle_gamma   106.29560041
_symmetry_Int_Tables_number   1
_chemical_formula_structural   La2NdCCl5
_chemical_formula_sum   'La4 Nd2 C2 Cl10'
_cell_volume   523.85556081
_cell_formula_units_Z   2
loop_
 _symmetry_equiv_pos_site_id
 _symmetry_equiv_pos_as_xyz
  1  'x, y, z'
loop_
 _atom_site_type_symbol
 _atom_site_label
 _atom_site_symmetry_multiplicity
 _atom_site_fract_x
 _atom_site_fract_y
 _atom_site_fract_z
 _atom_site_occupancy
  La  La0  1  0.029049  0.706070  0.909447  1
  La  La1  1  0.970951  0.293930  0.090553  1
  La  La2  1  0.598508  0.836740  0.781785  1
  La  La3  1  0.401492  0.163260  0.218215  1
  Nd  Nd4  1  0.879274  0.951119  0.232611  1
  Nd  Nd5  1  0.120726  0.048881  0.767389  1
  C  C6  1  0.905255  0.963951  0.950271  1
  C  C7  1  0.094745  0.036049  0.049729  1
  Cl  Cl8  1  0.762736  0.917522  0.534920  1
  Cl  Cl9  1  0.237264  0.082478  0.465080  1
  Cl  Cl10  1  0.459496  0.824240  0.080894  1
  Cl  Cl11  1  0.540504  0.175760  0.919106  1
  Cl  Cl12  1  0.823194  0.262284  0.361829  1
  Cl  Cl13  1  0.176806  0.737716  0.638171  1
  Cl  Cl14  1  0.904478  0.628909  0.173958  1
  Cl  Cl15  1  0.095522  0.371091  0.826042  1
  Cl  Cl16  1  0.650508  0.525318  0.714073  1
  Cl  Cl17  1  0.349492  0.474682  0.285927  1
