# generated using pymatgen
data_Nd2(TcB2)3
_symmetry_space_group_name_H-M   'P 1'
_cell_length_a   6.29978482
_cell_length_b   6.29978562
_cell_length_c   7.63104475
_cell_angle_alpha   90.58254241
_cell_angle_beta   90.58253901
_cell_angle_gamma   114.55556179
_symmetry_Int_Tables_number   1
_chemical_formula_structural   Nd2(TcB2)3
_chemical_formula_sum   'Nd4 Tc6 B12'
_cell_volume   275.41614169
_cell_formula_units_Z   2
loop_
 _symmetry_equiv_pos_site_id
 _symmetry_equiv_pos_as_xyz
  1  'x, y, z'
loop_
 _atom_site_type_symbol
 _atom_site_label
 _atom_site_symmetry_multiplicity
 _atom_site_fract_x
 _atom_site_fract_y
 _atom_site_fract_z
 _atom_site_occupancy
  Nd  Nd0  1  0.093223  0.439258  0.326084  1
  Nd  Nd1  1  0.560742  0.906777  0.173916  1
  Nd  Nd2  1  0.906777  0.560742  0.673916  1
  Nd  Nd3  1  0.439258  0.093223  0.826084  1
  Tc  Tc4  1  0.583941  0.416059  0.250000  1
  Tc  Tc5  1  0.416059  0.583941  0.750000  1
  Tc  Tc6  1  0.989295  0.803061  0.088478  1
  Tc  Tc7  1  0.196939  0.010705  0.411522  1
  Tc  Tc8  1  0.010705  0.196939  0.911522  1
  Tc  Tc9  1  0.803061  0.989295  0.588478  1
  B  B10  1  0.240715  0.152318  0.131403  1
  B  B11  1  0.847682  0.759285  0.368597  1
  B  B12  1  0.759285  0.847682  0.868597  1
  B  B13  1  0.152318  0.240715  0.631403  1
  B  B14  1  0.582806  0.157376  0.481714  1
  B  B15  1  0.842624  0.417194  0.018286  1
  B  B16  1  0.417194  0.842624  0.518286  1
  B  B17  1  0.157376  0.582806  0.981714  1
  B  B18  1  0.440932  0.350006  0.532519  1
  B  B19  1  0.649994  0.559068  0.967481  1
  B  B20  1  0.559068  0.649994  0.467481  1
  B  B21  1  0.350006  0.440932  0.032519  1
