# generated using pymatgen
data_U4Ta3TiN8
_symmetry_space_group_name_H-M   'P 1'
_cell_length_a   3.23244900
_cell_length_b   5.61845916
_cell_length_c   11.02299631
_cell_angle_alpha   89.97261328
_cell_angle_beta   90.00000000
_cell_angle_gamma   90.00000000
_symmetry_Int_Tables_number   1
_chemical_formula_structural   U4Ta3TiN8
_chemical_formula_sum   'U4 Ta3 Ti1 N8'
_cell_volume   200.19283165
_cell_formula_units_Z   1
loop_
 _symmetry_equiv_pos_site_id
 _symmetry_equiv_pos_as_xyz
  1  'x, y, z'
loop_
 _atom_site_type_symbol
 _atom_site_label
 _atom_site_symmetry_multiplicity
 _atom_site_fract_x
 _atom_site_fract_y
 _atom_site_fract_z
 _atom_site_occupancy
  U  U0  1  0.250000  0.579922  0.858838  1
  U  U1  1  0.750000  0.422354  0.142454  1
  U  U2  1  0.750000  0.922101  0.354602  1
  U  U3  1  0.250000  0.078475  0.642959  1
  Ta  Ta4  1  0.750000  0.076489  0.898700  1
  Ta  Ta5  1  0.750000  0.576493  0.602605  1
  Ta  Ta6  1  0.250000  0.423885  0.396931  1
  Ti  Ti7  1  0.250000  0.919864  0.101433  1
  N  N8  1  0.250000  0.665109  0.243323  1
  N  N9  1  0.750000  0.336928  0.755341  1
  N  N10  1  0.750000  0.837079  0.745914  1
  N  N11  1  0.250000  0.161191  0.253444  1
  N  N12  1  0.250000  0.759933  0.504021  1
  N  N13  1  0.750000  0.240267  0.495028  1
  N  N14  1  0.750000  0.747739  0.006696  1
  N  N15  1  0.250000  0.252171  0.997712  1
