# generated using pymatgen
data_La7Yb(Si3Pt)4
_symmetry_space_group_name_H-M   'P 1'
_cell_length_a   8.30824400
_cell_length_b   8.30824318
_cell_length_c   8.76863200
_cell_angle_alpha   90.00000000
_cell_angle_beta   90.00000000
_cell_angle_gamma   119.99999529
_symmetry_Int_Tables_number   1
_chemical_formula_structural   La7Yb(Si3Pt)4
_chemical_formula_sum   'La7 Yb1 Si12 Pt4'
_cell_volume   524.18059438
_cell_formula_units_Z   1
loop_
 _symmetry_equiv_pos_site_id
 _symmetry_equiv_pos_as_xyz
  1  'x, y, z'
loop_
 _atom_site_type_symbol
 _atom_site_label
 _atom_site_symmetry_multiplicity
 _atom_site_fract_x
 _atom_site_fract_y
 _atom_site_fract_z
 _atom_site_occupancy
  La  La0  1  0.000000  0.000000  0.750000  1
  La  La1  1  0.500984  0.499016  0.250000  1
  La  La2  1  0.500984  0.001971  0.250000  1
  La  La3  1  0.998029  0.499016  0.250000  1
  La  La4  1  0.499259  0.500741  0.750000  1
  La  La5  1  0.499259  0.998517  0.750000  1
  La  La6  1  0.001483  0.500741  0.750000  1
  Yb  Yb7  1  0.000000  0.000000  0.250000  1
  Si  Si8  1  0.165181  0.834819  0.499812  1
  Si  Si9  1  0.165181  0.330364  0.499812  1
  Si  Si10  1  0.669636  0.834819  0.499812  1
  Si  Si11  1  0.834852  0.165148  0.497681  1
  Si  Si12  1  0.834852  0.669704  0.497681  1
  Si  Si13  1  0.330296  0.165148  0.497681  1
  Si  Si14  1  0.834852  0.165148  0.002319  1
  Si  Si15  1  0.834852  0.669704  0.002319  1
  Si  Si16  1  0.330296  0.165148  0.002319  1
  Si  Si17  1  0.165181  0.834819  0.000188  1
  Si  Si18  1  0.165181  0.330364  0.000188  1
  Si  Si19  1  0.669636  0.834819  0.000188  1
  Pt  Pt20  1  0.333333  0.666667  0.495973  1
  Pt  Pt21  1  0.666667  0.333333  0.503235  1
  Pt  Pt22  1  0.666667  0.333333  0.996765  1
  Pt  Pt23  1  0.333333  0.666667  0.004027  1
