# generated using pymatgen
data_Zr4Co13Ni7P12
_symmetry_space_group_name_H-M   'P 1'
_cell_length_a   3.61852400
_cell_length_b   10.11039501
_cell_length_c   11.79257416
_cell_angle_alpha   90.05099641
_cell_angle_beta   90.00000000
_cell_angle_gamma   90.00000000
_symmetry_Int_Tables_number   1
_chemical_formula_structural   Zr4Co13Ni7P12
_chemical_formula_sum   'Zr4 Co13 Ni7 P12'
_cell_volume   431.42769936
_cell_formula_units_Z   1
loop_
 _symmetry_equiv_pos_site_id
 _symmetry_equiv_pos_as_xyz
  1  'x, y, z'
loop_
 _atom_site_type_symbol
 _atom_site_label
 _atom_site_symmetry_multiplicity
 _atom_site_fract_x
 _atom_site_fract_y
 _atom_site_fract_z
 _atom_site_occupancy
  Zr  Zr0  1  0.250000  0.578978  0.706397  1
  Zr  Zr1  1  0.250000  0.921050  0.204676  1
  Zr  Zr2  1  0.750000  0.421123  0.293508  1
  Zr  Zr3  1  0.750000  0.078481  0.794779  1
  Co  Co4  1  0.750000  0.910526  0.017905  1
  Co  Co5  1  0.250000  0.222162  0.178019  1
  Co  Co6  1  0.250000  0.277940  0.677605  1
  Co  Co7  1  0.750000  0.776796  0.821740  1
  Co  Co8  1  0.750000  0.722597  0.321186  1
  Co  Co9  1  0.250000  0.880804  0.700130  1
  Co  Co10  1  0.250000  0.620080  0.198881  1
  Co  Co11  1  0.750000  0.119693  0.300885  1
  Co  Co12  1  0.750000  0.379663  0.800947  1
  Co  Co13  1  0.250000  0.465788  0.932052  1
  Co  Co14  1  0.250000  0.033705  0.431947  1
  Co  Co15  1  0.750000  0.534226  0.068183  1
  Co  Co16  1  0.750000  0.966365  0.568133  1
  Ni  Ni17  1  0.250000  0.715721  0.992210  1
  Ni  Ni18  1  0.250000  0.783999  0.491334  1
  Ni  Ni19  1  0.750000  0.283455  0.009412  1
  Ni  Ni20  1  0.750000  0.216067  0.508405  1
  Ni  Ni21  1  0.250000  0.410296  0.482728  1
  Ni  Ni22  1  0.250000  0.090498  0.982546  1
  Ni  Ni23  1  0.750000  0.590346  0.517174  1
  P  P24  1  0.250000  0.420713  0.115222  1
  P  P25  1  0.250000  0.079188  0.615144  1
  P  P26  1  0.750000  0.578966  0.885192  1
  P  P27  1  0.750000  0.920723  0.384502  1
  P  P28  1  0.250000  0.266587  0.865392  1
  P  P29  1  0.250000  0.233269  0.365433  1
  P  P30  1  0.750000  0.734825  0.132387  1
  P  P31  1  0.750000  0.767003  0.634615  1
  P  P32  1  0.250000  0.603562  0.385744  1
  P  P33  1  0.250000  0.896347  0.888771  1
  P  P34  1  0.750000  0.396785  0.613667  1
  P  P35  1  0.750000  0.101673  0.113150  1
