# generated using pymatgen
data_Li3Nd3Ag2Os
_symmetry_space_group_name_H-M   'P 1'
_cell_length_a   7.71396100
_cell_length_b   7.71396059
_cell_length_c   4.04020700
_cell_angle_alpha   90.00000000
_cell_angle_beta   90.00000000
_cell_angle_gamma   119.99999749
_symmetry_Int_Tables_number   1
_chemical_formula_structural   Li3Nd3Ag2Os
_chemical_formula_sum   'Li3 Nd3 Ag2 Os1'
_cell_volume   208.20402153
_cell_formula_units_Z   1
loop_
 _symmetry_equiv_pos_site_id
 _symmetry_equiv_pos_as_xyz
  1  'x, y, z'
loop_
 _atom_site_type_symbol
 _atom_site_label
 _atom_site_symmetry_multiplicity
 _atom_site_fract_x
 _atom_site_fract_y
 _atom_site_fract_z
 _atom_site_occupancy
  Li  Li0  1  0.244204  0.996175  0.500000  1
  Li  Li1  1  0.003825  0.248029  0.500000  1
  Li  Li2  1  0.751971  0.755796  0.500000  1
  Nd  Nd3  1  0.570241  0.969598  0.000000  1
  Nd  Nd4  1  0.030402  0.600643  0.000000  1
  Nd  Nd5  1  0.399357  0.429759  0.000000  1
  Ag  Ag6  1  0.666667  0.333333  0.500000  1
  Ag  Ag7  1  0.000000  0.000000  0.000000  1
  Os  Os8  1  0.333333  0.666667  0.500000  1
