# generated using pymatgen
data_Tb5Th3(Sc3Pb4)4
_symmetry_space_group_name_H-M   'P 1'
_cell_length_a   8.01840829
_cell_length_b   8.08530698
_cell_length_c   15.19480100
_cell_angle_alpha   89.97555898
_cell_angle_beta   90.21658869
_cell_angle_gamma   90.01413046
_symmetry_Int_Tables_number   1
_chemical_formula_structural   Tb5Th3(Sc3Pb4)4
_chemical_formula_sum   'Tb5 Th3 Sc12 Pb16'
_cell_volume   985.09143061
_cell_formula_units_Z   1
loop_
 _symmetry_equiv_pos_site_id
 _symmetry_equiv_pos_as_xyz
  1  'x, y, z'
loop_
 _atom_site_type_symbol
 _atom_site_label
 _atom_site_symmetry_multiplicity
 _atom_site_fract_x
 _atom_site_fract_y
 _atom_site_fract_z
 _atom_site_occupancy
  Tb  Tb0  1  0.973035  0.826213  0.096141  1
  Tb  Tb1  1  0.467942  0.676685  0.098540  1
  Tb  Tb2  1  0.969740  0.823896  0.402546  1
  Tb  Tb3  1  0.532985  0.323983  0.597780  1
  Tb  Tb4  1  0.034145  0.175408  0.902191  1
  Th  Th5  1  0.522707  0.324023  0.905182  1
  Th  Th6  1  0.023019  0.174153  0.595814  1
  Th  Th7  1  0.475923  0.676361  0.402932  1
  Sc  Sc8  1  0.365564  0.844071  0.875772  1
  Sc  Sc9  1  0.863367  0.655281  0.625210  1
  Sc  Sc10  1  0.637844  0.155374  0.374540  1
  Sc  Sc11  1  0.135444  0.344431  0.125025  1
  Sc  Sc12  1  0.637009  0.158221  0.124652  1
  Sc  Sc13  1  0.138853  0.343871  0.374418  1
  Sc  Sc14  1  0.360411  0.840956  0.624421  1
  Sc  Sc15  1  0.861262  0.658444  0.876301  1
  Sc  Sc16  1  0.194684  0.504050  0.750120  1
  Sc  Sc17  1  0.695415  0.995026  0.750789  1
  Sc  Sc18  1  0.804669  0.494816  0.249430  1
  Sc  Sc19  1  0.305034  0.003959  0.249290  1
  Pb  Pb20  1  0.297229  0.043693  0.044405  1
  Pb  Pb21  1  0.800925  0.453448  0.456351  1
  Pb  Pb22  1  0.698090  0.951909  0.543420  1
  Pb  Pb23  1  0.198470  0.547025  0.956718  1
  Pb  Pb24  1  0.708712  0.961104  0.955045  1
  Pb  Pb25  1  0.205284  0.538230  0.545824  1
  Pb  Pb26  1  0.296435  0.041106  0.453626  1
  Pb  Pb27  1  0.795983  0.462869  0.046531  1
  Pb  Pb28  1  0.556264  0.635649  0.750609  1
  Pb  Pb29  1  0.056419  0.863138  0.750060  1
  Pb  Pb30  1  0.442850  0.364587  0.250385  1
  Pb  Pb31  1  0.943881  0.135036  0.250000  1
  Pb  Pb32  1  0.339998  0.147959  0.746584  1
  Pb  Pb33  1  0.839054  0.351357  0.753260  1
  Pb  Pb34  1  0.664498  0.851348  0.246273  1
  Pb  Pb35  1  0.156856  0.652320  0.249816  1
