# generated using pymatgen
data_PrHoSe2
_symmetry_space_group_name_H-M   'P 1'
_cell_length_a   7.34606383
_cell_length_b   7.34606362
_cell_length_c   7.34606411
_cell_angle_alpha   32.57425279
_cell_angle_beta   32.57425321
_cell_angle_gamma   32.57425568
_symmetry_Int_Tables_number   1
_chemical_formula_structural   PrHoSe2
_chemical_formula_sum   'Pr1 Ho1 Se2'
_cell_volume   102.19080938
_cell_formula_units_Z   1
loop_
 _symmetry_equiv_pos_site_id
 _symmetry_equiv_pos_as_xyz
  1  'x, y, z'
loop_
 _atom_site_type_symbol
 _atom_site_label
 _atom_site_symmetry_multiplicity
 _atom_site_fract_x
 _atom_site_fract_y
 _atom_site_fract_z
 _atom_site_occupancy
  Pr  Pr0  1  0.500000  0.500000  0.500000  1
  Ho  Ho1  1  0.000000  0.000000  0.000000  1
  Se  Se2  1  0.743414  0.743414  0.743414  1
  Se  Se3  1  0.256586  0.256586  0.256586  1
