# generated using pymatgen
data_Dy2Er4GaCoRu
_symmetry_space_group_name_H-M   'P 1'
_cell_length_a   8.26335752
_cell_length_b   8.26185921
_cell_length_c   8.26335887
_cell_angle_alpha   105.46913058
_cell_angle_beta   110.60401229
_cell_angle_gamma   112.42608332
_symmetry_Int_Tables_number   1
_chemical_formula_structural   Dy2Er4GaCoRu
_chemical_formula_sum   'Dy4 Er8 Ga2 Co2 Ru2'
_cell_volume   432.54633840
_cell_formula_units_Z   2
loop_
 _symmetry_equiv_pos_site_id
 _symmetry_equiv_pos_as_xyz
  1  'x, y, z'
loop_
 _atom_site_type_symbol
 _atom_site_label
 _atom_site_symmetry_multiplicity
 _atom_site_fract_x
 _atom_site_fract_y
 _atom_site_fract_z
 _atom_site_occupancy
  Dy  Dy0  1  0.693749  0.254952  0.948644  1
  Dy  Dy1  1  0.306251  0.745048  0.051356  1
  Dy  Dy2  1  0.693692  0.745048  0.438798  1
  Dy  Dy3  1  0.306308  0.254952  0.561202  1
  Er  Er4  1  0.815349  0.140194  0.324843  1
  Er  Er5  1  0.815305  0.490550  0.675245  1
  Er  Er6  1  0.184651  0.859806  0.675157  1
  Er  Er7  1  0.184695  0.509450  0.324755  1
  Er  Er8  1  0.601073  0.780757  0.820220  1
  Er  Er9  1  0.960536  0.780757  0.179684  1
  Er  Er10  1  0.039464  0.219243  0.820316  1
  Er  Er11  1  0.398927  0.219243  0.179780  1
  Ga  Ga12  1  0.500000  0.500000  0.000000  1
  Ga  Ga13  1  0.500000  0.000000  0.500000  1
  Co  Co14  1  0.999968  0.112988  0.113020  1
  Co  Co15  1  0.000032  0.887012  0.886980  1
  Ru  Ru16  1  0.826989  0.500000  0.326989  1
  Ru  Ru17  1  0.173011  0.500000  0.673011  1
