# generated using pymatgen
data_HoEr14Th(InRh)4
_symmetry_space_group_name_H-M   'P 1'
_cell_length_a   9.61184283
_cell_length_b   9.61339333
_cell_length_c   9.61026605
_cell_angle_alpha   60.01647049
_cell_angle_beta   60.01745652
_cell_angle_gamma   59.59055018
_symmetry_Int_Tables_number   1
_chemical_formula_structural   HoEr14Th(InRh)4
_chemical_formula_sum   'Ho1 Er14 Th1 In4 Rh4'
_cell_volume   626.11264987
_cell_formula_units_Z   1
loop_
 _symmetry_equiv_pos_site_id
 _symmetry_equiv_pos_as_xyz
  1  'x, y, z'
loop_
 _atom_site_type_symbol
 _atom_site_label
 _atom_site_symmetry_multiplicity
 _atom_site_fract_x
 _atom_site_fract_y
 _atom_site_fract_z
 _atom_site_occupancy
  Ho  Ho0  1  0.440157  0.059935  0.062451  1
  Er  Er1  1  0.440250  0.059828  0.437706  1
  Er  Er2  1  0.059670  0.440404  0.062410  1
  Er  Er3  1  0.653634  0.050352  0.647971  1
  Er  Er4  1  0.187901  0.806456  0.812080  1
  Er  Er5  1  0.063586  0.063800  0.436403  1
  Er  Er6  1  0.806436  0.187918  0.193564  1
  Er  Er7  1  0.811129  0.810869  0.188997  1
  Er  Er8  1  0.650112  0.649965  0.048178  1
  Er  Er9  1  0.650043  0.650014  0.651719  1
  Er  Er10  1  0.059834  0.440268  0.437516  1
  Er  Er11  1  0.050347  0.653569  0.648078  1
  Er  Er12  1  0.806650  0.187905  0.811932  1
  Er  Er13  1  0.436596  0.436764  0.063411  1
  Er  Er14  1  0.187820  0.806395  0.193569  1
  Th  Th15  1  0.185865  0.185963  0.813981  1
  In  In16  1  0.418278  0.748836  0.416527  1
  In  In17  1  0.418094  0.418261  0.750178  1
  In  In18  1  0.749070  0.418227  0.416349  1
  In  In19  1  0.418088  0.418044  0.413444  1
  Rh  Rh20  1  0.870449  0.423006  0.853273  1
  Rh  Rh21  1  0.856447  0.856456  0.428309  1
  Rh  Rh22  1  0.422917  0.870364  0.853216  1
  Rh  Rh23  1  0.856628  0.856400  0.858740  1
