# generated using pymatgen
data_Cs9K11(SiAs3)4
_symmetry_space_group_name_H-M   'P 1'
_cell_length_a   5.47736100
_cell_length_b   15.17982685
_cell_length_c   16.16045633
_cell_angle_alpha   90.24426383
_cell_angle_beta   90.00000000
_cell_angle_gamma   90.00000000
_symmetry_Int_Tables_number   1
_chemical_formula_structural   Cs9K11(SiAs3)4
_chemical_formula_sum   'Cs9 K11 Si4 As12'
_cell_volume   1343.65525903
_cell_formula_units_Z   1
loop_
 _symmetry_equiv_pos_site_id
 _symmetry_equiv_pos_as_xyz
  1  'x, y, z'
loop_
 _atom_site_type_symbol
 _atom_site_label
 _atom_site_symmetry_multiplicity
 _atom_site_fract_x
 _atom_site_fract_y
 _atom_site_fract_z
 _atom_site_occupancy
  Cs  Cs0  1  0.250000  0.945685  0.306978  1
  Cs  Cs1  1  0.750000  0.052236  0.694400  1
  Cs  Cs2  1  0.750000  0.449962  0.184580  1
  Cs  Cs3  1  0.250000  0.551714  0.813077  1
  Cs  Cs4  1  0.250000  0.135676  0.516281  1
  Cs  Cs5  1  0.750000  0.860988  0.487107  1
  Cs  Cs6  1  0.750000  0.640376  0.985181  1
  Cs  Cs7  1  0.250000  0.362016  0.016004  1
  Cs  Cs8  1  0.250000  0.429402  0.558349  1
  K  K9  1  0.750000  0.572654  0.431993  1
  K  K10  1  0.750000  0.928725  0.934439  1
  K  K11  1  0.250000  0.072474  0.065276  1
  K  K12  1  0.250000  0.828832  0.087003  1
  K  K13  1  0.750000  0.174472  0.910708  1
  K  K14  1  0.750000  0.323866  0.406422  1
  K  K15  1  0.250000  0.674476  0.595377  1
  K  K16  1  0.250000  0.231246  0.254043  1
  K  K17  1  0.750000  0.767299  0.745102  1
  K  K18  1  0.750000  0.733806  0.243021  1
  K  K19  1  0.250000  0.268089  0.759864  1
  Si  Si20  1  0.250000  0.588746  0.287698  1
  Si  Si21  1  0.750000  0.411156  0.712824  1
  Si  Si22  1  0.750000  0.087504  0.207819  1
  Si  Si23  1  0.250000  0.912184  0.792241  1
  As  As24  1  0.250000  0.614994  0.145939  1
  As  As25  1  0.750000  0.391852  0.856013  1
  As  As26  1  0.750000  0.107433  0.351246  1
  As  As27  1  0.250000  0.892335  0.648860  1
  As  As28  1  0.250000  0.444824  0.336134  1
  As  As29  1  0.750000  0.553100  0.656914  1
  As  As30  1  0.750000  0.947119  0.149145  1
  As  As31  1  0.250000  0.052230  0.851737  1
  As  As32  1  0.250000  0.705851  0.381991  1
  As  As33  1  0.750000  0.287218  0.626700  1
  As  As34  1  0.750000  0.209543  0.121031  1
  As  As35  1  0.250000  0.789914  0.878504  1
