# generated using pymatgen
data_NdHo3(NiAs)4
_symmetry_space_group_name_H-M   'P 1'
_cell_length_a   4.05516800
_cell_length_b   4.05516893
_cell_length_c   15.65383300
_cell_angle_alpha   90.00000000
_cell_angle_beta   90.00000000
_cell_angle_gamma   120.00000874
_symmetry_Int_Tables_number   1
_chemical_formula_structural   NdHo3(NiAs)4
_chemical_formula_sum   'Nd1 Ho3 Ni4 As4'
_cell_volume   222.93029543
_cell_formula_units_Z   1
loop_
 _symmetry_equiv_pos_site_id
 _symmetry_equiv_pos_as_xyz
  1  'x, y, z'
loop_
 _atom_site_type_symbol
 _atom_site_label
 _atom_site_symmetry_multiplicity
 _atom_site_fract_x
 _atom_site_fract_y
 _atom_site_fract_z
 _atom_site_occupancy
  Nd  Nd0  1  0.000000  0.000000  0.000000  1
  Ho  Ho1  1  0.000000  0.000000  0.253656  1
  Ho  Ho2  1  0.000000  0.000000  0.746344  1
  Ho  Ho3  1  0.000000  0.000000  0.500000  1
  Ni  Ni4  1  0.333333  0.666667  0.141498  1
  Ni  Ni5  1  0.666667  0.333333  0.858502  1
  Ni  Ni6  1  0.666667  0.333333  0.630682  1
  Ni  Ni7  1  0.333333  0.666667  0.369318  1
  As  As8  1  0.333333  0.666667  0.619273  1
  As  As9  1  0.666667  0.333333  0.380727  1
  As  As10  1  0.666667  0.333333  0.127966  1
  As  As11  1  0.333333  0.666667  0.872034  1
