# generated using pymatgen
data_ErTmB8MoIr
_symmetry_space_group_name_H-M   'P 1'
_cell_length_a   3.57344700
_cell_length_b   5.97369150
_cell_length_c   11.57067320
_cell_angle_alpha   89.67509878
_cell_angle_beta   90.00000000
_cell_angle_gamma   90.00000000
_symmetry_Int_Tables_number   1
_chemical_formula_structural   ErTmB8MoIr
_chemical_formula_sum   'Er2 Tm2 B16 Mo2 Ir2'
_cell_volume   246.99137100
_cell_formula_units_Z   2
loop_
 _symmetry_equiv_pos_site_id
 _symmetry_equiv_pos_as_xyz
  1  'x, y, z'
loop_
 _atom_site_type_symbol
 _atom_site_label
 _atom_site_symmetry_multiplicity
 _atom_site_fract_x
 _atom_site_fract_y
 _atom_site_fract_z
 _atom_site_occupancy
  Er  Er0  1  0.000000  0.129276  0.148882  1
  Er  Er1  1  0.000000  0.870724  0.851118  1
  Tm  Tm2  1  0.000000  0.627045  0.350003  1
  Tm  Tm3  1  0.000000  0.372955  0.649997  1
  B  B4  1  0.500000  0.789024  0.186337  1
  B  B5  1  0.500000  0.210976  0.813663  1
  B  B6  1  0.500000  0.290584  0.312021  1
  B  B7  1  0.500000  0.709416  0.687979  1
  B  B8  1  0.500000  0.864583  0.030433  1
  B  B9  1  0.500000  0.135417  0.969567  1
  B  B10  1  0.500000  0.367958  0.467795  1
  B  B11  1  0.500000  0.632042  0.532205  1
  B  B12  1  0.500000  0.884795  0.452999  1
  B  B13  1  0.500000  0.115205  0.547001  1
  B  B14  1  0.500000  0.386636  0.047214  1
  B  B15  1  0.500000  0.613364  0.952786  1
  B  B16  1  0.500000  0.975484  0.305517  1
  B  B17  1  0.500000  0.024516  0.694483  1
  B  B18  1  0.500000  0.474448  0.191761  1
  B  B19  1  0.500000  0.525552  0.808239  1
  Mo  Mo20  1  0.000000  0.128540  0.413948  1
  Mo  Mo21  1  0.000000  0.871460  0.586052  1
  Ir  Ir22  1  0.000000  0.645092  0.095072  1
  Ir  Ir23  1  0.000000  0.354908  0.904928  1
