# generated using pymatgen
data_Y8Er12(Bi3Sb)3
_symmetry_space_group_name_H-M   'P 1'
_cell_length_a   8.16629059
_cell_length_b   9.40415600
_cell_length_c   11.98668900
_cell_angle_alpha   90.00000000
_cell_angle_beta   90.03577526
_cell_angle_gamma   90.00000000
_symmetry_Int_Tables_number   1
_chemical_formula_structural   Y8Er12(Bi3Sb)3
_chemical_formula_sum   'Y8 Er12 Bi9 Sb3'
_cell_volume   920.54242276
_cell_formula_units_Z   1
loop_
 _symmetry_equiv_pos_site_id
 _symmetry_equiv_pos_as_xyz
  1  'x, y, z'
loop_
 _atom_site_type_symbol
 _atom_site_label
 _atom_site_symmetry_multiplicity
 _atom_site_fract_x
 _atom_site_fract_y
 _atom_site_fract_z
 _atom_site_occupancy
  Y  Y0  1  0.183240  0.750000  0.717901  1
  Y  Y1  1  0.682662  0.750000  0.781825  1
  Y  Y2  1  0.812482  0.250000  0.278941  1
  Y  Y3  1  0.318389  0.250000  0.216470  1
  Y  Y4  1  0.352642  0.750000  0.213722  1
  Y  Y5  1  0.852996  0.750000  0.285890  1
  Y  Y6  1  0.647211  0.250000  0.786012  1
  Y  Y7  1  0.148088  0.250000  0.716821  1
  Er  Er8  1  0.026912  0.750000  0.988988  1
  Er  Er9  1  0.527793  0.750000  0.511630  1
  Er  Er10  1  0.973560  0.250000  0.010873  1
  Er  Er11  1  0.476445  0.250000  0.489012  1
  Er  Er12  1  0.311778  0.436565  0.942350  1
  Er  Er13  1  0.809023  0.061139  0.559478  1
  Er  Er14  1  0.688433  0.936059  0.057922  1
  Er  Er15  1  0.189666  0.567248  0.442068  1
  Er  Er16  1  0.688433  0.563941  0.057922  1
  Er  Er17  1  0.189666  0.932752  0.442068  1
  Er  Er18  1  0.311778  0.063435  0.942350  1
  Er  Er19  1  0.809023  0.438861  0.559478  1
  Bi  Bi20  1  0.433449  0.003978  0.672594  1
  Bi  Bi21  1  0.933574  0.496490  0.827672  1
  Bi  Bi22  1  0.565974  0.504407  0.327627  1
  Bi  Bi23  1  0.066294  0.996308  0.172479  1
  Bi  Bi24  1  0.565974  0.995593  0.327627  1
  Bi  Bi25  1  0.066294  0.503692  0.172479  1
  Bi  Bi26  1  0.433449  0.496022  0.672594  1
  Bi  Bi27  1  0.933574  0.003510  0.827672  1
  Bi  Bi28  1  0.093812  0.250000  0.456936  1
  Sb  Sb29  1  0.405881  0.750000  0.958332  1
  Sb  Sb30  1  0.906548  0.750000  0.541247  1
  Sb  Sb31  1  0.594956  0.250000  0.041017  1
