# generated using pymatgen
data_Lu4B16Ru13Rh3
_symmetry_space_group_name_H-M   'P 1'
_cell_length_a   9.19701949
_cell_length_b   7.45252076
_cell_length_c   7.45972641
_cell_angle_alpha   89.98421592
_cell_angle_beta   114.02965456
_cell_angle_gamma   114.13066061
_symmetry_Int_Tables_number   1
_chemical_formula_structural   Lu4B16Ru13Rh3
_chemical_formula_sum   'Lu4 B16 Ru13 Rh3'
_cell_volume   417.62015509
_cell_formula_units_Z   1
loop_
 _symmetry_equiv_pos_site_id
 _symmetry_equiv_pos_as_xyz
  1  'x, y, z'
loop_
 _atom_site_type_symbol
 _atom_site_label
 _atom_site_symmetry_multiplicity
 _atom_site_fract_x
 _atom_site_fract_y
 _atom_site_fract_z
 _atom_site_occupancy
  Lu  Lu0  1  0.749852  0.874917  0.124248  1
  Lu  Lu1  1  0.251312  0.625683  0.374658  1
  Lu  Lu2  1  0.749577  0.375734  0.625063  1
  Lu  Lu3  1  0.248149  0.123644  0.874026  1
  B  B4  1  0.910928  0.282398  0.070115  1
  B  B5  1  0.414686  0.563266  0.125433  1
  B  B6  1  0.088323  0.217257  0.157518  1
  B  B7  1  0.588503  0.157233  0.211980  1
  B  B8  1  0.418027  0.071465  0.294359  1
  B  B9  1  0.913162  0.624789  0.353192  1
  B  B10  1  0.586319  0.653165  0.374859  1
  B  B11  1  0.085866  0.875643  0.439209  1
  B  B12  1  0.913187  0.125186  0.566436  1
  B  B13  1  0.413030  0.345640  0.623380  1
  B  B14  1  0.087362  0.374680  0.655641  1
  B  B15  1  0.588306  0.932806  0.711757  1
  B  B16  1  0.413912  0.843251  0.783606  1
  B  B17  1  0.911469  0.789138  0.842059  1
  B  B18  1  0.582269  0.430115  0.874570  1
  B  B19  1  0.083252  0.708089  0.925695  1
  Ru  Ru20  1  0.627362  0.462978  0.176442  1
  Ru  Ru21  1  0.372007  0.334576  0.320215  1
  Ru  Ru22  1  0.873762  0.323084  0.337525  1
  Ru  Ru23  1  0.625434  0.962957  0.447399  1
  Ru  Ru24  1  0.126765  0.177168  0.462450  1
  Ru  Ru25  1  0.873103  0.823187  0.536984  1
  Ru  Ru26  1  0.371547  0.034909  0.550214  1
  Ru  Ru27  1  0.128825  0.678233  0.664606  1
  Ru  Ru28  1  0.624730  0.662905  0.676161  1
  Ru  Ru29  1  0.373801  0.536905  0.823987  1
  Ru  Ru30  1  0.873106  0.053376  0.835993  1
  Ru  Ru31  1  0.627694  0.165328  0.948216  1
  Ru  Ru32  1  0.129127  0.450136  0.965279  1
  Rh  Rh33  1  0.876476  0.552785  0.036187  1
  Rh  Rh34  1  0.376183  0.840695  0.051150  1
  Rh  Rh35  1  0.122589  0.946681  0.159383  1
