# generated using pymatgen
data_Rb2NaErSb2
_symmetry_space_group_name_H-M   'P 1'
_cell_length_a   11.33357674
_cell_length_b   11.33357670
_cell_length_c   7.45263700
_cell_angle_alpha   90.00000000
_cell_angle_beta   90.00000000
_cell_angle_gamma   98.60825918
_symmetry_Int_Tables_number   1
_chemical_formula_structural   Rb2NaErSb2
_chemical_formula_sum   'Rb8 Na4 Er4 Sb8'
_cell_volume   946.50687454
_cell_formula_units_Z   4
loop_
 _symmetry_equiv_pos_site_id
 _symmetry_equiv_pos_as_xyz
  1  'x, y, z'
loop_
 _atom_site_type_symbol
 _atom_site_label
 _atom_site_symmetry_multiplicity
 _atom_site_fract_x
 _atom_site_fract_y
 _atom_site_fract_z
 _atom_site_occupancy
  Rb  Rb0  1  0.071468  0.428532  0.250000  1
  Rb  Rb1  1  0.428532  0.071468  0.750000  1
  Rb  Rb2  1  0.928532  0.571468  0.750000  1
  Rb  Rb3  1  0.571468  0.928532  0.250000  1
  Rb  Rb4  1  0.675944  0.324056  0.216104  1
  Rb  Rb5  1  0.824056  0.175944  0.716104  1
  Rb  Rb6  1  0.324056  0.675944  0.783896  1
  Rb  Rb7  1  0.175944  0.824056  0.283896  1
  Na  Na8  1  0.381363  0.381363  0.000000  1
  Na  Na9  1  0.118637  0.118637  0.500000  1
  Na  Na10  1  0.618637  0.618637  0.000000  1
  Na  Na11  1  0.881363  0.881363  0.500000  1
  Er  Er12  1  0.130689  0.130689  0.000000  1
  Er  Er13  1  0.369311  0.369311  0.500000  1
  Er  Er14  1  0.869311  0.869311  0.000000  1
  Er  Er15  1  0.630689  0.630689  0.500000  1
  Sb  Sb16  1  0.846302  0.653697  0.250000  1
  Sb  Sb17  1  0.653697  0.846302  0.750000  1
  Sb  Sb18  1  0.153697  0.346302  0.750000  1
  Sb  Sb19  1  0.346302  0.153697  0.250000  1
  Sb  Sb20  1  0.899730  0.100270  0.210654  1
  Sb  Sb21  1  0.600270  0.399730  0.710654  1
  Sb  Sb22  1  0.100270  0.899730  0.789346  1
  Sb  Sb23  1  0.399730  0.600270  0.289346  1
