# generated using pymatgen
data_ZrSc5As6
_symmetry_space_group_name_H-M   'P 1'
_cell_length_a   5.49384694
_cell_length_b   8.66124540
_cell_length_c   5.49309300
_cell_angle_alpha   90.00000000
_cell_angle_beta   90.00000000
_cell_angle_gamma   108.69302013
_symmetry_Int_Tables_number   1
_chemical_formula_structural   ZrSc5As6
_chemical_formula_sum   'Zr1 Sc5 As6'
_cell_volume   247.59288329
_cell_formula_units_Z   1
loop_
 _symmetry_equiv_pos_site_id
 _symmetry_equiv_pos_as_xyz
  1  'x, y, z'
loop_
 _atom_site_type_symbol
 _atom_site_label
 _atom_site_symmetry_multiplicity
 _atom_site_fract_x
 _atom_site_fract_y
 _atom_site_fract_z
 _atom_site_occupancy
  Zr  Zr0  1  0.528367  0.860878  0.500000  1
  Sc  Sc1  1  0.694107  0.195179  0.000000  1
  Sc  Sc2  1  0.361953  0.527659  0.000000  1
  Sc  Sc3  1  0.029123  0.861093  0.000000  1
  Sc  Sc4  1  0.193054  0.194723  0.500000  1
  Sc  Sc5  1  0.860195  0.527210  0.500000  1
  As  As6  1  0.193571  0.194079  0.000000  1
  As  As7  1  0.862141  0.528335  0.000000  1
  As  As8  1  0.529185  0.861404  0.000000  1
  As  As9  1  0.692687  0.194265  0.500000  1
  As  As10  1  0.360519  0.527524  0.500000  1
  As  As11  1  0.028305  0.860957  0.500000  1
