# generated using pymatgen
data_Eu4Ga18AgIr5
_symmetry_space_group_name_H-M   'P 1'
_cell_length_a   7.63883848
_cell_length_b   7.63883802
_cell_length_c   9.75987264
_cell_angle_alpha   90.08283547
_cell_angle_beta   90.08283658
_cell_angle_gamma   119.17155703
_symmetry_Int_Tables_number   1
_chemical_formula_structural   Eu4Ga18AgIr5
_chemical_formula_sum   'Eu4 Ga18 Ag1 Ir5'
_cell_volume   497.27074041
_cell_formula_units_Z   1
loop_
 _symmetry_equiv_pos_site_id
 _symmetry_equiv_pos_as_xyz
  1  'x, y, z'
loop_
 _atom_site_type_symbol
 _atom_site_label
 _atom_site_symmetry_multiplicity
 _atom_site_fract_x
 _atom_site_fract_y
 _atom_site_fract_z
 _atom_site_occupancy
  Eu  Eu0  1  0.001403  0.323962  0.750915  1
  Eu  Eu1  1  0.998597  0.676038  0.249085  1
  Eu  Eu2  1  0.323962  0.001403  0.750915  1
  Eu  Eu3  1  0.676038  0.998597  0.249085  1
  Ga  Ga4  1  0.654744  0.654744  0.433417  1
  Ga  Ga5  1  0.332969  0.332969  0.942091  1
  Ga  Ga6  1  0.667031  0.667031  0.057909  1
  Ga  Ga7  1  0.345256  0.345256  0.566583  1
  Ga  Ga8  1  0.003738  0.346171  0.419527  1
  Ga  Ga9  1  0.000012  0.663667  0.925539  1
  Ga  Ga10  1  0.336333  0.999988  0.074461  1
  Ga  Ga11  1  0.653829  0.996262  0.580473  1
  Ga  Ga12  1  0.996262  0.653829  0.580473  1
  Ga  Ga13  1  0.999988  0.336333  0.074461  1
  Ga  Ga14  1  0.663667  0.000012  0.925539  1
  Ga  Ga15  1  0.346171  0.003738  0.419527  1
  Ga  Ga16  1  0.139190  0.139190  0.243689  1
  Ga  Ga17  1  0.860810  0.860810  0.756311  1
  Ga  Ga18  1  0.662634  0.451728  0.750997  1
  Ga  Ga19  1  0.337366  0.548272  0.249003  1
  Ga  Ga20  1  0.451728  0.662634  0.750997  1
  Ga  Ga21  1  0.548272  0.337366  0.249003  1
  Ag  Ag22  1  0.000000  0.000000  0.500000  1
  Ir  Ir23  1  0.000000  0.000000  0.000000  1
  Ir  Ir24  1  0.671188  0.328812  0.500000  1
  Ir  Ir25  1  0.330411  0.669589  0.000000  1
  Ir  Ir26  1  0.328812  0.671188  0.500000  1
  Ir  Ir27  1  0.669589  0.330411  0.000000  1
