# generated using pymatgen
data_CaTb5HoCoI12
_symmetry_space_group_name_H-M   'P 1'
_cell_length_a   9.73767535
_cell_length_b   9.81058309
_cell_length_c   9.79701292
_cell_angle_alpha   106.82433645
_cell_angle_beta   106.94313896
_cell_angle_gamma   106.85072399
_symmetry_Int_Tables_number   1
_chemical_formula_structural   CaTb5HoCoI12
_chemical_formula_sum   'Ca1 Tb5 Ho1 Co1 I12'
_cell_volume   782.14174780
_cell_formula_units_Z   1
loop_
 _symmetry_equiv_pos_site_id
 _symmetry_equiv_pos_as_xyz
  1  'x, y, z'
loop_
 _atom_site_type_symbol
 _atom_site_label
 _atom_site_symmetry_multiplicity
 _atom_site_fract_x
 _atom_site_fract_y
 _atom_site_fract_z
 _atom_site_occupancy
  Ca  Ca0  1  0.499844  0.499948  0.500092  1
  Tb  Tb1  1  0.096140  0.296287  0.023933  1
  Tb  Tb2  1  0.282229  0.022692  0.091811  1
  Tb  Tb3  1  0.976785  0.903829  0.703216  1
  Tb  Tb4  1  0.903933  0.703886  0.976277  1
  Tb  Tb5  1  0.718016  0.977638  0.909291  1
  Ho  Ho6  1  0.023209  0.095457  0.293662  1
  Co  Co7  1  0.000035  0.999849  0.999677  1
  I  I8  1  0.148000  0.454860  0.378108  1
  I  I9  1  0.457242  0.376694  0.150435  1
  I  I10  1  0.376638  0.149218  0.455009  1
  I  I11  1  0.850894  0.542989  0.622064  1
  I  I12  1  0.542833  0.623334  0.849845  1
  I  I13  1  0.621357  0.850589  0.545121  1
  I  I14  1  0.680977  0.072564  0.223830  1
  I  I15  1  0.072516  0.223942  0.677758  1
  I  I16  1  0.226602  0.680747  0.073841  1
  I  I17  1  0.321424  0.928051  0.777934  1
  I  I18  1  0.927916  0.778179  0.321702  1
  I  I19  1  0.773409  0.319247  0.926395  1
