# generated using pymatgen
data_Tb2Mn3P7(Ir2W)3
_symmetry_space_group_name_H-M   'P 1'
_cell_length_a   9.44051600
_cell_length_b   9.44051628
_cell_length_c   3.89387800
_cell_angle_alpha   90.00000000
_cell_angle_beta   90.00000000
_cell_angle_gamma   119.99999903
_symmetry_Int_Tables_number   1
_chemical_formula_structural   Tb2Mn3P7(Ir2W)3
_chemical_formula_sum   'Tb2 Mn3 P7 Ir6 W3'
_cell_volume   300.54150324
_cell_formula_units_Z   1
loop_
 _symmetry_equiv_pos_site_id
 _symmetry_equiv_pos_as_xyz
  1  'x, y, z'
loop_
 _atom_site_type_symbol
 _atom_site_label
 _atom_site_symmetry_multiplicity
 _atom_site_fract_x
 _atom_site_fract_y
 _atom_site_fract_z
 _atom_site_occupancy
  Tb  Tb0  1  0.666667  0.333333  0.000000  1
  Tb  Tb1  1  0.333333  0.666667  0.500000  1
  Mn  Mn2  1  0.268100  0.109672  0.000000  1
  Mn  Mn3  1  0.841571  0.731900  0.000000  1
  Mn  Mn4  1  0.890328  0.158429  0.000000  1
  P  P5  1  0.297618  0.890628  0.000000  1
  P  P6  1  0.593010  0.702382  0.000000  1
  P  P7  1  0.109372  0.406990  0.000000  1
  P  P8  1  0.397547  0.276881  0.500000  1
  P  P9  1  0.879335  0.602453  0.500000  1
  P  P10  1  0.723119  0.120665  0.500000  1
  P  P11  1  0.000000  0.000000  0.000000  1
  Ir  Ir12  1  0.067954  0.636030  0.000000  1
  Ir  Ir13  1  0.568077  0.932046  0.000000  1
  Ir  Ir14  1  0.363970  0.431923  0.000000  1
  Ir  Ir15  1  0.444894  0.057589  0.500000  1
  Ir  Ir16  1  0.612696  0.555106  0.500000  1
  Ir  Ir17  1  0.942411  0.387304  0.500000  1
  W  W18  1  0.095138  0.885894  0.500000  1
  W  W19  1  0.790756  0.904862  0.500000  1
  W  W20  1  0.114106  0.209244  0.500000  1
