# generated using pymatgen
data_Pr10GaSi3Pb2
_symmetry_space_group_name_H-M   'P 1'
_cell_length_a   8.06122390
_cell_length_b   8.06122538
_cell_length_c   9.25724327
_cell_angle_alpha   115.69704739
_cell_angle_beta   115.69704696
_cell_angle_gamma   90.23534053
_symmetry_Int_Tables_number   1
_chemical_formula_structural   Pr10GaSi3Pb2
_chemical_formula_sum   'Pr10 Ga1 Si3 Pb2'
_cell_volume   474.58943433
_cell_formula_units_Z   1
loop_
 _symmetry_equiv_pos_site_id
 _symmetry_equiv_pos_as_xyz
  1  'x, y, z'
loop_
 _atom_site_type_symbol
 _atom_site_label
 _atom_site_symmetry_multiplicity
 _atom_site_fract_x
 _atom_site_fract_y
 _atom_site_fract_z
 _atom_site_occupancy
  Pr  Pr0  1  0.497358  0.496573  0.000000  1
  Pr  Pr1  1  0.003427  0.002642  0.000000  1
  Pr  Pr2  1  0.975985  0.806759  0.282744  1
  Pr  Pr3  1  0.309953  0.471441  0.281394  1
  Pr  Pr4  1  0.812482  0.315930  0.278054  1
  Pr  Pr5  1  0.462123  0.965571  0.278054  1
  Pr  Pr6  1  0.028559  0.190047  0.718606  1
  Pr  Pr7  1  0.693241  0.524015  0.717256  1
  Pr  Pr8  1  0.184070  0.687518  0.721946  1
  Pr  Pr9  1  0.534429  0.037877  0.721946  1
  Ga  Ga10  1  0.622607  0.877393  0.000000  1
  Si  Si11  1  0.378770  0.121230  0.000000  1
  Si  Si12  1  0.880768  0.380605  0.000000  1
  Si  Si13  1  0.119395  0.619232  0.000000  1
  Pb  Pb14  1  0.748417  0.751583  0.500000  1
  Pb  Pb15  1  0.248417  0.251583  0.500000  1
