# generated using pymatgen
data_SnSb(PO4)3
_symmetry_space_group_name_H-M   'P 1'
_cell_length_a   9.05325472
_cell_length_b   9.05325422
_cell_length_c   9.05325437
_cell_angle_alpha   55.48805922
_cell_angle_beta   55.48806033
_cell_angle_gamma   55.48806010
_symmetry_Int_Tables_number   1
_chemical_formula_structural   SnSb(PO4)3
_chemical_formula_sum   'Sn2 Sb2 P6 O24'
_cell_volume   469.71720113
_cell_formula_units_Z   2
loop_
 _symmetry_equiv_pos_site_id
 _symmetry_equiv_pos_as_xyz
  1  'x, y, z'
loop_
 _atom_site_type_symbol
 _atom_site_label
 _atom_site_symmetry_multiplicity
 _atom_site_fract_x
 _atom_site_fract_y
 _atom_site_fract_z
 _atom_site_occupancy
  Sn  Sn0  1  0.143134  0.143134  0.143134  1
  Sn  Sn1  1  0.856866  0.856866  0.856866  1
  Sb  Sb2  1  0.348547  0.348547  0.348547  1
  Sb  Sb3  1  0.651453  0.651453  0.651453  1
  P  P4  1  0.747862  0.041260  0.458648  1
  P  P5  1  0.041260  0.458648  0.747862  1
  P  P6  1  0.458648  0.747862  0.041260  1
  P  P7  1  0.541352  0.252138  0.958740  1
  P  P8  1  0.958740  0.541352  0.252138  1
  P  P9  1  0.252138  0.958740  0.541352  1
  O  O10  1  0.218140  0.157923  0.523170  1
  O  O11  1  0.523170  0.218140  0.157923  1
  O  O12  1  0.157923  0.523170  0.218140  1
  O  O13  1  0.533647  0.178494  0.483813  1
  O  O14  1  0.880848  0.124977  0.257586  1
  O  O15  1  0.785718  0.019205  0.615510  1
  O  O16  1  0.124977  0.257586  0.880848  1
  O  O17  1  0.178494  0.483813  0.533647  1
  O  O18  1  0.483813  0.533647  0.178494  1
  O  O19  1  0.384490  0.214282  0.980795  1
  O  O20  1  0.742414  0.119152  0.875023  1
  O  O21  1  0.980795  0.384490  0.214282  1
  O  O22  1  0.019205  0.615510  0.785718  1
  O  O23  1  0.257586  0.880848  0.124977  1
  O  O24  1  0.615510  0.785718  0.019205  1
  O  O25  1  0.516187  0.466353  0.821506  1
  O  O26  1  0.821506  0.516187  0.466353  1
  O  O27  1  0.875023  0.742414  0.119152  1
  O  O28  1  0.214282  0.980795  0.384490  1
  O  O29  1  0.119152  0.875023  0.742414  1
  O  O30  1  0.466353  0.821506  0.516187  1
  O  O31  1  0.842077  0.476830  0.781860  1
  O  O32  1  0.476830  0.781860  0.842077  1
  O  O33  1  0.781860  0.842077  0.476830  1
