# generated using pymatgen
data_La8Nd12Si15Hg
_symmetry_space_group_name_H-M   'P 1'
_cell_length_a   7.97812999
_cell_length_b   7.95349626
_cell_length_c   15.44136800
_cell_angle_alpha   90.06922900
_cell_angle_beta   89.93590416
_cell_angle_gamma   90.01954223
_symmetry_Int_Tables_number   1
_chemical_formula_structural   La8Nd12Si15Hg
_chemical_formula_sum   'La8 Nd12 Si15 Hg1'
_cell_volume   979.81559854
_cell_formula_units_Z   1
loop_
 _symmetry_equiv_pos_site_id
 _symmetry_equiv_pos_as_xyz
  1  'x, y, z'
loop_
 _atom_site_type_symbol
 _atom_site_label
 _atom_site_symmetry_multiplicity
 _atom_site_fract_x
 _atom_site_fract_y
 _atom_site_fract_z
 _atom_site_occupancy
  La  La0  1  0.988281  0.622275  0.051588  1
  La  La1  1  0.011713  0.369188  0.555842  1
  La  La2  1  0.624388  0.987036  0.948032  1
  La  La3  1  0.124249  0.512377  0.802644  1
  La  La4  1  0.868614  0.480192  0.295167  1
  La  La5  1  0.512976  0.123378  0.196513  1
  La  La6  1  0.490830  0.877826  0.699330  1
  La  La7  1  0.382066  0.016741  0.448317  1
  Nd  Nd8  1  0.379679  0.478470  0.371700  1
  Nd  Nd9  1  0.863431  0.028645  0.371488  1
  Nd  Nd10  1  0.981031  0.127835  0.123083  1
  Nd  Nd11  1  0.017940  0.873778  0.626644  1
  Nd  Nd12  1  0.628259  0.518679  0.873660  1
  Nd  Nd13  1  0.483908  0.369606  0.629266  1
  Nd  Nd14  1  0.518488  0.626060  0.125245  1
  Nd  Nd15  1  0.126559  0.982423  0.878053  1
  Nd  Nd16  1  0.682787  0.693756  0.500482  1
  Nd  Nd17  1  0.810062  0.190000  0.750934  1
  Nd  Nd18  1  0.188702  0.808449  0.245498  1
  Nd  Nd19  1  0.307497  0.309122  0.000041  1
  Si  Si20  1  0.921061  0.286123  0.939291  1
  Si  Si21  1  0.714529  0.077991  0.561320  1
  Si  Si22  1  0.215201  0.421493  0.189615  1
  Si  Si23  1  0.786919  0.579333  0.689930  1
  Si  Si24  1  0.421445  0.214679  0.812195  1
  Si  Si25  1  0.578267  0.785675  0.308962  1
  Si  Si26  1  0.287938  0.921983  0.059146  1
  Si  Si27  1  0.831857  0.805267  0.797628  1
  Si  Si28  1  0.170433  0.194043  0.295949  1
  Si  Si29  1  0.803045  0.831648  0.201814  1
  Si  Si30  1  0.312150  0.666937  0.554563  1
  Si  Si31  1  0.695804  0.332095  0.046007  1
  Si  Si32  1  0.669576  0.308052  0.456395  1
  Si  Si33  1  0.331756  0.694552  0.953133  1
  Si  Si34  1  0.195696  0.168221  0.705258  1
  Hg  Hg35  1  0.072863  0.716071  0.435263  1
