# generated using pymatgen
data_La4SmP12Pd3Ru16
_symmetry_space_group_name_H-M   'P 1'
_cell_length_a   12.75296100
_cell_length_b   12.75295971
_cell_length_c   4.03490300
_cell_angle_alpha   90.00000000
_cell_angle_beta   90.00000000
_cell_angle_gamma   120.00000075
_symmetry_Int_Tables_number   1
_chemical_formula_structural   La4SmP12Pd3Ru16
_chemical_formula_sum   'La4 Sm1 P12 Pd3 Ru16'
_cell_volume   568.31058669
_cell_formula_units_Z   1
loop_
 _symmetry_equiv_pos_site_id
 _symmetry_equiv_pos_as_xyz
  1  'x, y, z'
loop_
 _atom_site_type_symbol
 _atom_site_label
 _atom_site_symmetry_multiplicity
 _atom_site_fract_x
 _atom_site_fract_y
 _atom_site_fract_z
 _atom_site_occupancy
  La  La0  1  0.181006  0.180955  0.500000  1
  La  La1  1  0.819045  0.000051  0.500000  1
  La  La2  1  0.999949  0.818994  0.500000  1
  La  La3  1  0.333333  0.666667  0.000000  1
  Sm  Sm4  1  0.666667  0.333333  0.000000  1
  P  P5  1  0.809692  0.808568  0.000000  1
  P  P6  1  0.191432  0.001124  0.000000  1
  P  P7  1  0.998876  0.190308  0.000000  1
  P  P8  1  0.178271  0.476847  0.500000  1
  P  P9  1  0.523153  0.701423  0.500000  1
  P  P10  1  0.298577  0.821729  0.500000  1
  P  P11  1  0.700929  0.519732  0.500000  1
  P  P12  1  0.818802  0.299071  0.500000  1
  P  P13  1  0.480268  0.181198  0.500000  1
  P  P14  1  0.370023  0.370183  0.000000  1
  P  P15  1  0.629817  0.999839  0.000000  1
  P  P16  1  0.000161  0.629977  0.000000  1
  Pd  Pd17  1  0.553592  0.553642  0.000000  1
  Pd  Pd18  1  0.446358  0.999950  0.000000  1
  Pd  Pd19  1  0.000050  0.446408  0.000000  1
  Ru  Ru20  1  0.709306  0.708104  0.500000  1
  Ru  Ru21  1  0.291896  0.001202  0.500000  1
  Ru  Ru22  1  0.998798  0.290694  0.500000  1
  Ru  Ru23  1  0.185129  0.379906  0.000000  1
  Ru  Ru24  1  0.620094  0.805223  0.000000  1
  Ru  Ru25  1  0.194777  0.814871  0.000000  1
  Ru  Ru26  1  0.804559  0.617378  0.000000  1
  Ru  Ru27  1  0.812819  0.195441  0.000000  1
  Ru  Ru28  1  0.382622  0.187181  0.000000  1
  Ru  Ru29  1  0.369659  0.490967  0.500000  1
  Ru  Ru30  1  0.509033  0.878692  0.500000  1
  Ru  Ru31  1  0.121308  0.630341  0.500000  1
  Ru  Ru32  1  0.876240  0.505498  0.500000  1
  Ru  Ru33  1  0.629257  0.123760  0.500000  1
  Ru  Ru34  1  0.494502  0.370743  0.500000  1
  Ru  Ru35  1  0.000000  0.000000  0.000000  1
