# generated using pymatgen
data_LuHf3(B4Ru5)2
_symmetry_space_group_name_H-M   'P 1'
_cell_length_a   3.02397500
_cell_length_b   8.83811988
_cell_length_c   9.92975266
_cell_angle_alpha   89.88428067
_cell_angle_beta   90.00000000
_cell_angle_gamma   90.00000000
_symmetry_Int_Tables_number   1
_chemical_formula_structural   LuHf3(B4Ru5)2
_chemical_formula_sum   'Lu1 Hf3 B8 Ru10'
_cell_volume   265.38454615
_cell_formula_units_Z   1
loop_
 _symmetry_equiv_pos_site_id
 _symmetry_equiv_pos_as_xyz
  1  'x, y, z'
loop_
 _atom_site_type_symbol
 _atom_site_label
 _atom_site_symmetry_multiplicity
 _atom_site_fract_x
 _atom_site_fract_y
 _atom_site_fract_z
 _atom_site_occupancy
  Lu  Lu0  1  0.500000  0.834746  0.180422  1
  Hf  Hf1  1  0.500000  0.165980  0.818593  1
  Hf  Hf2  1  0.500000  0.666067  0.681544  1
  Hf  Hf3  1  0.500000  0.335466  0.319924  1
  B  B4  1  0.500000  0.967599  0.583674  1
  B  B5  1  0.500000  0.031474  0.416472  1
  B  B6  1  0.500000  0.857234  0.896858  1
  B  B7  1  0.500000  0.143544  0.102711  1
  B  B8  1  0.500000  0.642735  0.397461  1
  B  B9  1  0.500000  0.356373  0.603083  1
  B  B10  1  0.500000  0.468342  0.915813  1
  B  B11  1  0.500000  0.531151  0.083325  1
  Ru  Ru12  1  0.000000  0.676151  0.943583  1
  Ru  Ru13  1  0.000000  0.322801  0.053465  1
  Ru  Ru14  1  0.000000  0.820988  0.448756  1
  Ru  Ru15  1  0.000000  0.177350  0.554297  1
  Ru  Ru16  1  0.000000  0.003518  0.997670  1
  Ru  Ru17  1  0.000000  0.413278  0.766642  1
  Ru  Ru18  1  0.000000  0.580407  0.233960  1
  Ru  Ru19  1  0.000000  0.499397  0.500626  1
  Ru  Ru20  1  0.000000  0.914645  0.733009  1
  Ru  Ru21  1  0.000000  0.090754  0.268112  1
