# generated using pymatgen
data_Sc22Tc5Ir2Au
_symmetry_space_group_name_H-M   'P 1'
_cell_length_a   9.56700681
_cell_length_b   9.45647974
_cell_length_c   9.56700793
_cell_angle_alpha   60.38144383
_cell_angle_beta   59.82100439
_cell_angle_gamma   60.38144786
_symmetry_Int_Tables_number   1
_chemical_formula_structural   Sc22Tc5Ir2Au
_chemical_formula_sum   'Sc22 Tc5 Ir2 Au1'
_cell_volume   614.68010854
_cell_formula_units_Z   1
loop_
 _symmetry_equiv_pos_site_id
 _symmetry_equiv_pos_as_xyz
  1  'x, y, z'
loop_
 _atom_site_type_symbol
 _atom_site_label
 _atom_site_symmetry_multiplicity
 _atom_site_fract_x
 _atom_site_fract_y
 _atom_site_fract_z
 _atom_site_occupancy
  Sc  Sc0  1  0.803565  0.803412  0.196435  1
  Sc  Sc1  1  0.197416  0.802584  0.197416  1
  Sc  Sc2  1  0.803565  0.196588  0.196435  1
  Sc  Sc3  1  0.196435  0.196588  0.803565  1
  Sc  Sc4  1  0.802584  0.197416  0.802584  1
  Sc  Sc5  1  0.196435  0.803412  0.803565  1
  Sc  Sc6  1  0.606280  0.621091  0.151537  1
  Sc  Sc7  1  0.615110  0.148459  0.615110  1
  Sc  Sc8  1  0.151537  0.621091  0.606280  1
  Sc  Sc9  1  0.615110  0.621320  0.615110  1
  Sc  Sc10  1  0.393720  0.378909  0.848463  1
  Sc  Sc11  1  0.384890  0.851541  0.384890  1
  Sc  Sc12  1  0.848463  0.378909  0.393720  1
  Sc  Sc13  1  0.384890  0.378680  0.384890  1
  Sc  Sc14  1  0.844065  0.844647  0.466640  1
  Sc  Sc15  1  0.837579  0.472337  0.837579  1
  Sc  Sc16  1  0.466640  0.844647  0.844065  1
  Sc  Sc17  1  0.837579  0.852504  0.837579  1
  Sc  Sc18  1  0.155935  0.155353  0.533360  1
  Sc  Sc19  1  0.162421  0.527663  0.162421  1
  Sc  Sc20  1  0.533360  0.155353  0.155935  1
  Sc  Sc21  1  0.162421  0.147496  0.162421  1
  Tc  Tc22  1  0.000000  0.000000  0.000000  1
  Tc  Tc23  1  0.000000  0.000000  0.500000  1
  Tc  Tc24  1  0.000000  0.500000  0.500000  1
  Tc  Tc25  1  0.500000  0.500000  0.000000  1
  Tc  Tc26  1  0.500000  0.000000  0.000000  1
  Ir  Ir27  1  0.500000  0.500000  0.500000  1
  Ir  Ir28  1  0.500000  0.000000  0.500000  1
  Au  Au29  1  0.000000  0.500000  0.000000  1
