# generated using pymatgen
data_Sm8SnAsI12
_symmetry_space_group_name_H-M   'P 1'
_cell_length_a   4.40320500
_cell_length_b   14.48875612
_cell_length_c   15.31588000
_cell_angle_alpha   90.04816976
_cell_angle_beta   90.00000000
_cell_angle_gamma   90.00000000
_symmetry_Int_Tables_number   1
_chemical_formula_structural   Sm8SnAsI12
_chemical_formula_sum   'Sm8 Sn1 As1 I12'
_cell_volume   977.10629038
_cell_formula_units_Z   1
loop_
 _symmetry_equiv_pos_site_id
 _symmetry_equiv_pos_as_xyz
  1  'x, y, z'
loop_
 _atom_site_type_symbol
 _atom_site_label
 _atom_site_symmetry_multiplicity
 _atom_site_fract_x
 _atom_site_fract_y
 _atom_site_fract_z
 _atom_site_occupancy
  Sm  Sm0  1  0.500000  0.112743  0.349571  1
  Sm  Sm1  1  0.500000  0.887257  0.650429  1
  Sm  Sm2  1  0.500000  0.620045  0.159554  1
  Sm  Sm3  1  0.500000  0.379955  0.840446  1
  Sm  Sm4  1  0.000000  0.107580  0.571721  1
  Sm  Sm5  1  0.000000  0.892420  0.428279  1
  Sm  Sm6  1  0.000000  0.619647  0.919696  1
  Sm  Sm7  1  0.000000  0.380353  0.080304  1
  Sn  Sn8  1  0.500000  0.500000  0.000000  1
  As  As9  1  0.500000  0.000000  0.500000  1
  I  I10  1  0.500000  0.242064  0.165483  1
  I  I11  1  0.500000  0.757936  0.834517  1
  I  I12  1  0.500000  0.750558  0.341474  1
  I  I13  1  0.500000  0.249442  0.658526  1
  I  I14  1  0.000000  0.252713  0.414729  1
  I  I15  1  0.000000  0.747287  0.585271  1
  I  I16  1  0.000000  0.757007  0.086669  1
  I  I17  1  0.000000  0.242993  0.913331  1
  I  I18  1  0.000000  0.000280  0.246664  1
  I  I19  1  0.000000  0.999720  0.753336  1
  I  I20  1  0.000000  0.501634  0.258190  1
  I  I21  1  0.000000  0.498366  0.741810  1
