# generated using pymatgen
data_Sr4CoH12Au
_symmetry_space_group_name_H-M   'P 1'
_cell_length_a   7.45736532
_cell_length_b   7.45736478
_cell_length_c   5.60284658
_cell_angle_alpha   89.98802945
_cell_angle_beta   89.98802865
_cell_angle_gamma   135.87690947
_symmetry_Int_Tables_number   1
_chemical_formula_structural   Sr4CoH12Au
_chemical_formula_sum   'Sr4 Co1 H12 Au1'
_cell_volume   216.92760889
_cell_formula_units_Z   1
loop_
 _symmetry_equiv_pos_site_id
 _symmetry_equiv_pos_as_xyz
  1  'x, y, z'
loop_
 _atom_site_type_symbol
 _atom_site_label
 _atom_site_symmetry_multiplicity
 _atom_site_fract_x
 _atom_site_fract_y
 _atom_site_fract_z
 _atom_site_occupancy
  Sr  Sr0  1  0.145809  0.854191  0.500000  1
  Sr  Sr1  1  0.644343  0.355657  0.000000  1
  Sr  Sr2  1  0.854191  0.145809  0.500000  1
  Sr  Sr3  1  0.355657  0.644343  0.000000  1
  Co  Co4  1  0.500000  0.500000  0.500000  1
  H  H5  1  0.999843  0.500145  0.753231  1
  H  H6  1  0.499855  0.000157  0.246769  1
  H  H7  1  0.000157  0.499855  0.246769  1
  H  H8  1  0.500145  0.999843  0.753231  1
  H  H9  1  0.386919  0.613081  0.500000  1
  H  H10  1  0.878531  0.121469  0.000000  1
  H  H11  1  0.613081  0.386919  0.500000  1
  H  H12  1  0.121469  0.878531  0.000000  1
  H  H13  1  0.301248  0.301248  0.698809  1
  H  H14  1  0.698752  0.698752  0.301191  1
  H  H15  1  0.301243  0.301243  0.301451  1
  H  H16  1  0.698757  0.698757  0.698549  1
  Au  Au17  1  0.000000  0.000000  0.000000  1
