# generated using pymatgen
data_La4Be2GaSi5
_symmetry_space_group_name_H-M   'P 1'
_cell_length_a   8.08421000
_cell_length_b   8.07342153
_cell_length_c   4.47061200
_cell_angle_alpha   90.00000000
_cell_angle_beta   90.00000000
_cell_angle_gamma   120.04421413
_symmetry_Int_Tables_number   1
_chemical_formula_structural   La4Be2GaSi5
_chemical_formula_sum   'La4 Be2 Ga1 Si5'
_cell_volume   252.58011812
_cell_formula_units_Z   1
loop_
 _symmetry_equiv_pos_site_id
 _symmetry_equiv_pos_as_xyz
  1  'x, y, z'
loop_
 _atom_site_type_symbol
 _atom_site_label
 _atom_site_symmetry_multiplicity
 _atom_site_fract_x
 _atom_site_fract_y
 _atom_site_fract_z
 _atom_site_occupancy
  La  La0  1  0.998082  0.996164  0.500000  1
  La  La1  1  0.996109  0.501998  0.500000  1
  La  La2  1  0.505889  0.501998  0.500000  1
  La  La3  1  0.499256  0.998512  0.500000  1
  Be  Be4  1  0.335596  0.671192  0.000000  1
  Be  Be5  1  0.665357  0.330714  0.000000  1
  Ga  Ga6  1  0.173376  0.346753  0.000000  1
  Si  Si7  1  0.654925  0.828440  0.000000  1
  Si  Si8  1  0.344595  0.170088  0.000000  1
  Si  Si9  1  0.173515  0.828440  0.000000  1
  Si  Si10  1  0.827806  0.655612  0.000000  1
  Si  Si11  1  0.825494  0.170088  0.000000  1
