# generated using pymatgen
data_Sm3Th(B4Mo)4
_symmetry_space_group_name_H-M   'P 1'
_cell_length_a   6.09028075
_cell_length_b   11.78679700
_cell_length_c   3.70379900
_cell_angle_alpha   90.00000000
_cell_angle_beta   90.00000000
_cell_angle_gamma   90.07834029
_symmetry_Int_Tables_number   1
_chemical_formula_structural   Sm3Th(B4Mo)4
_chemical_formula_sum   'Sm3 Th1 B16 Mo4'
_cell_volume   265.87660284
_cell_formula_units_Z   1
loop_
 _symmetry_equiv_pos_site_id
 _symmetry_equiv_pos_as_xyz
  1  'x, y, z'
loop_
 _atom_site_type_symbol
 _atom_site_label
 _atom_site_symmetry_multiplicity
 _atom_site_fract_x
 _atom_site_fract_y
 _atom_site_fract_z
 _atom_site_occupancy
  Sm  Sm0  1  0.625917  0.349725  0.000000  1
  Sm  Sm1  1  0.374834  0.648769  0.000000  1
  Sm  Sm2  1  0.125940  0.151571  0.000000  1
  Th  Th3  1  0.874999  0.848969  0.000000  1
  B  B4  1  0.783327  0.185609  0.500000  1
  B  B5  1  0.217294  0.815285  0.500000  1
  B  B6  1  0.284142  0.315344  0.500000  1
  B  B7  1  0.715721  0.683512  0.500000  1
  B  B8  1  0.862798  0.033015  0.500000  1
  B  B9  1  0.136965  0.968012  0.500000  1
  B  B10  1  0.364436  0.467642  0.500000  1
  B  B11  1  0.635472  0.531757  0.500000  1
  B  B12  1  0.886487  0.453042  0.500000  1
  B  B13  1  0.113202  0.545838  0.500000  1
  B  B14  1  0.386134  0.047244  0.500000  1
  B  B15  1  0.611424  0.954383  0.500000  1
  B  B16  1  0.975583  0.308329  0.500000  1
  B  B17  1  0.024539  0.690206  0.500000  1
  B  B18  1  0.475756  0.192365  0.500000  1
  B  B19  1  0.524616  0.808622  0.500000  1
  Mo  Mo20  1  0.628373  0.084267  0.000000  1
  Mo  Mo21  1  0.371014  0.916427  0.000000  1
  Mo  Mo22  1  0.128357  0.416690  0.000000  1
  Mo  Mo23  1  0.872669  0.583381  0.000000  1
