# generated using pymatgen
data_Ho2TmHfAl17GaIr6
_symmetry_space_group_name_H-M   'P 1'
_cell_length_a   7.51894021
_cell_length_b   7.51384464
_cell_length_c   9.40458200
_cell_angle_alpha   90.00000000
_cell_angle_beta   90.00000000
_cell_angle_gamma   119.51107199
_symmetry_Int_Tables_number   1
_chemical_formula_structural   Ho2TmHfAl17GaIr6
_chemical_formula_sum   'Ho2 Tm1 Hf1 Al17 Ga1 Ir6'
_cell_volume   462.38913732
_cell_formula_units_Z   1
loop_
 _symmetry_equiv_pos_site_id
 _symmetry_equiv_pos_as_xyz
  1  'x, y, z'
loop_
 _atom_site_type_symbol
 _atom_site_label
 _atom_site_symmetry_multiplicity
 _atom_site_fract_x
 _atom_site_fract_y
 _atom_site_fract_z
 _atom_site_occupancy
  Ho  Ho0  1  0.006142  0.323826  0.750000  1
  Ho  Ho1  1  0.325703  0.007221  0.750000  1
  Tm  Tm2  1  0.672254  0.996388  0.250000  1
  Hf  Hf3  1  0.998027  0.673660  0.250000  1
  Al  Al4  1  0.127167  0.124887  0.250000  1
  Al  Al5  1  0.000276  0.338093  0.079414  1
  Al  Al6  1  0.999044  0.664503  0.929503  1
  Al  Al7  1  0.999044  0.664503  0.570497  1
  Al  Al8  1  0.333471  0.998640  0.420527  1
  Al  Al9  1  0.000276  0.338093  0.420586  1
  Al  Al10  1  0.663923  0.997971  0.573995  1
  Al  Al11  1  0.663923  0.997971  0.926005  1
  Al  Al12  1  0.333471  0.998640  0.079473  1
  Al  Al13  1  0.334444  0.334688  0.550169  1
  Al  Al14  1  0.669222  0.667327  0.440016  1
  Al  Al15  1  0.669222  0.667327  0.059984  1
  Al  Al16  1  0.334444  0.334688  0.949831  1
  Al  Al17  1  0.336077  0.550137  0.250000  1
  Al  Al18  1  0.661315  0.450700  0.750000  1
  Al  Al19  1  0.555551  0.343618  0.250000  1
  Al  Al20  1  0.449175  0.659977  0.750000  1
  Ga  Ga21  1  0.865108  0.863684  0.750000  1
  Ir  Ir22  1  0.673217  0.328950  0.001218  1
  Ir  Ir23  1  0.328630  0.673257  0.001959  1
  Ir  Ir24  1  0.328630  0.673257  0.498041  1
  Ir  Ir25  1  0.673217  0.328950  0.498782  1
  Ir  Ir26  1  0.999512  0.999522  0.003856  1
  Ir  Ir27  1  0.999512  0.999522  0.496144  1
