# generated using pymatgen
data_Er9Tm(Ir2Ru)2
_symmetry_space_group_name_H-M   'P 1'
_cell_length_a   10.74238000
_cell_length_b   10.74238000
_cell_length_c   6.38408500
_cell_angle_alpha   90.00000000
_cell_angle_beta   90.00000000
_cell_angle_gamma   90.00000000
_symmetry_Int_Tables_number   1
_chemical_formula_structural   Er9Tm(Ir2Ru)2
_chemical_formula_sum   'Er18 Tm2 Ir8 Ru4'
_cell_volume   736.71528886
_cell_formula_units_Z   2
loop_
 _symmetry_equiv_pos_site_id
 _symmetry_equiv_pos_as_xyz
  1  'x, y, z'
loop_
 _atom_site_type_symbol
 _atom_site_label
 _atom_site_symmetry_multiplicity
 _atom_site_fract_x
 _atom_site_fract_y
 _atom_site_fract_z
 _atom_site_occupancy
  Er  Er0  1  0.293321  0.086432  0.376648  1
  Er  Er1  1  0.293321  0.913568  0.876648  1
  Er  Er2  1  0.706679  0.086432  0.876648  1
  Er  Er3  1  0.706679  0.913568  0.376648  1
  Er  Er4  1  0.586378  0.793121  0.876624  1
  Er  Er5  1  0.586378  0.206879  0.376624  1
  Er  Er6  1  0.413622  0.793121  0.376624  1
  Er  Er7  1  0.413622  0.206879  0.876624  1
  Er  Er8  1  0.206879  0.413622  0.623376  1
  Er  Er9  1  0.206879  0.586378  0.123376  1
  Er  Er10  1  0.793121  0.413622  0.123376  1
  Er  Er11  1  0.793121  0.586378  0.623376  1
  Er  Er12  1  0.913568  0.706679  0.123352  1
  Er  Er13  1  0.913568  0.293321  0.623352  1
  Er  Er14  1  0.086432  0.706679  0.623352  1
  Er  Er15  1  0.086432  0.293321  0.123352  1
  Er  Er16  1  0.000000  0.000000  0.500000  1
  Er  Er17  1  0.000000  0.000000  0.000000  1
  Tm  Tm18  1  0.500000  0.500000  0.000000  1
  Tm  Tm19  1  0.500000  0.500000  0.500000  1
  Ir  Ir20  1  0.847322  0.152678  0.250000  1
  Ir  Ir21  1  0.847322  0.847322  0.750000  1
  Ir  Ir22  1  0.152678  0.152678  0.750000  1
  Ir  Ir23  1  0.152678  0.847322  0.250000  1
  Ir  Ir24  1  0.652287  0.347713  0.750000  1
  Ir  Ir25  1  0.652287  0.652287  0.250000  1
  Ir  Ir26  1  0.347713  0.347713  0.250000  1
  Ir  Ir27  1  0.347713  0.652287  0.750000  1
  Ru  Ru28  1  0.500000  0.000000  0.122530  1
  Ru  Ru29  1  0.500000  0.000000  0.622530  1
  Ru  Ru30  1  0.000000  0.500000  0.877470  1
  Ru  Ru31  1  0.000000  0.500000  0.377470  1
