# generated using pymatgen
data_Er4Al18(IrPt)3
_symmetry_space_group_name_H-M   'P 1'
_cell_length_a   7.57379559
_cell_length_b   7.57379701
_cell_length_c   9.39962103
_cell_angle_alpha   89.98260348
_cell_angle_beta   89.98261251
_cell_angle_gamma   119.62384990
_symmetry_Int_Tables_number   1
_chemical_formula_structural   Er4Al18(IrPt)3
_chemical_formula_sum   'Er4 Al18 Ir3 Pt3'
_cell_volume   468.70740304
_cell_formula_units_Z   1
loop_
 _symmetry_equiv_pos_site_id
 _symmetry_equiv_pos_as_xyz
  1  'x, y, z'
loop_
 _atom_site_type_symbol
 _atom_site_label
 _atom_site_symmetry_multiplicity
 _atom_site_fract_x
 _atom_site_fract_y
 _atom_site_fract_z
 _atom_site_occupancy
  Er  Er0  1  0.995846  0.670942  0.250621  1
  Er  Er1  1  0.004765  0.329595  0.749496  1
  Er  Er2  1  0.670405  0.995235  0.250504  1
  Er  Er3  1  0.329058  0.004154  0.749379  1
  Al  Al4  1  0.126384  0.127061  0.250412  1
  Al  Al5  1  0.872939  0.873616  0.749588  1
  Al  Al6  1  0.999890  0.331789  0.077067  1
  Al  Al7  1  0.999628  0.668711  0.922302  1
  Al  Al8  1  0.996986  0.664656  0.575992  1
  Al  Al9  1  0.335344  0.003014  0.424008  1
  Al  Al10  1  0.996505  0.331371  0.424037  1
  Al  Al11  1  0.668629  0.003495  0.575963  1
  Al  Al12  1  0.668211  0.000110  0.922933  1
  Al  Al13  1  0.331289  0.000372  0.077698  1
  Al  Al14  1  0.332579  0.329169  0.554496  1
  Al  Al15  1  0.670831  0.667421  0.445504  1
  Al  Al16  1  0.669873  0.670040  0.058096  1
  Al  Al17  1  0.329960  0.330127  0.941904  1
  Al  Al18  1  0.339963  0.546020  0.250506  1
  Al  Al19  1  0.659434  0.451759  0.747457  1
  Al  Al20  1  0.548241  0.340566  0.252543  1
  Al  Al21  1  0.453980  0.660037  0.749494  1
  Ir  Ir22  1  0.671938  0.328062  0.500000  1
  Ir  Ir23  1  0.999734  0.000266  0.000000  1
  Ir  Ir24  1  0.000322  0.999678  0.500000  1
  Pt  Pt25  1  0.672076  0.327924  0.000000  1
  Pt  Pt26  1  0.327460  0.672540  0.000000  1
  Pt  Pt27  1  0.327728  0.672272  0.500000  1
