# generated using pymatgen
data_N7ClF24
_symmetry_space_group_name_H-M   'P 1'
_cell_length_a   15.49000593
_cell_length_b   4.85614487
_cell_length_c   8.01671254
_cell_angle_alpha   80.56648053
_cell_angle_beta   92.92647409
_cell_angle_gamma   94.00799713
_symmetry_Int_Tables_number   1
_chemical_formula_structural   N7ClF24
_chemical_formula_sum   'N7 Cl1 F24'
_cell_volume   592.94020776
_cell_formula_units_Z   1
loop_
 _symmetry_equiv_pos_site_id
 _symmetry_equiv_pos_as_xyz
  1  'x, y, z'
loop_
 _atom_site_type_symbol
 _atom_site_label
 _atom_site_symmetry_multiplicity
 _atom_site_fract_x
 _atom_site_fract_y
 _atom_site_fract_z
 _atom_site_occupancy
  N  N0  1  0.139627  0.047560  0.262516  1
  N  N1  1  0.630754  0.820945  0.298959  1
  N  N2  1  0.891096  0.465445  0.302157  1
  N  N3  1  0.596501  0.409767  0.819483  1
  N  N4  1  0.391314  0.475335  0.263956  1
  N  N5  1  0.351334  0.979334  0.808759  1
  N  N6  1  0.128245  0.472758  0.746046  1
  Cl  Cl7  1  0.893076  0.921659  0.769976  1
  F  F8  1  0.210215  0.359793  0.762732  1
  F  F9  1  0.355870  0.910359  0.645428  1
  F  F10  1  0.838825  0.139166  0.873480  1
  F  F11  1  0.405591  0.226261  0.797198  1
  F  F12  1  0.800591  0.819993  0.685143  1
  F  F13  1  0.823281  0.363904  0.411402  1
  F  F14  1  0.404173  0.783278  0.906086  1
  F  F15  1  0.593147  0.703961  0.785957  1
  F  F16  1  0.074792  0.245508  0.702392  1
  F  F17  1  0.303825  0.370803  0.272350  1
  F  F18  1  0.627210  0.354913  0.666262  1
  F  F19  1  0.058730  0.147380  0.285963  1
  F  F20  1  0.944628  0.696822  0.663588  1
  F  F21  1  0.154536  0.870657  0.417872  1
  F  F22  1  0.633722  0.093472  0.339210  1
  F  F23  1  0.410088  0.521059  0.431123  1
  F  F24  1  0.561106  0.829482  0.177048  1
  F  F25  1  0.116732  0.851625  0.153002  1
  F  F26  1  0.108775  0.464455  0.916860  1
  F  F27  1  0.702371  0.836976  0.196626  1
  F  F28  1  0.434009  0.229819  0.260299  1
  F  F29  1  0.850063  0.456405  0.141913  1
  F  F30  1  0.670441  0.377109  0.927911  1
  F  F31  1  0.895333  0.754000  0.308304  1
