# generated using pymatgen
data_Ca5Yb2Er(Si3Pd)4
_symmetry_space_group_name_H-M   'P 1'
_cell_length_a   8.24813000
_cell_length_b   8.25816087
_cell_length_c   8.26986100
_cell_angle_alpha   90.00000000
_cell_angle_beta   90.00000000
_cell_angle_gamma   119.95981943
_symmetry_Int_Tables_number   1
_chemical_formula_structural   Ca5Yb2Er(Si3Pd)4
_chemical_formula_sum   'Ca5 Yb2 Er1 Si12 Pd4'
_cell_volume   488.02646662
_cell_formula_units_Z   1
loop_
 _symmetry_equiv_pos_site_id
 _symmetry_equiv_pos_as_xyz
  1  'x, y, z'
loop_
 _atom_site_type_symbol
 _atom_site_label
 _atom_site_symmetry_multiplicity
 _atom_site_fract_x
 _atom_site_fract_y
 _atom_site_fract_z
 _atom_site_occupancy
  Ca  Ca0  1  0.503171  0.006344  0.250000  1
  Ca  Ca1  1  0.496582  0.993164  0.750000  1
  Ca  Ca2  1  0.993720  0.496890  0.250000  1
  Ca  Ca3  1  0.503168  0.496890  0.250000  1
  Ca  Ca4  1  0.000039  0.000078  0.250000  1
  Yb  Yb5  1  0.006302  0.503158  0.750000  1
  Yb  Yb6  1  0.496858  0.503158  0.750000  1
  Er  Er7  1  0.999980  0.999960  0.750000  1
  Si  Si8  1  0.164446  0.328892  0.995583  1
  Si  Si9  1  0.835654  0.671309  0.991813  1
  Si  Si10  1  0.670825  0.835459  0.996644  1
  Si  Si11  1  0.835654  0.671309  0.508187  1
  Si  Si12  1  0.329009  0.164495  0.992957  1
  Si  Si13  1  0.164446  0.328892  0.504417  1
  Si  Si14  1  0.164634  0.835459  0.996644  1
  Si  Si15  1  0.329009  0.164495  0.507043  1
  Si  Si16  1  0.835485  0.164495  0.992957  1
  Si  Si17  1  0.670825  0.835459  0.503356  1
  Si  Si18  1  0.835485  0.164495  0.507043  1
  Si  Si19  1  0.164634  0.835459  0.503356  1
  Pd  Pd20  1  0.332866  0.665733  0.005501  1
  Pd  Pd21  1  0.667169  0.334337  0.990106  1
  Pd  Pd22  1  0.667169  0.334337  0.509894  1
  Pd  Pd23  1  0.332866  0.665733  0.494499  1
