# generated using pymatgen
data_Zn21Pt4Au
_symmetry_space_group_name_H-M   'P 1'
_cell_length_a   7.96794188
_cell_length_b   8.00065270
_cell_length_c   7.96794361
_cell_angle_alpha   109.84887193
_cell_angle_beta   108.89169473
_cell_angle_gamma   109.84887257
_symmetry_Int_Tables_number   1
_chemical_formula_structural   Zn21Pt4Au
_chemical_formula_sum   'Zn21 Pt4 Au1'
_cell_volume   390.13958629
_cell_formula_units_Z   1
loop_
 _symmetry_equiv_pos_site_id
 _symmetry_equiv_pos_as_xyz
  1  'x, y, z'
loop_
 _atom_site_type_symbol
 _atom_site_label
 _atom_site_symmetry_multiplicity
 _atom_site_fract_x
 _atom_site_fract_y
 _atom_site_fract_z
 _atom_site_occupancy
  Zn  Zn0  1  0.621452  0.353614  0.351690  1
  Zn  Zn1  1  0.351690  0.353614  0.621452  1
  Zn  Zn2  1  0.652863  0.272526  0.001244  1
  Zn  Zn3  1  0.218680  0.214954  0.218680  1
  Zn  Zn4  1  0.002737  0.000422  0.783906  1
  Zn  Zn5  1  0.783906  0.000422  0.002737  1
  Zn  Zn6  1  0.995001  0.779751  0.995001  1
  Zn  Zn7  1  0.360311  0.359110  0.000944  1
  Zn  Zn8  1  0.997634  0.640807  0.642344  1
  Zn  Zn9  1  0.000944  0.359110  0.360311  1
  Zn  Zn10  1  0.355872  0.998854  0.355872  1
  Zn  Zn11  1  0.641788  0.997205  0.641788  1
  Zn  Zn12  1  0.642344  0.640807  0.997634  1
  Zn  Zn13  1  0.350569  0.627302  0.350569  1
  Zn  Zn14  1  0.269997  0.998310  0.648498  1
  Zn  Zn15  1  0.648498  0.998310  0.269997  1
  Zn  Zn16  1  0.271994  0.649627  0.001651  1
  Zn  Zn17  1  0.728165  0.726329  0.372687  1
  Zn  Zn18  1  0.372687  0.726329  0.728165  1
  Zn  Zn19  1  0.001651  0.649627  0.271994  1
  Zn  Zn20  1  0.001244  0.272526  0.652863  1
  Pt  Pt21  1  0.012602  0.343928  0.012602  1
  Pt  Pt22  1  0.347332  0.000498  0.000583  1
  Pt  Pt23  1  0.000583  0.000498  0.347332  1
  Pt  Pt24  1  0.649179  0.667836  0.649179  1
  Au  Au25  1  0.720275  0.367686  0.720275  1
