# generated using pymatgen
data_Er4Al18CuOs3Pd2
_symmetry_space_group_name_H-M   'P 1'
_cell_length_a   7.56066979
_cell_length_b   7.56066925
_cell_length_c   9.45651315
_cell_angle_alpha   90.02612727
_cell_angle_beta   90.02612200
_cell_angle_gamma   119.22058042
_symmetry_Int_Tables_number   1
_chemical_formula_structural   Er4Al18CuOs3Pd2
_chemical_formula_sum   'Er4 Al18 Cu1 Os3 Pd2'
_cell_volume   471.78010402
_cell_formula_units_Z   1
loop_
 _symmetry_equiv_pos_site_id
 _symmetry_equiv_pos_as_xyz
  1  'x, y, z'
loop_
 _atom_site_type_symbol
 _atom_site_label
 _atom_site_symmetry_multiplicity
 _atom_site_fract_x
 _atom_site_fract_y
 _atom_site_fract_z
 _atom_site_occupancy
  Er  Er0  1  0.993737  0.674192  0.247161  1
  Er  Er1  1  0.005368  0.324673  0.752078  1
  Er  Er2  1  0.675327  0.994632  0.247922  1
  Er  Er3  1  0.325808  0.006263  0.752839  1
  Al  Al4  1  0.127656  0.129128  0.249677  1
  Al  Al5  1  0.870872  0.872344  0.750323  1
  Al  Al6  1  0.996640  0.330563  0.074856  1
  Al  Al7  1  0.995475  0.661970  0.924282  1
  Al  Al8  1  0.998851  0.668558  0.577618  1
  Al  Al9  1  0.331442  0.001149  0.422382  1
  Al  Al10  1  0.000492  0.333102  0.424263  1
  Al  Al11  1  0.666898  0.999508  0.575737  1
  Al  Al12  1  0.669437  0.003360  0.925144  1
  Al  Al13  1  0.338030  0.004525  0.075718  1
  Al  Al14  1  0.328736  0.329616  0.554763  1
  Al  Al15  1  0.670384  0.671264  0.445237  1
  Al  Al16  1  0.671809  0.666522  0.048474  1
  Al  Al17  1  0.333478  0.328191  0.951526  1
  Al  Al18  1  0.341877  0.550740  0.248121  1
  Al  Al19  1  0.657096  0.449310  0.753265  1
  Al  Al20  1  0.550690  0.342904  0.246735  1
  Al  Al21  1  0.449260  0.658123  0.751879  1
  Cu  Cu22  1  0.327931  0.672069  0.000000  1
  Os  Os23  1  0.672373  0.327627  0.000000  1
  Os  Os24  1  0.001593  0.998407  0.000000  1
  Os  Os25  1  0.999603  0.000397  0.500000  1
  Pd  Pd26  1  0.327609  0.672391  0.500000  1
  Pd  Pd27  1  0.671529  0.328471  0.500000  1
