# generated using pymatgen
data_Nd4Al18(PdRh)3
_symmetry_space_group_name_H-M   'P 1'
_cell_length_a   7.66281324
_cell_length_b   7.66281964
_cell_length_c   9.59334001
_cell_angle_alpha   90.00285246
_cell_angle_beta   90.00279961
_cell_angle_gamma   119.50470711
_symmetry_Int_Tables_number   1
_chemical_formula_structural   Nd4Al18(PdRh)3
_chemical_formula_sum   'Nd4 Al18 Pd3 Rh3'
_cell_volume   490.25639517
_cell_formula_units_Z   1
loop_
 _symmetry_equiv_pos_site_id
 _symmetry_equiv_pos_as_xyz
  1  'x, y, z'
loop_
 _atom_site_type_symbol
 _atom_site_label
 _atom_site_symmetry_multiplicity
 _atom_site_fract_x
 _atom_site_fract_y
 _atom_site_fract_z
 _atom_site_occupancy
  Nd  Nd0  1  0.994298  0.670336  0.749972  1
  Nd  Nd1  1  0.003776  0.328336  0.250134  1
  Nd  Nd2  1  0.671663  0.996224  0.749867  1
  Nd  Nd3  1  0.329664  0.005699  0.250029  1
  Al  Al4  1  0.133765  0.132714  0.750669  1
  Al  Al5  1  0.867286  0.866236  0.249331  1
  Al  Al6  1  0.006848  0.338931  0.575158  1
  Al  Al7  1  0.001417  0.665395  0.425155  1
  Al  Al8  1  0.998610  0.661173  0.072850  1
  Al  Al9  1  0.338827  0.001391  0.927150  1
  Al  Al10  1  0.002094  0.338851  0.926726  1
  Al  Al11  1  0.661149  0.997907  0.073274  1
  Al  Al12  1  0.661069  0.993152  0.424842  1
  Al  Al13  1  0.334606  0.998584  0.574845  1
  Al  Al14  1  0.337425  0.337669  0.049885  1
  Al  Al15  1  0.662331  0.662575  0.950115  1
  Al  Al16  1  0.661274  0.664696  0.552948  1
  Al  Al17  1  0.335304  0.338725  0.447051  1
  Al  Al18  1  0.339417  0.548261  0.750608  1
  Al  Al19  1  0.661458  0.454774  0.246174  1
  Al  Al20  1  0.545227  0.338542  0.753826  1
  Al  Al21  1  0.451738  0.660582  0.249392  1
  Pd  Pd22  1  0.671397  0.328603  0.500000  1
  Pd  Pd23  1  0.999889  0.000111  0.500000  1
  Pd  Pd24  1  0.000067  0.999933  0.000000  1
  Rh  Rh25  1  0.329071  0.670927  0.500000  1
  Rh  Rh26  1  0.329050  0.670952  0.999999  1
  Rh  Rh27  1  0.671281  0.328720  0.000000  1
