# generated using pymatgen
data_Sr3Zr(Al8Pt3)3
_symmetry_space_group_name_H-M   'P 1'
_cell_length_a   7.52301490
_cell_length_b   7.57740669
_cell_length_c   13.46662894
_cell_angle_alpha   84.62669143
_cell_angle_beta   79.31234170
_cell_angle_gamma   59.91555276
_symmetry_Int_Tables_number   1
_chemical_formula_structural   Sr3Zr(Al8Pt3)3
_chemical_formula_sum   'Sr3 Zr1 Al24 Pt9'
_cell_volume   652.72732891
_cell_formula_units_Z   1
loop_
 _symmetry_equiv_pos_site_id
 _symmetry_equiv_pos_as_xyz
  1  'x, y, z'
loop_
 _atom_site_type_symbol
 _atom_site_label
 _atom_site_symmetry_multiplicity
 _atom_site_fract_x
 _atom_site_fract_y
 _atom_site_fract_z
 _atom_site_occupancy
  Sr  Sr0  1  0.607205  0.831072  0.190673  1
  Sr  Sr1  1  0.733145  0.499069  0.807895  1
  Sr  Sr2  1  0.266318  0.502466  0.190485  1
  Zr  Zr3  1  0.393951  0.168841  0.809518  1
  Al  Al4  1  0.682345  0.837941  0.941957  1
  Al  Al5  1  0.314166  0.166113  0.046168  1
  Al  Al6  1  0.146872  0.831125  0.561885  1
  Al  Al7  1  0.851292  0.168192  0.443974  1
  Al  Al8  1  0.478383  0.166165  0.561267  1
  Al  Al9  1  0.518639  0.835207  0.445066  1
  Al  Al10  1  0.212261  0.164835  0.337127  1
  Al  Al11  1  0.779411  0.838632  0.672259  1
  Al  Al12  1  0.436135  0.503311  0.672024  1
  Al  Al13  1  0.561830  0.491541  0.336645  1
  Al  Al14  1  0.112714  0.158974  0.670568  1
  Al  Al15  1  0.887505  0.842160  0.338427  1
  Al  Al16  1  0.352707  0.496246  0.942239  1
  Al  Al17  1  0.654771  0.494538  0.048371  1
  Al  Al18  1  0.021438  0.167340  0.948926  1
  Al  Al19  1  0.987805  0.837187  0.035732  1
  Al  Al20  1  0.186435  0.499286  0.444652  1
  Al  Al21  1  0.813623  0.500835  0.559050  1
  Al  Al22  1  0.737059  0.164804  0.183110  1
  Al  Al23  1  0.261318  0.850384  0.815549  1
  Al  Al24  1  0.075847  0.621532  0.813963  1
  Al  Al25  1  0.939607  0.364676  0.183276  1
  Al  Al26  1  0.847002  0.035307  0.814495  1
  Al  Al27  1  0.140516  0.963585  0.183038  1
  Pt  Pt28  1  0.120778  0.493252  0.637296  1
  Pt  Pt29  1  0.878086  0.505001  0.366403  1
  Pt  Pt30  1  0.659951  0.169815  0.996434  1
  Pt  Pt31  1  0.342894  0.828687  0.996908  1
  Pt  Pt32  1  0.538537  0.167434  0.366613  1
  Pt  Pt33  1  0.460976  0.832906  0.637746  1
  Pt  Pt34  1  0.780592  0.172899  0.636254  1
  Pt  Pt35  1  0.216678  0.827970  0.367859  1
  Pt  Pt36  1  0.001211  0.500675  0.996150  1
