# generated using pymatgen
data_Zr10Sb7Au
_symmetry_space_group_name_H-M   'P 1'
_cell_length_a   8.79405300
_cell_length_b   8.79405249
_cell_length_c   5.94218900
_cell_angle_alpha   90.00000000
_cell_angle_beta   90.00000000
_cell_angle_gamma   119.99999816
_symmetry_Int_Tables_number   1
_chemical_formula_structural   Zr10Sb7Au
_chemical_formula_sum   'Zr10 Sb7 Au1'
_cell_volume   397.97448831
_cell_formula_units_Z   1
loop_
 _symmetry_equiv_pos_site_id
 _symmetry_equiv_pos_as_xyz
  1  'x, y, z'
loop_
 _atom_site_type_symbol
 _atom_site_label
 _atom_site_symmetry_multiplicity
 _atom_site_fract_x
 _atom_site_fract_y
 _atom_site_fract_z
 _atom_site_occupancy
  Zr  Zr0  1  0.278697  0.278697  0.748873  1
  Zr  Zr1  1  0.721303  0.721303  0.251127  1
  Zr  Zr2  1  0.721303  0.000000  0.748873  1
  Zr  Zr3  1  0.000000  0.278697  0.251127  1
  Zr  Zr4  1  0.333333  0.666667  0.500000  1
  Zr  Zr5  1  0.666667  0.333333  0.500000  1
  Zr  Zr6  1  0.000000  0.721303  0.748873  1
  Zr  Zr7  1  0.333333  0.666667  0.000000  1
  Zr  Zr8  1  0.278697  0.000000  0.251127  1
  Zr  Zr9  1  0.666667  0.333333  0.000000  1
  Sb  Sb10  1  0.613337  0.613337  0.748916  1
  Sb  Sb11  1  0.386663  0.000000  0.748916  1
  Sb  Sb12  1  0.000000  0.000000  0.000000  1
  Sb  Sb13  1  0.613337  0.000000  0.251084  1
  Sb  Sb14  1  0.386663  0.386663  0.251084  1
  Sb  Sb15  1  0.000000  0.386663  0.748916  1
  Sb  Sb16  1  0.000000  0.613337  0.251084  1
  Au  Au17  1  0.000000  0.000000  0.500000  1
