# generated using pymatgen
data_Tm3LuCo14(P2Ru)6
_symmetry_space_group_name_H-M   'P 1'
_cell_length_a   3.70948700
_cell_length_b   10.40717822
_cell_length_c   11.82271636
_cell_angle_alpha   89.97393832
_cell_angle_beta   90.00000000
_cell_angle_gamma   90.00000000
_symmetry_Int_Tables_number   1
_chemical_formula_structural   Tm3LuCo14(P2Ru)6
_chemical_formula_sum   'Tm3 Lu1 Co14 P12 Ru6'
_cell_volume   456.41937406
_cell_formula_units_Z   1
loop_
 _symmetry_equiv_pos_site_id
 _symmetry_equiv_pos_as_xyz
  1  'x, y, z'
loop_
 _atom_site_type_symbol
 _atom_site_label
 _atom_site_symmetry_multiplicity
 _atom_site_fract_x
 _atom_site_fract_y
 _atom_site_fract_z
 _atom_site_occupancy
  Tm  Tm0  1  0.250000  0.585901  0.705579  1
  Tm  Tm1  1  0.250000  0.913824  0.205710  1
  Tm  Tm2  1  0.750000  0.084858  0.791694  1
  Lu  Lu3  1  0.750000  0.415443  0.291938  1
  Co  Co4  1  0.750000  0.596885  0.513936  1
  Co  Co5  1  0.750000  0.902805  0.014023  1
  Co  Co6  1  0.250000  0.226169  0.179485  1
  Co  Co7  1  0.250000  0.274517  0.679302  1
  Co  Co8  1  0.750000  0.776546  0.822142  1
  Co  Co9  1  0.750000  0.723377  0.322081  1
  Co  Co10  1  0.250000  0.883963  0.700581  1
  Co  Co11  1  0.250000  0.615753  0.201005  1
  Co  Co12  1  0.750000  0.114209  0.298106  1
  Co  Co13  1  0.750000  0.386253  0.798277  1
  Co  Co14  1  0.250000  0.464861  0.931222  1
  Co  Co15  1  0.250000  0.035379  0.430573  1
  Co  Co16  1  0.750000  0.537995  0.068976  1
  Co  Co17  1  0.750000  0.961700  0.568112  1
  P  P18  1  0.250000  0.423078  0.113394  1
  P  P19  1  0.250000  0.077113  0.612456  1
  P  P20  1  0.750000  0.578845  0.886815  1
  P  P21  1  0.750000  0.921150  0.386443  1
  P  P22  1  0.250000  0.271790  0.866060  1
  P  P23  1  0.250000  0.228911  0.365651  1
  P  P24  1  0.750000  0.731352  0.133170  1
  P  P25  1  0.750000  0.768618  0.633101  1
  P  P26  1  0.250000  0.599850  0.386145  1
  P  P27  1  0.250000  0.899846  0.886334  1
  P  P28  1  0.750000  0.402897  0.612935  1
  P  P29  1  0.750000  0.096906  0.112958  1
  Ru  Ru30  1  0.250000  0.714050  0.989834  1
  Ru  Ru31  1  0.250000  0.785542  0.489477  1
  Ru  Ru32  1  0.750000  0.290328  0.013358  1
  Ru  Ru33  1  0.750000  0.209579  0.513389  1
  Ru  Ru34  1  0.250000  0.408804  0.487447  1
  Ru  Ru35  1  0.250000  0.090906  0.988286  1
