# generated using pymatgen
data_Ho4ErIn2Bi
_symmetry_space_group_name_H-M   'P 1'
_cell_length_a   9.01785603
_cell_length_b   9.01248709
_cell_length_c   6.58004500
_cell_angle_alpha   89.99918381
_cell_angle_beta   90.00040376
_cell_angle_gamma   119.98030925
_symmetry_Int_Tables_number   1
_chemical_formula_structural   Ho4ErIn2Bi
_chemical_formula_sum   'Ho8 Er2 In4 Bi2'
_cell_volume   463.22670207
_cell_formula_units_Z   2
loop_
 _symmetry_equiv_pos_site_id
 _symmetry_equiv_pos_as_xyz
  1  'x, y, z'
loop_
 _atom_site_type_symbol
 _atom_site_label
 _atom_site_symmetry_multiplicity
 _atom_site_fract_x
 _atom_site_fract_y
 _atom_site_fract_z
 _atom_site_occupancy
  Ho  Ho0  1  0.670811  0.338123  0.006459  1
  Ho  Ho1  1  0.329189  0.667312  0.006459  1
  Ho  Ho2  1  0.769837  0.761048  0.749871  1
  Ho  Ho3  1  0.230163  0.991211  0.749871  1
  Ho  Ho4  1  0.000000  0.241416  0.749844  1
  Ho  Ho5  1  0.236941  0.237416  0.250063  1
  Ho  Ho6  1  0.763059  0.000475  0.250063  1
  Ho  Ho7  1  0.000000  0.761623  0.250072  1
  Er  Er8  1  0.329214  0.667315  0.493395  1
  Er  Er9  1  0.670786  0.338100  0.493395  1
  In  In10  1  0.000000  0.597191  0.749455  1
  In  In11  1  0.604045  0.606128  0.250501  1
  In  In12  1  0.395955  0.002083  0.250501  1
  In  In13  1  0.000000  0.396872  0.250575  1
  Bi  Bi14  1  0.395220  0.394453  0.749737  1
  Bi  Bi15  1  0.604780  0.999233  0.749737  1
