# generated using pymatgen
data_Tb5Er5Ir4
_symmetry_space_group_name_H-M   'P 1'
_cell_length_a   6.47822053
_cell_length_b   7.21012899
_cell_length_c   8.52241150
_cell_angle_alpha   96.99092211
_cell_angle_beta   112.09721385
_cell_angle_gamma   89.87631362
_symmetry_Int_Tables_number   1
_chemical_formula_structural   Tb5Er5Ir4
_chemical_formula_sum   'Tb5 Er5 Ir4'
_cell_volume   365.67782224
_cell_formula_units_Z   1
loop_
 _symmetry_equiv_pos_site_id
 _symmetry_equiv_pos_as_xyz
  1  'x, y, z'
loop_
 _atom_site_type_symbol
 _atom_site_label
 _atom_site_symmetry_multiplicity
 _atom_site_fract_x
 _atom_site_fract_y
 _atom_site_fract_z
 _atom_site_occupancy
  Tb  Tb0  1  0.791846  0.082244  0.814887  1
  Tb  Tb1  1  0.976270  0.417711  0.185457  1
  Tb  Tb2  1  0.208745  0.916934  0.185052  1
  Tb  Tb3  1  0.023041  0.582886  0.814184  1
  Tb  Tb4  1  0.209523  0.184641  0.560605  1
  Er  Er5  1  0.648432  0.316186  0.438450  1
  Er  Er6  1  0.789635  0.815228  0.438261  1
  Er  Er7  1  0.351650  0.684147  0.561332  1
  Er  Er8  1  0.429237  0.250215  0.000708  1
  Er  Er9  1  0.571205  0.750086  0.000089  1
  Ir  Ir10  1  0.600554  0.426834  0.777877  1
  Ir  Ir11  1  0.820188  0.073685  0.221587  1
  Ir  Ir12  1  0.401406  0.574072  0.223594  1
  Ir  Ir13  1  0.178272  0.925132  0.777916  1
