# generated using pymatgen
data_K9AlSe7
_symmetry_space_group_name_H-M   'P 1'
_cell_length_a   8.35533800
_cell_length_b   11.34134875
_cell_length_c   25.16272600
_cell_angle_alpha   77.06204608
_cell_angle_beta   90.00000000
_cell_angle_gamma   90.00000000
_symmetry_Int_Tables_number   1
_chemical_formula_structural   K9AlSe7
_chemical_formula_sum   'K36 Al4 Se28'
_cell_volume   2323.90654512
_cell_formula_units_Z   4
loop_
 _symmetry_equiv_pos_site_id
 _symmetry_equiv_pos_as_xyz
  1  'x, y, z'
loop_
 _atom_site_type_symbol
 _atom_site_label
 _atom_site_symmetry_multiplicity
 _atom_site_fract_x
 _atom_site_fract_y
 _atom_site_fract_z
 _atom_site_occupancy
  K  K0  1  0.094842  0.989524  0.273205  1
  K  K1  1  0.594842  0.010476  0.226795  1
  K  K2  1  0.905158  0.010476  0.726795  1
  K  K3  1  0.405158  0.989524  0.773205  1
  K  K4  1  0.037533  0.840045  0.063061  1
  K  K5  1  0.537533  0.159955  0.436939  1
  K  K6  1  0.962467  0.159955  0.936939  1
  K  K7  1  0.462467  0.840045  0.563061  1
  K  K8  1  0.257318  0.546321  0.164403  1
  K  K9  1  0.757318  0.453679  0.335597  1
  K  K10  1  0.742682  0.453679  0.835597  1
  K  K11  1  0.242682  0.546321  0.664403  1
  K  K12  1  0.548968  0.768618  0.087491  1
  K  K13  1  0.048968  0.231382  0.412509  1
  K  K14  1  0.451032  0.231382  0.912509  1
  K  K15  1  0.951032  0.768618  0.587491  1
  K  K16  1  0.057690  0.574742  0.420798  1
  K  K17  1  0.557690  0.425258  0.079202  1
  K  K18  1  0.942310  0.425258  0.579202  1
  K  K19  1  0.442310  0.574742  0.920798  1
  K  K20  1  0.142536  0.885029  0.448883  1
  K  K21  1  0.642536  0.114971  0.051117  1
  K  K22  1  0.857464  0.114971  0.551117  1
  K  K23  1  0.357464  0.885029  0.948883  1
  K  K24  1  0.437104  0.260885  0.282070  1
  K  K25  1  0.937104  0.739115  0.217930  1
  K  K26  1  0.562896  0.739115  0.717930  1
  K  K27  1  0.062896  0.260885  0.782070  1
  K  K28  1  0.433857  0.708037  0.294391  1
  K  K29  1  0.933857  0.291963  0.205609  1
  K  K30  1  0.566143  0.291963  0.705609  1
  K  K31  1  0.066143  0.708037  0.794391  1
  K  K32  1  0.080889  0.350599  0.046614  1
  K  K33  1  0.580889  0.649401  0.453386  1
  K  K34  1  0.919111  0.649401  0.953386  1
  K  K35  1  0.419111  0.350599  0.546614  1
  Al  Al36  1  0.700576  0.946232  0.371682  1
  Al  Al37  1  0.200576  0.053768  0.128318  1
  Al  Al38  1  0.299424  0.053768  0.628318  1
  Al  Al39  1  0.799424  0.946232  0.871682  1
  Se  Se40  1  0.310432  0.219652  0.163866  1
  Se  Se41  1  0.810432  0.780348  0.336134  1
  Se  Se42  1  0.689568  0.780348  0.836134  1
  Se  Se43  1  0.189568  0.219652  0.663866  1
  Se  Se44  1  0.305113  0.857734  0.175946  1
  Se  Se45  1  0.805113  0.142266  0.324054  1
  Se  Se46  1  0.694887  0.142266  0.824054  1
  Se  Se47  1  0.194887  0.857734  0.675946  1
  Se  Se48  1  0.411875  0.956361  0.353891  1
  Se  Se49  1  0.911875  0.043639  0.146109  1
  Se  Se50  1  0.588125  0.043639  0.646109  1
  Se  Se51  1  0.088125  0.956361  0.853891  1
  Se  Se52  1  0.757912  0.913718  0.469285  1
  Se  Se53  1  0.257912  0.086282  0.030715  1
  Se  Se54  1  0.242088  0.086282  0.530715  1
  Se  Se55  1  0.742088  0.913718  0.969285  1
  Se  Se56  1  0.154909  0.470018  0.300660  1
  Se  Se57  1  0.654909  0.529982  0.199340  1
  Se  Se58  1  0.845091  0.529982  0.699340  1
  Se  Se59  1  0.345091  0.470018  0.800660  1
  Se  Se60  1  0.364223  0.434505  0.371410  1
  Se  Se61  1  0.864223  0.565495  0.128590  1
  Se  Se62  1  0.635777  0.565495  0.628590  1
  Se  Se63  1  0.135777  0.434505  0.871410  1
  Se  Se64  1  0.264471  0.623534  0.030864  1
  Se  Se65  1  0.764471  0.376466  0.469136  1
  Se  Se66  1  0.735529  0.376466  0.969136  1
  Se  Se67  1  0.235529  0.623534  0.530864  1
