# generated using pymatgen
data_Ca2Nd4Si3Ge
_symmetry_space_group_name_H-M   'P 1'
_cell_length_a   7.71048822
_cell_length_b   7.71048891
_cell_length_c   4.41374000
_cell_angle_alpha   90.00000000
_cell_angle_beta   90.00000000
_cell_angle_gamma   90.14318598
_symmetry_Int_Tables_number   1
_chemical_formula_structural   Ca2Nd4Si3Ge
_chemical_formula_sum   'Ca2 Nd4 Si3 Ge1'
_cell_volume   262.40323534
_cell_formula_units_Z   1
loop_
 _symmetry_equiv_pos_site_id
 _symmetry_equiv_pos_as_xyz
  1  'x, y, z'
loop_
 _atom_site_type_symbol
 _atom_site_label
 _atom_site_symmetry_multiplicity
 _atom_site_fract_x
 _atom_site_fract_y
 _atom_site_fract_z
 _atom_site_occupancy
  Ca  Ca0  1  0.500741  0.501331  0.000000  1
  Ca  Ca1  1  0.998669  0.999259  0.000000  1
  Nd  Nd2  1  0.679923  0.178000  0.500000  1
  Nd  Nd3  1  0.322000  0.820077  0.500000  1
  Nd  Nd4  1  0.176486  0.323514  0.500000  1
  Nd  Nd5  1  0.822382  0.677618  0.500000  1
  Si  Si6  1  0.111230  0.611273  0.000000  1
  Si  Si7  1  0.888727  0.388770  0.000000  1
  Si  Si8  1  0.613936  0.886064  0.000000  1
  Ge  Ge9  1  0.385907  0.114093  0.000000  1
