# generated using pymatgen
data_La2PrCd3IrAu2
_symmetry_space_group_name_H-M   'P 1'
_cell_length_a   8.06427286
_cell_length_b   8.08131221
_cell_length_c   3.98218400
_cell_angle_alpha   90.00000000
_cell_angle_beta   90.00000000
_cell_angle_gamma   120.22002509
_symmetry_Int_Tables_number   1
_chemical_formula_structural   La2PrCd3IrAu2
_chemical_formula_sum   'La2 Pr1 Cd3 Ir1 Au2'
_cell_volume   224.24971298
_cell_formula_units_Z   1
loop_
 _symmetry_equiv_pos_site_id
 _symmetry_equiv_pos_as_xyz
  1  'x, y, z'
loop_
 _atom_site_type_symbol
 _atom_site_label
 _atom_site_symmetry_multiplicity
 _atom_site_fract_x
 _atom_site_fract_y
 _atom_site_fract_z
 _atom_site_occupancy
  La  La0  1  0.577616  0.975424  0.000000  1
  La  La1  1  0.024107  0.601322  0.000000  1
  Pr  Pr2  1  0.397960  0.419719  0.000000  1
  Cd  Cd3  1  0.259208  0.002386  0.500000  1
  Cd  Cd4  1  0.000707  0.258393  0.500000  1
  Cd  Cd5  1  0.740358  0.739284  0.500000  1
  Ir  Ir6  1  0.332819  0.669452  0.500000  1
  Au  Au7  1  0.666681  0.333474  0.500000  1
  Au  Au8  1  0.000543  0.000547  0.000000  1
