# generated using pymatgen
data_YCoCuO5
_symmetry_space_group_name_H-M   'P 1'
_cell_length_a   5.61754800
_cell_length_b   7.52226500
_cell_length_c   8.36325700
_cell_angle_alpha   90.00000000
_cell_angle_beta   90.00000000
_cell_angle_gamma   90.00000000
_symmetry_Int_Tables_number   1
_chemical_formula_structural   YCoCuO5
_chemical_formula_sum   'Y4 Co4 Cu4 O20'
_cell_volume   353.40351417
_cell_formula_units_Z   4
loop_
 _symmetry_equiv_pos_site_id
 _symmetry_equiv_pos_as_xyz
  1  'x, y, z'
loop_
 _atom_site_type_symbol
 _atom_site_label
 _atom_site_symmetry_multiplicity
 _atom_site_fract_x
 _atom_site_fract_y
 _atom_site_fract_z
 _atom_site_occupancy
  Y  Y0  1  0.500000  0.349759  0.327132  1
  Y  Y1  1  0.500000  0.650241  0.672868  1
  Y  Y2  1  0.500000  0.150241  0.827132  1
  Y  Y3  1  0.500000  0.849759  0.172868  1
  Co  Co4  1  0.242083  0.000000  0.500000  1
  Co  Co5  1  0.757917  0.000000  0.500000  1
  Co  Co6  1  0.757917  0.500000  0.000000  1
  Co  Co7  1  0.242083  0.500000  0.000000  1
  Cu  Cu8  1  0.000000  0.071556  0.153546  1
  Cu  Cu9  1  0.000000  0.928444  0.846454  1
  Cu  Cu10  1  0.000000  0.428444  0.653546  1
  Cu  Cu11  1  0.000000  0.571556  0.346454  1
  O  O12  1  0.228699  0.000000  0.000000  1
  O  O13  1  0.771301  0.000000  0.000000  1
  O  O14  1  0.771301  0.500000  0.500000  1
  O  O15  1  0.228699  0.500000  0.500000  1
  O  O16  1  0.000000  0.351981  0.060259  1
  O  O17  1  0.000000  0.648019  0.939741  1
  O  O18  1  0.000000  0.148019  0.560259  1
  O  O19  1  0.000000  0.851981  0.439741  1
  O  O20  1  0.258346  0.092054  0.291465  1
  O  O21  1  0.741654  0.907946  0.708535  1
  O  O22  1  0.258346  0.907946  0.708535  1
  O  O23  1  0.741654  0.407946  0.791465  1
  O  O24  1  0.741654  0.092054  0.291465  1
  O  O25  1  0.258346  0.592054  0.208535  1
  O  O26  1  0.741654  0.592054  0.208535  1
  O  O27  1  0.258346  0.407946  0.791465  1
  O  O28  1  0.500000  0.338320  0.052099  1
  O  O29  1  0.500000  0.661680  0.947901  1
  O  O30  1  0.500000  0.161680  0.552099  1
  O  O31  1  0.500000  0.838320  0.447901  1
