# generated using pymatgen
data_TbY5(GaC3)2
_symmetry_space_group_name_H-M   'P 1'
_cell_length_a   3.58889200
_cell_length_b   7.08971700
_cell_length_c   9.89117100
_cell_angle_alpha   90.00000000
_cell_angle_beta   90.00000000
_cell_angle_gamma   90.00000000
_symmetry_Int_Tables_number   1
_chemical_formula_structural   TbY5(GaC3)2
_chemical_formula_sum   'Tb1 Y5 Ga2 C6'
_cell_volume   251.67321628
_cell_formula_units_Z   1
loop_
 _symmetry_equiv_pos_site_id
 _symmetry_equiv_pos_as_xyz
  1  'x, y, z'
loop_
 _atom_site_type_symbol
 _atom_site_label
 _atom_site_symmetry_multiplicity
 _atom_site_fract_x
 _atom_site_fract_y
 _atom_site_fract_z
 _atom_site_occupancy
  Tb  Tb0  1  0.000000  0.250000  0.541269  1
  Y  Y1  1  0.500000  0.510744  0.196514  1
  Y  Y2  1  0.500000  0.489405  0.803629  1
  Y  Y3  1  0.500000  0.989256  0.196514  1
  Y  Y4  1  0.500000  0.010595  0.803629  1
  Y  Y5  1  0.000000  0.750000  0.457959  1
  Ga  Ga6  1  0.000000  0.750000  0.000685  1
  Ga  Ga7  1  0.000000  0.250000  0.999328  1
  C  C8  1  0.500000  0.510172  0.566818  1
  C  C9  1  0.500000  0.491677  0.433583  1
  C  C10  1  0.500000  0.989828  0.566818  1
  C  C11  1  0.500000  0.008323  0.433583  1
  C  C12  1  0.000000  0.750000  0.207968  1
  C  C13  1  0.000000  0.250000  0.791703  1
