# generated using pymatgen
data_Tb3Ag2Hg
_symmetry_space_group_name_H-M   'P 1'
_cell_length_a   5.21334600
_cell_length_b   5.21334644
_cell_length_c   6.37191900
_cell_angle_alpha   90.00000000
_cell_angle_beta   90.00000000
_cell_angle_gamma   120.00000993
_symmetry_Int_Tables_number   1
_chemical_formula_structural   Tb3Ag2Hg
_chemical_formula_sum   'Tb3 Ag2 Hg1'
_cell_volume   149.98021412
_cell_formula_units_Z   1
loop_
 _symmetry_equiv_pos_site_id
 _symmetry_equiv_pos_as_xyz
  1  'x, y, z'
loop_
 _atom_site_type_symbol
 _atom_site_label
 _atom_site_symmetry_multiplicity
 _atom_site_fract_x
 _atom_site_fract_y
 _atom_site_fract_z
 _atom_site_occupancy
  Tb  Tb0  1  0.000000  0.000000  0.000000  1
  Tb  Tb1  1  0.333333  0.666667  0.674362  1
  Tb  Tb2  1  0.666667  0.333333  0.325638  1
  Ag  Ag3  1  0.666667  0.333333  0.823372  1
  Ag  Ag4  1  0.333333  0.666667  0.176628  1
  Hg  Hg5  1  0.000000  0.000000  0.500000  1
