# generated using pymatgen
data_Zr10AlSi5O
_symmetry_space_group_name_H-M   'P 1'
_cell_length_a   8.02430405
_cell_length_b   8.01721716
_cell_length_c   5.60536797
_cell_angle_alpha   90.04900801
_cell_angle_beta   89.90207050
_cell_angle_gamma   120.02924131
_symmetry_Int_Tables_number   1
_chemical_formula_structural   Zr10AlSi5O
_chemical_formula_sum   'Zr10 Al1 Si5 O1'
_cell_volume   312.20302418
_cell_formula_units_Z   1
loop_
 _symmetry_equiv_pos_site_id
 _symmetry_equiv_pos_as_xyz
  1  'x, y, z'
loop_
 _atom_site_type_symbol
 _atom_site_label
 _atom_site_symmetry_multiplicity
 _atom_site_fract_x
 _atom_site_fract_y
 _atom_site_fract_z
 _atom_site_occupancy
  Zr  Zr0  1  0.000529  0.754302  0.254353  1
  Zr  Zr1  1  0.246227  0.245698  0.254353  1
  Zr  Zr2  1  0.758214  0.000000  0.254519  1
  Zr  Zr3  1  0.003309  0.247123  0.745072  1
  Zr  Zr4  1  0.756186  0.752877  0.745072  1
  Zr  Zr5  1  0.241326  0.000000  0.747215  1
  Zr  Zr6  1  0.329604  0.662389  0.499100  1
  Zr  Zr7  1  0.667216  0.337611  0.499100  1
  Zr  Zr8  1  0.666847  0.337694  0.001146  1
  Zr  Zr9  1  0.329152  0.662306  0.001146  1
  Al  Al10  1  0.601990  0.000000  0.753272  1
  Si  Si11  1  0.998020  0.393582  0.245928  1
  Si  Si12  1  0.604438  0.606418  0.245928  1
  Si  Si13  1  0.398795  0.000000  0.245936  1
  Si  Si14  1  0.000214  0.604129  0.754317  1
  Si  Si15  1  0.396084  0.395871  0.754317  1
  O  O16  1  0.001847  0.000000  0.499226  1
