# generated using pymatgen
data_Cs3LiSn4
_symmetry_space_group_name_H-M   'P 1'
_cell_length_a   9.20684197
_cell_length_b   9.20684284
_cell_length_c   10.63560700
_cell_angle_alpha   90.00000000
_cell_angle_beta   90.00000000
_cell_angle_gamma   130.72101918
_symmetry_Int_Tables_number   1
_chemical_formula_structural   Cs3LiSn4
_chemical_formula_sum   'Cs6 Li2 Sn8'
_cell_volume   683.27066660
_cell_formula_units_Z   2
loop_
 _symmetry_equiv_pos_site_id
 _symmetry_equiv_pos_as_xyz
  1  'x, y, z'
loop_
 _atom_site_type_symbol
 _atom_site_label
 _atom_site_symmetry_multiplicity
 _atom_site_fract_x
 _atom_site_fract_y
 _atom_site_fract_z
 _atom_site_occupancy
  Cs  Cs0  1  0.222719  0.777281  0.250000  1
  Cs  Cs1  1  0.777281  0.222719  0.750000  1
  Cs  Cs2  1  0.613682  0.386318  0.043374  1
  Cs  Cs3  1  0.386318  0.613682  0.956626  1
  Cs  Cs4  1  0.386318  0.613682  0.543374  1
  Cs  Cs5  1  0.613682  0.386318  0.456626  1
  Li  Li6  1  0.000000  0.000000  0.000000  1
  Li  Li7  1  0.000000  0.000000  0.500000  1
  Sn  Sn8  1  0.162800  0.228847  0.250000  1
  Sn  Sn9  1  0.837200  0.771153  0.750000  1
  Sn  Sn10  1  0.771153  0.837200  0.250000  1
  Sn  Sn11  1  0.228847  0.162800  0.750000  1
  Sn  Sn12  1  0.839186  0.160814  0.111395  1
  Sn  Sn13  1  0.160814  0.839186  0.888605  1
  Sn  Sn14  1  0.160814  0.839186  0.611395  1
  Sn  Sn15  1  0.839186  0.160814  0.388605  1
