# generated using pymatgen
data_Tb2Dy4GaNiOs
_symmetry_space_group_name_H-M   'P 1'
_cell_length_a   8.34852092
_cell_length_b   8.35536198
_cell_length_c   8.34852133
_cell_angle_alpha   112.95018552
_cell_angle_beta   110.26105934
_cell_angle_gamma   105.26214564
_symmetry_Int_Tables_number   1
_chemical_formula_structural   Tb2Dy4GaNiOs
_chemical_formula_sum   'Tb4 Dy8 Ga2 Ni2 Os2'
_cell_volume   446.41933676
_cell_formula_units_Z   2
loop_
 _symmetry_equiv_pos_site_id
 _symmetry_equiv_pos_as_xyz
  1  'x, y, z'
loop_
 _atom_site_type_symbol
 _atom_site_label
 _atom_site_symmetry_multiplicity
 _atom_site_fract_x
 _atom_site_fract_y
 _atom_site_fract_z
 _atom_site_occupancy
  Tb  Tb0  1  0.050622  0.743168  0.308222  1
  Tb  Tb1  1  0.949378  0.256832  0.691778  1
  Tb  Tb2  1  0.565053  0.256832  0.307454  1
  Tb  Tb3  1  0.434947  0.743168  0.692546  1
  Dy  Dy4  1  0.669056  0.855709  0.186655  1
  Dy  Dy5  1  0.330691  0.517122  0.186430  1
  Dy  Dy6  1  0.330945  0.144291  0.813345  1
  Dy  Dy7  1  0.669310  0.482878  0.813570  1
  Dy  Dy8  1  0.180132  0.222541  0.401867  1
  Dy  Dy9  1  0.820674  0.222541  0.042409  1
  Dy  Dy10  1  0.179326  0.777459  0.957591  1
  Dy  Dy11  1  0.819868  0.777459  0.598133  1
  Ga  Ga12  1  0.000000  0.500000  0.500000  1
  Ga  Ga13  1  0.500000  0.000000  0.500000  1
  Ni  Ni14  1  0.884501  0.884451  0.999950  1
  Ni  Ni15  1  0.115499  0.115549  0.000050  1
  Os  Os16  1  0.671312  0.500000  0.171312  1
  Os  Os17  1  0.328688  0.500000  0.828688  1
