# generated using pymatgen
data_HoTmFe8(P3Ru)2
_symmetry_space_group_name_H-M   'P 1'
_cell_length_a   3.70286300
_cell_length_b   10.34869100
_cell_length_c   11.79914100
_cell_angle_alpha   90.00000000
_cell_angle_beta   90.00000000
_cell_angle_gamma   90.00000000
_symmetry_Int_Tables_number   1
_chemical_formula_structural   HoTmFe8(P3Ru)2
_chemical_formula_sum   'Ho2 Tm2 Fe16 P12 Ru4'
_cell_volume   452.14054633
_cell_formula_units_Z   2
loop_
 _symmetry_equiv_pos_site_id
 _symmetry_equiv_pos_as_xyz
  1  'x, y, z'
loop_
 _atom_site_type_symbol
 _atom_site_label
 _atom_site_symmetry_multiplicity
 _atom_site_fract_x
 _atom_site_fract_y
 _atom_site_fract_z
 _atom_site_occupancy
  Ho  Ho0  1  0.750000  0.418167  0.296011  1
  Ho  Ho1  1  0.750000  0.081833  0.796011  1
  Tm  Tm2  1  0.250000  0.581821  0.703899  1
  Tm  Tm3  1  0.250000  0.918179  0.203899  1
  Fe  Fe4  1  0.250000  0.405633  0.489646  1
  Fe  Fe5  1  0.250000  0.094367  0.989646  1
  Fe  Fe6  1  0.750000  0.594551  0.511080  1
  Fe  Fe7  1  0.750000  0.905449  0.011080  1
  Fe  Fe8  1  0.250000  0.219431  0.175746  1
  Fe  Fe9  1  0.250000  0.280569  0.675746  1
  Fe  Fe10  1  0.750000  0.779982  0.824173  1
  Fe  Fe11  1  0.750000  0.720018  0.324173  1
  Fe  Fe12  1  0.250000  0.877340  0.703692  1
  Fe  Fe13  1  0.250000  0.622660  0.203692  1
  Fe  Fe14  1  0.750000  0.121857  0.296060  1
  Fe  Fe15  1  0.750000  0.378143  0.796060  1
  Fe  Fe16  1  0.250000  0.462866  0.932369  1
  Fe  Fe17  1  0.250000  0.037134  0.432369  1
  Fe  Fe18  1  0.750000  0.537555  0.067264  1
  Fe  Fe19  1  0.750000  0.962445  0.567264  1
  P  P20  1  0.250000  0.424571  0.114510  1
  P  P21  1  0.250000  0.075429  0.614510  1
  P  P22  1  0.750000  0.575574  0.884833  1
  P  P23  1  0.750000  0.924426  0.384833  1
  P  P24  1  0.250000  0.266348  0.867695  1
  P  P25  1  0.250000  0.233652  0.367695  1
  P  P26  1  0.750000  0.734296  0.132617  1
  P  P27  1  0.750000  0.765704  0.632617  1
  P  P28  1  0.250000  0.595634  0.394764  1
  P  P29  1  0.250000  0.904366  0.894764  1
  P  P30  1  0.750000  0.404929  0.605514  1
  P  P31  1  0.750000  0.095071  0.105514  1
  Ru  Ru32  1  0.250000  0.707881  0.988052  1
  Ru  Ru33  1  0.250000  0.792119  0.488052  1
  Ru  Ru34  1  0.750000  0.292081  0.012076  1
  Ru  Ru35  1  0.750000  0.207919  0.512076  1
