# generated using pymatgen
data_Tm3Lu2W2C7
_symmetry_space_group_name_H-M   'P 1'
_cell_length_a   8.29163271
_cell_length_b   8.28985251
_cell_length_c   3.36146800
_cell_angle_alpha   90.00000000
_cell_angle_beta   90.00000000
_cell_angle_gamma   121.93856283
_symmetry_Int_Tables_number   1
_chemical_formula_structural   Tm3Lu2W2C7
_chemical_formula_sum   'Tm3 Lu2 W2 C7'
_cell_volume   196.07714286
_cell_formula_units_Z   1
loop_
 _symmetry_equiv_pos_site_id
 _symmetry_equiv_pos_as_xyz
  1  'x, y, z'
loop_
 _atom_site_type_symbol
 _atom_site_label
 _atom_site_symmetry_multiplicity
 _atom_site_fract_x
 _atom_site_fract_y
 _atom_site_fract_z
 _atom_site_occupancy
  Tm  Tm0  1  0.667028  0.924314  0.500000  1
  Tm  Tm1  1  0.075946  0.332680  0.500000  1
  Tm  Tm2  1  0.924252  0.667354  0.500000  1
  Lu  Lu3  1  0.334627  0.076845  0.500000  1
  Lu  Lu4  1  0.499637  0.499722  0.000000  1
  W  W5  1  0.286851  0.713224  0.000000  1
  W  W6  1  0.712624  0.287110  0.000000  1
  C  C7  1  0.169426  0.167543  0.000000  1
  C  C8  1  0.831474  0.831677  0.000000  1
  C  C9  1  0.000166  0.999780  0.000000  1
  C  C10  1  0.377940  0.622097  0.500000  1
  C  C11  1  0.621274  0.377486  0.500000  1
  C  C12  1  0.498966  0.000297  0.000000  1
  C  C13  1  0.999788  0.499870  0.000000  1
