# generated using pymatgen
data_Er6CrFe9(Co2P3)4
_symmetry_space_group_name_H-M   'P 1'
_cell_length_a   3.69188500
_cell_length_b   10.52513700
_cell_length_c   12.03803300
_cell_angle_alpha   90.00000000
_cell_angle_beta   90.00000000
_cell_angle_gamma   90.00000000
_symmetry_Int_Tables_number   1
_chemical_formula_structural   Er6CrFe9(Co2P3)4
_chemical_formula_sum   'Er6 Cr1 Fe9 Co8 P12'
_cell_volume   467.76901589
_cell_formula_units_Z   1
loop_
 _symmetry_equiv_pos_site_id
 _symmetry_equiv_pos_as_xyz
  1  'x, y, z'
loop_
 _atom_site_type_symbol
 _atom_site_label
 _atom_site_symmetry_multiplicity
 _atom_site_fract_x
 _atom_site_fract_y
 _atom_site_fract_z
 _atom_site_occupancy
  Er  Er0  1  0.750000  0.250000  0.475203  1
  Er  Er1  1  0.250000  0.750000  0.525076  1
  Er  Er2  1  0.250000  0.930090  0.794630  1
  Er  Er3  1  0.250000  0.569910  0.794630  1
  Er  Er4  1  0.750000  0.068954  0.203388  1
  Er  Er5  1  0.750000  0.431046  0.203388  1
  Cr  Cr6  1  0.250000  0.250000  0.849294  1
  Fe  Fe7  1  0.750000  0.750000  0.153670  1
  Fe  Fe8  1  0.750000  0.250000  0.013148  1
  Fe  Fe9  1  0.250000  0.750000  0.987949  1
  Fe  Fe10  1  0.250000  0.421188  0.005529  1
  Fe  Fe11  1  0.250000  0.078812  0.005529  1
  Fe  Fe12  1  0.250000  0.452486  0.569414  1
  Fe  Fe13  1  0.250000  0.047514  0.569414  1
  Fe  Fe14  1  0.250000  0.868423  0.291711  1
  Fe  Fe15  1  0.250000  0.631577  0.291711  1
  Co  Co16  1  0.250000  0.250000  0.300871  1
  Co  Co17  1  0.750000  0.750000  0.699304  1
  Co  Co18  1  0.750000  0.583745  0.993927  1
  Co  Co19  1  0.750000  0.916255  0.993927  1
  Co  Co20  1  0.750000  0.549051  0.429220  1
  Co  Co21  1  0.750000  0.950949  0.429220  1
  Co  Co22  1  0.750000  0.129946  0.710264  1
  Co  Co23  1  0.750000  0.370054  0.710264  1
  P  P24  1  0.250000  0.250000  0.115826  1
  P  P25  1  0.750000  0.750000  0.883422  1
  P  P26  1  0.250000  0.250000  0.654410  1
  P  P27  1  0.750000  0.750000  0.339561  1
  P  P28  1  0.250000  0.441846  0.383125  1
  P  P29  1  0.250000  0.058154  0.383125  1
  P  P30  1  0.750000  0.557074  0.615142  1
  P  P31  1  0.750000  0.942926  0.615142  1
  P  P32  1  0.250000  0.900873  0.109186  1
  P  P33  1  0.250000  0.599127  0.109186  1
  P  P34  1  0.750000  0.095688  0.895599  1
  P  P35  1  0.750000  0.404312  0.895599  1
