# generated using pymatgen
data_Y2Ta3B4Ru10W
_symmetry_space_group_name_H-M   'P 1'
_cell_length_a   9.57506782
_cell_length_b   9.55318814
_cell_length_c   3.06664000
_cell_angle_alpha   90.00000000
_cell_angle_beta   90.00000000
_cell_angle_gamma   90.69768499
_symmetry_Int_Tables_number   1
_chemical_formula_structural   Y2Ta3B4Ru10W
_chemical_formula_sum   'Y2 Ta3 B4 Ru10 W1'
_cell_volume   280.49219871
_cell_formula_units_Z   1
loop_
 _symmetry_equiv_pos_site_id
 _symmetry_equiv_pos_as_xyz
  1  'x, y, z'
loop_
 _atom_site_type_symbol
 _atom_site_label
 _atom_site_symmetry_multiplicity
 _atom_site_fract_x
 _atom_site_fract_y
 _atom_site_fract_z
 _atom_site_occupancy
  Y  Y0  1  0.823612  0.676496  0.000000  1
  Y  Y1  1  0.176388  0.323504  0.000000  1
  Ta  Ta2  1  0.323785  0.825518  0.000000  1
  Ta  Ta3  1  0.676215  0.174482  0.000000  1
  Ta  Ta4  1  0.000000  0.000000  0.000000  1
  B  B5  1  0.620602  0.880922  0.000000  1
  B  B6  1  0.379398  0.119078  0.000000  1
  B  B7  1  0.120510  0.622109  0.000000  1
  B  B8  1  0.879490  0.377891  0.000000  1
  Ru  Ru9  1  0.559064  0.720558  0.500000  1
  Ru  Ru10  1  0.440936  0.279442  0.500000  1
  Ru  Ru11  1  0.082874  0.785044  0.500000  1
  Ru  Ru12  1  0.917126  0.214956  0.500000  1
  Ru  Ru13  1  0.288053  0.579110  0.500000  1
  Ru  Ru14  1  0.711947  0.420890  0.500000  1
  Ru  Ru15  1  0.223491  0.060621  0.500000  1
  Ru  Ru16  1  0.776509  0.939379  0.500000  1
  Ru  Ru17  1  0.500000  0.000000  0.500000  1
  Ru  Ru18  1  0.000000  0.500000  0.500000  1
  W  W19  1  0.500000  0.500000  0.000000  1
