# generated using pymatgen
data_CoNi(BW)6
_symmetry_space_group_name_H-M   'P 1'
_cell_length_a   4.52798690
_cell_length_b   4.52798788
_cell_length_c   10.79388374
_cell_angle_alpha   89.92363265
_cell_angle_beta   90.07636598
_cell_angle_gamma   138.72880085
_symmetry_Int_Tables_number   1
_chemical_formula_structural   CoNi(BW)6
_chemical_formula_sum   'Co1 Ni1 B6 W6'
_cell_volume   145.97689682
_cell_formula_units_Z   1
loop_
 _symmetry_equiv_pos_site_id
 _symmetry_equiv_pos_as_xyz
  1  'x, y, z'
loop_
 _atom_site_type_symbol
 _atom_site_label
 _atom_site_symmetry_multiplicity
 _atom_site_fract_x
 _atom_site_fract_y
 _atom_site_fract_z
 _atom_site_occupancy
  Co  Co0  1  0.500000  0.500000  0.500000  1
  Ni  Ni1  1  0.500000  0.500000  0.000000  1
  B  B2  1  0.791323  0.208677  0.250485  1
  B  B3  1  0.208677  0.791323  0.749515  1
  B  B4  1  0.085752  0.914248  0.602304  1
  B  B5  1  0.914248  0.085752  0.397696  1
  B  B6  1  0.912238  0.087762  0.104618  1
  B  B7  1  0.087762  0.912238  0.895382  1
  W  W8  1  0.498227  0.501773  0.251091  1
  W  W9  1  0.501773  0.498227  0.748909  1
  W  W10  1  0.788161  0.211839  0.607004  1
  W  W11  1  0.211839  0.788161  0.392996  1
  W  W12  1  0.211777  0.788223  0.107833  1
  W  W13  1  0.788223  0.211777  0.892167  1
