# generated using pymatgen
data_Dy8ErTmIr6
_symmetry_space_group_name_H-M   'P 1'
_cell_length_a   10.87801200
_cell_length_b   10.87801200
_cell_length_c   6.35748300
_cell_angle_alpha   90.00000000
_cell_angle_beta   90.00000000
_cell_angle_gamma   90.00000000
_symmetry_Int_Tables_number   1
_chemical_formula_structural   Dy8ErTmIr6
_chemical_formula_sum   'Dy16 Er2 Tm2 Ir12'
_cell_volume   752.28824317
_cell_formula_units_Z   2
loop_
 _symmetry_equiv_pos_site_id
 _symmetry_equiv_pos_as_xyz
  1  'x, y, z'
loop_
 _atom_site_type_symbol
 _atom_site_label
 _atom_site_symmetry_multiplicity
 _atom_site_fract_x
 _atom_site_fract_y
 _atom_site_fract_z
 _atom_site_occupancy
  Dy  Dy0  1  0.290665  0.087705  0.377366  1
  Dy  Dy1  1  0.290665  0.912295  0.877366  1
  Dy  Dy2  1  0.709335  0.087705  0.877366  1
  Dy  Dy3  1  0.709335  0.912295  0.377366  1
  Dy  Dy4  1  0.587638  0.790459  0.877392  1
  Dy  Dy5  1  0.587638  0.209541  0.377392  1
  Dy  Dy6  1  0.412362  0.790459  0.377392  1
  Dy  Dy7  1  0.412362  0.209541  0.877392  1
  Dy  Dy8  1  0.209541  0.412362  0.622608  1
  Dy  Dy9  1  0.209541  0.587638  0.122608  1
  Dy  Dy10  1  0.790459  0.412362  0.122608  1
  Dy  Dy11  1  0.790459  0.587638  0.622608  1
  Dy  Dy12  1  0.912295  0.709335  0.122634  1
  Dy  Dy13  1  0.912295  0.290665  0.622634  1
  Dy  Dy14  1  0.087705  0.709335  0.622634  1
  Dy  Dy15  1  0.087705  0.290665  0.122634  1
  Er  Er16  1  0.000000  0.000000  0.500000  1
  Er  Er17  1  0.000000  0.000000  0.000000  1
  Tm  Tm18  1  0.500000  0.500000  0.000000  1
  Tm  Tm19  1  0.500000  0.500000  0.500000  1
  Ir  Ir20  1  0.847301  0.152699  0.250000  1
  Ir  Ir21  1  0.847301  0.847301  0.750000  1
  Ir  Ir22  1  0.152699  0.152699  0.750000  1
  Ir  Ir23  1  0.152699  0.847301  0.250000  1
  Ir  Ir24  1  0.652279  0.347721  0.750000  1
  Ir  Ir25  1  0.652279  0.652279  0.250000  1
  Ir  Ir26  1  0.347721  0.347721  0.250000  1
  Ir  Ir27  1  0.347721  0.652279  0.750000  1
  Ir  Ir28  1  0.500000  0.000000  0.121980  1
  Ir  Ir29  1  0.500000  0.000000  0.621980  1
  Ir  Ir30  1  0.000000  0.500000  0.878020  1
  Ir  Ir31  1  0.000000  0.500000  0.378020  1
