# generated using pymatgen
data_Y3Pu(ZnPd)4
_symmetry_space_group_name_H-M   'P 1'
_cell_length_a   4.13699200
_cell_length_b   7.08974927
_cell_length_c   8.23650267
_cell_angle_alpha   88.72833057
_cell_angle_beta   90.00000000
_cell_angle_gamma   90.00000000
_symmetry_Int_Tables_number   1
_chemical_formula_structural   Y3Pu(ZnPd)4
_chemical_formula_sum   'Y3 Pu1 Zn4 Pd4'
_cell_volume   241.51906747
_cell_formula_units_Z   1
loop_
 _symmetry_equiv_pos_site_id
 _symmetry_equiv_pos_as_xyz
  1  'x, y, z'
loop_
 _atom_site_type_symbol
 _atom_site_label
 _atom_site_symmetry_multiplicity
 _atom_site_fract_x
 _atom_site_fract_y
 _atom_site_fract_z
 _atom_site_occupancy
  Y  Y0  1  0.250000  0.545896  0.187261  1
  Y  Y1  1  0.750000  0.955811  0.692220  1
  Y  Y2  1  0.750000  0.452978  0.809703  1
  Pu  Pu3  1  0.250000  0.043818  0.312825  1
  Zn  Zn4  1  0.250000  0.639023  0.565158  1
  Zn  Zn5  1  0.250000  0.135551  0.936692  1
  Zn  Zn6  1  0.750000  0.364657  0.434187  1
  Zn  Zn7  1  0.750000  0.862692  0.063585  1
  Pd  Pd8  1  0.250000  0.250368  0.615010  1
  Pd  Pd9  1  0.250000  0.749671  0.879050  1
  Pd  Pd10  1  0.750000  0.756570  0.380082  1
  Pd  Pd11  1  0.750000  0.242965  0.124228  1
