# generated using pymatgen
data_Hf18TiRe7GeOs
_symmetry_space_group_name_H-M   'P 1'
_cell_length_a   8.63480400
_cell_length_b   8.63480396
_cell_length_c   8.59990500
_cell_angle_alpha   90.00000000
_cell_angle_beta   90.00000000
_cell_angle_gamma   120.00000781
_symmetry_Int_Tables_number   1
_chemical_formula_structural   Hf18TiRe7GeOs
_chemical_formula_sum   'Hf18 Ti1 Re7 Ge1 Os1'
_cell_volume   555.30197423
_cell_formula_units_Z   1
loop_
 _symmetry_equiv_pos_site_id
 _symmetry_equiv_pos_as_xyz
  1  'x, y, z'
loop_
 _atom_site_type_symbol
 _atom_site_label
 _atom_site_symmetry_multiplicity
 _atom_site_fract_x
 _atom_site_fract_y
 _atom_site_fract_z
 _atom_site_occupancy
  Hf  Hf0  1  0.197333  0.802667  0.448065  1
  Hf  Hf1  1  0.197333  0.394666  0.448065  1
  Hf  Hf2  1  0.605334  0.802667  0.448065  1
  Hf  Hf3  1  0.805784  0.194216  0.546613  1
  Hf  Hf4  1  0.805784  0.611567  0.546613  1
  Hf  Hf5  1  0.388433  0.194216  0.546613  1
  Hf  Hf6  1  0.807965  0.192035  0.953418  1
  Hf  Hf7  1  0.807965  0.615931  0.953418  1
  Hf  Hf8  1  0.384069  0.192035  0.953418  1
  Hf  Hf9  1  0.198438  0.801562  0.053483  1
  Hf  Hf10  1  0.198438  0.396877  0.053483  1
  Hf  Hf11  1  0.603123  0.801562  0.053483  1
  Hf  Hf12  1  0.540365  0.459635  0.249650  1
  Hf  Hf13  1  0.540365  0.080730  0.249650  1
  Hf  Hf14  1  0.919270  0.459635  0.249650  1
  Hf  Hf15  1  0.460858  0.539142  0.750594  1
  Hf  Hf16  1  0.460858  0.921718  0.750594  1
  Hf  Hf17  1  0.078282  0.539142  0.750594  1
  Ti  Ti18  1  0.000000  0.000000  0.498077  1
  Re  Re19  1  0.888618  0.111382  0.250695  1
  Re  Re20  1  0.888618  0.777234  0.250695  1
  Re  Re21  1  0.222766  0.111382  0.250695  1
  Re  Re22  1  0.110928  0.889072  0.747862  1
  Re  Re23  1  0.110928  0.221858  0.747862  1
  Re  Re24  1  0.778142  0.889072  0.747862  1
  Re  Re25  1  0.000000  0.000000  0.998458  1
  Ge  Ge26  1  0.666667  0.333333  0.752002  1
  Os  Os27  1  0.333333  0.666667  0.250324  1
