# generated using pymatgen
data_Ce3Be2Ru5
_symmetry_space_group_name_H-M   'P 1'
_cell_length_a   9.82413900
_cell_length_b   9.82413900
_cell_length_c   3.37595100
_cell_angle_alpha   90.00000000
_cell_angle_beta   90.00000000
_cell_angle_gamma   90.00000000
_symmetry_Int_Tables_number   1
_chemical_formula_structural   Ce3Be2Ru5
_chemical_formula_sum   'Ce6 Be4 Ru10'
_cell_volume   325.82554597
_cell_formula_units_Z   2
loop_
 _symmetry_equiv_pos_site_id
 _symmetry_equiv_pos_as_xyz
  1  'x, y, z'
loop_
 _atom_site_type_symbol
 _atom_site_label
 _atom_site_symmetry_multiplicity
 _atom_site_fract_x
 _atom_site_fract_y
 _atom_site_fract_z
 _atom_site_occupancy
  Ce  Ce0  1  0.828720  0.671280  0.000000  1
  Ce  Ce1  1  0.171280  0.328720  0.000000  1
  Ce  Ce2  1  0.328720  0.828720  0.000000  1
  Ce  Ce3  1  0.671280  0.171280  0.000000  1
  Ce  Ce4  1  0.500000  0.500000  0.000000  1
  Ce  Ce5  1  0.000000  0.000000  0.000000  1
  Be  Be6  1  0.621777  0.878223  0.000000  1
  Be  Be7  1  0.378223  0.121777  0.000000  1
  Be  Be8  1  0.121777  0.621777  0.000000  1
  Be  Be9  1  0.878223  0.378223  0.000000  1
  Ru  Ru10  1  0.573198  0.714790  0.500000  1
  Ru  Ru11  1  0.426802  0.285210  0.500000  1
  Ru  Ru12  1  0.073198  0.785210  0.500000  1
  Ru  Ru13  1  0.926802  0.214790  0.500000  1
  Ru  Ru14  1  0.285210  0.573198  0.500000  1
  Ru  Ru15  1  0.714790  0.426802  0.500000  1
  Ru  Ru16  1  0.214790  0.073198  0.500000  1
  Ru  Ru17  1  0.785210  0.926802  0.500000  1
  Ru  Ru18  1  0.500000  0.000000  0.500000  1
  Ru  Ru19  1  0.000000  0.500000  0.500000  1
