# generated using pymatgen
data_Ca6UWO12
_symmetry_space_group_name_H-M   'P 1'
_cell_length_a   6.69354427
_cell_length_b   6.69354361
_cell_length_c   6.69354485
_cell_angle_alpha   92.14757802
_cell_angle_beta   92.14757868
_cell_angle_gamma   92.14757446
_symmetry_Int_Tables_number   1
_chemical_formula_structural   Ca6UWO12
_chemical_formula_sum   'Ca6 U1 W1 O12'
_cell_volume   299.24626212
_cell_formula_units_Z   1
loop_
 _symmetry_equiv_pos_site_id
 _symmetry_equiv_pos_as_xyz
  1  'x, y, z'
loop_
 _atom_site_type_symbol
 _atom_site_label
 _atom_site_symmetry_multiplicity
 _atom_site_fract_x
 _atom_site_fract_y
 _atom_site_fract_z
 _atom_site_occupancy
  Ca  Ca0  1  0.932586  0.438414  0.741379  1
  Ca  Ca1  1  0.741379  0.932586  0.438414  1
  Ca  Ca2  1  0.561586  0.258621  0.067414  1
  Ca  Ca3  1  0.438414  0.741379  0.932586  1
  Ca  Ca4  1  0.258621  0.067414  0.561586  1
  Ca  Ca5  1  0.067414  0.561586  0.258621  1
  U  U6  1  0.000000  0.000000  0.000000  1
  W  W7  1  0.500000  0.500000  0.500000  1
  O  O8  1  0.927144  0.296740  0.065030  1
  O  O9  1  0.934970  0.072856  0.703260  1
  O  O10  1  0.780030  0.578678  0.454564  1
  O  O11  1  0.703260  0.934970  0.072856  1
  O  O12  1  0.578678  0.454564  0.780030  1
  O  O13  1  0.545436  0.219970  0.421322  1
  O  O14  1  0.454564  0.780030  0.578678  1
  O  O15  1  0.421322  0.545436  0.219970  1
  O  O16  1  0.296740  0.065030  0.927144  1
  O  O17  1  0.219970  0.421322  0.545436  1
  O  O18  1  0.065030  0.927144  0.296740  1
  O  O19  1  0.072856  0.703260  0.934970  1
