# generated using pymatgen
data_TbDyPa2(Al3Ir)6
_symmetry_space_group_name_H-M   'P 1'
_cell_length_a   7.60654200
_cell_length_b   7.61079972
_cell_length_c   9.38062000
_cell_angle_alpha   90.00000000
_cell_angle_beta   90.00000000
_cell_angle_gamma   119.69738136
_symmetry_Int_Tables_number   1
_chemical_formula_structural   TbDyPa2(Al3Ir)6
_chemical_formula_sum   'Tb1 Dy1 Pa2 Al18 Ir6'
_cell_volume   471.73272783
_cell_formula_units_Z   1
loop_
 _symmetry_equiv_pos_site_id
 _symmetry_equiv_pos_as_xyz
  1  'x, y, z'
loop_
 _atom_site_type_symbol
 _atom_site_label
 _atom_site_symmetry_multiplicity
 _atom_site_fract_x
 _atom_site_fract_y
 _atom_site_fract_z
 _atom_site_occupancy
  Tb  Tb0  1  0.669281  0.993718  0.750000  1
  Dy  Dy1  1  0.330692  0.006283  0.250000  1
  Pa  Pa2  1  0.997483  0.670882  0.750000  1
  Pa  Pa3  1  0.002507  0.329102  0.250000  1
  Al  Al4  1  0.130158  0.127333  0.750000  1
  Al  Al5  1  0.869961  0.872709  0.250000  1
  Al  Al6  1  0.000604  0.331657  0.577450  1
  Al  Al7  1  0.999520  0.668463  0.422484  1
  Al  Al8  1  0.999520  0.668463  0.077516  1
  Al  Al9  1  0.337850  0.003193  0.925581  1
  Al  Al10  1  0.000604  0.331657  0.922550  1
  Al  Al11  1  0.662035  0.996802  0.074587  1
  Al  Al12  1  0.662035  0.996802  0.425413  1
  Al  Al13  1  0.337850  0.003193  0.574419  1
  Al  Al14  1  0.335370  0.333330  0.053809  1
  Al  Al15  1  0.664627  0.666571  0.946270  1
  Al  Al16  1  0.664627  0.666571  0.553730  1
  Al  Al17  1  0.335370  0.333330  0.446191  1
  Al  Al18  1  0.340414  0.547660  0.750000  1
  Al  Al19  1  0.659488  0.452198  0.250000  1
  Al  Al20  1  0.548052  0.340640  0.750000  1
  Al  Al21  1  0.451909  0.659416  0.250000  1
  Ir  Ir22  1  0.676125  0.330039  0.499701  1
  Ir  Ir23  1  0.323814  0.669969  0.500198  1
  Ir  Ir24  1  0.323814  0.669969  0.999802  1
  Ir  Ir25  1  0.676125  0.330039  0.000299  1
  Ir  Ir26  1  0.000084  0.000007  0.499939  1
  Ir  Ir27  1  0.000084  0.000007  0.000061  1
