# generated using pymatgen
data_Hf6Ga6IrPd5
_symmetry_space_group_name_H-M   'P 1'
_cell_length_a   7.25123200
_cell_length_b   7.25123140
_cell_length_c   6.88036300
_cell_angle_alpha   90.00000000
_cell_angle_beta   90.00000000
_cell_angle_gamma   119.99999363
_symmetry_Int_Tables_number   1
_chemical_formula_structural   Hf6Ga6IrPd5
_chemical_formula_sum   'Hf6 Ga6 Ir1 Pd5'
_cell_volume   313.30373760
_cell_formula_units_Z   1
loop_
 _symmetry_equiv_pos_site_id
 _symmetry_equiv_pos_as_xyz
  1  'x, y, z'
loop_
 _atom_site_type_symbol
 _atom_site_label
 _atom_site_symmetry_multiplicity
 _atom_site_fract_x
 _atom_site_fract_y
 _atom_site_fract_z
 _atom_site_occupancy
  Hf  Hf0  1  0.609283  0.594106  0.252912  1
  Hf  Hf1  1  0.024801  0.410347  0.745488  1
  Hf  Hf2  1  0.405894  0.015177  0.252912  1
  Hf  Hf3  1  0.984823  0.390717  0.252912  1
  Hf  Hf4  1  0.385546  0.975199  0.745488  1
  Hf  Hf5  1  0.589653  0.614454  0.745488  1
  Ga  Ga6  1  0.270504  0.268154  0.498439  1
  Ga  Ga7  1  0.731846  0.002350  0.498439  1
  Ga  Ga8  1  0.997650  0.729496  0.498439  1
  Ga  Ga9  1  0.730106  0.001435  0.999710  1
  Ga  Ga10  1  0.271329  0.269894  0.999710  1
  Ga  Ga11  1  0.998565  0.728671  0.999710  1
  Ir  Ir12  1  0.333333  0.666667  0.479988  1
  Pd  Pd13  1  0.000000  0.000000  0.749084  1
  Pd  Pd14  1  0.000000  0.000000  0.248833  1
  Pd  Pd15  1  0.333333  0.666667  0.032860  1
  Pd  Pd16  1  0.666667  0.333333  0.529512  1
  Pd  Pd17  1  0.666667  0.333333  0.970077  1
