# generated using pymatgen
data_Er4Co5Cu3O20
_symmetry_space_group_name_H-M   'P 1'
_cell_length_a   5.72928200
_cell_length_b   7.23436834
_cell_length_c   8.46189900
_cell_angle_alpha   89.86749925
_cell_angle_beta   90.00000000
_cell_angle_gamma   90.00000000
_symmetry_Int_Tables_number   1
_chemical_formula_structural   Er4Co5Cu3O20
_chemical_formula_sum   'Er4 Co5 Cu3 O20'
_cell_volume   350.72562083
_cell_formula_units_Z   1
loop_
 _symmetry_equiv_pos_site_id
 _symmetry_equiv_pos_as_xyz
  1  'x, y, z'
loop_
 _atom_site_type_symbol
 _atom_site_label
 _atom_site_symmetry_multiplicity
 _atom_site_fract_x
 _atom_site_fract_y
 _atom_site_fract_z
 _atom_site_occupancy
  Er  Er0  1  0.000000  0.140232  0.176314  1
  Er  Er1  1  0.000000  0.859924  0.825532  1
  Er  Er2  1  0.000000  0.648184  0.325017  1
  Er  Er3  1  0.000000  0.348846  0.671742  1
  Co  Co4  1  0.259754  0.999879  0.500701  1
  Co  Co5  1  0.743974  0.498331  0.997506  1
  Co  Co6  1  0.740246  0.999879  0.500701  1
  Co  Co7  1  0.256026  0.498331  0.997506  1
  Co  Co8  1  0.500000  0.092918  0.853226  1
  Cu  Cu9  1  0.500000  0.428356  0.344766  1
  Cu  Cu10  1  0.500000  0.568583  0.653714  1
  Cu  Cu11  1  0.500000  0.927057  0.152057  1
  O  O12  1  0.272018  0.001280  0.000621  1
  O  O13  1  0.724421  0.500217  0.498888  1
  O  O14  1  0.727982  0.001280  0.000621  1
  O  O15  1  0.275579  0.500217  0.498888  1
  O  O16  1  0.000000  0.163936  0.446998  1
  O  O17  1  0.000000  0.836004  0.553333  1
  O  O18  1  0.000000  0.665063  0.051235  1
  O  O19  1  0.000000  0.335283  0.949099  1
  O  O20  1  0.500000  0.144666  0.437942  1
  O  O21  1  0.500000  0.856774  0.567402  1
  O  O22  1  0.500000  0.644276  0.056834  1
  O  O23  1  0.500000  0.341939  0.934439  1
  O  O24  1  0.242289  0.404158  0.208110  1
  O  O25  1  0.242501  0.593186  0.791145  1
  O  O26  1  0.757545  0.902520  0.290855  1
  O  O27  1  0.758737  0.099408  0.712349  1
  O  O28  1  0.757499  0.593186  0.791145  1
  O  O29  1  0.757711  0.404158  0.208110  1
  O  O30  1  0.241263  0.099408  0.712349  1
  O  O31  1  0.242455  0.902520  0.290855  1
