# generated using pymatgen
data_Dy3Zn3SiGeAu
_symmetry_space_group_name_H-M   'P 1'
_cell_length_a   6.92975200
_cell_length_b   6.92975126
_cell_length_c   4.29554600
_cell_angle_alpha   90.00000000
_cell_angle_beta   90.00000000
_cell_angle_gamma   119.99999397
_symmetry_Int_Tables_number   1
_chemical_formula_structural   Dy3Zn3SiGeAu
_chemical_formula_sum   'Dy3 Zn3 Si1 Ge1 Au1'
_cell_volume   178.64232855
_cell_formula_units_Z   1
loop_
 _symmetry_equiv_pos_site_id
 _symmetry_equiv_pos_as_xyz
  1  'x, y, z'
loop_
 _atom_site_type_symbol
 _atom_site_label
 _atom_site_symmetry_multiplicity
 _atom_site_fract_x
 _atom_site_fract_y
 _atom_site_fract_z
 _atom_site_occupancy
  Dy  Dy0  1  0.579866  0.001267  0.000000  1
  Dy  Dy1  1  0.998733  0.578600  0.000000  1
  Dy  Dy2  1  0.421400  0.420134  0.000000  1
  Zn  Zn3  1  0.247942  0.005909  0.500000  1
  Zn  Zn4  1  0.994091  0.242033  0.500000  1
  Zn  Zn5  1  0.757967  0.752058  0.500000  1
  Si  Si6  1  0.666667  0.333333  0.500000  1
  Ge  Ge7  1  0.333333  0.666667  0.500000  1
  Au  Au8  1  0.000000  0.000000  0.000000  1
