# generated using pymatgen
data_Er5BiIrPb
_symmetry_space_group_name_H-M   'P 1'
_cell_length_a   7.88483006
_cell_length_b   9.01678383
_cell_length_c   12.37110110
_cell_angle_alpha   90.06822813
_cell_angle_beta   90.07778284
_cell_angle_gamma   89.97158804
_symmetry_Int_Tables_number   1
_chemical_formula_structural   Er5BiIrPb
_chemical_formula_sum   'Er20 Bi4 Ir4 Pb4'
_cell_volume   879.53188936
_cell_formula_units_Z   4
loop_
 _symmetry_equiv_pos_site_id
 _symmetry_equiv_pos_as_xyz
  1  'x, y, z'
loop_
 _atom_site_type_symbol
 _atom_site_label
 _atom_site_symmetry_multiplicity
 _atom_site_fract_x
 _atom_site_fract_y
 _atom_site_fract_z
 _atom_site_occupancy
  Er  Er0  1  0.662407  0.753373  0.708484  1
  Er  Er1  1  0.334295  0.249343  0.291051  1
  Er  Er2  1  0.161509  0.246438  0.790823  1
  Er  Er3  1  0.841754  0.750181  0.208760  1
  Er  Er4  1  0.128796  0.753089  0.809464  1
  Er  Er5  1  0.876150  0.249777  0.192151  1
  Er  Er6  1  0.628482  0.247208  0.691523  1
  Er  Er7  1  0.366431  0.750505  0.310065  1
  Er  Er8  1  0.553023  0.752036  0.996237  1
  Er  Er9  1  0.445555  0.248152  0.001279  1
  Er  Er10  1  0.053397  0.248268  0.501741  1
  Er  Er11  1  0.947474  0.751778  0.495888  1
  Er  Er12  1  0.825850  0.458232  0.931641  1
  Er  Er13  1  0.174084  0.540918  0.070504  1
  Er  Er14  1  0.325050  0.540614  0.567490  1
  Er  Er15  1  0.173799  0.959781  0.069525  1
  Er  Er16  1  0.676442  0.460002  0.431167  1
  Er  Er17  1  0.824939  0.039505  0.929192  1
  Er  Er18  1  0.676237  0.039816  0.431896  1
  Er  Er19  1  0.323996  0.961022  0.569670  1
  Bi  Bi20  1  0.564844  0.007135  0.172962  1
  Bi  Bi21  1  0.935716  0.493497  0.673387  1
  Bi  Bi22  1  0.564529  0.493045  0.172167  1
  Bi  Bi23  1  0.436293  0.506578  0.827314  1
  Ir  Ir24  1  0.928530  0.749680  0.992198  1
  Ir  Ir25  1  0.071549  0.250025  0.007809  1
  Ir  Ir26  1  0.429970  0.250556  0.507745  1
  Ir  Ir27  1  0.569827  0.749785  0.492205  1
  Pb  Pb28  1  0.935987  0.006356  0.672601  1
  Pb  Pb29  1  0.063099  0.993442  0.327346  1
  Pb  Pb30  1  0.436233  0.993855  0.827832  1
  Pb  Pb31  1  0.063754  0.506009  0.327883  1
