# generated using pymatgen
data_TbGeBRh3
_symmetry_space_group_name_H-M   'P 1'
_cell_length_a   5.54352100
_cell_length_b   5.54279776
_cell_length_c   6.91231400
_cell_angle_alpha   90.00000000
_cell_angle_beta   90.00000000
_cell_angle_gamma   120.00433435
_symmetry_Int_Tables_number   1
_chemical_formula_structural   TbGeBRh3
_chemical_formula_sum   'Tb2 Ge2 B2 Rh6'
_cell_volume   183.92884761
_cell_formula_units_Z   2
loop_
 _symmetry_equiv_pos_site_id
 _symmetry_equiv_pos_as_xyz
  1  'x, y, z'
loop_
 _atom_site_type_symbol
 _atom_site_label
 _atom_site_symmetry_multiplicity
 _atom_site_fract_x
 _atom_site_fract_y
 _atom_site_fract_z
 _atom_site_occupancy
  Tb  Tb0  1  0.999975  0.000000  0.000000  1
  Tb  Tb1  1  0.999987  0.000000  0.500000  1
  Ge  Ge2  1  0.333318  0.666675  0.000000  1
  Ge  Ge3  1  0.666643  0.333325  0.000000  1
  B  B4  1  0.333316  0.666663  0.500000  1
  B  B5  1  0.666652  0.333337  0.500000  1
  Rh  Rh6  1  0.499984  0.000000  0.287713  1
  Rh  Rh7  1  0.499986  0.500001  0.287700  1
  Rh  Rh8  1  0.999984  0.499999  0.287700  1
  Rh  Rh9  1  0.499984  0.000000  0.712287  1
  Rh  Rh10  1  0.499986  0.500001  0.712300  1
  Rh  Rh11  1  0.999984  0.499999  0.712300  1
