# generated using pymatgen
data_CaTa2F12
_symmetry_space_group_name_H-M   'P 1'
_cell_length_a   11.81703286
_cell_length_b   5.85703946
_cell_length_c   5.89724657
_cell_angle_alpha   57.65653998
_cell_angle_beta   57.44397227
_cell_angle_gamma   57.64414261
_symmetry_Int_Tables_number   1
_chemical_formula_structural   CaTa2F12
_chemical_formula_sum   'Ca1 Ta2 F12'
_cell_volume   272.56684677
_cell_formula_units_Z   1
loop_
 _symmetry_equiv_pos_site_id
 _symmetry_equiv_pos_as_xyz
  1  'x, y, z'
loop_
 _atom_site_type_symbol
 _atom_site_label
 _atom_site_symmetry_multiplicity
 _atom_site_fract_x
 _atom_site_fract_y
 _atom_site_fract_z
 _atom_site_occupancy
  Ca  Ca0  1  0.750000  0.500000  0.500000  1
  Ta  Ta1  1  0.012487  0.986924  0.995528  1
  Ta  Ta2  1  0.487513  0.013076  0.004472  1
  F  F3  1  0.162216  0.132413  0.768323  1
  F  F4  1  0.658595  0.137832  0.776990  1
  F  F5  1  0.057189  0.781491  0.330157  1
  F  F6  1  0.573287  0.770859  0.307962  1
  F  F7  1  0.109698  0.669907  0.875928  1
  F  F8  1  0.616360  0.682800  0.861705  1
  F  F9  1  0.442811  0.218509  0.669843  1
  F  F10  1  0.926713  0.229141  0.692038  1
  F  F11  1  0.337784  0.867587  0.231677  1
  F  F12  1  0.841405  0.862168  0.223010  1
  F  F13  1  0.390302  0.330093  0.124072  1
  F  F14  1  0.883640  0.317200  0.138295  1
