# generated using pymatgen
data_Cs4Hf6BI18
_symmetry_space_group_name_H-M   'P 1'
_cell_length_a   11.91151077
_cell_length_b   11.91151000
_cell_length_c   11.49054168
_cell_angle_alpha   77.29677068
_cell_angle_beta   77.29677303
_cell_angle_gamma   117.47849667
_symmetry_Int_Tables_number   1
_chemical_formula_structural   Cs4Hf6BI18
_chemical_formula_sum   'Cs4 Hf6 B1 I18'
_cell_volume   1310.11353848
_cell_formula_units_Z   1
loop_
 _symmetry_equiv_pos_site_id
 _symmetry_equiv_pos_as_xyz
  1  'x, y, z'
loop_
 _atom_site_type_symbol
 _atom_site_label
 _atom_site_symmetry_multiplicity
 _atom_site_fract_x
 _atom_site_fract_y
 _atom_site_fract_z
 _atom_site_occupancy
  Cs  Cs0  1  0.767883  0.445266  0.682786  1
  Cs  Cs1  1  0.554734  0.232117  0.317214  1
  Cs  Cs2  1  0.232117  0.554734  0.317214  1
  Cs  Cs3  1  0.445266  0.767883  0.682786  1
  Hf  Hf4  1  0.110783  0.110783  0.127630  1
  Hf  Hf5  1  0.889217  0.889217  0.872370  1
  Hf  Hf6  1  0.956138  0.788451  0.132425  1
  Hf  Hf7  1  0.211549  0.043862  0.867575  1
  Hf  Hf8  1  0.043862  0.211549  0.867575  1
  Hf  Hf9  1  0.788451  0.956138  0.132425  1
  B  B10  1  0.000000  0.000000  0.000000  1
  I  I11  1  0.814884  0.614807  0.007463  1
  I  I12  1  0.385194  0.185116  0.992537  1
  I  I13  1  0.185116  0.385194  0.992537  1
  I  I14  1  0.614806  0.814884  0.007463  1
  I  I15  1  0.199545  0.800455  0.000000  1
  I  I16  1  0.800455  0.199545  0.000000  1
  I  I17  1  0.306792  0.306792  0.682772  1
  I  I18  1  0.693208  0.693208  0.317228  1
  I  I19  1  0.893211  0.506813  0.312501  1
  I  I20  1  0.493187  0.106789  0.687499  1
  I  I21  1  0.106789  0.493187  0.687499  1
  I  I22  1  0.506813  0.893211  0.312501  1
  I  I23  1  0.251570  0.251570  0.294654  1
  I  I24  1  0.748430  0.748430  0.705346  1
  I  I25  1  0.075564  0.877938  0.311059  1
  I  I26  1  0.122062  0.924436  0.688941  1
  I  I27  1  0.924436  0.122062  0.688941  1
  I  I28  1  0.877938  0.075564  0.311059  1
