# generated using pymatgen
data_Yb2Ho(Si3Pd10)2
_symmetry_space_group_name_H-M   'P 1'
_cell_length_a   8.70343491
_cell_length_b   8.70343474
_cell_length_c   8.70343500
_cell_angle_alpha   60.00000280
_cell_angle_beta   60.00000348
_cell_angle_gamma   60.00000384
_symmetry_Int_Tables_number   1
_chemical_formula_structural   Yb2Ho(Si3Pd10)2
_chemical_formula_sum   'Yb2 Ho1 Si6 Pd20'
_cell_volume   466.18370452
_cell_formula_units_Z   1
loop_
 _symmetry_equiv_pos_site_id
 _symmetry_equiv_pos_as_xyz
  1  'x, y, z'
loop_
 _atom_site_type_symbol
 _atom_site_label
 _atom_site_symmetry_multiplicity
 _atom_site_fract_x
 _atom_site_fract_y
 _atom_site_fract_z
 _atom_site_occupancy
  Yb  Yb0  1  0.250000  0.250000  0.250000  1
  Yb  Yb1  1  0.750000  0.750000  0.750000  1
  Ho  Ho2  1  0.000000  0.000000  0.000000  1
  Si  Si3  1  0.730915  0.269085  0.269085  1
  Si  Si4  1  0.269085  0.730915  0.730915  1
  Si  Si5  1  0.269085  0.730915  0.269085  1
  Si  Si6  1  0.730915  0.269085  0.730915  1
  Si  Si7  1  0.269085  0.269085  0.730915  1
  Si  Si8  1  0.730915  0.730915  0.269085  1
  Pd  Pd9  1  0.383193  0.383193  0.383193  1
  Pd  Pd10  1  0.616807  0.616807  0.616807  1
  Pd  Pd11  1  0.383193  0.383193  0.850423  1
  Pd  Pd12  1  0.383193  0.850423  0.383193  1
  Pd  Pd13  1  0.616807  0.616807  0.149577  1
  Pd  Pd14  1  0.616807  0.149577  0.616807  1
  Pd  Pd15  1  0.850423  0.383193  0.383193  1
  Pd  Pd16  1  0.149577  0.616807  0.616807  1
  Pd  Pd17  1  0.343877  0.000000  0.000000  1
  Pd  Pd18  1  0.656123  0.000000  0.000000  1
  Pd  Pd19  1  0.000000  0.343877  0.656123  1
  Pd  Pd20  1  0.000000  0.656123  0.343877  1
  Pd  Pd21  1  0.000000  0.343877  0.000000  1
  Pd  Pd22  1  0.656123  0.000000  0.343877  1
  Pd  Pd23  1  0.000000  0.656123  0.000000  1
  Pd  Pd24  1  0.343877  0.000000  0.656123  1
  Pd  Pd25  1  0.000000  0.000000  0.343877  1
  Pd  Pd26  1  0.000000  0.000000  0.656123  1
  Pd  Pd27  1  0.656123  0.343877  0.000000  1
  Pd  Pd28  1  0.343877  0.656123  0.000000  1
