# generated using pymatgen
data_Tb8Si16MoW11
_symmetry_space_group_name_H-M   'P 1'
_cell_length_a   6.89090989
_cell_length_b   6.89273338
_cell_length_c   12.82456831
_cell_angle_alpha   90.05296734
_cell_angle_beta   89.92188252
_cell_angle_gamma   90.02391044
_symmetry_Int_Tables_number   1
_chemical_formula_structural   Tb8Si16MoW11
_chemical_formula_sum   'Tb8 Si16 Mo1 W11'
_cell_volume   609.13026528
_cell_formula_units_Z   1
loop_
 _symmetry_equiv_pos_site_id
 _symmetry_equiv_pos_as_xyz
  1  'x, y, z'
loop_
 _atom_site_type_symbol
 _atom_site_label
 _atom_site_symmetry_multiplicity
 _atom_site_fract_x
 _atom_site_fract_y
 _atom_site_fract_z
 _atom_site_occupancy
  Tb  Tb0  1  0.336635  0.997676  0.468944  1
  Tb  Tb1  1  0.502161  0.836866  0.719025  1
  Tb  Tb2  1  0.497955  0.162970  0.218850  1
  Tb  Tb3  1  0.836870  0.502820  0.280998  1
  Tb  Tb4  1  0.162725  0.496869  0.781219  1
  Tb  Tb5  1  0.662816  0.002232  0.968753  1
  Tb  Tb6  1  0.997421  0.336998  0.531107  1
  Tb  Tb7  1  0.002368  0.662533  0.031054  1
  Si  Si8  1  0.201113  0.124737  0.684301  1
  Si  Si9  1  0.375099  0.701232  0.934071  1
  Si  Si10  1  0.624248  0.298390  0.433980  1
  Si  Si11  1  0.702572  0.374963  0.066002  1
  Si  Si12  1  0.297872  0.624655  0.566139  1
  Si  Si13  1  0.798884  0.875763  0.183743  1
  Si  Si14  1  0.124570  0.201730  0.315885  1
  Si  Si15  1  0.875794  0.798577  0.815843  1
  Si  Si16  1  0.288397  0.964178  0.063529  1
  Si  Si17  1  0.535867  0.787984  0.313758  1
  Si  Si18  1  0.463748  0.211942  0.813996  1
  Si  Si19  1  0.787738  0.536166  0.686404  1
  Si  Si20  1  0.212175  0.464600  0.186582  1
  Si  Si21  1  0.711472  0.035542  0.563476  1
  Si  Si22  1  0.964542  0.286492  0.935503  1
  Si  Si23  1  0.035622  0.712180  0.436315  1
  Mo  Mo24  1  0.166241  0.998555  0.873941  1
  W  W25  1  0.334379  0.334835  0.001029  1
  W  W26  1  0.166456  0.834024  0.250414  1
  W  W27  1  0.832588  0.166184  0.748848  1
  W  W28  1  0.665912  0.666288  0.500170  1
  W  W29  1  0.500610  0.664820  0.123683  1
  W  W30  1  0.500725  0.334689  0.624002  1
  W  W31  1  0.664602  0.500306  0.876553  1
  W  W32  1  0.334738  0.500988  0.376300  1
  W  W33  1  0.834468  0.999766  0.373690  1
  W  W34  1  0.001474  0.166028  0.125513  1
  W  W35  1  0.999146  0.835424  0.626382  1
