# generated using pymatgen
data_Er3CdPd8
_symmetry_space_group_name_H-M   'P 1'
_cell_length_a   4.18931610
_cell_length_b   5.82259992
_cell_length_c   17.42112023
_cell_angle_alpha   89.99922798
_cell_angle_beta   89.99966505
_cell_angle_gamma   90.01388285
_symmetry_Int_Tables_number   1
_chemical_formula_structural   Er3CdPd8
_chemical_formula_sum   'Er6 Cd2 Pd16'
_cell_volume   424.94834876
_cell_formula_units_Z   2
loop_
 _symmetry_equiv_pos_site_id
 _symmetry_equiv_pos_as_xyz
  1  'x, y, z'
loop_
 _atom_site_type_symbol
 _atom_site_label
 _atom_site_symmetry_multiplicity
 _atom_site_fract_x
 _atom_site_fract_y
 _atom_site_fract_z
 _atom_site_occupancy
  Er  Er0  1  0.524294  0.341275  0.046679  1
  Er  Er1  1  0.523903  0.843796  0.206130  1
  Er  Er2  1  0.525815  0.340703  0.365548  1
  Er  Er3  1  0.527745  0.739672  0.546803  1
  Er  Er4  1  0.528114  0.234354  0.706170  1
  Er  Er5  1  0.526157  0.736417  0.865625  1
  Cd  Cd6  1  0.026890  0.040168  0.456024  1
  Cd  Cd7  1  0.025082  0.039219  0.956048  1
  Pd  Pd8  1  0.524279  0.829488  0.037338  1
  Pd  Pd9  1  0.023646  0.092908  0.122594  1
  Pd  Pd10  1  0.023797  0.593989  0.122836  1
  Pd  Pd11  1  0.523840  0.344684  0.206128  1
  Pd  Pd12  1  0.024770  0.592823  0.289667  1
  Pd  Pd13  1  0.024562  0.091801  0.289507  1
  Pd  Pd14  1  0.525882  0.828533  0.375015  1
  Pd  Pd15  1  0.026969  0.540174  0.456280  1
  Pd  Pd16  1  0.527762  0.251897  0.537248  1
  Pd  Pd17  1  0.028362  0.988098  0.622573  1
  Pd  Pd18  1  0.028301  0.486896  0.622839  1
  Pd  Pd19  1  0.528195  0.733289  0.706184  1
  Pd  Pd20  1  0.027272  0.483147  0.789658  1
  Pd  Pd21  1  0.027408  0.984084  0.789493  1
  Pd  Pd22  1  0.526176  0.248242  0.874875  1
  Pd  Pd23  1  0.025114  0.539305  0.956279  1
