# generated using pymatgen
data_Y4UCuPt14
_symmetry_space_group_name_H-M   'P 1'
_cell_length_a   4.13075300
_cell_length_b   4.13189400
_cell_length_c   20.64235000
_cell_angle_alpha   90.00000000
_cell_angle_beta   90.00000000
_cell_angle_gamma   90.00000000
_symmetry_Int_Tables_number   1
_chemical_formula_structural   Y4UCuPt14
_chemical_formula_sum   'Y4 U1 Cu1 Pt14'
_cell_volume   352.32019360
_cell_formula_units_Z   1
loop_
 _symmetry_equiv_pos_site_id
 _symmetry_equiv_pos_as_xyz
  1  'x, y, z'
loop_
 _atom_site_type_symbol
 _atom_site_label
 _atom_site_symmetry_multiplicity
 _atom_site_fract_x
 _atom_site_fract_y
 _atom_site_fract_z
 _atom_site_occupancy
  Y  Y0  1  0.000000  0.000000  0.202292  1
  Y  Y1  1  0.000000  0.000000  0.399441  1
  Y  Y2  1  0.000000  0.000000  0.600559  1
  Y  Y3  1  0.000000  0.000000  0.797708  1
  U  U4  1  0.000000  0.000000  0.000000  1
  Cu  Cu5  1  0.500000  0.000000  0.500000  1
  Pt  Pt6  1  0.500000  0.500000  0.000000  1
  Pt  Pt7  1  0.500000  0.500000  0.199859  1
  Pt  Pt8  1  0.500000  0.500000  0.402545  1
  Pt  Pt9  1  0.500000  0.500000  0.597455  1
  Pt  Pt10  1  0.500000  0.500000  0.800141  1
  Pt  Pt11  1  0.500000  0.000000  0.097442  1
  Pt  Pt12  1  0.500000  0.000000  0.300558  1
  Pt  Pt13  1  0.500000  0.000000  0.699442  1
  Pt  Pt14  1  0.500000  0.000000  0.902558  1
  Pt  Pt15  1  0.000000  0.500000  0.097565  1
  Pt  Pt16  1  0.000000  0.500000  0.301225  1
  Pt  Pt17  1  0.000000  0.500000  0.500000  1
  Pt  Pt18  1  0.000000  0.500000  0.698775  1
  Pt  Pt19  1  0.000000  0.500000  0.902435  1
