# generated using pymatgen
data_Sc4Fe9Co11P12
_symmetry_space_group_name_H-M   'P 1'
_cell_length_a   3.58473500
_cell_length_b   10.15765024
_cell_length_c   11.58858354
_cell_angle_alpha   90.07597569
_cell_angle_beta   90.00000000
_cell_angle_gamma   90.00000000
_symmetry_Int_Tables_number   1
_chemical_formula_structural   Sc4Fe9Co11P12
_chemical_formula_sum   'Sc4 Fe9 Co11 P12'
_cell_volume   421.96874556
_cell_formula_units_Z   1
loop_
 _symmetry_equiv_pos_site_id
 _symmetry_equiv_pos_as_xyz
  1  'x, y, z'
loop_
 _atom_site_type_symbol
 _atom_site_label
 _atom_site_symmetry_multiplicity
 _atom_site_fract_x
 _atom_site_fract_y
 _atom_site_fract_z
 _atom_site_occupancy
  Sc  Sc0  1  0.250000  0.581153  0.703377  1
  Sc  Sc1  1  0.250000  0.919733  0.202602  1
  Sc  Sc2  1  0.750000  0.417906  0.296262  1
  Sc  Sc3  1  0.750000  0.081677  0.797753  1
  Fe  Fe4  1  0.250000  0.712830  0.987718  1
  Fe  Fe5  1  0.250000  0.787345  0.487474  1
  Fe  Fe6  1  0.750000  0.288134  0.010916  1
  Fe  Fe7  1  0.750000  0.212475  0.512362  1
  Fe  Fe8  1  0.250000  0.405850  0.487139  1
  Fe  Fe9  1  0.250000  0.094062  0.986890  1
  Fe  Fe10  1  0.750000  0.594078  0.512715  1
  Fe  Fe11  1  0.750000  0.906364  0.013376  1
  Fe  Fe12  1  0.250000  0.220731  0.175933  1
  Co  Co13  1  0.250000  0.278324  0.676488  1
  Co  Co14  1  0.750000  0.778349  0.823699  1
  Co  Co15  1  0.750000  0.721912  0.323503  1
  Co  Co16  1  0.250000  0.882031  0.699641  1
  Co  Co17  1  0.250000  0.617744  0.199375  1
  Co  Co18  1  0.750000  0.116212  0.301243  1
  Co  Co19  1  0.750000  0.382879  0.799984  1
  Co  Co20  1  0.250000  0.465446  0.931756  1
  Co  Co21  1  0.250000  0.034666  0.432906  1
  Co  Co22  1  0.750000  0.534858  0.068049  1
  Co  Co23  1  0.750000  0.965239  0.568814  1
  P  P24  1  0.250000  0.418151  0.116102  1
  P  P25  1  0.250000  0.080544  0.616781  1
  P  P26  1  0.750000  0.580560  0.883952  1
  P  P27  1  0.750000  0.919430  0.384285  1
  P  P28  1  0.250000  0.263974  0.868823  1
  P  P29  1  0.250000  0.235600  0.367302  1
  P  P30  1  0.750000  0.736113  0.131317  1
  P  P31  1  0.750000  0.763916  0.631511  1
  P  P32  1  0.250000  0.596276  0.390997  1
  P  P33  1  0.250000  0.903143  0.891548  1
  P  P34  1  0.750000  0.403360  0.608283  1
  P  P35  1  0.750000  0.098934  0.109126  1
