# generated using pymatgen
data_Hf20Ni4(As3P)3
_symmetry_space_group_name_H-M   'P 1'
_cell_length_a   3.65728300
_cell_length_b   10.35567026
_cell_length_c   17.41667644
_cell_angle_alpha   90.02578153
_cell_angle_beta   90.00000000
_cell_angle_gamma   90.00000000
_symmetry_Int_Tables_number   1
_chemical_formula_structural   Hf20Ni4(As3P)3
_chemical_formula_sum   'Hf20 Ni4 As9 P3'
_cell_volume   659.63246272
_cell_formula_units_Z   1
loop_
 _symmetry_equiv_pos_site_id
 _symmetry_equiv_pos_as_xyz
  1  'x, y, z'
loop_
 _atom_site_type_symbol
 _atom_site_label
 _atom_site_symmetry_multiplicity
 _atom_site_fract_x
 _atom_site_fract_y
 _atom_site_fract_z
 _atom_site_occupancy
  Hf  Hf0  1  0.250000  0.124552  0.478800  1
  Hf  Hf1  1  0.750000  0.880598  0.521528  1
  Hf  Hf2  1  0.750000  0.624972  0.020977  1
  Hf  Hf3  1  0.250000  0.375079  0.978771  1
  Hf  Hf4  1  0.250000  0.063506  0.075836  1
  Hf  Hf5  1  0.750000  0.936799  0.924429  1
  Hf  Hf6  1  0.750000  0.558628  0.420288  1
  Hf  Hf7  1  0.250000  0.433436  0.576684  1
  Hf  Hf8  1  0.250000  0.487276  0.273775  1
  Hf  Hf9  1  0.750000  0.511526  0.726058  1
  Hf  Hf10  1  0.750000  0.987920  0.224444  1
  Hf  Hf11  1  0.250000  0.013096  0.775819  1
  Hf  Hf12  1  0.250000  0.815938  0.368340  1
  Hf  Hf13  1  0.750000  0.186388  0.628420  1
  Hf  Hf14  1  0.750000  0.313620  0.127594  1
  Hf  Hf15  1  0.250000  0.686754  0.872224  1
  Hf  Hf16  1  0.250000  0.760972  0.165935  1
  Hf  Hf17  1  0.750000  0.239291  0.833917  1
  Hf  Hf18  1  0.750000  0.261567  0.332725  1
  Hf  Hf19  1  0.250000  0.740734  0.668842  1
  Ni  Ni20  1  0.250000  0.367266  0.416806  1
  Ni  Ni21  1  0.750000  0.628392  0.589493  1
  Ni  Ni22  1  0.750000  0.868728  0.083231  1
  Ni  Ni23  1  0.250000  0.130535  0.917025  1
  As  As24  1  0.250000  0.687309  0.507531  1
  As  As25  1  0.250000  0.510460  0.117422  1
  As  As26  1  0.750000  0.489752  0.882376  1
  As  As27  1  0.750000  0.011448  0.381231  1
  As  As28  1  0.250000  0.990068  0.619210  1
  As  As29  1  0.250000  0.190487  0.219773  1
  As  As30  1  0.750000  0.811101  0.780965  1
  As  As31  1  0.750000  0.689915  0.278489  1
  As  As32  1  0.250000  0.309253  0.720845  1
  P  P33  1  0.250000  0.812802  0.009511  1
  P  P34  1  0.750000  0.187389  0.990404  1
  P  P35  1  0.750000  0.312442  0.490282  1
