# generated using pymatgen
data_Li2Pr3Nd13(CdIr2)2
_symmetry_space_group_name_H-M   'P 1'
_cell_length_a   9.99565679
_cell_length_b   9.99730365
_cell_length_c   9.98222401
_cell_angle_alpha   60.04371214
_cell_angle_beta   60.04299617
_cell_angle_gamma   60.06492060
_symmetry_Int_Tables_number   1
_chemical_formula_structural   Li2Pr3Nd13(CdIr2)2
_chemical_formula_sum   'Li2 Pr3 Nd13 Cd2 Ir4'
_cell_volume   706.16098921
_cell_formula_units_Z   1
loop_
 _symmetry_equiv_pos_site_id
 _symmetry_equiv_pos_as_xyz
  1  'x, y, z'
loop_
 _atom_site_type_symbol
 _atom_site_label
 _atom_site_symmetry_multiplicity
 _atom_site_fract_x
 _atom_site_fract_y
 _atom_site_fract_z
 _atom_site_occupancy
  Li  Li0  1  0.571897  0.571904  0.576542  1
  Li  Li1  1  0.571832  0.571897  0.279716  1
  Pr  Pr2  1  0.938744  0.561812  0.937385  1
  Pr  Pr3  1  0.562229  0.562353  0.937667  1
  Pr  Pr4  1  0.938443  0.938577  0.561413  1
  Nd  Nd5  1  0.347369  0.347361  0.348694  1
  Nd  Nd6  1  0.347460  0.347277  0.956621  1
  Nd  Nd7  1  0.346701  0.960613  0.346325  1
  Nd  Nd8  1  0.960681  0.346572  0.346474  1
  Nd  Nd9  1  0.811649  0.188577  0.189580  1
  Nd  Nd10  1  0.188791  0.811747  0.810096  1
  Nd  Nd11  1  0.188740  0.811669  0.189476  1
  Nd  Nd12  1  0.811691  0.188684  0.810139  1
  Nd  Nd13  1  0.191785  0.191565  0.808272  1
  Nd  Nd14  1  0.815028  0.815142  0.185014  1
  Nd  Nd15  1  0.938977  0.561712  0.561830  1
  Nd  Nd16  1  0.561576  0.939136  0.937330  1
  Nd  Nd17  1  0.561696  0.938983  0.561945  1
  Cd  Cd18  1  0.582110  0.258369  0.579748  1
  Cd  Cd19  1  0.258483  0.582129  0.579606  1
  Ir  Ir20  1  0.142407  0.142189  0.140290  1
  Ir  Ir21  1  0.142318  0.142376  0.575099  1
  Ir  Ir22  1  0.143318  0.576087  0.140405  1
  Ir  Ir23  1  0.576071  0.143265  0.140330  1
