# generated using pymatgen
data_K4RbInPb8
_symmetry_space_group_name_H-M   'P 1'
_cell_length_a   13.42612012
_cell_length_b   13.42612009
_cell_length_c   13.42612088
_cell_angle_alpha   29.94787225
_cell_angle_beta   29.94787052
_cell_angle_gamma   29.94786831
_symmetry_Int_Tables_number   1
_chemical_formula_structural   K4RbInPb8
_chemical_formula_sum   'K4 Rb1 In1 Pb8'
_cell_volume   534.21328859
_cell_formula_units_Z   1
loop_
 _symmetry_equiv_pos_site_id
 _symmetry_equiv_pos_as_xyz
  1  'x, y, z'
loop_
 _atom_site_type_symbol
 _atom_site_label
 _atom_site_symmetry_multiplicity
 _atom_site_fract_x
 _atom_site_fract_y
 _atom_site_fract_z
 _atom_site_occupancy
  K  K0  1  0.317764  0.317764  0.317764  1
  K  K1  1  0.779183  0.779183  0.779183  1
  K  K2  1  0.682236  0.682236  0.682236  1
  K  K3  1  0.220817  0.220817  0.220817  1
  Rb  Rb4  1  0.500000  0.500000  0.500000  1
  In  In5  1  0.000000  0.000000  0.000000  1
  Pb  Pb6  1  0.767396  0.767396  0.267446  1
  Pb  Pb7  1  0.872673  0.872673  0.872673  1
  Pb  Pb8  1  0.232604  0.732554  0.232604  1
  Pb  Pb9  1  0.267446  0.767396  0.767396  1
  Pb  Pb10  1  0.127327  0.127327  0.127327  1
  Pb  Pb11  1  0.767396  0.267446  0.767396  1
  Pb  Pb12  1  0.732553  0.232604  0.232604  1
  Pb  Pb13  1  0.232604  0.232604  0.732554  1
