# generated using pymatgen
data_PrNd5FeCl10
_symmetry_space_group_name_H-M   'P 1'
_cell_length_a   7.42196303
_cell_length_b   8.95672403
_cell_length_c   9.37658550
_cell_angle_alpha   109.00098162
_cell_angle_beta   96.92436746
_cell_angle_gamma   106.40631482
_symmetry_Int_Tables_number   1
_chemical_formula_structural   PrNd5FeCl10
_chemical_formula_sum   'Pr1 Nd5 Fe1 Cl10'
_cell_volume   549.62422100
_cell_formula_units_Z   1
loop_
 _symmetry_equiv_pos_site_id
 _symmetry_equiv_pos_as_xyz
  1  'x, y, z'
loop_
 _atom_site_type_symbol
 _atom_site_label
 _atom_site_symmetry_multiplicity
 _atom_site_fract_x
 _atom_site_fract_y
 _atom_site_fract_z
 _atom_site_occupancy
  Pr  Pr0  1  0.968336  0.284603  0.087822  1
  Nd  Nd1  1  0.140152  0.059158  0.751362  1
  Nd  Nd2  1  0.625048  0.849311  0.803795  1
  Nd  Nd3  1  0.858990  0.940700  0.248318  1
  Nd  Nd4  1  0.031912  0.716895  0.912632  1
  Nd  Nd5  1  0.374550  0.149614  0.195963  1
  Fe  Fe6  1  0.999666  0.000774  0.000244  1
  Cl  Cl7  1  0.201080  0.749456  0.659153  1
  Cl  Cl8  1  0.653490  0.541043  0.728716  1
  Cl  Cl9  1  0.238304  0.079060  0.445126  1
  Cl  Cl10  1  0.796996  0.249714  0.342538  1
  Cl  Cl11  1  0.549512  0.169614  0.925149  1
  Cl  Cl12  1  0.760937  0.920000  0.554525  1
  Cl  Cl13  1  0.910681  0.629793  0.161952  1
  Cl  Cl14  1  0.351098  0.459576  0.272795  1
  Cl  Cl15  1  0.090939  0.371550  0.836077  1
  Cl  Cl16  1  0.448307  0.829140  0.073832  1
