# generated using pymatgen
data_Ho2U(GaPt)3
_symmetry_space_group_name_H-M   'P 1'
_cell_length_a   7.28227701
_cell_length_b   7.28227627
_cell_length_c   3.87163900
_cell_angle_alpha   90.00000000
_cell_angle_beta   90.00000000
_cell_angle_gamma   120.37509135
_symmetry_Int_Tables_number   1
_chemical_formula_structural   Ho2U(GaPt)3
_chemical_formula_sum   'Ho2 U1 Ga3 Pt3'
_cell_volume   177.13562089
_cell_formula_units_Z   1
loop_
 _symmetry_equiv_pos_site_id
 _symmetry_equiv_pos_as_xyz
  1  'x, y, z'
loop_
 _atom_site_type_symbol
 _atom_site_label
 _atom_site_symmetry_multiplicity
 _atom_site_fract_x
 _atom_site_fract_y
 _atom_site_fract_z
 _atom_site_occupancy
  Ho  Ho0  1  0.409237  0.001755  0.500000  1
  Ho  Ho1  1  0.001755  0.409237  0.500000  1
  U  U2  1  0.585721  0.585721  0.500000  1
  Ga  Ga3  1  0.749291  0.010199  0.000000  1
  Ga  Ga4  1  0.010199  0.749291  0.000000  1
  Ga  Ga5  1  0.241985  0.241985  0.000000  1
  Pt  Pt6  1  0.348130  0.665328  0.000000  1
  Pt  Pt7  1  0.665328  0.348130  0.000000  1
  Pt  Pt8  1  0.988354  0.988354  0.500000  1
