# generated using pymatgen
data_Pr(NdSi2)7
_symmetry_space_group_name_H-M   'P 1'
_cell_length_a   8.06671382
_cell_length_b   8.06671501
_cell_length_c   8.46249306
_cell_angle_alpha   89.98787003
_cell_angle_beta   90.01212996
_cell_angle_gamma   120.08973701
_symmetry_Int_Tables_number   1
_chemical_formula_structural   Pr(NdSi2)7
_chemical_formula_sum   'Pr1 Nd7 Si14'
_cell_volume   476.46267805
_cell_formula_units_Z   1
loop_
 _symmetry_equiv_pos_site_id
 _symmetry_equiv_pos_as_xyz
  1  'x, y, z'
loop_
 _atom_site_type_symbol
 _atom_site_label
 _atom_site_symmetry_multiplicity
 _atom_site_fract_x
 _atom_site_fract_y
 _atom_site_fract_z
 _atom_site_occupancy
  Pr  Pr0  1  0.251556  0.748444  0.004559  1
  Nd  Nd1  1  0.253439  0.253426  0.000011  1
  Nd  Nd2  1  0.746574  0.746561  0.000011  1
  Nd  Nd3  1  0.746608  0.746613  0.500018  1
  Nd  Nd4  1  0.253387  0.253392  0.500018  1
  Nd  Nd5  1  0.251682  0.748318  0.495317  1
  Nd  Nd6  1  0.748338  0.251662  0.504671  1
  Nd  Nd7  1  0.748326  0.251674  0.995302  1
  Si  Si8  1  0.069310  0.389094  0.250188  1
  Si  Si9  1  0.930224  0.610461  0.749728  1
  Si  Si10  1  0.583934  0.416066  0.250047  1
  Si  Si11  1  0.416180  0.583820  0.749768  1
  Si  Si12  1  0.412662  0.587338  0.250266  1
  Si  Si13  1  0.587476  0.412524  0.749929  1
  Si  Si14  1  0.070988  0.929012  0.250193  1
  Si  Si15  1  0.928918  0.071082  0.749975  1
  Si  Si16  1  0.610906  0.930690  0.250188  1
  Si  Si17  1  0.389539  0.069776  0.749728  1
  Si  Si18  1  0.924428  0.585186  0.250248  1
  Si  Si19  1  0.075164  0.414453  0.749794  1
  Si  Si20  1  0.414814  0.075572  0.250248  1
  Si  Si21  1  0.585547  0.924836  0.749794  1
