# generated using pymatgen
data_Ba4MnZn2Ni3(PO3)20
_symmetry_space_group_name_H-M   'P 1'
_cell_length_a   5.40721526
_cell_length_b   10.85959782
_cell_length_c   22.94793900
_cell_angle_alpha   71.37749087
_cell_angle_beta   89.92811555
_cell_angle_gamma   90.13972149
_symmetry_Int_Tables_number   1
_chemical_formula_structural   Ba4MnZn2Ni3(PO3)20
_chemical_formula_sum   'Ba4 Mn1 Zn2 Ni3 P20 O60'
_cell_volume   1276.94904918
_cell_formula_units_Z   1
loop_
 _symmetry_equiv_pos_site_id
 _symmetry_equiv_pos_as_xyz
  1  'x, y, z'
loop_
 _atom_site_type_symbol
 _atom_site_label
 _atom_site_symmetry_multiplicity
 _atom_site_fract_x
 _atom_site_fract_y
 _atom_site_fract_z
 _atom_site_occupancy
  Ba  Ba0  1  0.505989  0.389782  0.423990  1
  Ba  Ba1  1  0.494011  0.610218  0.576010  1
  Ba  Ba2  1  0.493645  0.391554  0.922949  1
  Ba  Ba3  1  0.506355  0.608446  0.077051  1
  Mn  Mn4  1  0.500000  0.000000  0.000000  1
  Zn  Zn5  1  0.469628  0.999497  0.750075  1
  Zn  Zn6  1  0.530372  0.000503  0.249925  1
  Ni  Ni7  1  0.560644  0.499725  0.749849  1
  Ni  Ni8  1  0.500000  0.000000  0.500000  1
  Ni  Ni9  1  0.439356  0.500275  0.250151  1
  P  P10  1  0.953189  0.679846  0.197816  1
  P  P11  1  0.904178  0.628565  0.924962  1
  P  P12  1  0.775474  0.724930  0.795511  1
  P  P13  1  0.012977  0.157355  0.522888  1
  P  P14  1  0.046811  0.320154  0.802184  1
  P  P15  1  0.985437  0.163221  0.022726  1
  P  P16  1  0.096499  0.630241  0.425814  1
  P  P17  1  0.224526  0.275070  0.204489  1
  P  P18  1  0.014563  0.836779  0.977274  1
  P  P19  1  0.951218  0.320752  0.302464  1
  P  P20  1  0.775517  0.274956  0.704051  1
  P  P21  1  0.987023  0.842645  0.477112  1
  P  P22  1  0.217144  0.954785  0.629769  1
  P  P23  1  0.212628  0.045136  0.868747  1
  P  P24  1  0.048782  0.679248  0.697536  1
  P  P25  1  0.782856  0.045215  0.370231  1
  P  P26  1  0.903501  0.369759  0.574186  1
  P  P27  1  0.095822  0.371435  0.075038  1
  P  P28  1  0.224483  0.725044  0.295949  1
  P  P29  1  0.787372  0.954864  0.131253  1
  O  O30  1  0.346771  0.396981  0.045409  1
  O  O31  1  0.952984  0.485476  0.080176  1
  O  O32  1  0.561279  0.056426  0.407433  1
  O  O33  1  0.991731  0.045445  0.085625  1
  O  O34  1  0.768025  0.154359  0.983314  1
  O  O35  1  0.761157  0.005629  0.184378  1
  O  O36  1  0.603571  0.390212  0.690215  1
  O  O37  1  0.967862  0.696083  0.265185  1
  O  O38  1  0.239728  0.170958  0.995333  1
  O  O39  1  0.248271  0.003132  0.683467  1
  O  O40  1  0.684216  0.854149  0.755840  1
  O  O41  1  0.032138  0.303917  0.734815  1
  O  O42  1  0.315784  0.145851  0.244160  1
  O  O43  1  0.056473  0.822848  0.649480  1
  O  O44  1  0.008269  0.954555  0.914375  1
  O  O45  1  0.751729  0.996868  0.316533  1
  O  O46  1  0.682965  0.145798  0.744003  1
  O  O47  1  0.924558  0.289713  0.042577  1
  O  O48  1  0.765992  0.853794  0.515350  1
  O  O49  1  0.047016  0.514524  0.919824  1
  O  O50  1  0.943527  0.177152  0.350520  1
  O  O51  1  0.348660  0.604018  0.454540  1
  O  O52  1  0.710701  0.386599  0.307474  1
  O  O53  1  0.005865  0.044001  0.587080  1
  O  O54  1  0.880501  0.259551  0.641713  1
  O  O55  1  0.651340  0.395982  0.545460  1
  O  O56  1  0.397374  0.390499  0.190649  1
  O  O57  1  0.437719  0.061205  0.903512  1
  O  O58  1  0.438721  0.943574  0.592567  1
  O  O59  1  0.289299  0.613401  0.692526  1
  O  O60  1  0.602626  0.609501  0.809351  1
  O  O61  1  0.880099  0.739686  0.857803  1
  O  O62  1  0.930161  0.712367  0.459424  1
  O  O63  1  0.758460  0.162636  0.495664  1
  O  O64  1  0.653229  0.603019  0.954591  1
  O  O65  1  0.049986  0.483500  0.578808  1
  O  O66  1  0.069839  0.287633  0.540576  1
  O  O67  1  0.241540  0.837364  0.504336  1
  O  O68  1  0.234008  0.146206  0.484650  1
  O  O69  1  0.191158  0.620558  0.185575  1
  O  O70  1  0.711636  0.614615  0.192557  1
  O  O71  1  0.231975  0.845641  0.016686  1
  O  O72  1  0.190335  0.379262  0.314841  1
  O  O73  1  0.760272  0.829042  0.004667  1
  O  O74  1  0.288364  0.385385  0.807443  1
  O  O75  1  0.032485  0.696381  0.764650  1
  O  O76  1  0.950014  0.516500  0.421192  1
  O  O77  1  0.317035  0.854202  0.255997  1
  O  O78  1  0.119499  0.740449  0.358287  1
  O  O79  1  0.808842  0.379442  0.814425  1
  O  O80  1  0.950578  0.824390  0.150387  1
  O  O81  1  0.994135  0.955999  0.412920  1
  O  O82  1  0.119901  0.260314  0.142197  1
  O  O83  1  0.967515  0.303619  0.235350  1
  O  O84  1  0.562281  0.938795  0.096488  1
  O  O85  1  0.809665  0.620738  0.685159  1
  O  O86  1  0.075442  0.710287  0.957423  1
  O  O87  1  0.049422  0.175610  0.849613  1
  O  O88  1  0.238843  0.994371  0.815622  1
  O  O89  1  0.396429  0.609788  0.309785  1
