# generated using pymatgen
data_Zr4SbTeP2
_symmetry_space_group_name_H-M   'P 1'
_cell_length_a   3.86027900
_cell_length_b   3.86027816
_cell_length_c   13.33010300
_cell_angle_alpha   90.00000000
_cell_angle_beta   90.00000000
_cell_angle_gamma   119.99999862
_symmetry_Int_Tables_number   1
_chemical_formula_structural   Zr4SbTeP2
_chemical_formula_sum   'Zr4 Sb1 Te1 P2'
_cell_volume   172.02890979
_cell_formula_units_Z   1
loop_
 _symmetry_equiv_pos_site_id
 _symmetry_equiv_pos_as_xyz
  1  'x, y, z'
loop_
 _atom_site_type_symbol
 _atom_site_label
 _atom_site_symmetry_multiplicity
 _atom_site_fract_x
 _atom_site_fract_y
 _atom_site_fract_z
 _atom_site_occupancy
  Zr  Zr0  1  0.666667  0.333333  0.600465  1
  Zr  Zr1  1  0.333333  0.666667  0.400730  1
  Zr  Zr2  1  0.333333  0.666667  0.099270  1
  Zr  Zr3  1  0.666667  0.333333  0.899535  1
  Sb  Sb4  1  0.333333  0.666667  0.750000  1
  Te  Te5  1  0.666667  0.333333  0.250000  1
  P  P6  1  0.000000  0.000000  0.500535  1
  P  P7  1  0.000000  0.000000  0.999465  1
