# generated using pymatgen
data_Sm6Sb7Pd16S
_symmetry_space_group_name_H-M   'P 1'
_cell_length_a   9.38802823
_cell_length_b   9.38802841
_cell_length_c   9.38802900
_cell_angle_alpha   60.00000145
_cell_angle_beta   60.00000080
_cell_angle_gamma   59.99999711
_symmetry_Int_Tables_number   1
_chemical_formula_structural   Sm6Sb7Pd16S
_chemical_formula_sum   'Sm6 Sb7 Pd16 S1'
_cell_volume   585.07050461
_cell_formula_units_Z   1
loop_
 _symmetry_equiv_pos_site_id
 _symmetry_equiv_pos_as_xyz
  1  'x, y, z'
loop_
 _atom_site_type_symbol
 _atom_site_label
 _atom_site_symmetry_multiplicity
 _atom_site_fract_x
 _atom_site_fract_y
 _atom_site_fract_z
 _atom_site_occupancy
  Sm  Sm0  1  0.714989  0.285011  0.285011  1
  Sm  Sm1  1  0.285011  0.714989  0.714989  1
  Sm  Sm2  1  0.285011  0.714989  0.285011  1
  Sm  Sm3  1  0.714989  0.285011  0.714989  1
  Sm  Sm4  1  0.285011  0.285011  0.714989  1
  Sm  Sm5  1  0.714989  0.714989  0.285011  1
  Sb  Sb6  1  0.000000  0.000000  0.000000  1
  Sb  Sb7  1  0.500000  0.000000  0.000000  1
  Sb  Sb8  1  0.000000  0.500000  0.500000  1
  Sb  Sb9  1  0.000000  0.500000  0.000000  1
  Sb  Sb10  1  0.500000  0.000000  0.500000  1
  Sb  Sb11  1  0.000000  0.000000  0.500000  1
  Sb  Sb12  1  0.500000  0.500000  0.000000  1
  Pd  Pd13  1  0.118232  0.118232  0.118232  1
  Pd  Pd14  1  0.881768  0.881768  0.881768  1
  Pd  Pd15  1  0.118232  0.118232  0.645304  1
  Pd  Pd16  1  0.118232  0.645304  0.118232  1
  Pd  Pd17  1  0.881768  0.881768  0.354696  1
  Pd  Pd18  1  0.881768  0.354696  0.881768  1
  Pd  Pd19  1  0.645304  0.118232  0.118232  1
  Pd  Pd20  1  0.354696  0.881768  0.881768  1
  Pd  Pd21  1  0.332410  0.332410  0.332410  1
  Pd  Pd22  1  0.667590  0.667590  0.667590  1
  Pd  Pd23  1  0.332410  0.332410  0.002769  1
  Pd  Pd24  1  0.332410  0.002769  0.332410  1
  Pd  Pd25  1  0.667590  0.667590  0.997231  1
  Pd  Pd26  1  0.667590  0.997231  0.667590  1
  Pd  Pd27  1  0.002769  0.332410  0.332410  1
  Pd  Pd28  1  0.997231  0.667590  0.667590  1
  S  S29  1  0.500000  0.500000  0.500000  1
