# generated using pymatgen
data_Lu15Th(CdPt)4
_symmetry_space_group_name_H-M   'P 1'
_cell_length_a   9.53336578
_cell_length_b   9.53336610
_cell_length_c   9.53336634
_cell_angle_alpha   59.95031068
_cell_angle_beta   59.95030855
_cell_angle_gamma   59.95031183
_symmetry_Int_Tables_number   1
_chemical_formula_structural   Lu15Th(CdPt)4
_chemical_formula_sum   'Lu15 Th1 Cd4 Pt4'
_cell_volume   611.97560796
_cell_formula_units_Z   1
loop_
 _symmetry_equiv_pos_site_id
 _symmetry_equiv_pos_as_xyz
  1  'x, y, z'
loop_
 _atom_site_type_symbol
 _atom_site_label
 _atom_site_symmetry_multiplicity
 _atom_site_fract_x
 _atom_site_fract_y
 _atom_site_fract_z
 _atom_site_occupancy
  Lu  Lu0  1  0.603305  0.603305  0.190399  1
  Lu  Lu1  1  0.603305  0.190399  0.603305  1
  Lu  Lu2  1  0.190399  0.603305  0.603305  1
  Lu  Lu3  1  0.062805  0.438480  0.438480  1
  Lu  Lu4  1  0.439916  0.060475  0.060475  1
  Lu  Lu5  1  0.438480  0.062805  0.438480  1
  Lu  Lu6  1  0.060475  0.439916  0.060475  1
  Lu  Lu7  1  0.438480  0.438480  0.062805  1
  Lu  Lu8  1  0.060475  0.060475  0.439916  1
  Lu  Lu9  1  0.183724  0.816360  0.816360  1
  Lu  Lu10  1  0.814135  0.185756  0.185756  1
  Lu  Lu11  1  0.816360  0.183724  0.816360  1
  Lu  Lu12  1  0.185756  0.814135  0.185756  1
  Lu  Lu13  1  0.816360  0.816360  0.183724  1
  Lu  Lu14  1  0.185756  0.185756  0.814135  1
  Th  Th15  1  0.602063  0.602063  0.602063  1
  Cd  Cd16  1  0.832314  0.832314  0.832314  1
  Cd  Cd17  1  0.833593  0.833593  0.501676  1
  Cd  Cd18  1  0.833593  0.501676  0.833593  1
  Cd  Cd19  1  0.501676  0.833593  0.833593  1
  Pt  Pt20  1  0.393466  0.393466  0.393466  1
  Pt  Pt21  1  0.390588  0.390588  0.822391  1
  Pt  Pt22  1  0.390588  0.822391  0.390588  1
  Pt  Pt23  1  0.822391  0.390588  0.390588  1
