# generated using pymatgen
data_Tm4TcI4
_symmetry_space_group_name_H-M   'P 1'
_cell_length_a   11.27496123
_cell_length_b   11.27496313
_cell_length_c   6.13133037
_cell_angle_alpha   89.25873318
_cell_angle_beta   89.25873956
_cell_angle_gamma   88.66484677
_symmetry_Int_Tables_number   1
_chemical_formula_structural   Tm4TcI4
_chemical_formula_sum   'Tm8 Tc2 I8'
_cell_volume   779.10489831
_cell_formula_units_Z   2
loop_
 _symmetry_equiv_pos_site_id
 _symmetry_equiv_pos_as_xyz
  1  'x, y, z'
loop_
 _atom_site_type_symbol
 _atom_site_label
 _atom_site_symmetry_multiplicity
 _atom_site_fract_x
 _atom_site_fract_y
 _atom_site_fract_z
 _atom_site_occupancy
  Tm  Tm0  1  0.195678  0.917474  0.995558  1
  Tm  Tm1  1  0.804322  0.082526  0.004442  1
  Tm  Tm2  1  0.082526  0.804322  0.504442  1
  Tm  Tm3  1  0.917474  0.195678  0.495558  1
  Tm  Tm4  1  0.806119  0.922260  0.507120  1
  Tm  Tm5  1  0.193881  0.077740  0.492880  1
  Tm  Tm6  1  0.077740  0.193881  0.992880  1
  Tm  Tm7  1  0.922260  0.806119  0.007120  1
  Tc  Tc8  1  0.000262  0.999738  0.250000  1
  Tc  Tc9  1  0.999738  0.000262  0.750000  1
  I  I10  1  0.357313  0.848205  0.512845  1
  I  I11  1  0.642687  0.151795  0.487155  1
  I  I12  1  0.151795  0.642687  0.987155  1
  I  I13  1  0.848205  0.357313  0.012845  1
  I  I14  1  0.352289  0.145358  0.995593  1
  I  I15  1  0.647711  0.854642  0.004407  1
  I  I16  1  0.854642  0.647711  0.504407  1
  I  I17  1  0.145358  0.352289  0.495593  1
