# generated using pymatgen
data_Dy9Mg(BiPt2)2
_symmetry_space_group_name_H-M   'P 1'
_cell_length_a   8.82840001
_cell_length_b   8.82840028
_cell_length_c   8.82840014
_cell_angle_alpha   127.53850623
_cell_angle_beta   127.53850317
_cell_angle_gamma   77.37383112
_symmetry_Int_Tables_number   1
_chemical_formula_structural   Dy9Mg(BiPt2)2
_chemical_formula_sum   'Dy9 Mg1 Bi2 Pt4'
_cell_volume   419.70024447
_cell_formula_units_Z   1
loop_
 _symmetry_equiv_pos_site_id
 _symmetry_equiv_pos_as_xyz
  1  'x, y, z'
loop_
 _atom_site_type_symbol
 _atom_site_label
 _atom_site_symmetry_multiplicity
 _atom_site_fract_x
 _atom_site_fract_y
 _atom_site_fract_z
 _atom_site_occupancy
  Dy  Dy0  1  0.000000  0.000000  0.000000  1
  Dy  Dy1  1  0.783381  0.301957  0.821162  1
  Dy  Dy2  1  0.216619  0.698043  0.178838  1
  Dy  Dy3  1  0.480794  0.962219  0.178838  1
  Dy  Dy4  1  0.301957  0.480794  0.518575  1
  Dy  Dy5  1  0.037781  0.216619  0.518575  1
  Dy  Dy6  1  0.519206  0.037781  0.821162  1
  Dy  Dy7  1  0.698043  0.519206  0.481425  1
  Dy  Dy8  1  0.962219  0.783381  0.481425  1
  Mg  Mg9  1  0.500000  0.500000  0.000000  1
  Bi  Bi10  1  0.241816  0.241816  0.000000  1
  Bi  Bi11  1  0.758184  0.758184  0.000000  1
  Pt  Pt12  1  0.133297  0.638770  0.772067  1
  Pt  Pt13  1  0.866703  0.361230  0.227933  1
  Pt  Pt14  1  0.638770  0.866703  0.505472  1
  Pt  Pt15  1  0.361230  0.133297  0.494528  1
