# generated using pymatgen
data_Er4Lu8Co4CuBi
_symmetry_space_group_name_H-M   'P 1'
_cell_length_a   8.20271509
_cell_length_b   8.20271400
_cell_length_c   8.20271338
_cell_angle_alpha   110.15488600
_cell_angle_beta   111.53903661
_cell_angle_gamma   106.75654651
_symmetry_Int_Tables_number   1
_chemical_formula_structural   Er4Lu8Co4CuBi
_chemical_formula_sum   'Er4 Lu8 Co4 Cu1 Bi1'
_cell_volume   424.08875950
_cell_formula_units_Z   1
loop_
 _symmetry_equiv_pos_site_id
 _symmetry_equiv_pos_as_xyz
  1  'x, y, z'
loop_
 _atom_site_type_symbol
 _atom_site_label
 _atom_site_symmetry_multiplicity
 _atom_site_fract_x
 _atom_site_fract_y
 _atom_site_fract_z
 _atom_site_occupancy
  Er  Er0  1  0.215274  0.417173  0.201900  1
  Er  Er1  1  0.784726  0.582827  0.798100  1
  Er  Er2  1  0.215274  0.013374  0.798100  1
  Er  Er3  1  0.784726  0.986626  0.201900  1
  Lu  Lu4  1  0.287676  0.181814  0.469489  1
  Lu  Lu5  1  0.712324  0.818186  0.530511  1
  Lu  Lu6  1  0.287676  0.818186  0.105862  1
  Lu  Lu7  1  0.712324  0.181814  0.894138  1
  Lu  Lu8  1  0.622634  0.313751  0.308883  1
  Lu  Lu9  1  0.377366  0.686249  0.691117  1
  Lu  Lu10  1  0.004869  0.313751  0.691117  1
  Lu  Lu11  1  0.995131  0.686249  0.308883  1
  Co  Co12  1  0.000000  0.375782  0.375782  1
  Co  Co13  1  0.000000  0.624218  0.624218  1
  Co  Co14  1  0.386881  0.886881  0.500000  1
  Co  Co15  1  0.613119  0.113119  0.500000  1
  Cu  Cu16  1  0.000000  0.000000  0.000000  1
  Bi  Bi17  1  0.500000  0.500000  0.000000  1
