# generated using pymatgen
data_Mn16Cr3Fe2(MoC3)2
_symmetry_space_group_name_H-M   'P 1'
_cell_length_a   7.41790383
_cell_length_b   7.41790459
_cell_length_c   7.40602372
_cell_angle_alpha   59.90320439
_cell_angle_beta   59.90319140
_cell_angle_gamma   59.98217321
_symmetry_Int_Tables_number   1
_chemical_formula_structural   Mn16Cr3Fe2(MoC3)2
_chemical_formula_sum   'Mn16 Cr3 Fe2 Mo2 C6'
_cell_volume   287.69821912
_cell_formula_units_Z   1
loop_
 _symmetry_equiv_pos_site_id
 _symmetry_equiv_pos_as_xyz
  1  'x, y, z'
loop_
 _atom_site_type_symbol
 _atom_site_label
 _atom_site_symmetry_multiplicity
 _atom_site_fract_x
 _atom_site_fract_y
 _atom_site_fract_z
 _atom_site_occupancy
  Mn  Mn0  1  0.616004  0.151309  0.615852  1
  Mn  Mn1  1  0.151309  0.616004  0.615852  1
  Mn  Mn2  1  0.615963  0.615963  0.615615  1
  Mn  Mn3  1  0.383348  0.383348  0.848413  1
  Mn  Mn4  1  0.384123  0.847893  0.382647  1
  Mn  Mn5  1  0.847893  0.384123  0.382647  1
  Mn  Mn6  1  0.384245  0.384245  0.383927  1
  Mn  Mn7  1  0.000518  0.000518  0.337906  1
  Mn  Mn8  1  0.663565  0.998827  0.338343  1
  Mn  Mn9  1  0.998827  0.663565  0.338343  1
  Mn  Mn10  1  0.663453  0.337972  0.998885  1
  Mn  Mn11  1  0.000683  0.338071  0.000159  1
  Mn  Mn12  1  0.998861  0.338058  0.663119  1
  Mn  Mn13  1  0.337972  0.663453  0.998885  1
  Mn  Mn14  1  0.338058  0.998861  0.663119  1
  Mn  Mn15  1  0.338071  0.000683  0.000159  1
  Cr  Cr16  1  0.000808  0.000808  0.661543  1
  Cr  Cr17  1  0.999577  0.661950  0.001020  1
  Cr  Cr18  1  0.661950  0.999577  0.001020  1
  Fe  Fe19  1  0.000701  0.000701  0.000612  1
  Fe  Fe20  1  0.615055  0.615055  0.152708  1
  Mo  Mo21  1  0.749951  0.749951  0.748985  1
  Mo  Mo22  1  0.249578  0.249578  0.251290  1
  C  C23  1  0.723152  0.723152  0.279897  1
  C  C24  1  0.273657  0.726201  0.273732  1
  C  C25  1  0.726201  0.273657  0.273732  1
  C  C26  1  0.274102  0.274102  0.725971  1
  C  C27  1  0.722454  0.279919  0.722808  1
  C  C28  1  0.279919  0.722454  0.722808  1
