# generated using pymatgen
data_TmMn2(SnRu2)3
_symmetry_space_group_name_H-M   'P 1'
_cell_length_a   4.48596500
_cell_length_b   6.36606400
_cell_length_c   13.45029700
_cell_angle_alpha   89.99915953
_cell_angle_beta   89.99951878
_cell_angle_gamma   90.00207857
_symmetry_Int_Tables_number   1
_chemical_formula_structural   TmMn2(SnRu2)3
_chemical_formula_sum   'Tm2 Mn4 Sn6 Ru12'
_cell_volume   384.11277848
_cell_formula_units_Z   2
loop_
 _symmetry_equiv_pos_site_id
 _symmetry_equiv_pos_as_xyz
  1  'x, y, z'
loop_
 _atom_site_type_symbol
 _atom_site_label
 _atom_site_symmetry_multiplicity
 _atom_site_fract_x
 _atom_site_fract_y
 _atom_site_fract_z
 _atom_site_occupancy
  Tm  Tm0  1  0.000001  0.000004  0.996501  1
  Tm  Tm1  1  0.500050  0.499996  0.170177  1
  Mn  Mn2  1  0.000103  0.000005  0.338116  1
  Mn  Mn3  1  0.500036  0.500019  0.500526  1
  Mn  Mn4  1  0.999886  0.000001  0.666085  1
  Mn  Mn5  1  0.499917  0.500001  0.828513  1
  Sn  Sn6  1  0.999999  0.500000  0.999653  1
  Sn  Sn7  1  0.500049  0.000001  0.167077  1
  Sn  Sn8  1  0.000067  0.500007  0.339534  1
  Sn  Sn9  1  0.500008  0.999980  0.506844  1
  Sn  Sn10  1  0.999941  0.500012  0.659862  1
  Sn  Sn11  1  0.499931  0.999985  0.827122  1
  Ru  Ru12  1  0.500001  0.262157  0.989632  1
  Ru  Ru13  1  0.499997  0.737844  0.989633  1
  Ru  Ru14  1  0.000054  0.237788  0.177010  1
  Ru  Ru15  1  0.000059  0.762204  0.177007  1
  Ru  Ru16  1  0.500096  0.237447  0.342999  1
  Ru  Ru17  1  0.500046  0.762551  0.342990  1
  Ru  Ru18  1  0.999950  0.244489  0.500675  1
  Ru  Ru19  1  0.000074  0.755509  0.500678  1
  Ru  Ru20  1  0.499986  0.255516  0.665914  1
  Ru  Ru21  1  0.499882  0.744487  0.665913  1
  Ru  Ru22  1  0.999905  0.262536  0.823767  1
  Ru  Ru23  1  0.999960  0.737458  0.823772  1
