# generated using pymatgen
data_Y17Ho15B8(C8I19)2
_symmetry_space_group_name_H-M   'P 1'
_cell_length_a   12.59511118
_cell_length_b   14.47124576
_cell_length_c   19.78306417
_cell_angle_alpha   104.69011982
_cell_angle_beta   89.60165598
_cell_angle_gamma   112.77909224
_symmetry_Int_Tables_number   1
_chemical_formula_structural   Y17Ho15B8(C8I19)2
_chemical_formula_sum   'Y17 Ho15 B8 C16 I38'
_cell_volume   3199.01768918
_cell_formula_units_Z   1
loop_
 _symmetry_equiv_pos_site_id
 _symmetry_equiv_pos_as_xyz
  1  'x, y, z'
loop_
 _atom_site_type_symbol
 _atom_site_label
 _atom_site_symmetry_multiplicity
 _atom_site_fract_x
 _atom_site_fract_y
 _atom_site_fract_z
 _atom_site_occupancy
  Y  Y0  1  0.594929  0.737326  0.127368  1
  Y  Y1  1  0.637852  0.502217  0.091741  1
  Y  Y2  1  0.362031  0.497719  0.908328  1
  Y  Y3  1  0.140489  0.271916  0.458037  1
  Y  Y4  1  0.700185  0.659765  0.278010  1
  Y  Y5  1  0.404897  0.264387  0.542833  1
  Y  Y6  1  0.365968  0.496737  0.407650  1
  Y  Y7  1  0.365833  0.497386  0.092208  1
  Y  Y8  1  0.634068  0.502679  0.907810  1
  Y  Y9  1  0.429369  0.652596  0.778379  1
  Y  Y10  1  0.360662  0.495415  0.591479  1
  Y  Y11  1  0.674643  0.285319  0.958125  1
  Y  Y12  1  0.595077  0.735426  0.456928  1
  Y  Y13  1  0.634167  0.503364  0.592224  1
  Y  Y14  1  0.556444  0.348420  0.720960  1
  Y  Y15  1  0.299818  0.340011  0.722090  1
  Y  Y16  1  0.602283  0.736149  0.627200  1
  Ho  Ho17  1  0.315862  0.341256  0.220869  1
  Ho  Ho18  1  0.569438  0.347708  0.221728  1
  Ho  Ho19  1  0.684169  0.658614  0.779256  1
  Ho  Ho20  1  0.398370  0.265868  0.042764  1
  Ho  Ho21  1  0.321751  0.710901  0.543917  1
  Ho  Ho22  1  0.858837  0.727747  0.541717  1
  Ho  Ho23  1  0.638224  0.504531  0.408619  1
  Ho  Ho24  1  0.444298  0.650862  0.279006  1
  Ho  Ho25  1  0.398726  0.265337  0.373436  1
  Ho  Ho26  1  0.139551  0.276767  0.956010  1
  Ho  Ho27  1  0.325850  0.714434  0.041804  1
  Ho  Ho28  1  0.405338  0.264124  0.873403  1
  Ho  Ho29  1  0.860532  0.723171  0.043882  1
  Ho  Ho30  1  0.678172  0.289234  0.455924  1
  Ho  Ho31  1  0.601630  0.734052  0.957101  1
  B  B32  1  0.507521  0.500765  0.205417  1
  B  B33  1  0.471151  0.430248  0.486677  1
  B  B34  1  0.492416  0.498786  0.794950  1
  B  B35  1  0.470418  0.430079  0.986975  1
  B  B36  1  0.529285  0.570117  0.012966  1
  B  B37  1  0.492686  0.500686  0.705577  1
  B  B38  1  0.507409  0.498878  0.294485  1
  B  B39  1  0.529325  0.569972  0.512767  1
  C  C40  1  0.666443  0.635607  0.524708  1
  C  C41  1  0.460864  0.391006  0.315341  1
  C  C42  1  0.449745  0.391618  0.816448  1
  C  C43  1  0.445200  0.630702  0.024671  1
  C  C44  1  0.554169  0.368617  0.474863  1
  C  C45  1  0.540144  0.608605  0.684839  1
  C  C46  1  0.333640  0.362279  0.975383  1
  C  C47  1  0.450729  0.395015  0.644376  1
  C  C48  1  0.554002  0.369163  0.974964  1
  C  C49  1  0.666254  0.637341  0.024234  1
  C  C50  1  0.549370  0.608303  0.184438  1
  C  C51  1  0.460702  0.394242  0.144772  1
  C  C52  1  0.446122  0.631569  0.524370  1
  C  C53  1  0.334294  0.363777  0.474263  1
  C  C54  1  0.548934  0.604777  0.355368  1
  C  C55  1  0.539763  0.605242  0.855517  1
  I  I56  1  0.455343  0.086086  0.947399  1
  I  I57  1  0.617304  0.867631  0.834063  1
  I  I58  1  0.502373  0.904948  0.640592  1
  I  I59  1  0.111306  0.352802  0.825155  1
  I  I60  1  0.615602  0.205276  0.583851  1
  I  I61  1  0.868922  0.194137  0.437808  1
  I  I62  1  0.845879  0.911470  0.143193  1
  I  I63  1  0.873563  0.506476  0.949798  1
  I  I64  1  0.862555  0.811699  0.702284  1
  I  I65  1  0.383498  0.133103  0.166165  1
  I  I66  1  0.137989  0.188121  0.297300  1
  I  I67  1  0.770376  0.366535  0.324983  1
  I  I68  1  0.866365  0.807559  0.916695  1
  I  I69  1  0.750598  0.338702  0.114915  1
  I  I70  1  0.543751  0.913344  0.052548  1
  I  I71  1  0.107974  0.325344  0.615206  1
  I  I72  1  0.891503  0.674605  0.385389  1
  I  I73  1  0.818437  0.921463  0.539074  1
  I  I74  1  0.135229  0.810010  0.057182  1
  I  I75  1  0.805659  0.510404  0.749041  1
  I  I76  1  0.865045  0.189798  0.942825  1
  I  I77  1  0.127387  0.491848  0.450789  1
  I  I78  1  0.249143  0.661568  0.885970  1
  I  I79  1  0.130483  0.805638  0.562131  1
  I  I80  1  0.624000  0.211685  0.797712  1
  I  I81  1  0.195413  0.490297  0.251084  1
  I  I82  1  0.181815  0.077874  0.460953  1
  I  I83  1  0.497276  0.095522  0.359425  1
  I  I84  1  0.384503  0.794508  0.415879  1
  I  I85  1  0.154791  0.088991  0.856831  1
  I  I86  1  0.872692  0.508606  0.549204  1
  I  I87  1  0.683599  0.868436  0.328012  1
  I  I88  1  0.133663  0.192499  0.083344  1
  I  I89  1  0.126820  0.494070  0.050217  1
  I  I90  1  0.228799  0.633807  0.674930  1
  I  I91  1  0.375614  0.787722  0.202067  1
  I  I92  1  0.316028  0.131349  0.671938  1
  I  I93  1  0.888654  0.647234  0.174880  1
