# generated using pymatgen
data_Pr4Al18Ir5Au
_symmetry_space_group_name_H-M   'P 1'
_cell_length_a   7.66301271
_cell_length_b   7.66301173
_cell_length_c   9.64225318
_cell_angle_alpha   89.94037997
_cell_angle_beta   89.94037999
_cell_angle_gamma   119.50942011
_symmetry_Int_Tables_number   1
_chemical_formula_structural   Pr4Al18Ir5Au
_chemical_formula_sum   'Pr4 Al18 Ir5 Au1'
_cell_volume   492.75723601
_cell_formula_units_Z   1
loop_
 _symmetry_equiv_pos_site_id
 _symmetry_equiv_pos_as_xyz
  1  'x, y, z'
loop_
 _atom_site_type_symbol
 _atom_site_label
 _atom_site_symmetry_multiplicity
 _atom_site_fract_x
 _atom_site_fract_y
 _atom_site_fract_z
 _atom_site_occupancy
  Pr  Pr0  1  0.995480  0.672579  0.250342  1
  Pr  Pr1  1  0.004520  0.327421  0.749658  1
  Pr  Pr2  1  0.672579  0.995480  0.250342  1
  Pr  Pr3  1  0.327421  0.004520  0.749658  1
  Al  Al4  1  0.136969  0.136969  0.257877  1
  Al  Al5  1  0.863031  0.863031  0.742123  1
  Al  Al6  1  0.003418  0.344623  0.076612  1
  Al  Al7  1  0.996582  0.655377  0.923388  1
  Al  Al8  1  0.998816  0.664756  0.570992  1
  Al  Al9  1  0.335244  0.001184  0.429008  1
  Al  Al10  1  0.001184  0.335244  0.429008  1
  Al  Al11  1  0.664756  0.998816  0.570992  1
  Al  Al12  1  0.655377  0.996582  0.923388  1
  Al  Al13  1  0.344623  0.003418  0.076612  1
  Al  Al14  1  0.334685  0.334685  0.547997  1
  Al  Al15  1  0.665315  0.665315  0.452003  1
  Al  Al16  1  0.656700  0.656700  0.054559  1
  Al  Al17  1  0.343300  0.343300  0.945441  1
  Al  Al18  1  0.339189  0.547126  0.251283  1
  Al  Al19  1  0.660811  0.452874  0.748717  1
  Al  Al20  1  0.547126  0.339189  0.251283  1
  Al  Al21  1  0.452874  0.660811  0.748717  1
  Ir  Ir22  1  0.670639  0.329361  0.000000  1
  Ir  Ir23  1  0.329361  0.670639  0.000000  1
  Ir  Ir24  1  0.329308  0.670692  0.500000  1
  Ir  Ir25  1  0.670692  0.329308  0.500000  1
  Ir  Ir26  1  0.000000  0.000000  0.500000  1
  Au  Au27  1  0.000000  0.000000  0.000000  1
