# generated using pymatgen
data_AgP4RhO12
_symmetry_space_group_name_H-M   'P 1'
_cell_length_a   10.53613233
_cell_length_b   10.53613227
_cell_length_c   5.18547299
_cell_angle_alpha   80.91973493
_cell_angle_beta   80.91972638
_cell_angle_gamma   71.03078274
_symmetry_Int_Tables_number   1
_chemical_formula_structural   AgP4RhO12
_chemical_formula_sum   'Ag2 P8 Rh2 O24'
_cell_volume   534.04827677
_cell_formula_units_Z   2
loop_
 _symmetry_equiv_pos_site_id
 _symmetry_equiv_pos_as_xyz
  1  'x, y, z'
loop_
 _atom_site_type_symbol
 _atom_site_label
 _atom_site_symmetry_multiplicity
 _atom_site_fract_x
 _atom_site_fract_y
 _atom_site_fract_z
 _atom_site_occupancy
  Ag  Ag0  1  0.420142  0.420142  0.693343  1
  Ag  Ag1  1  0.579858  0.579858  0.306657  1
  P  P2  1  0.791116  0.363084  0.834902  1
  P  P3  1  0.066840  0.308036  0.532594  1
  P  P4  1  0.308036  0.066840  0.532594  1
  P  P5  1  0.636916  0.208884  0.165098  1
  P  P6  1  0.363084  0.791116  0.834902  1
  P  P7  1  0.691964  0.933160  0.467406  1
  P  P8  1  0.933160  0.691964  0.467406  1
  P  P9  1  0.208884  0.636916  0.165098  1
  Rh  Rh10  1  0.500000  0.000000  0.000000  1
  Rh  Rh11  1  0.000000  0.500000  0.000000  1
  O  O12  1  0.439689  0.831787  0.017902  1
  O  O13  1  0.405062  0.100980  0.676863  1
  O  O14  1  0.434508  0.670248  0.696542  1
  O  O15  1  0.168213  0.560311  0.982098  1
  O  O16  1  0.560311  0.168213  0.982098  1
  O  O17  1  0.910997  0.670834  0.764068  1
  O  O18  1  0.223461  0.776539  0.000000  1
  O  O19  1  0.565492  0.329752  0.303458  1
  O  O20  1  0.594938  0.899020  0.323137  1
  O  O21  1  0.703165  0.080072  0.369743  1
  O  O22  1  0.329752  0.565492  0.303458  1
  O  O23  1  0.899020  0.594938  0.323137  1
  O  O24  1  0.831787  0.439689  0.017902  1
  O  O25  1  0.080072  0.703165  0.369743  1
  O  O26  1  0.155245  0.155245  0.617502  1
  O  O27  1  0.100980  0.405062  0.676863  1
  O  O28  1  0.670248  0.434508  0.696542  1
  O  O29  1  0.296835  0.919928  0.630257  1
  O  O30  1  0.776539  0.223461  0.000000  1
  O  O31  1  0.329166  0.089003  0.235932  1
  O  O32  1  0.670834  0.910997  0.764068  1
  O  O33  1  0.844755  0.844755  0.382498  1
  O  O34  1  0.919928  0.296835  0.630257  1
  O  O35  1  0.089003  0.329166  0.235932  1
