# generated using pymatgen
data_La2Gd5Ho13Sn16
_symmetry_space_group_name_H-M   'P 1'
_cell_length_a   8.08438209
_cell_length_b   8.24328939
_cell_length_c   15.55154300
_cell_angle_alpha   90.03008913
_cell_angle_beta   90.20959786
_cell_angle_gamma   89.77191128
_symmetry_Int_Tables_number   1
_chemical_formula_structural   La2Gd5Ho13Sn16
_chemical_formula_sum   'La2 Gd5 Ho13 Sn16'
_cell_volume   1036.36910975
_cell_formula_units_Z   1
loop_
 _symmetry_equiv_pos_site_id
 _symmetry_equiv_pos_as_xyz
  1  'x, y, z'
loop_
 _atom_site_type_symbol
 _atom_site_label
 _atom_site_symmetry_multiplicity
 _atom_site_fract_x
 _atom_site_fract_y
 _atom_site_fract_z
 _atom_site_occupancy
  La  La0  1  0.510095  0.322374  0.592961  1
  La  La1  1  0.010746  0.178688  0.906871  1
  Gd  Gd2  1  0.015456  0.178517  0.596872  1
  Gd  Gd3  1  0.486595  0.680523  0.403000  1
  Gd  Gd4  1  0.985998  0.818631  0.096999  1
  Gd  Gd5  1  0.483038  0.678433  0.097342  1
  Gd  Gd6  1  0.984772  0.821098  0.402931  1
  Ho  Ho7  1  0.359371  0.835566  0.877213  1
  Ho  Ho8  1  0.857950  0.664384  0.622871  1
  Ho  Ho9  1  0.642612  0.162097  0.375708  1
  Ho  Ho10  1  0.140777  0.338916  0.123183  1
  Ho  Ho11  1  0.640017  0.163928  0.124391  1
  Ho  Ho12  1  0.142196  0.335990  0.375739  1
  Ho  Ho13  1  0.359463  0.837307  0.623346  1
  Ho  Ho14  1  0.860997  0.662077  0.878273  1
  Ho  Ho15  1  0.518758  0.322515  0.902039  1
  Ho  Ho16  1  0.192670  0.502236  0.750654  1
  Ho  Ho17  1  0.692247  0.997647  0.750335  1
  Ho  Ho18  1  0.808246  0.498673  0.249451  1
  Ho  Ho19  1  0.308604  0.001517  0.250148  1
  Sn  Sn20  1  0.306001  0.036931  0.044008  1
  Sn  Sn21  1  0.807069  0.462199  0.455991  1
  Sn  Sn22  1  0.700072  0.959678  0.541213  1
  Sn  Sn23  1  0.205943  0.538068  0.958199  1
  Sn  Sn24  1  0.691494  0.957188  0.960321  1
  Sn  Sn25  1  0.190986  0.545348  0.539450  1
  Sn  Sn26  1  0.300917  0.036734  0.457066  1
  Sn  Sn27  1  0.795479  0.461353  0.042162  1
  Sn  Sn28  1  0.557562  0.622497  0.750638  1
  Sn  Sn29  1  0.056892  0.876646  0.749961  1
  Sn  Sn30  1  0.443599  0.379978  0.250350  1
  Sn  Sn31  1  0.944354  0.121014  0.248859  1
  Sn  Sn32  1  0.323840  0.145173  0.752067  1
  Sn  Sn33  1  0.821869  0.356062  0.749055  1
  Sn  Sn34  1  0.676779  0.853089  0.249966  1
  Sn  Sn35  1  0.176537  0.646927  0.250363  1
