# generated using pymatgen
data_NdGd7Y2(SiB4)4
_symmetry_space_group_name_H-M   'P 1'
_cell_length_a   7.28106229
_cell_length_b   7.28107908
_cell_length_c   8.22506206
_cell_angle_alpha   89.99267939
_cell_angle_beta   90.00638249
_cell_angle_gamma   89.97622737
_symmetry_Int_Tables_number   1
_chemical_formula_structural   NdGd7Y2(SiB4)4
_chemical_formula_sum   'Nd1 Gd7 Y2 Si4 B16'
_cell_volume   436.04331618
_cell_formula_units_Z   1
loop_
 _symmetry_equiv_pos_site_id
 _symmetry_equiv_pos_as_xyz
  1  'x, y, z'
loop_
 _atom_site_type_symbol
 _atom_site_label
 _atom_site_symmetry_multiplicity
 _atom_site_fract_x
 _atom_site_fract_y
 _atom_site_fract_z
 _atom_site_occupancy
  Nd  Nd0  1  0.180112  0.319884  0.229457  1
  Gd  Gd1  1  0.680299  0.180118  0.224236  1
  Gd  Gd2  1  0.319493  0.819379  0.775850  1
  Gd  Gd3  1  0.319895  0.819718  0.224259  1
  Gd  Gd4  1  0.819417  0.680566  0.224402  1
  Gd  Gd5  1  0.819485  0.680532  0.775289  1
  Gd  Gd6  1  0.680607  0.180496  0.775835  1
  Gd  Gd7  1  0.180351  0.319660  0.775106  1
  Y  Y8  1  0.999515  0.999384  0.500698  1
  Y  Y9  1  0.500609  0.500491  0.500699  1
  Si  Si10  1  0.113632  0.615954  0.502543  1
  Si  Si11  1  0.884029  0.386350  0.502505  1
  Si  Si12  1  0.386812  0.113194  0.502779  1
  Si  Si13  1  0.615206  0.884804  0.500241  1
  B  B14  1  0.171915  0.038419  0.999292  1
  B  B15  1  0.827252  0.960431  0.999380  1
  B  B16  1  0.960035  0.171769  0.998932  1
  B  B17  1  0.328234  0.539971  0.998937  1
  B  B18  1  0.038965  0.827247  0.999210  1
  B  B19  1  0.672751  0.461034  0.999201  1
  B  B20  1  0.539562  0.672750  0.999366  1
  B  B21  1  0.461585  0.328084  0.999300  1
  B  B22  1  0.090176  0.590709  0.998200  1
  B  B23  1  0.909293  0.409825  0.998195  1
  B  B24  1  0.410117  0.089882  0.999629  1
  B  B25  1  0.589915  0.910083  0.999487  1
  B  B26  1  0.998937  0.998081  0.157911  1
  B  B27  1  0.999651  0.999769  0.840578  1
  B  B28  1  0.500231  0.500334  0.840575  1
  B  B29  1  0.501917  0.501083  0.157908  1
