# generated using pymatgen
data_Gd2Zn14Pt3
_symmetry_space_group_name_H-M   'P 1'
_cell_length_a   6.83495752
_cell_length_b   6.83495756
_cell_length_c   6.83495649
_cell_angle_alpha   82.92637763
_cell_angle_beta   82.92637074
_cell_angle_gamma   82.92638415
_symmetry_Int_Tables_number   1
_chemical_formula_structural   Gd2Zn14Pt3
_chemical_formula_sum   'Gd2 Zn14 Pt3'
_cell_volume   312.56819847
_cell_formula_units_Z   1
loop_
 _symmetry_equiv_pos_site_id
 _symmetry_equiv_pos_as_xyz
  1  'x, y, z'
loop_
 _atom_site_type_symbol
 _atom_site_label
 _atom_site_symmetry_multiplicity
 _atom_site_fract_x
 _atom_site_fract_y
 _atom_site_fract_z
 _atom_site_occupancy
  Gd  Gd0  1  0.668035  0.668035  0.668035  1
  Gd  Gd1  1  0.331965  0.331965  0.331965  1
  Zn  Zn2  1  0.354596  0.354596  0.840050  1
  Zn  Zn3  1  0.840050  0.354596  0.354596  1
  Zn  Zn4  1  0.100812  0.100812  0.100812  1
  Zn  Zn5  1  0.899188  0.899188  0.899188  1
  Zn  Zn6  1  0.298886  0.701114  0.000000  1
  Zn  Zn7  1  0.701114  0.000000  0.298886  1
  Zn  Zn8  1  0.000000  0.298886  0.701114  1
  Zn  Zn9  1  0.701114  0.298886  0.000000  1
  Zn  Zn10  1  0.298886  0.000000  0.701114  1
  Zn  Zn11  1  0.000000  0.701114  0.298886  1
  Zn  Zn12  1  0.159950  0.645404  0.645404  1
  Zn  Zn13  1  0.645404  0.645404  0.159950  1
  Zn  Zn14  1  0.645404  0.159950  0.645404  1
  Zn  Zn15  1  0.354596  0.840050  0.354596  1
  Pt  Pt16  1  0.000000  0.000000  0.500000  1
  Pt  Pt17  1  0.000000  0.500000  0.000000  1
  Pt  Pt18  1  0.500000  0.000000  0.000000  1
