# generated using pymatgen
data_Eu3Th(Mo2O7)2
_symmetry_space_group_name_H-M   'P 1'
_cell_length_a   7.47472411
_cell_length_b   7.47472435
_cell_length_c   7.57528555
_cell_angle_alpha   60.43817276
_cell_angle_beta   60.43817070
_cell_angle_gamma   60.00000137
_symmetry_Int_Tables_number   1
_chemical_formula_structural   Eu3Th(Mo2O7)2
_chemical_formula_sum   'Eu3 Th1 Mo4 O14'
_cell_volume   301.24451825
_cell_formula_units_Z   1
loop_
 _symmetry_equiv_pos_site_id
 _symmetry_equiv_pos_as_xyz
  1  'x, y, z'
loop_
 _atom_site_type_symbol
 _atom_site_label
 _atom_site_symmetry_multiplicity
 _atom_site_fract_x
 _atom_site_fract_y
 _atom_site_fract_z
 _atom_site_occupancy
  Eu  Eu0  1  0.625000  0.125000  0.125000  1
  Eu  Eu1  1  0.125000  0.625000  0.125000  1
  Eu  Eu2  1  0.125000  0.125000  0.125000  1
  Th  Th3  1  0.125000  0.125000  0.625000  1
  Mo  Mo4  1  0.125000  0.625000  0.625000  1
  Mo  Mo5  1  0.625000  0.125000  0.625000  1
  Mo  Mo6  1  0.625000  0.625000  0.125000  1
  Mo  Mo7  1  0.625000  0.625000  0.625000  1
  O  O8  1  0.243865  0.243865  0.268406  1
  O  O9  1  0.006135  0.006135  0.981594  1
  O  O10  1  0.699014  0.699014  0.298246  1
  O  O11  1  0.291154  0.291154  0.708417  1
  O  O12  1  0.709275  0.291154  0.708417  1
  O  O13  1  0.303726  0.699014  0.298246  1
  O  O14  1  0.291154  0.709275  0.708417  1
  O  O15  1  0.699014  0.303726  0.298246  1
  O  O16  1  0.550986  0.550986  0.951754  1
  O  O17  1  0.958846  0.958846  0.541583  1
  O  O18  1  0.540725  0.958846  0.541583  1
  O  O19  1  0.946274  0.550986  0.951754  1
  O  O20  1  0.958846  0.540725  0.541583  1
  O  O21  1  0.550986  0.946274  0.951754  1
