# generated using pymatgen
data_Rb2DyLu(SiSe4)2
_symmetry_space_group_name_H-M   'P 1'
_cell_length_a   7.04182981
_cell_length_b   6.73867102
_cell_length_c   18.88525100
_cell_angle_alpha   71.99720946
_cell_angle_beta   90.10930568
_cell_angle_gamma   89.96880611
_symmetry_Int_Tables_number   1
_chemical_formula_structural   Rb2DyLu(SiSe4)2
_chemical_formula_sum   'Rb4 Dy2 Lu2 Si4 Se16'
_cell_volume   852.27724656
_cell_formula_units_Z   2
loop_
 _symmetry_equiv_pos_site_id
 _symmetry_equiv_pos_as_xyz
  1  'x, y, z'
loop_
 _atom_site_type_symbol
 _atom_site_label
 _atom_site_symmetry_multiplicity
 _atom_site_fract_x
 _atom_site_fract_y
 _atom_site_fract_z
 _atom_site_occupancy
  Rb  Rb0  1  0.251217  0.731675  0.033097  1
  Rb  Rb1  1  0.249005  0.731044  0.532897  1
  Rb  Rb2  1  0.750995  0.268956  0.467103  1
  Rb  Rb3  1  0.748783  0.268325  0.966903  1
  Dy  Dy4  1  0.776392  0.230140  0.226427  1
  Dy  Dy5  1  0.223608  0.769860  0.773573  1
  Lu  Lu6  1  0.721342  0.231478  0.726161  1
  Lu  Lu7  1  0.278658  0.768522  0.273839  1
  Si  Si8  1  0.260965  0.218575  0.832943  1
  Si  Si9  1  0.239342  0.218364  0.333016  1
  Si  Si10  1  0.760658  0.781636  0.666984  1
  Si  Si11  1  0.739035  0.781425  0.167057  1
  Se  Se12  1  0.494013  0.987966  0.654010  1
  Se  Se13  1  0.172400  0.434244  0.216323  1
  Se  Se14  1  0.505987  0.012034  0.345990  1
  Se  Se15  1  0.990505  0.018110  0.845188  1
  Se  Se16  1  0.330741  0.428614  0.715616  1
  Se  Se17  1  0.256956  0.417455  0.910600  1
  Se  Se18  1  0.743044  0.582545  0.089400  1
  Se  Se19  1  0.827600  0.565756  0.783677  1
  Se  Se20  1  0.755600  0.576692  0.591271  1
  Se  Se21  1  0.244400  0.423308  0.408729  1
  Se  Se22  1  0.496979  0.970955  0.855717  1
  Se  Se23  1  0.992933  0.032632  0.644044  1
  Se  Se24  1  0.503021  0.029045  0.144283  1
  Se  Se25  1  0.009495  0.981890  0.154812  1
  Se  Se26  1  0.007067  0.967368  0.355956  1
  Se  Se27  1  0.669259  0.571386  0.284384  1
