# generated using pymatgen
data_Yb3LuAl15(SiIr2)3
_symmetry_space_group_name_H-M   'P 1'
_cell_length_a   7.53124539
_cell_length_b   7.54026318
_cell_length_c   9.32963900
_cell_angle_alpha   90.00000000
_cell_angle_beta   90.00000000
_cell_angle_gamma   119.69844382
_symmetry_Int_Tables_number   1
_chemical_formula_structural   Yb3LuAl15(SiIr2)3
_chemical_formula_sum   'Yb3 Lu1 Al15 Si3 Ir6'
_cell_volume   460.21466337
_cell_formula_units_Z   1
loop_
 _symmetry_equiv_pos_site_id
 _symmetry_equiv_pos_as_xyz
  1  'x, y, z'
loop_
 _atom_site_type_symbol
 _atom_site_label
 _atom_site_symmetry_multiplicity
 _atom_site_fract_x
 _atom_site_fract_y
 _atom_site_fract_z
 _atom_site_occupancy
  Yb  Yb0  1  0.000840  0.674001  0.250000  1
  Yb  Yb1  1  0.001492  0.323544  0.750000  1
  Yb  Yb2  1  0.667468  0.987539  0.250000  1
  Lu  Lu3  1  0.325617  0.003360  0.750000  1
  Al  Al4  1  0.998252  0.333389  0.074771  1
  Al  Al5  1  0.002386  0.664169  0.924247  1
  Al  Al6  1  0.002386  0.664169  0.575753  1
  Al  Al7  1  0.336648  0.004865  0.425759  1
  Al  Al8  1  0.998252  0.333389  0.425229  1
  Al  Al9  1  0.663433  0.999935  0.575503  1
  Al  Al10  1  0.663433  0.999935  0.924497  1
  Al  Al11  1  0.336648  0.004865  0.074241  1
  Al  Al12  1  0.334611  0.335107  0.560404  1
  Al  Al13  1  0.667687  0.664695  0.450620  1
  Al  Al14  1  0.667687  0.664695  0.049380  1
  Al  Al15  1  0.334611  0.335107  0.939596  1
  Al  Al16  1  0.664334  0.454221  0.750000  1
  Al  Al17  1  0.548986  0.340011  0.250000  1
  Al  Al18  1  0.449796  0.668122  0.750000  1
  Si  Si19  1  0.125056  0.129289  0.250000  1
  Si  Si20  1  0.872255  0.870364  0.750000  1
  Si  Si21  1  0.330809  0.538594  0.250000  1
  Ir  Ir22  1  0.670124  0.330171  0.999201  1
  Ir  Ir23  1  0.331209  0.671311  0.007306  1
  Ir  Ir24  1  0.331209  0.671311  0.492694  1
  Ir  Ir25  1  0.670124  0.330171  0.500799  1
  Ir  Ir26  1  0.002324  0.001836  0.998284  1
  Ir  Ir27  1  0.002324  0.001836  0.501716  1
