# generated using pymatgen
data_SrY2(SiIr2)3
_symmetry_space_group_name_H-M   'P 1'
_cell_length_a   5.62793500
_cell_length_b   5.62793553
_cell_length_c   15.15477900
_cell_angle_alpha   90.00000000
_cell_angle_beta   90.00000000
_cell_angle_gamma   120.00000278
_symmetry_Int_Tables_number   1
_chemical_formula_structural   SrY2(SiIr2)3
_chemical_formula_sum   'Sr2 Y4 Si6 Ir12'
_cell_volume   415.69845789
_cell_formula_units_Z   2
loop_
 _symmetry_equiv_pos_site_id
 _symmetry_equiv_pos_as_xyz
  1  'x, y, z'
loop_
 _atom_site_type_symbol
 _atom_site_label
 _atom_site_symmetry_multiplicity
 _atom_site_fract_x
 _atom_site_fract_y
 _atom_site_fract_z
 _atom_site_occupancy
  Sr  Sr0  1  0.333333  0.666667  0.750000  1
  Sr  Sr1  1  0.666667  0.333333  0.250000  1
  Y  Y2  1  0.333333  0.666667  0.540649  1
  Y  Y3  1  0.666667  0.333333  0.459351  1
  Y  Y4  1  0.666667  0.333333  0.040649  1
  Y  Y5  1  0.333333  0.666667  0.959351  1
  Si  Si6  1  0.000000  0.000000  0.250000  1
  Si  Si7  1  0.000000  0.000000  0.750000  1
  Si  Si8  1  0.333333  0.666667  0.250000  1
  Si  Si9  1  0.666667  0.333333  0.750000  1
  Si  Si10  1  0.000000  0.000000  0.000000  1
  Si  Si11  1  0.000000  0.000000  0.500000  1
  Ir  Ir12  1  0.167539  0.335077  0.128937  1
  Ir  Ir13  1  0.832461  0.664923  0.871063  1
  Ir  Ir14  1  0.664923  0.832461  0.128937  1
  Ir  Ir15  1  0.832461  0.664923  0.628937  1
  Ir  Ir16  1  0.335077  0.167539  0.871063  1
  Ir  Ir17  1  0.167539  0.335077  0.371063  1
  Ir  Ir18  1  0.167539  0.832461  0.128937  1
  Ir  Ir19  1  0.335077  0.167539  0.628937  1
  Ir  Ir20  1  0.832461  0.167539  0.871063  1
  Ir  Ir21  1  0.664923  0.832461  0.371063  1
  Ir  Ir22  1  0.832461  0.167539  0.628937  1
  Ir  Ir23  1  0.167539  0.832461  0.371063  1
