# generated using pymatgen
data_YReSi2Tc3
_symmetry_space_group_name_H-M   'P 1'
_cell_length_a   7.13996951
_cell_length_b   7.61657003
_cell_length_c   4.15094200
_cell_angle_alpha   90.00000000
_cell_angle_beta   90.00000000
_cell_angle_gamma   90.13627405
_symmetry_Int_Tables_number   1
_chemical_formula_structural   YReSi2Tc3
_chemical_formula_sum   'Y2 Re2 Si4 Tc6'
_cell_volume   225.73621207
_cell_formula_units_Z   2
loop_
 _symmetry_equiv_pos_site_id
 _symmetry_equiv_pos_as_xyz
  1  'x, y, z'
loop_
 _atom_site_type_symbol
 _atom_site_label
 _atom_site_symmetry_multiplicity
 _atom_site_fract_x
 _atom_site_fract_y
 _atom_site_fract_z
 _atom_site_occupancy
  Y  Y0  1  0.500000  0.500000  0.000000  1
  Y  Y1  1  0.000000  0.000000  0.500000  1
  Re  Re2  1  0.582524  0.158111  0.500000  1
  Re  Re3  1  0.417476  0.841889  0.500000  1
  Si  Si4  1  0.723504  0.695194  0.500000  1
  Si  Si5  1  0.276496  0.304806  0.500000  1
  Si  Si6  1  0.221533  0.803351  0.000000  1
  Si  Si7  1  0.778467  0.196649  0.000000  1
  Tc  Tc8  1  0.083107  0.342231  0.000000  1
  Tc  Tc9  1  0.916893  0.657769  0.000000  1
  Tc  Tc10  1  0.155255  0.604927  0.500000  1
  Tc  Tc11  1  0.844745  0.395073  0.500000  1
  Tc  Tc12  1  0.343882  0.104455  0.000000  1
  Tc  Tc13  1  0.656118  0.895545  0.000000  1
