# generated using pymatgen
data_Yb7YSi12PdPt3
_symmetry_space_group_name_H-M   'P 1'
_cell_length_a   8.21369700
_cell_length_b   8.21369566
_cell_length_c   8.24994900
_cell_angle_alpha   90.00000000
_cell_angle_beta   90.00000000
_cell_angle_gamma   120.00000138
_symmetry_Int_Tables_number   1
_chemical_formula_structural   Yb7YSi12PdPt3
_chemical_formula_sum   'Yb7 Y1 Si12 Pd1 Pt3'
_cell_volume   482.01346929
_cell_formula_units_Z   1
loop_
 _symmetry_equiv_pos_site_id
 _symmetry_equiv_pos_as_xyz
  1  'x, y, z'
loop_
 _atom_site_type_symbol
 _atom_site_label
 _atom_site_symmetry_multiplicity
 _atom_site_fract_x
 _atom_site_fract_y
 _atom_site_fract_z
 _atom_site_occupancy
  Yb  Yb0  1  0.502281  0.004562  0.249989  1
  Yb  Yb1  1  0.498267  0.996533  0.749955  1
  Yb  Yb2  1  0.995438  0.497719  0.249989  1
  Yb  Yb3  1  0.003467  0.501733  0.749955  1
  Yb  Yb4  1  0.502281  0.497719  0.249989  1
  Yb  Yb5  1  0.498267  0.501733  0.749955  1
  Yb  Yb6  1  0.000000  0.000000  0.250361  1
  Y  Y7  1  0.000000  0.000000  0.749325  1
  Si  Si8  1  0.165218  0.330436  0.999408  1
  Si  Si9  1  0.834971  0.669944  0.996353  1
  Si  Si10  1  0.669564  0.834782  0.999408  1
  Si  Si11  1  0.835128  0.670258  0.503688  1
  Si  Si12  1  0.330056  0.165029  0.996353  1
  Si  Si13  1  0.164617  0.329234  0.501070  1
  Si  Si14  1  0.165218  0.834782  0.999408  1
  Si  Si15  1  0.329742  0.164872  0.503688  1
  Si  Si16  1  0.834971  0.165029  0.996353  1
  Si  Si17  1  0.670766  0.835383  0.501070  1
  Si  Si18  1  0.835128  0.164872  0.503688  1
  Si  Si19  1  0.164617  0.835383  0.501070  1
  Pd  Pd20  1  0.333333  0.666667  0.495210  1
  Pt  Pt21  1  0.333333  0.666667  0.003696  1
  Pt  Pt22  1  0.666667  0.333333  0.996180  1
  Pt  Pt23  1  0.666667  0.333333  0.503840  1
