# generated using pymatgen
data_TeSI3
_symmetry_space_group_name_H-M   'P 1'
_cell_length_a   8.76054508
_cell_length_b   8.83810564
_cell_length_c   16.60971887
_cell_angle_alpha   88.11084976
_cell_angle_beta   86.01275416
_cell_angle_gamma   60.79344844
_symmetry_Int_Tables_number   1
_chemical_formula_structural   TeSI3
_chemical_formula_sum   'Te4 S4 I12'
_cell_volume   1119.81837998
_cell_formula_units_Z   4
loop_
 _symmetry_equiv_pos_site_id
 _symmetry_equiv_pos_as_xyz
  1  'x, y, z'
loop_
 _atom_site_type_symbol
 _atom_site_label
 _atom_site_symmetry_multiplicity
 _atom_site_fract_x
 _atom_site_fract_y
 _atom_site_fract_z
 _atom_site_occupancy
  Te  Te0  1  0.984100  0.875180  0.627446  1
  Te  Te1  1  0.141184  0.875606  0.872763  1
  Te  Te2  1  0.015900  0.124820  0.372554  1
  Te  Te3  1  0.858816  0.124394  0.127237  1
  S  S4  1  0.231144  0.598117  0.692184  1
  S  S5  1  0.167546  0.598321  0.807767  1
  S  S6  1  0.768856  0.401883  0.307816  1
  S  S7  1  0.832454  0.401679  0.192233  1
  I  I8  1  0.758212  0.263546  0.509406  1
  I  I9  1  0.978634  0.265846  0.990993  1
  I  I10  1  0.241787  0.736454  0.490594  1
  I  I11  1  0.021366  0.734154  0.009007  1
  I  I12  1  0.770972  0.749781  0.577904  1
  I  I13  1  0.477532  0.751996  0.922240  1
  I  I14  1  0.229028  0.250219  0.422096  1
  I  I15  1  0.522468  0.248004  0.077760  1
  I  I16  1  0.776560  0.994483  0.783252  1
  I  I17  1  0.230091  0.996197  0.717115  1
  I  I18  1  0.223440  0.005517  0.216748  1
  I  I19  1  0.769909  0.003803  0.282885  1
