# generated using pymatgen
data_V20Ga9Cu
_symmetry_space_group_name_H-M   'P 1'
_cell_length_a   9.29639750
_cell_length_b   9.29636632
_cell_length_c   4.75869800
_cell_angle_alpha   90.00000000
_cell_angle_beta   90.00000000
_cell_angle_gamma   89.92003078
_symmetry_Int_Tables_number   1
_chemical_formula_structural   V20Ga9Cu
_chemical_formula_sum   'V20 Ga9 Cu1'
_cell_volume   411.25920812
_cell_formula_units_Z   1
loop_
 _symmetry_equiv_pos_site_id
 _symmetry_equiv_pos_as_xyz
  1  'x, y, z'
loop_
 _atom_site_type_symbol
 _atom_site_label
 _atom_site_symmetry_multiplicity
 _atom_site_fract_x
 _atom_site_fract_y
 _atom_site_fract_z
 _atom_site_occupancy
  V  V0  1  0.396491  0.396414  0.000000  1
  V  V1  1  0.899893  0.100048  0.500000  1
  V  V2  1  0.100107  0.899952  0.500000  1
  V  V3  1  0.603509  0.603586  0.000000  1
  V  V4  1  0.126641  0.466807  0.000000  1
  V  V5  1  0.965102  0.371329  0.500000  1
  V  V6  1  0.034898  0.628671  0.500000  1
  V  V7  1  0.873359  0.533193  0.000000  1
  V  V8  1  0.371421  0.965131  0.500000  1
  V  V9  1  0.628579  0.034869  0.500000  1
  V  V10  1  0.466850  0.126497  0.000000  1
  V  V11  1  0.533150  0.873503  0.000000  1
  V  V12  1  0.181248  0.181185  0.254625  1
  V  V13  1  0.682201  0.317733  0.754556  1
  V  V14  1  0.317799  0.682267  0.754556  1
  V  V15  1  0.818752  0.818815  0.254625  1
  V  V16  1  0.317799  0.682267  0.245444  1
  V  V17  1  0.682201  0.317733  0.245444  1
  V  V18  1  0.181248  0.181185  0.745375  1
  V  V19  1  0.818752  0.818815  0.745375  1
  Ga  Ga20  1  0.500000  0.500000  0.500000  1
  Ga  Ga21  1  0.261132  0.936598  0.000000  1
  Ga  Ga22  1  0.434478  0.232831  0.500000  1
  Ga  Ga23  1  0.565522  0.767169  0.500000  1
  Ga  Ga24  1  0.738868  0.063402  0.000000  1
  Ga  Ga25  1  0.232905  0.434452  0.500000  1
  Ga  Ga26  1  0.767095  0.565548  0.500000  1
  Ga  Ga27  1  0.936572  0.261040  0.000000  1
  Ga  Ga28  1  0.063428  0.738960  0.000000  1
  Cu  Cu29  1  0.000000  0.000000  0.000000  1
