# generated using pymatgen
data_Ho3Lu4Pa(TcB6)4
_symmetry_space_group_name_H-M   'P 1'
_cell_length_a   3.65599900
_cell_length_b   9.08939406
_cell_length_c   11.46861004
_cell_angle_alpha   90.11886606
_cell_angle_beta   90.00000000
_cell_angle_gamma   90.00000000
_symmetry_Int_Tables_number   1
_chemical_formula_structural   Ho3Lu4Pa(TcB6)4
_chemical_formula_sum   'Ho3 Lu4 Pa1 Tc4 B24'
_cell_volume   381.11044510
_cell_formula_units_Z   1
loop_
 _symmetry_equiv_pos_site_id
 _symmetry_equiv_pos_as_xyz
  1  'x, y, z'
loop_
 _atom_site_type_symbol
 _atom_site_label
 _atom_site_symmetry_multiplicity
 _atom_site_fract_x
 _atom_site_fract_y
 _atom_site_fract_z
 _atom_site_occupancy
  Ho  Ho0  1  0.000000  0.679713  0.586858  1
  Ho  Ho1  1  0.000000  0.822912  0.085174  1
  Ho  Ho2  1  0.000000  0.176153  0.913633  1
  Lu  Lu3  1  0.000000  0.942462  0.371117  1
  Lu  Lu4  1  0.000000  0.055381  0.629865  1
  Lu  Lu5  1  0.000000  0.443358  0.128118  1
  Lu  Lu6  1  0.000000  0.557466  0.869878  1
  Pa  Pa7  1  0.000000  0.323038  0.414171  1
  Tc  Tc8  1  0.000000  0.636445  0.320833  1
  Tc  Tc9  1  0.000000  0.361466  0.677266  1
  Tc  Tc10  1  0.000000  0.141534  0.182472  1
  Tc  Tc11  1  0.000000  0.861034  0.820238  1
  B  B12  1  0.500000  0.553209  0.432015  1
  B  B13  1  0.500000  0.445647  0.567306  1
  B  B14  1  0.500000  0.054112  0.067508  1
  B  B15  1  0.500000  0.946675  0.933537  1
  B  B16  1  0.500000  0.750213  0.418369  1
  B  B17  1  0.500000  0.249332  0.581444  1
  B  B18  1  0.500000  0.250102  0.080688  1
  B  B19  1  0.500000  0.749632  0.918942  1
  B  B20  1  0.500000  0.792391  0.265448  1
  B  B21  1  0.500000  0.207421  0.735146  1
  B  B22  1  0.500000  0.292367  0.234550  1
  B  B23  1  0.500000  0.707494  0.765420  1
  B  B24  1  0.500000  0.630540  0.184070  1
  B  B25  1  0.500000  0.370192  0.814915  1
  B  B26  1  0.500000  0.130986  0.315498  1
  B  B27  1  0.500000  0.869512  0.685268  1
  B  B28  1  0.500000  0.981978  0.212674  1
  B  B29  1  0.500000  0.018320  0.787750  1
  B  B30  1  0.500000  0.482344  0.286845  1
  B  B31  1  0.500000  0.518349  0.713289  1
  B  B32  1  0.500000  0.599971  0.027152  1
  B  B33  1  0.500000  0.400057  0.971677  1
  B  B34  1  0.500000  0.101268  0.472218  1
  B  B35  1  0.500000  0.896926  0.528644  1
