# generated using pymatgen
data_Dy17Tm3Ir7Au5
_symmetry_space_group_name_H-M   'P 1'
_cell_length_a   11.17146526
_cell_length_b   11.17026601
_cell_length_c   6.31041535
_cell_angle_alpha   89.93613375
_cell_angle_beta   89.95510747
_cell_angle_gamma   89.62385622
_symmetry_Int_Tables_number   1
_chemical_formula_structural   Dy17Tm3Ir7Au5
_chemical_formula_sum   'Dy17 Tm3 Ir7 Au5'
_cell_volume   787.44792089
_cell_formula_units_Z   1
loop_
 _symmetry_equiv_pos_site_id
 _symmetry_equiv_pos_as_xyz
  1  'x, y, z'
loop_
 _atom_site_type_symbol
 _atom_site_label
 _atom_site_symmetry_multiplicity
 _atom_site_fract_x
 _atom_site_fract_y
 _atom_site_fract_z
 _atom_site_occupancy
  Dy  Dy0  1  0.299590  0.090901  0.364809  1
  Dy  Dy1  1  0.300818  0.907499  0.863585  1
  Dy  Dy2  1  0.698597  0.080822  0.860968  1
  Dy  Dy3  1  0.698706  0.906027  0.361930  1
  Dy  Dy4  1  0.581078  0.784159  0.876489  1
  Dy  Dy5  1  0.576142  0.207482  0.364492  1
  Dy  Dy6  1  0.417944  0.787835  0.376744  1
  Dy  Dy7  1  0.411253  0.208832  0.878637  1
  Dy  Dy8  1  0.215860  0.418839  0.623457  1
  Dy  Dy9  1  0.212214  0.581882  0.123285  1
  Dy  Dy10  1  0.792509  0.423985  0.135533  1
  Dy  Dy11  1  0.791110  0.588790  0.621158  1
  Dy  Dy12  1  0.909133  0.700646  0.134791  1
  Dy  Dy13  1  0.919210  0.301708  0.639579  1
  Dy  Dy14  1  0.092520  0.698862  0.636973  1
  Dy  Dy15  1  0.093889  0.301029  0.137890  1
  Dy  Dy16  1  0.998848  0.000528  0.499247  1
  Tm  Tm17  1  0.999456  0.001240  0.000611  1
  Tm  Tm18  1  0.495602  0.502525  0.001512  1
  Tm  Tm19  1  0.497531  0.504374  0.498502  1
  Ir  Ir20  1  0.652054  0.650294  0.250011  1
  Ir  Ir21  1  0.349723  0.347953  0.249847  1
  Ir  Ir22  1  0.346504  0.653580  0.750103  1
  Ir  Ir23  1  0.499496  0.999251  0.112553  1
  Ir  Ir24  1  0.499340  0.000428  0.613666  1
  Ir  Ir25  1  0.999611  0.500620  0.886246  1
  Ir  Ir26  1  0.000762  0.500503  0.387285  1
  Au  Au27  1  0.842447  0.157667  0.248442  1
  Au  Au28  1  0.844394  0.846332  0.752251  1
  Au  Au29  1  0.153771  0.155428  0.750732  1
  Au  Au30  1  0.155441  0.844476  0.248492  1
  Au  Au31  1  0.654448  0.345506  0.750179  1
