# generated using pymatgen
data_LiLa5DyOsBr12
_symmetry_space_group_name_H-M   'P 1'
_cell_length_a   9.78738361
_cell_length_b   9.57941403
_cell_length_c   9.69512265
_cell_angle_alpha   108.32987657
_cell_angle_beta   108.71874687
_cell_angle_gamma   107.18779689
_symmetry_Int_Tables_number   1
_chemical_formula_structural   LiLa5DyOsBr12
_chemical_formula_sum   'Li1 La5 Dy1 Os1 Br12'
_cell_volume   733.49021568
_cell_formula_units_Z   1
loop_
 _symmetry_equiv_pos_site_id
 _symmetry_equiv_pos_as_xyz
  1  'x, y, z'
loop_
 _atom_site_type_symbol
 _atom_site_label
 _atom_site_symmetry_multiplicity
 _atom_site_fract_x
 _atom_site_fract_y
 _atom_site_fract_z
 _atom_site_occupancy
  Li  Li0  1  0.503142  0.499632  0.496801  1
  La  La1  1  0.029219  0.307875  0.113747  1
  La  La2  1  0.128785  0.038762  0.329168  1
  La  La3  1  0.880620  0.964900  0.675703  1
  La  La4  1  0.966601  0.691557  0.888427  1
  La  La5  1  0.658022  0.871829  0.961427  1
  Dy  Dy6  1  0.323662  0.122410  0.037996  1
  Os  Os7  1  0.999329  0.000748  0.002683  1
  Br  Br8  1  0.674343  0.210476  0.067430  1
  Br  Br9  1  0.379811  0.452847  0.170021  1
  Br  Br10  1  0.073370  0.685499  0.218791  1
  Br  Br11  1  0.794868  0.933283  0.317490  1
  Br  Br12  1  0.468924  0.178748  0.370992  1
  Br  Br13  1  0.186838  0.387946  0.470403  1
  Br  Br14  1  0.818588  0.614193  0.531976  1
  Br  Br15  1  0.534160  0.817509  0.611909  1
  Br  Br16  1  0.220884  0.075081  0.701822  1
  Br  Br17  1  0.930461  0.316616  0.784975  1
  Br  Br18  1  0.616175  0.530079  0.815631  1
  Br  Br19  1  0.312201  0.800012  0.932612  1
