# generated using pymatgen
data_DyHo3(Tm4Bi3)4
_symmetry_space_group_name_H-M   'P 1'
_cell_length_a   8.18555300
_cell_length_b   9.44871800
_cell_length_c   11.91119200
_cell_angle_alpha   90.00000000
_cell_angle_beta   89.99753664
_cell_angle_gamma   90.00000000
_symmetry_Int_Tables_number   1
_chemical_formula_structural   DyHo3(Tm4Bi3)4
_chemical_formula_sum   'Dy1 Ho3 Tm16 Bi12'
_cell_volume   921.24710768
_cell_formula_units_Z   1
loop_
 _symmetry_equiv_pos_site_id
 _symmetry_equiv_pos_as_xyz
  1  'x, y, z'
loop_
 _atom_site_type_symbol
 _atom_site_label
 _atom_site_symmetry_multiplicity
 _atom_site_fract_x
 _atom_site_fract_y
 _atom_site_fract_z
 _atom_site_occupancy
  Dy  Dy0  1  0.313854  0.250000  0.218125  1
  Ho  Ho1  1  0.813872  0.250000  0.281938  1
  Ho  Ho2  1  0.686157  0.750000  0.781946  1
  Ho  Ho3  1  0.186159  0.750000  0.718050  1
  Tm  Tm4  1  0.353583  0.750000  0.217401  1
  Tm  Tm5  1  0.853598  0.750000  0.282595  1
  Tm  Tm6  1  0.646418  0.250000  0.782606  1
  Tm  Tm7  1  0.146400  0.250000  0.717398  1
  Tm  Tm8  1  0.692256  0.565709  0.059521  1
  Tm  Tm9  1  0.192267  0.934277  0.440491  1
  Tm  Tm10  1  0.307741  0.065714  0.940461  1
  Tm  Tm11  1  0.807729  0.434273  0.559521  1
  Tm  Tm12  1  0.307741  0.434286  0.940461  1
  Tm  Tm13  1  0.807729  0.065727  0.559521  1
  Tm  Tm14  1  0.692256  0.934291  0.059521  1
  Tm  Tm15  1  0.192267  0.565723  0.440491  1
  Tm  Tm16  1  0.476866  0.250000  0.489380  1
  Tm  Tm17  1  0.976795  0.250000  0.010623  1
  Tm  Tm18  1  0.523165  0.750000  0.510651  1
  Tm  Tm19  1  0.023152  0.750000  0.989348  1
  Bi  Bi20  1  0.404341  0.750000  0.958225  1
  Bi  Bi21  1  0.904353  0.750000  0.541772  1
  Bi  Bi22  1  0.595794  0.250000  0.041667  1
  Bi  Bi23  1  0.095586  0.250000  0.458273  1
  Bi  Bi24  1  0.566169  0.995494  0.325926  1
  Bi  Bi25  1  0.065999  0.504542  0.174095  1
  Bi  Bi26  1  0.433890  0.495555  0.674099  1
  Bi  Bi27  1  0.933904  0.004440  0.825887  1
  Bi  Bi28  1  0.433890  0.004445  0.674099  1
  Bi  Bi29  1  0.933904  0.495560  0.825887  1
  Bi  Bi30  1  0.566169  0.504506  0.325926  1
  Bi  Bi31  1  0.065999  0.995458  0.174095  1
