# generated using pymatgen
data_SrTb6NiBr12
_symmetry_space_group_name_H-M   'P 1'
_cell_length_a   9.20588543
_cell_length_b   9.20588481
_cell_length_c   9.20588493
_cell_angle_alpha   106.02708437
_cell_angle_beta   106.02708732
_cell_angle_gamma   106.02708902
_symmetry_Int_Tables_number   1
_chemical_formula_structural   SrTb6NiBr12
_chemical_formula_sum   'Sr1 Tb6 Ni1 Br12'
_cell_volume   666.23674249
_cell_formula_units_Z   1
loop_
 _symmetry_equiv_pos_site_id
 _symmetry_equiv_pos_as_xyz
  1  'x, y, z'
loop_
 _atom_site_type_symbol
 _atom_site_label
 _atom_site_symmetry_multiplicity
 _atom_site_fract_x
 _atom_site_fract_y
 _atom_site_fract_z
 _atom_site_occupancy
  Sr  Sr0  1  0.500000  0.500000  0.500000  1
  Tb  Tb1  1  0.902158  0.694701  0.979178  1
  Tb  Tb2  1  0.979178  0.902158  0.694701  1
  Tb  Tb3  1  0.694701  0.979178  0.902158  1
  Tb  Tb4  1  0.097842  0.305299  0.020822  1
  Tb  Tb5  1  0.020822  0.097842  0.305299  1
  Tb  Tb6  1  0.305299  0.020822  0.097842  1
  Ni  Ni7  1  0.000000  0.000000  0.000000  1
  Br  Br8  1  0.632844  0.861271  0.552986  1
  Br  Br9  1  0.552986  0.632844  0.861271  1
  Br  Br10  1  0.861271  0.552986  0.632844  1
  Br  Br11  1  0.367156  0.138729  0.447014  1
  Br  Br12  1  0.447014  0.367156  0.138729  1
  Br  Br13  1  0.138729  0.447014  0.367156  1
  Br  Br14  1  0.677642  0.073540  0.221480  1
  Br  Br15  1  0.221480  0.677642  0.073540  1
  Br  Br16  1  0.073540  0.221480  0.677642  1
  Br  Br17  1  0.322358  0.926460  0.778520  1
  Br  Br18  1  0.778520  0.322358  0.926460  1
  Br  Br19  1  0.926460  0.778520  0.322358  1
