# generated using pymatgen
data_Ho6ErFeO12
_symmetry_space_group_name_H-M   'P 1'
_cell_length_a   6.59662782
_cell_length_b   6.59662726
_cell_length_c   6.59662758
_cell_angle_alpha   93.10406624
_cell_angle_beta   93.10407555
_cell_angle_gamma   93.10407084
_symmetry_Int_Tables_number   1
_chemical_formula_structural   Ho6ErFeO12
_chemical_formula_sum   'Ho6 Er1 Fe1 O12'
_cell_volume   285.74438660
_cell_formula_units_Z   1
loop_
 _symmetry_equiv_pos_site_id
 _symmetry_equiv_pos_as_xyz
  1  'x, y, z'
loop_
 _atom_site_type_symbol
 _atom_site_label
 _atom_site_symmetry_multiplicity
 _atom_site_fract_x
 _atom_site_fract_y
 _atom_site_fract_z
 _atom_site_occupancy
  Ho  Ho0  1  0.740196  0.925215  0.436458  1
  Ho  Ho1  1  0.925215  0.436458  0.740196  1
  Ho  Ho2  1  0.436458  0.740196  0.925215  1
  Ho  Ho3  1  0.259804  0.074785  0.563542  1
  Ho  Ho4  1  0.074785  0.563542  0.259804  1
  Ho  Ho5  1  0.563542  0.259804  0.074785  1
  Er  Er6  1  0.000000  0.000000  0.000000  1
  Fe  Fe7  1  0.500000  0.500000  0.500000  1
  O  O8  1  0.589521  0.462466  0.800937  1
  O  O9  1  0.462466  0.800937  0.589521  1
  O  O10  1  0.800937  0.589521  0.462466  1
  O  O11  1  0.410479  0.537534  0.199063  1
  O  O12  1  0.537534  0.199063  0.410479  1
  O  O13  1  0.199063  0.410479  0.537534  1
  O  O14  1  0.068756  0.908063  0.317783  1
  O  O15  1  0.908063  0.317783  0.068756  1
  O  O16  1  0.682217  0.931244  0.091937  1
  O  O17  1  0.091937  0.682217  0.931244  1
  O  O18  1  0.931244  0.091937  0.682217  1
  O  O19  1  0.317783  0.068756  0.908063  1
