# generated using pymatgen
data_TmZrReB6
_symmetry_space_group_name_H-M   'P 1'
_cell_length_a   3.59725900
_cell_length_b   9.01168300
_cell_length_c   11.38081200
_cell_angle_alpha   90.00000000
_cell_angle_beta   90.00000000
_cell_angle_gamma   90.00000000
_symmetry_Int_Tables_number   1
_chemical_formula_structural   TmZrReB6
_chemical_formula_sum   'Tm4 Zr4 Re4 B24'
_cell_volume   368.93585440
_cell_formula_units_Z   4
loop_
 _symmetry_equiv_pos_site_id
 _symmetry_equiv_pos_as_xyz
  1  'x, y, z'
loop_
 _atom_site_type_symbol
 _atom_site_label
 _atom_site_symmetry_multiplicity
 _atom_site_fract_x
 _atom_site_fract_y
 _atom_site_fract_z
 _atom_site_occupancy
  Tm  Tm0  1  0.000000  0.322243  0.413511  1
  Tm  Tm1  1  0.000000  0.677757  0.586489  1
  Tm  Tm2  1  0.000000  0.822243  0.086489  1
  Tm  Tm3  1  0.000000  0.177757  0.913511  1
  Zr  Zr4  1  0.000000  0.944566  0.372571  1
  Zr  Zr5  1  0.000000  0.055434  0.627429  1
  Zr  Zr6  1  0.000000  0.444566  0.127429  1
  Zr  Zr7  1  0.000000  0.555434  0.872571  1
  Re  Re8  1  0.000000  0.639770  0.318932  1
  Re  Re9  1  0.000000  0.360230  0.681068  1
  Re  Re10  1  0.000000  0.139770  0.181068  1
  Re  Re11  1  0.000000  0.860230  0.818932  1
  B  B12  1  0.500000  0.553520  0.434006  1
  B  B13  1  0.500000  0.446480  0.565994  1
  B  B14  1  0.500000  0.053520  0.065994  1
  B  B15  1  0.500000  0.946480  0.934006  1
  B  B16  1  0.500000  0.751212  0.419268  1
  B  B17  1  0.500000  0.248788  0.580732  1
  B  B18  1  0.500000  0.251212  0.080732  1
  B  B19  1  0.500000  0.748788  0.919268  1
  B  B20  1  0.500000  0.794167  0.264414  1
  B  B21  1  0.500000  0.205833  0.735586  1
  B  B22  1  0.500000  0.294167  0.235586  1
  B  B23  1  0.500000  0.705833  0.764414  1
  B  B24  1  0.500000  0.630548  0.183583  1
  B  B25  1  0.500000  0.369452  0.816417  1
  B  B26  1  0.500000  0.130548  0.316417  1
  B  B27  1  0.500000  0.869452  0.683583  1
  B  B28  1  0.500000  0.981207  0.212654  1
  B  B29  1  0.500000  0.018793  0.787346  1
  B  B30  1  0.500000  0.481207  0.287346  1
  B  B31  1  0.500000  0.518793  0.712654  1
  B  B32  1  0.500000  0.601562  0.027539  1
  B  B33  1  0.500000  0.398438  0.972461  1
  B  B34  1  0.500000  0.101562  0.472461  1
  B  B35  1  0.500000  0.898438  0.527539  1
