# generated using pymatgen
data_YbY6PtBr12
_symmetry_space_group_name_H-M   'P 1'
_cell_length_a   9.25033033
_cell_length_b   9.25032914
_cell_length_c   9.25033138
_cell_angle_alpha   106.94085702
_cell_angle_beta   106.94086035
_cell_angle_gamma   106.94085911
_symmetry_Int_Tables_number   1
_chemical_formula_structural   YbY6PtBr12
_chemical_formula_sum   'Yb1 Y6 Pt1 Br12'
_cell_volume   660.26094991
_cell_formula_units_Z   1
loop_
 _symmetry_equiv_pos_site_id
 _symmetry_equiv_pos_as_xyz
  1  'x, y, z'
loop_
 _atom_site_type_symbol
 _atom_site_label
 _atom_site_symmetry_multiplicity
 _atom_site_fract_x
 _atom_site_fract_y
 _atom_site_fract_z
 _atom_site_occupancy
  Yb  Yb0  1  0.500000  0.500000  0.500000  1
  Y  Y1  1  0.104571  0.029191  0.317774  1
  Y  Y2  1  0.317774  0.104571  0.029191  1
  Y  Y3  1  0.029191  0.317774  0.104571  1
  Y  Y4  1  0.895429  0.970809  0.682226  1
  Y  Y5  1  0.682226  0.895429  0.970809  1
  Y  Y6  1  0.970809  0.682226  0.895429  1
  Pt  Pt7  1  0.000000  0.000000  0.000000  1
  Br  Br8  1  0.072570  0.679786  0.221589  1
  Br  Br9  1  0.221589  0.072570  0.679786  1
  Br  Br10  1  0.679786  0.221589  0.072570  1
  Br  Br11  1  0.927430  0.320214  0.778411  1
  Br  Br12  1  0.778411  0.927430  0.320214  1
  Br  Br13  1  0.320214  0.778411  0.927430  1
  Br  Br14  1  0.458013  0.157953  0.382270  1
  Br  Br15  1  0.382270  0.458013  0.157953  1
  Br  Br16  1  0.157953  0.382270  0.458013  1
  Br  Br17  1  0.541987  0.842047  0.617730  1
  Br  Br18  1  0.617730  0.541987  0.842047  1
  Br  Br19  1  0.842047  0.617730  0.541987  1
