# generated using pymatgen
data_Ho8Er12Si15Au
_symmetry_space_group_name_H-M   'P 1'
_cell_length_a   7.35336106
_cell_length_b   7.66200256
_cell_length_c   14.57075711
_cell_angle_alpha   90.00050310
_cell_angle_beta   90.01397682
_cell_angle_gamma   90.57236917
_symmetry_Int_Tables_number   1
_chemical_formula_structural   Ho8Er12Si15Au
_chemical_formula_sum   'Ho8 Er12 Si15 Au1'
_cell_volume   820.89690624
_cell_formula_units_Z   1
loop_
 _symmetry_equiv_pos_site_id
 _symmetry_equiv_pos_as_xyz
  1  'x, y, z'
loop_
 _atom_site_type_symbol
 _atom_site_label
 _atom_site_symmetry_multiplicity
 _atom_site_fract_x
 _atom_site_fract_y
 _atom_site_fract_z
 _atom_site_occupancy
  Ho  Ho0  1  0.024899  0.824113  0.592121  1
  Ho  Ho1  1  0.529366  0.681899  0.593067  1
  Ho  Ho2  1  0.317235  0.821845  0.123530  1
  Ho  Ho3  1  0.816791  0.677846  0.124282  1
  Ho  Ho4  1  0.471962  0.316096  0.097715  1
  Ho  Ho5  1  0.024894  0.824119  0.907853  1
  Ho  Ho6  1  0.472003  0.316110  0.402280  1
  Ho  Ho7  1  0.529387  0.681905  0.906897  1
  Er  Er8  1  0.857524  0.520607  0.750020  1
  Er  Er9  1  0.647347  0.011267  0.250029  1
  Er  Er10  1  0.683070  0.179156  0.878641  1
  Er  Er11  1  0.184260  0.317714  0.619573  1
  Er  Er12  1  0.184282  0.317731  0.880454  1
  Er  Er13  1  0.816759  0.677841  0.375723  1
  Er  Er14  1  0.317230  0.821881  0.376463  1
  Er  Er15  1  0.347718  0.985373  0.750034  1
  Er  Er16  1  0.683090  0.179118  0.621350  1
  Er  Er17  1  0.146794  0.486942  0.250007  1
  Er  Er18  1  0.970880  0.181970  0.099221  1
  Er  Er19  1  0.970895  0.181958  0.400773  1
  Si  Si20  1  0.649880  0.971220  0.458052  1
  Si  Si21  1  0.353454  0.026566  0.539989  1
  Si  Si22  1  0.020009  0.895260  0.250121  1
  Si  Si23  1  0.734266  0.877505  0.749998  1
  Si  Si24  1  0.265052  0.127144  0.250048  1
  Si  Si25  1  0.852903  0.470706  0.538663  1
  Si  Si26  1  0.483762  0.391059  0.749988  1
  Si  Si27  1  0.146104  0.526892  0.457764  1
  Si  Si28  1  0.146103  0.526691  0.042158  1
  Si  Si29  1  0.975936  0.108427  0.749993  1
  Si  Si30  1  0.764621  0.371031  0.250047  1
  Si  Si31  1  0.353520  0.026699  0.959919  1
  Si  Si32  1  0.852948  0.470574  0.961240  1
  Si  Si33  1  0.649880  0.971415  0.041861  1
  Si  Si34  1  0.517977  0.605159  0.250130  1
  Au  Au35  1  0.237196  0.628162  0.749996  1
