# generated using pymatgen
data_CsNd(CO3)2
_symmetry_space_group_name_H-M   'P 1'
_cell_length_a   6.69184150
_cell_length_b   6.69184107
_cell_length_c   7.58334876
_cell_angle_alpha   74.98131403
_cell_angle_beta   74.98131381
_cell_angle_gamma   92.88191389
_symmetry_Int_Tables_number   1
_chemical_formula_structural   CsNd(CO3)2
_chemical_formula_sum   'Cs2 Nd2 C4 O12'
_cell_volume   314.26456584
_cell_formula_units_Z   2
loop_
 _symmetry_equiv_pos_site_id
 _symmetry_equiv_pos_as_xyz
  1  'x, y, z'
loop_
 _atom_site_type_symbol
 _atom_site_label
 _atom_site_symmetry_multiplicity
 _atom_site_fract_x
 _atom_site_fract_y
 _atom_site_fract_z
 _atom_site_occupancy
  Cs  Cs0  1  0.610635  0.389365  0.750000  1
  Cs  Cs1  1  0.389365  0.610635  0.250000  1
  Nd  Nd2  1  0.098462  0.901538  0.750000  1
  Nd  Nd3  1  0.901538  0.098462  0.250000  1
  C  C4  1  0.653574  0.895964  0.743817  1
  C  C5  1  0.346426  0.104036  0.256183  1
  C  C6  1  0.104036  0.346426  0.756183  1
  C  C7  1  0.895964  0.653574  0.243817  1
  O  O8  1  0.458637  0.891083  0.756253  1
  O  O9  1  0.541363  0.108917  0.243747  1
  O  O10  1  0.108917  0.541363  0.743747  1
  O  O11  1  0.891083  0.458637  0.256253  1
  O  O12  1  0.722658  0.775293  0.872783  1
  O  O13  1  0.277342  0.224707  0.127217  1
  O  O14  1  0.224707  0.277342  0.627217  1
  O  O15  1  0.775293  0.722658  0.372783  1
  O  O16  1  0.796337  0.026591  0.600334  1
  O  O17  1  0.203663  0.973409  0.399666  1
  O  O18  1  0.973409  0.203663  0.899666  1
  O  O19  1  0.026591  0.796337  0.100334  1
