# generated using pymatgen
data_Tm3Al12(FePt)2
_symmetry_space_group_name_H-M   'P 1'
_cell_length_a   8.76379652
_cell_length_b   8.73334802
_cell_length_c   9.35779600
_cell_angle_alpha   90.00000000
_cell_angle_beta   90.00000000
_cell_angle_gamma   119.88513419
_symmetry_Int_Tables_number   1
_chemical_formula_structural   Tm3Al12(FePt)2
_chemical_formula_sum   'Tm6 Al24 Fe4 Pt4'
_cell_volume   620.98166141
_cell_formula_units_Z   2
loop_
 _symmetry_equiv_pos_site_id
 _symmetry_equiv_pos_as_xyz
  1  'x, y, z'
loop_
 _atom_site_type_symbol
 _atom_site_label
 _atom_site_symmetry_multiplicity
 _atom_site_fract_x
 _atom_site_fract_y
 _atom_site_fract_z
 _atom_site_occupancy
  Tm  Tm0  1  0.190687  0.387565  0.250000  1
  Tm  Tm1  1  0.809313  0.612435  0.750000  1
  Tm  Tm2  1  0.613141  0.806570  0.250000  1
  Tm  Tm3  1  0.386859  0.193430  0.750000  1
  Tm  Tm4  1  0.190687  0.803123  0.250000  1
  Tm  Tm5  1  0.809313  0.196877  0.750000  1
  Al  Al6  1  0.320349  0.660175  0.027339  1
  Al  Al7  1  0.679651  0.339825  0.972661  1
  Al  Al8  1  0.679651  0.339825  0.527339  1
  Al  Al9  1  0.320349  0.660175  0.472661  1
  Al  Al10  1  0.152851  0.321140  0.577252  1
  Al  Al11  1  0.847149  0.678860  0.422748  1
  Al  Al12  1  0.684670  0.842335  0.577905  1
  Al  Al13  1  0.847149  0.678860  0.077252  1
  Al  Al14  1  0.315330  0.157665  0.422095  1
  Al  Al15  1  0.152851  0.321140  0.922748  1
  Al  Al16  1  0.152851  0.831711  0.577252  1
  Al  Al17  1  0.315330  0.157665  0.077905  1
  Al  Al18  1  0.847149  0.168289  0.422748  1
  Al  Al19  1  0.684670  0.842335  0.922095  1
  Al  Al20  1  0.847149  0.168289  0.077252  1
  Al  Al21  1  0.152851  0.831711  0.922748  1
  Al  Al22  1  0.564826  0.128593  0.250000  1
  Al  Al23  1  0.435174  0.871407  0.750000  1
  Al  Al24  1  0.883713  0.441856  0.250000  1
  Al  Al25  1  0.116287  0.558144  0.750000  1
  Al  Al26  1  0.564826  0.436234  0.250000  1
  Al  Al27  1  0.435174  0.563766  0.750000  1
  Al  Al28  1  0.996754  0.998378  0.250000  1
  Al  Al29  1  0.003246  0.001622  0.750000  1
  Fe  Fe30  1  0.000000  0.500000  0.000000  1
  Fe  Fe31  1  0.000000  0.500000  0.500000  1
  Fe  Fe32  1  0.000000  0.000000  0.000000  1
  Fe  Fe33  1  0.000000  0.000000  0.500000  1
  Pt  Pt34  1  0.500000  0.000000  0.000000  1
  Pt  Pt35  1  0.500000  0.000000  0.500000  1
  Pt  Pt36  1  0.500000  0.500000  0.000000  1
  Pt  Pt37  1  0.500000  0.500000  0.500000  1
