# generated using pymatgen
data_Pr2Co9P7W3
_symmetry_space_group_name_H-M   'P 1'
_cell_length_a   9.17624800
_cell_length_b   9.17624910
_cell_length_c   3.77524300
_cell_angle_alpha   90.00000000
_cell_angle_beta   90.00000000
_cell_angle_gamma   119.99999795
_symmetry_Int_Tables_number   1
_chemical_formula_structural   Pr2Co9P7W3
_chemical_formula_sum   'Pr2 Co9 P7 W3'
_cell_volume   275.29979548
_cell_formula_units_Z   1
loop_
 _symmetry_equiv_pos_site_id
 _symmetry_equiv_pos_as_xyz
  1  'x, y, z'
loop_
 _atom_site_type_symbol
 _atom_site_label
 _atom_site_symmetry_multiplicity
 _atom_site_fract_x
 _atom_site_fract_y
 _atom_site_fract_z
 _atom_site_occupancy
  Pr  Pr0  1  0.333333  0.666667  0.000000  1
  Pr  Pr1  1  0.666667  0.333333  0.500000  1
  Co  Co2  1  0.429019  0.368730  0.000000  1
  Co  Co3  1  0.631270  0.060289  0.000000  1
  Co  Co4  1  0.939711  0.570981  0.000000  1
  Co  Co5  1  0.155130  0.879689  0.000000  1
  Co  Co6  1  0.120311  0.275441  0.000000  1
  Co  Co7  1  0.724559  0.844870  0.000000  1
  Co  Co8  1  0.381682  0.949603  0.500000  1
  Co  Co9  1  0.050397  0.432080  0.500000  1
  Co  Co10  1  0.567920  0.618318  0.500000  1
  P  P11  1  0.409096  0.105476  0.000000  1
  P  P12  1  0.894524  0.303620  0.000000  1
  P  P13  1  0.696380  0.590904  0.000000  1
  P  P14  1  0.112514  0.705733  0.500000  1
  P  P15  1  0.294267  0.406782  0.500000  1
  P  P16  1  0.593218  0.887486  0.500000  1
  P  P17  1  0.000000  0.000000  0.000000  1
  W  W18  1  0.218331  0.121189  0.500000  1
  W  W19  1  0.878811  0.097143  0.500000  1
  W  W20  1  0.902857  0.781669  0.500000  1
