# generated using pymatgen
data_HoEr7TaPd24
_symmetry_space_group_name_H-M   'P 1'
_cell_length_a   8.36766400
_cell_length_b   8.36766401
_cell_length_c   8.36766400
_cell_angle_alpha   89.99832926
_cell_angle_beta   89.99832926
_cell_angle_gamma   90.00167069
_symmetry_Int_Tables_number   1
_chemical_formula_structural   HoEr7TaPd24
_chemical_formula_sum   'Ho1 Er7 Ta1 Pd24'
_cell_volume   585.88543125
_cell_formula_units_Z   1
loop_
 _symmetry_equiv_pos_site_id
 _symmetry_equiv_pos_as_xyz
  1  'x, y, z'
loop_
 _atom_site_type_symbol
 _atom_site_label
 _atom_site_symmetry_multiplicity
 _atom_site_fract_x
 _atom_site_fract_y
 _atom_site_fract_z
 _atom_site_occupancy
  Ho  Ho0  1  0.745954  0.745954  0.254046  1
  Er  Er1  1  0.745893  0.254067  0.745933  1
  Er  Er2  1  0.254067  0.745893  0.745933  1
  Er  Er3  1  0.745910  0.745910  0.745808  1
  Er  Er4  1  0.745910  0.254192  0.254090  1
  Er  Er5  1  0.254066  0.254066  0.745934  1
  Er  Er6  1  0.254192  0.745910  0.254090  1
  Er  Er7  1  0.254067  0.254067  0.254107  1
  Ta  Ta8  1  0.000031  0.000031  0.999969  1
  Pd  Pd9  1  0.000244  0.000244  0.301118  1
  Pd  Pd10  1  0.736552  0.000332  0.500167  1
  Pd  Pd11  1  0.736552  0.499833  0.999668  1
  Pd  Pd12  1  0.499915  0.000012  0.736553  1
  Pd  Pd13  1  0.000332  0.736552  0.500167  1
  Pd  Pd14  1  0.499833  0.000332  0.263448  1
  Pd  Pd15  1  0.000012  0.263447  0.500085  1
  Pd  Pd16  1  0.499833  0.736552  0.999668  1
  Pd  Pd17  1  0.253942  0.499946  0.500054  1
  Pd  Pd18  1  0.499946  0.499946  0.746058  1
  Pd  Pd19  1  0.499756  0.499756  0.253928  1
  Pd  Pd20  1  0.499946  0.253942  0.500054  1
  Pd  Pd21  1  0.499756  0.746072  0.500244  1
  Pd  Pd22  1  0.746072  0.499756  0.500244  1
  Pd  Pd23  1  0.300951  0.999993  0.000007  1
  Pd  Pd24  1  0.999993  0.999993  0.699049  1
  Pd  Pd25  1  0.000332  0.499833  0.263448  1
  Pd  Pd26  1  0.999993  0.300951  0.000007  1
  Pd  Pd27  1  0.000244  0.698882  0.999756  1
  Pd  Pd28  1  0.698882  0.000244  0.999756  1
  Pd  Pd29  1  0.263447  0.499915  0.999988  1
  Pd  Pd30  1  0.263447  0.000012  0.500085  1
  Pd  Pd31  1  0.000012  0.499915  0.736553  1
  Pd  Pd32  1  0.499915  0.263447  0.999988  1
