# generated using pymatgen
data_Gd3Zn3IrPd2
_symmetry_space_group_name_H-M   'P 1'
_cell_length_a   7.32457100
_cell_length_b   7.32457198
_cell_length_c   3.90466600
_cell_angle_alpha   90.00000000
_cell_angle_beta   90.00000000
_cell_angle_gamma   119.99999075
_symmetry_Int_Tables_number   1
_chemical_formula_structural   Gd3Zn3IrPd2
_chemical_formula_sum   'Gd3 Zn3 Ir1 Pd2'
_cell_volume   181.41742885
_cell_formula_units_Z   1
loop_
 _symmetry_equiv_pos_site_id
 _symmetry_equiv_pos_as_xyz
  1  'x, y, z'
loop_
 _atom_site_type_symbol
 _atom_site_label
 _atom_site_symmetry_multiplicity
 _atom_site_fract_x
 _atom_site_fract_y
 _atom_site_fract_z
 _atom_site_occupancy
  Gd  Gd0  1  0.010247  0.413343  0.500000  1
  Gd  Gd1  1  0.586657  0.596904  0.500000  1
  Gd  Gd2  1  0.403096  0.989753  0.500000  1
  Zn  Zn3  1  0.001838  0.749768  0.000000  1
  Zn  Zn4  1  0.250232  0.252070  0.000000  1
  Zn  Zn5  1  0.747930  0.998162  0.000000  1
  Ir  Ir6  1  0.333333  0.666667  0.000000  1
  Pd  Pd7  1  0.666667  0.333333  0.000000  1
  Pd  Pd8  1  0.000000  0.000000  0.500000  1
