# generated using pymatgen
data_Dy5P12IrRu18
_symmetry_space_group_name_H-M   'P 1'
_cell_length_a   12.53919500
_cell_length_b   12.53919526
_cell_length_c   3.98091600
_cell_angle_alpha   90.00000000
_cell_angle_beta   90.00000000
_cell_angle_gamma   119.99999668
_symmetry_Int_Tables_number   1
_chemical_formula_structural   Dy5P12IrRu18
_chemical_formula_sum   'Dy5 P12 Ir1 Ru18'
_cell_volume   542.06701545
_cell_formula_units_Z   1
loop_
 _symmetry_equiv_pos_site_id
 _symmetry_equiv_pos_as_xyz
  1  'x, y, z'
loop_
 _atom_site_type_symbol
 _atom_site_label
 _atom_site_symmetry_multiplicity
 _atom_site_fract_x
 _atom_site_fract_y
 _atom_site_fract_z
 _atom_site_occupancy
  Dy  Dy0  1  0.333333  0.666667  0.500000  1
  Dy  Dy1  1  0.666667  0.333333  0.500000  1
  Dy  Dy2  1  0.186299  0.186299  0.000000  1
  Dy  Dy3  1  0.813701  0.000000  0.000000  1
  Dy  Dy4  1  0.000000  0.813701  0.000000  1
  P  P5  1  0.306569  0.829078  0.000000  1
  P  P6  1  0.170922  0.477491  0.000000  1
  P  P7  1  0.522509  0.693431  0.000000  1
  P  P8  1  0.829078  0.306569  0.000000  1
  P  P9  1  0.477491  0.170922  0.000000  1
  P  P10  1  0.693431  0.522509  0.000000  1
  P  P11  1  0.373268  0.373268  0.500000  1
  P  P12  1  0.626732  0.000000  0.500000  1
  P  P13  1  0.000000  0.626732  0.500000  1
  P  P14  1  0.814479  0.814479  0.500000  1
  P  P15  1  0.185521  0.000000  0.500000  1
  P  P16  1  0.000000  0.185521  0.500000  1
  Ir  Ir17  1  0.000000  0.000000  0.500000  1
  Ru  Ru18  1  0.192317  0.815006  0.500000  1
  Ru  Ru19  1  0.184994  0.377311  0.500000  1
  Ru  Ru20  1  0.622689  0.807683  0.500000  1
  Ru  Ru21  1  0.815006  0.192317  0.500000  1
  Ru  Ru22  1  0.377311  0.184994  0.500000  1
  Ru  Ru23  1  0.807683  0.622689  0.500000  1
  Ru  Ru24  1  0.126047  0.634267  0.000000  1
  Ru  Ru25  1  0.365733  0.491779  0.000000  1
  Ru  Ru26  1  0.508221  0.873953  0.000000  1
  Ru  Ru27  1  0.634267  0.126047  0.000000  1
  Ru  Ru28  1  0.491779  0.365733  0.000000  1
  Ru  Ru29  1  0.873953  0.508221  0.000000  1
  Ru  Ru30  1  0.555131  0.555131  0.500000  1
  Ru  Ru31  1  0.444869  0.000000  0.500000  1
  Ru  Ru32  1  0.000000  0.444869  0.500000  1
  Ru  Ru33  1  0.717864  0.717864  0.000000  1
  Ru  Ru34  1  0.282136  0.000000  0.000000  1
  Ru  Ru35  1  0.000000  0.282136  0.000000  1
