# generated using pymatgen
data_Tm2U2Nb(AsRu)6
_symmetry_space_group_name_H-M   'P 1'
_cell_length_a   7.26251152
_cell_length_b   7.22764127
_cell_length_c   7.26251154
_cell_angle_alpha   109.32023719
_cell_angle_beta   109.96717612
_cell_angle_gamma   109.32022748
_symmetry_Int_Tables_number   1
_chemical_formula_structural   Tm2U2Nb(AsRu)6
_chemical_formula_sum   'Tm2 U2 Nb1 As6 Ru6'
_cell_volume   292.74565399
_cell_formula_units_Z   1
loop_
 _symmetry_equiv_pos_site_id
 _symmetry_equiv_pos_as_xyz
  1  'x, y, z'
loop_
 _atom_site_type_symbol
 _atom_site_label
 _atom_site_symmetry_multiplicity
 _atom_site_fract_x
 _atom_site_fract_y
 _atom_site_fract_z
 _atom_site_occupancy
  Tm  Tm0  1  0.000000  0.500000  0.000000  1
  Tm  Tm1  1  0.500000  0.500000  0.500000  1
  U  U2  1  0.000000  0.000000  0.500000  1
  U  U3  1  0.500000  0.000000  0.000000  1
  Nb  Nb4  1  0.000000  0.000000  0.000000  1
  As  As5  1  0.317346  0.000000  0.317346  1
  As  As6  1  0.006120  0.323265  0.317145  1
  As  As7  1  0.993880  0.676735  0.682855  1
  As  As8  1  0.317145  0.323265  0.006120  1
  As  As9  1  0.682855  0.676735  0.993880  1
  As  As10  1  0.682654  0.000000  0.682654  1
  Ru  Ru11  1  0.750000  0.500000  0.250000  1
  Ru  Ru12  1  0.510120  0.759391  0.249271  1
  Ru  Ru13  1  0.489880  0.240609  0.750729  1
  Ru  Ru14  1  0.750729  0.240609  0.489880  1
  Ru  Ru15  1  0.249271  0.759391  0.510120  1
  Ru  Ru16  1  0.250000  0.500000  0.750000  1
