# generated using pymatgen
data_La6DyPaH24
_symmetry_space_group_name_H-M   'P 1'
_cell_length_a   6.95475900
_cell_length_b   6.95475900
_cell_length_c   6.95475900
_cell_angle_alpha   90.00000000
_cell_angle_beta   90.00000000
_cell_angle_gamma   90.00000000
_symmetry_Int_Tables_number   1
_chemical_formula_structural   La6DyPaH24
_chemical_formula_sum   'La6 Dy1 Pa1 H24'
_cell_volume   336.39246211
_cell_formula_units_Z   1
loop_
 _symmetry_equiv_pos_site_id
 _symmetry_equiv_pos_as_xyz
  1  'x, y, z'
loop_
 _atom_site_type_symbol
 _atom_site_label
 _atom_site_symmetry_multiplicity
 _atom_site_fract_x
 _atom_site_fract_y
 _atom_site_fract_z
 _atom_site_occupancy
  La  La0  1  0.246894  0.000000  0.500000  1
  La  La1  1  0.753106  0.000000  0.500000  1
  La  La2  1  0.000000  0.500000  0.246894  1
  La  La3  1  0.000000  0.500000  0.753106  1
  La  La4  1  0.500000  0.753106  0.000000  1
  La  La5  1  0.500000  0.246894  0.000000  1
  Dy  Dy6  1  0.000000  0.000000  0.000000  1
  Pa  Pa7  1  0.500000  0.500000  0.500000  1
  H  H8  1  0.000000  0.152593  0.299804  1
  H  H9  1  0.500000  0.212621  0.650239  1
  H  H10  1  0.500000  0.787379  0.349761  1
  H  H11  1  0.787379  0.650239  0.500000  1
  H  H12  1  0.212621  0.650239  0.500000  1
  H  H13  1  0.349761  0.500000  0.787379  1
  H  H14  1  0.650239  0.500000  0.787379  1
  H  H15  1  0.299804  0.000000  0.152593  1
  H  H16  1  0.152593  0.299804  0.000000  1
  H  H17  1  0.847407  0.700196  0.000000  1
  H  H18  1  0.299804  0.000000  0.847407  1
  H  H19  1  0.847407  0.299804  0.000000  1
  H  H20  1  0.700196  0.000000  0.152593  1
  H  H21  1  0.700196  0.000000  0.847407  1
  H  H22  1  0.152593  0.700196  0.000000  1
  H  H23  1  0.000000  0.847407  0.700196  1
  H  H24  1  0.000000  0.152593  0.700196  1
  H  H25  1  0.000000  0.847407  0.299804  1
  H  H26  1  0.650239  0.500000  0.212621  1
  H  H27  1  0.349761  0.500000  0.212621  1
  H  H28  1  0.787379  0.349761  0.500000  1
  H  H29  1  0.212621  0.349761  0.500000  1
  H  H30  1  0.500000  0.787379  0.650239  1
  H  H31  1  0.500000  0.212621  0.349761  1
