# generated using pymatgen
data_Er6Zn17AsPd6
_symmetry_space_group_name_H-M   'P 1'
_cell_length_a   9.03279230
_cell_length_b   9.03281375
_cell_length_c   9.03279600
_cell_angle_alpha   59.99992072
_cell_angle_beta   60.00006847
_cell_angle_gamma   60.00006245
_symmetry_Int_Tables_number   1
_chemical_formula_structural   Er6Zn17AsPd6
_chemical_formula_sum   'Er6 Zn17 As1 Pd6'
_cell_volume   521.13765409
_cell_formula_units_Z   1
loop_
 _symmetry_equiv_pos_site_id
 _symmetry_equiv_pos_as_xyz
  1  'x, y, z'
loop_
 _atom_site_type_symbol
 _atom_site_label
 _atom_site_symmetry_multiplicity
 _atom_site_fract_x
 _atom_site_fract_y
 _atom_site_fract_z
 _atom_site_occupancy
  Er  Er0  1  0.719056  0.280933  0.280938  1
  Er  Er1  1  0.719062  0.280933  0.719070  1
  Er  Er2  1  0.719056  0.719072  0.280937  1
  Er  Er3  1  0.280944  0.719067  0.719062  1
  Er  Er4  1  0.280938  0.719067  0.280930  1
  Er  Er5  1  0.280944  0.280928  0.719063  1
  Zn  Zn6  1  0.627293  0.124236  0.124235  1
  Zn  Zn7  1  0.124236  0.627293  0.124237  1
  Zn  Zn8  1  0.124234  0.124237  0.627293  1
  Zn  Zn9  1  0.124235  0.124236  0.124236  1
  Zn  Zn10  1  0.372707  0.875764  0.875765  1
  Zn  Zn11  1  0.875764  0.372707  0.875763  1
  Zn  Zn12  1  0.875766  0.875763  0.372707  1
  Zn  Zn13  1  0.875765  0.875764  0.875764  1
  Zn  Zn14  1  0.000000  0.000000  0.000000  1
  Zn  Zn15  1  0.006798  0.331067  0.331068  1
  Zn  Zn16  1  0.331066  0.006796  0.331067  1
  Zn  Zn17  1  0.331067  0.331067  0.006796  1
  Zn  Zn18  1  0.331065  0.331069  0.331067  1
  Zn  Zn19  1  0.993202  0.668933  0.668932  1
  Zn  Zn20  1  0.668934  0.993204  0.668933  1
  Zn  Zn21  1  0.668933  0.668933  0.993204  1
  Zn  Zn22  1  0.668935  0.668931  0.668933  1
  As  As23  1  0.500000  0.500000  0.500000  1
  Pd  Pd24  1  0.500000  0.000000  0.000000  1
  Pd  Pd25  1  0.500000  0.000000  0.500000  1
  Pd  Pd26  1  0.500000  0.500000  0.000000  1
  Pd  Pd27  1  0.000000  0.500000  0.500000  1
  Pd  Pd28  1  0.000000  0.500000  0.000000  1
  Pd  Pd29  1  0.000000  0.000000  0.500000  1
