# generated using pymatgen
data_Ba4Cd(ReO6)2
_symmetry_space_group_name_H-M   'P 1'
_cell_length_a   10.10895316
_cell_length_b   10.10895316
_cell_length_c   10.10895367
_cell_angle_alpha   33.87776656
_cell_angle_beta   33.87776474
_cell_angle_gamma   33.87776563
_symmetry_Int_Tables_number   1
_chemical_formula_structural   Ba4Cd(ReO6)2
_chemical_formula_sum   'Ba4 Cd1 Re2 O12'
_cell_volume   286.06260756
_cell_formula_units_Z   1
loop_
 _symmetry_equiv_pos_site_id
 _symmetry_equiv_pos_as_xyz
  1  'x, y, z'
loop_
 _atom_site_type_symbol
 _atom_site_label
 _atom_site_symmetry_multiplicity
 _atom_site_fract_x
 _atom_site_fract_y
 _atom_site_fract_z
 _atom_site_occupancy
  Ba  Ba0  1  0.709039  0.709039  0.709039  1
  Ba  Ba1  1  0.290961  0.290961  0.290961  1
  Ba  Ba2  1  0.868563  0.868563  0.868563  1
  Ba  Ba3  1  0.131437  0.131437  0.131437  1
  Cd  Cd4  1  0.000000  0.000000  0.000000  1
  Re  Re5  1  0.577886  0.577886  0.577886  1
  Re  Re6  1  0.422114  0.422114  0.422114  1
  O  O7  1  0.228192  0.683739  0.228192  1
  O  O8  1  0.228192  0.228192  0.683739  1
  O  O9  1  0.683739  0.228192  0.228192  1
  O  O10  1  0.771808  0.316261  0.771808  1
  O  O11  1  0.771808  0.771808  0.316261  1
  O  O12  1  0.316261  0.771808  0.771808  1
  O  O13  1  0.388585  0.855381  0.388585  1
  O  O14  1  0.388585  0.388585  0.855381  1
  O  O15  1  0.855381  0.388585  0.388585  1
  O  O16  1  0.611415  0.144619  0.611415  1
  O  O17  1  0.611415  0.611415  0.144619  1
  O  O18  1  0.144619  0.611415  0.611415  1
