# generated using pymatgen
data_Y10(IrPt)3
_symmetry_space_group_name_H-M   'P 1'
_cell_length_a   11.08656115
_cell_length_b   11.08347600
_cell_length_c   6.35907608
_cell_angle_alpha   90.00000000
_cell_angle_beta   90.01865296
_cell_angle_gamma   90.00000000
_symmetry_Int_Tables_number   1
_chemical_formula_structural   Y10(IrPt)3
_chemical_formula_sum   'Y20 Ir6 Pt6'
_cell_volume   781.38818476
_cell_formula_units_Z   2
loop_
 _symmetry_equiv_pos_site_id
 _symmetry_equiv_pos_as_xyz
  1  'x, y, z'
loop_
 _atom_site_type_symbol
 _atom_site_label
 _atom_site_symmetry_multiplicity
 _atom_site_fract_x
 _atom_site_fract_y
 _atom_site_fract_z
 _atom_site_occupancy
  Y  Y0  1  0.295381  0.090704  0.374036  1
  Y  Y1  1  0.295381  0.909296  0.874036  1
  Y  Y2  1  0.704577  0.087512  0.872964  1
  Y  Y3  1  0.704577  0.912488  0.372964  1
  Y  Y4  1  0.584496  0.792156  0.873873  1
  Y  Y5  1  0.584496  0.207844  0.373873  1
  Y  Y6  1  0.410609  0.792878  0.378496  1
  Y  Y7  1  0.410609  0.207122  0.878496  1
  Y  Y8  1  0.209406  0.413720  0.622834  1
  Y  Y9  1  0.209406  0.586280  0.122834  1
  Y  Y10  1  0.794749  0.412186  0.124748  1
  Y  Y11  1  0.794749  0.587814  0.624748  1
  Y  Y12  1  0.913483  0.704810  0.126243  1
  Y  Y13  1  0.913483  0.295190  0.626243  1
  Y  Y14  1  0.091559  0.704472  0.626785  1
  Y  Y15  1  0.091559  0.295528  0.126785  1
  Y  Y16  1  0.999834  0.999644  0.499956  1
  Y  Y17  1  0.999834  0.000356  0.999956  1
  Y  Y18  1  0.497123  0.499248  0.000074  1
  Y  Y19  1  0.497123  0.500752  0.500074  1
  Ir  Ir20  1  0.346077  0.345387  0.249998  1
  Ir  Ir21  1  0.346077  0.654613  0.749998  1
  Ir  Ir22  1  0.500266  0.999787  0.123250  1
  Ir  Ir23  1  0.500266  0.000213  0.623250  1
  Ir  Ir24  1  0.999402  0.500072  0.876764  1
  Ir  Ir25  1  0.999402  0.499928  0.376764  1
  Pt  Pt26  1  0.845333  0.153865  0.250561  1
  Pt  Pt27  1  0.845333  0.846135  0.750561  1
  Pt  Pt28  1  0.153080  0.153948  0.749409  1
  Pt  Pt29  1  0.153080  0.846052  0.249409  1
  Pt  Pt30  1  0.654624  0.345934  0.750011  1
  Pt  Pt31  1  0.654624  0.654066  0.250011  1
