# generated using pymatgen
data_Cs4TbY11Te20
_symmetry_space_group_name_H-M   'P 1'
_cell_length_a   4.42093600
_cell_length_b   13.36819848
_cell_length_c   23.83413600
_cell_angle_alpha   90.01529236
_cell_angle_beta   90.00000000
_cell_angle_gamma   90.00000000
_symmetry_Int_Tables_number   1
_chemical_formula_structural   Cs4TbY11Te20
_chemical_formula_sum   'Cs4 Tb1 Y11 Te20'
_cell_volume   1408.59619330
_cell_formula_units_Z   1
loop_
 _symmetry_equiv_pos_site_id
 _symmetry_equiv_pos_as_xyz
  1  'x, y, z'
loop_
 _atom_site_type_symbol
 _atom_site_label
 _atom_site_symmetry_multiplicity
 _atom_site_fract_x
 _atom_site_fract_y
 _atom_site_fract_z
 _atom_site_occupancy
  Cs  Cs0  1  0.250000  0.354005  0.089631  1
  Cs  Cs1  1  0.750000  0.645999  0.910378  1
  Cs  Cs2  1  0.750000  0.854009  0.410368  1
  Cs  Cs3  1  0.250000  0.145968  0.589624  1
  Tb  Tb4  1  0.250000  0.454612  0.697702  1
  Y  Y5  1  0.750000  0.545644  0.302309  1
  Y  Y6  1  0.750000  0.954358  0.802305  1
  Y  Y7  1  0.250000  0.045651  0.197692  1
  Y  Y8  1  0.250000  0.796694  0.674642  1
  Y  Y9  1  0.750000  0.203362  0.325349  1
  Y  Y10  1  0.750000  0.296589  0.825375  1
  Y  Y11  1  0.250000  0.703359  0.174651  1
  Y  Y12  1  0.250000  0.392205  0.444359  1
  Y  Y13  1  0.750000  0.607807  0.555570  1
  Y  Y14  1  0.750000  0.892216  0.055599  1
  Y  Y15  1  0.250000  0.107788  0.944403  1
  Te  Te16  1  0.250000  0.444566  0.568639  1
  Te  Te17  1  0.750000  0.555400  0.431109  1
  Te  Te18  1  0.750000  0.944611  0.931106  1
  Te  Te19  1  0.250000  0.055386  0.068892  1
  Te  Te20  1  0.250000  0.768085  0.546691  1
  Te  Te21  1  0.750000  0.231898  0.453307  1
  Te  Te22  1  0.750000  0.268090  0.953307  1
  Te  Te23  1  0.250000  0.731898  0.046695  1
  Te  Te24  1  0.250000  0.799288  0.803095  1
  Te  Te25  1  0.750000  0.200705  0.196909  1
  Te  Te26  1  0.750000  0.298603  0.696927  1
  Te  Te27  1  0.250000  0.700708  0.303092  1
  Te  Te28  1  0.250000  0.453172  0.826663  1
  Te  Te29  1  0.750000  0.546771  0.173657  1
  Te  Te30  1  0.750000  0.953240  0.673662  1
  Te  Te31  1  0.250000  0.046767  0.326340  1
  Te  Te32  1  0.250000  0.375059  0.313522  1
  Te  Te33  1  0.750000  0.625487  0.686426  1
  Te  Te34  1  0.750000  0.875060  0.186469  1
  Te  Te35  1  0.250000  0.124939  0.813535  1
