# generated using pymatgen
data_Ca3Yb(GePd3)6
_symmetry_space_group_name_H-M   'P 1'
_cell_length_a   7.74566729
_cell_length_b   7.75239148
_cell_length_c   10.18338658
_cell_angle_alpha   67.80952900
_cell_angle_beta   67.85147408
_cell_angle_gamma   60.13381336
_symmetry_Int_Tables_number   1
_chemical_formula_structural   Ca3Yb(GePd3)6
_chemical_formula_sum   'Ca3 Yb1 Ge6 Pd18'
_cell_volume   477.21475277
_cell_formula_units_Z   1
loop_
 _symmetry_equiv_pos_site_id
 _symmetry_equiv_pos_as_xyz
  1  'x, y, z'
loop_
 _atom_site_type_symbol
 _atom_site_label
 _atom_site_symmetry_multiplicity
 _atom_site_fract_x
 _atom_site_fract_y
 _atom_site_fract_z
 _atom_site_occupancy
  Ca  Ca0  1  0.416603  0.244580  0.749862  1
  Ca  Ca1  1  0.582953  0.755741  0.250170  1
  Ca  Ca2  1  0.756095  0.582661  0.750055  1
  Yb  Yb3  1  0.244141  0.417497  0.249539  1
  Ge  Ge4  1  0.499989  0.999844  0.499994  1
  Ge  Ge5  1  0.999889  0.500151  0.000093  1
  Ge  Ge6  1  0.655051  0.174115  0.998031  1
  Ge  Ge7  1  0.345353  0.826367  0.001440  1
  Ge  Ge8  1  0.825410  0.345332  0.501873  1
  Ge  Ge9  1  0.173767  0.654637  0.498772  1
  Pd  Pd10  1  0.292563  0.920381  0.752926  1
  Pd  Pd11  1  0.705570  0.080264  0.247373  1
  Pd  Pd12  1  0.080085  0.707423  0.747288  1
  Pd  Pd13  1  0.921323  0.293684  0.253210  1
  Pd  Pd14  1  0.483124  0.635986  0.573579  1
  Pd  Pd15  1  0.516242  0.365684  0.422715  1
  Pd  Pd16  1  0.362792  0.517018  0.928568  1
  Pd  Pd17  1  0.632959  0.482474  0.077347  1
  Pd  Pd18  1  0.873290  0.127262  0.749842  1
  Pd  Pd19  1  0.128521  0.870812  0.249624  1
  Pd  Pd20  1  0.814245  0.988391  0.540518  1
  Pd  Pd21  1  0.187599  0.013564  0.454759  1
  Pd  Pd22  1  0.010978  0.185649  0.960088  1
  Pd  Pd23  1  0.987907  0.811464  0.045296  1
  Pd  Pd24  1  0.684461  0.857344  0.927912  1
  Pd  Pd25  1  0.314915  0.143221  0.075590  1
  Pd  Pd26  1  0.143791  0.315223  0.569355  1
  Pd  Pd27  1  0.860385  0.683233  0.424178  1
