# generated using pymatgen
data_Ca10Ac9NdSn16
_symmetry_space_group_name_H-M   'P 1'
_cell_length_a   8.21960823
_cell_length_b   8.77487384
_cell_length_c   16.55632100
_cell_angle_alpha   89.99461967
_cell_angle_beta   89.98655367
_cell_angle_gamma   90.03672733
_symmetry_Int_Tables_number   1
_chemical_formula_structural   Ca10Ac9NdSn16
_chemical_formula_sum   'Ca10 Ac9 Nd1 Sn16'
_cell_volume   1194.14134239
_cell_formula_units_Z   1
loop_
 _symmetry_equiv_pos_site_id
 _symmetry_equiv_pos_as_xyz
  1  'x, y, z'
loop_
 _atom_site_type_symbol
 _atom_site_label
 _atom_site_symmetry_multiplicity
 _atom_site_fract_x
 _atom_site_fract_y
 _atom_site_fract_z
 _atom_site_occupancy
  Ca  Ca0  1  0.829211  0.670302  0.622127  1
  Ca  Ca1  1  0.669883  0.171206  0.375827  1
  Ca  Ca2  1  0.170618  0.327482  0.125537  1
  Ca  Ca3  1  0.669353  0.172291  0.126099  1
  Ca  Ca4  1  0.169466  0.328477  0.375899  1
  Ca  Ca5  1  0.330010  0.828742  0.622505  1
  Ca  Ca6  1  0.162016  0.498025  0.746312  1
  Ca  Ca7  1  0.660680  0.000661  0.746444  1
  Ca  Ca8  1  0.838704  0.495780  0.250820  1
  Ca  Ca9  1  0.338552  0.004598  0.250712  1
  Ac  Ac10  1  0.831444  0.674493  0.876093  1
  Ac  Ac11  1  0.493330  0.316702  0.905232  1
  Ac  Ac12  1  0.993032  0.184014  0.593409  1
  Ac  Ac13  1  0.506288  0.684960  0.404109  1
  Ac  Ac14  1  0.008032  0.816377  0.098358  1
  Ac  Ac15  1  0.507063  0.682685  0.097664  1
  Ac  Ac16  1  0.006185  0.815308  0.404206  1
  Ac  Ac17  1  0.493436  0.315952  0.592706  1
  Ac  Ac18  1  0.994160  0.183564  0.905725  1
  Nd  Nd19  1  0.331261  0.826205  0.875373  1
  Sn  Sn20  1  0.331758  0.036237  0.038932  1
  Sn  Sn21  1  0.833139  0.464078  0.460711  1
  Sn  Sn22  1  0.665817  0.964543  0.538686  1
  Sn  Sn23  1  0.174398  0.535164  0.962661  1
  Sn  Sn24  1  0.661686  0.968504  0.962910  1
  Sn  Sn25  1  0.165520  0.535639  0.538758  1
  Sn  Sn26  1  0.333098  0.035833  0.460706  1
  Sn  Sn27  1  0.833882  0.460054  0.042205  1
  Sn  Sn28  1  0.526793  0.607149  0.748238  1
  Sn  Sn29  1  0.036077  0.897015  0.749916  1
  Sn  Sn30  1  0.467664  0.393691  0.250983  1
  Sn  Sn31  1  0.967537  0.106837  0.250613  1
  Sn  Sn32  1  0.287852  0.134971  0.750405  1
  Sn  Sn33  1  0.784612  0.362056  0.749314  1
  Sn  Sn34  1  0.713672  0.864773  0.249812  1
  Sn  Sn35  1  0.213766  0.635631  0.249992  1
