# generated using pymatgen
data_Yb7Ho(Ge4Mo3)4
_symmetry_space_group_name_H-M   'P 1'
_cell_length_a   6.83509794
_cell_length_b   7.02109735
_cell_length_c   13.25632012
_cell_angle_alpha   89.99498534
_cell_angle_beta   90.25811084
_cell_angle_gamma   90.02115255
_symmetry_Int_Tables_number   1
_chemical_formula_structural   Yb7Ho(Ge4Mo3)4
_chemical_formula_sum   'Yb7 Ho1 Ge16 Mo12'
_cell_volume   636.16281761
_cell_formula_units_Z   1
loop_
 _symmetry_equiv_pos_site_id
 _symmetry_equiv_pos_as_xyz
  1  'x, y, z'
loop_
 _atom_site_type_symbol
 _atom_site_label
 _atom_site_symmetry_multiplicity
 _atom_site_fract_x
 _atom_site_fract_y
 _atom_site_fract_z
 _atom_site_occupancy
  Yb  Yb0  1  0.492766  0.671004  0.589446  1
  Yb  Yb1  1  0.992502  0.828715  0.910410  1
  Yb  Yb2  1  0.507161  0.328813  0.090015  1
  Yb  Yb3  1  0.007290  0.172997  0.408697  1
  Yb  Yb4  1  0.506982  0.328200  0.409519  1
  Yb  Yb5  1  0.006938  0.172063  0.089966  1
  Yb  Yb6  1  0.492882  0.670819  0.911068  1
  Ho  Ho7  1  0.992725  0.825892  0.591699  1
  Ge  Ge8  1  0.671204  0.956483  0.454019  1
  Ge  Ge9  1  0.170390  0.544482  0.045616  1
  Ge  Ge10  1  0.329555  0.044658  0.954582  1
  Ge  Ge11  1  0.828484  0.452956  0.544674  1
  Ge  Ge12  1  0.329437  0.045400  0.545103  1
  Ge  Ge13  1  0.829756  0.455265  0.954376  1
  Ge  Ge14  1  0.670096  0.955743  0.045660  1
  Ge  Ge15  1  0.171609  0.543338  0.454393  1
  Ge  Ge16  1  0.467364  0.378580  0.748803  1
  Ge  Ge17  1  0.966191  0.121987  0.750459  1
  Ge  Ge18  1  0.533563  0.620123  0.250423  1
  Ge  Ge19  1  0.033029  0.881395  0.249744  1
  Ge  Ge20  1  0.688098  0.852058  0.751344  1
  Ge  Ge21  1  0.193358  0.645654  0.751949  1
  Ge  Ge22  1  0.308804  0.147562  0.249796  1
  Ge  Ge23  1  0.808280  0.353837  0.249861  1
  Mo  Mo24  1  0.663936  0.160477  0.628187  1
  Mo  Mo25  1  0.162683  0.337116  0.870416  1
  Mo  Mo26  1  0.337997  0.837147  0.129397  1
  Mo  Mo27  1  0.839551  0.664464  0.371959  1
  Mo  Mo28  1  0.337447  0.836846  0.371100  1
  Mo  Mo29  1  0.838405  0.663424  0.129515  1
  Mo  Mo30  1  0.662016  0.163124  0.870741  1
  Mo  Mo31  1  0.161886  0.337326  0.628235  1
  Mo  Mo32  1  0.838142  0.487110  0.748706  1
  Mo  Mo33  1  0.336782  0.013792  0.749273  1
  Mo  Mo34  1  0.161484  0.515620  0.250444  1
  Mo  Mo35  1  0.661201  0.985529  0.250404  1
