# generated using pymatgen
data_YbDy4PtPb3
_symmetry_space_group_name_H-M   'P 1'
_cell_length_a   9.25032800
_cell_length_b   9.25032796
_cell_length_c   6.89655500
_cell_angle_alpha   90.00000000
_cell_angle_beta   90.00000000
_cell_angle_gamma   120.00000013
_symmetry_Int_Tables_number   1
_chemical_formula_structural   YbDy4PtPb3
_chemical_formula_sum   'Yb2 Dy8 Pt2 Pb6'
_cell_volume   511.06612803
_cell_formula_units_Z   2
loop_
 _symmetry_equiv_pos_site_id
 _symmetry_equiv_pos_as_xyz
  1  'x, y, z'
loop_
 _atom_site_type_symbol
 _atom_site_label
 _atom_site_symmetry_multiplicity
 _atom_site_fract_x
 _atom_site_fract_y
 _atom_site_fract_z
 _atom_site_occupancy
  Yb  Yb0  1  0.333333  0.666667  0.000000  1
  Yb  Yb1  1  0.666667  0.333333  0.000000  1
  Dy  Dy2  1  0.243571  0.000000  0.250345  1
  Dy  Dy3  1  0.756429  0.000000  0.749655  1
  Dy  Dy4  1  0.000000  0.243571  0.250345  1
  Dy  Dy5  1  0.000000  0.756429  0.749655  1
  Dy  Dy6  1  0.756429  0.756429  0.250345  1
  Dy  Dy7  1  0.243571  0.243571  0.749655  1
  Dy  Dy8  1  0.666667  0.333333  0.500000  1
  Dy  Dy9  1  0.333333  0.666667  0.500000  1
  Pt  Pt10  1  0.000000  0.000000  0.000000  1
  Pt  Pt11  1  0.000000  0.000000  0.500000  1
  Pb  Pb12  1  0.598800  0.000000  0.255413  1
  Pb  Pb13  1  0.401200  0.000000  0.744587  1
  Pb  Pb14  1  0.000000  0.598800  0.255413  1
  Pb  Pb15  1  0.000000  0.401200  0.744587  1
  Pb  Pb16  1  0.401200  0.401200  0.255413  1
  Pb  Pb17  1  0.598800  0.598800  0.744587  1
