# generated using pymatgen
data_Sr2Eu3(InSb3)2
_symmetry_space_group_name_H-M   'P 1'
_cell_length_a   12.46574900
_cell_length_b   14.75065600
_cell_length_c   4.71738900
_cell_angle_alpha   90.00000000
_cell_angle_beta   90.00000000
_cell_angle_gamma   90.00000000
_symmetry_Int_Tables_number   1
_chemical_formula_structural   Sr2Eu3(InSb3)2
_chemical_formula_sum   'Sr4 Eu6 In4 Sb12'
_cell_volume   867.42393793
_cell_formula_units_Z   2
loop_
 _symmetry_equiv_pos_site_id
 _symmetry_equiv_pos_as_xyz
  1  'x, y, z'
loop_
 _atom_site_type_symbol
 _atom_site_label
 _atom_site_symmetry_multiplicity
 _atom_site_fract_x
 _atom_site_fract_y
 _atom_site_fract_z
 _atom_site_occupancy
  Sr  Sr0  1  0.329938  0.021531  0.000000  1
  Sr  Sr1  1  0.670062  0.978469  0.000000  1
  Sr  Sr2  1  0.829939  0.478469  0.000000  1
  Sr  Sr3  1  0.170062  0.521530  0.000000  1
  Eu  Eu4  1  0.914847  0.751005  0.000000  1
  Eu  Eu5  1  0.085152  0.248995  0.000000  1
  Eu  Eu6  1  0.414848  0.748996  0.000000  1
  Eu  Eu7  1  0.585153  0.251004  0.000000  1
  Eu  Eu8  1  0.000000  0.000000  0.000000  1
  Eu  Eu9  1  0.500000  0.500000  0.000000  1
  In  In10  1  0.331010  0.216919  0.500001  1
  In  In11  1  0.668990  0.783080  0.500001  1
  In  In12  1  0.831009  0.283081  0.500001  1
  In  In13  1  0.168990  0.716920  0.500001  1
  Sb  Sb14  1  0.146907  0.095690  0.500001  1
  Sb  Sb15  1  0.853094  0.904310  0.500001  1
  Sb  Sb16  1  0.646907  0.404309  0.500001  1
  Sb  Sb17  1  0.353094  0.595691  0.500001  1
  Sb  Sb18  1  0.530274  0.099108  0.500001  1
  Sb  Sb19  1  0.469726  0.900892  0.500001  1
  Sb  Sb20  1  0.030274  0.400893  0.500001  1
  Sb  Sb21  1  0.969726  0.599107  0.500001  1
  Sb  Sb22  1  0.166663  0.828936  0.000000  1
  Sb  Sb23  1  0.833337  0.171063  0.000000  1
  Sb  Sb24  1  0.666663  0.671063  0.000000  1
  Sb  Sb25  1  0.333337  0.328937  0.000000  1
