# generated using pymatgen
data_Tb4MgSc2AlPt4
_symmetry_space_group_name_H-M   'P 1'
_cell_length_a   4.47982300
_cell_length_b   7.10219805
_cell_length_c   8.26029760
_cell_angle_alpha   88.74560268
_cell_angle_beta   90.00000000
_cell_angle_gamma   90.00000000
_symmetry_Int_Tables_number   1
_chemical_formula_structural   Tb4MgSc2AlPt4
_chemical_formula_sum   'Tb4 Mg1 Sc2 Al1 Pt4'
_cell_volume   262.75151992
_cell_formula_units_Z   1
loop_
 _symmetry_equiv_pos_site_id
 _symmetry_equiv_pos_as_xyz
  1  'x, y, z'
loop_
 _atom_site_type_symbol
 _atom_site_label
 _atom_site_symmetry_multiplicity
 _atom_site_fract_x
 _atom_site_fract_y
 _atom_site_fract_z
 _atom_site_occupancy
  Tb  Tb0  1  0.250000  0.046724  0.677112  1
  Tb  Tb1  1  0.250000  0.518579  0.817544  1
  Tb  Tb2  1  0.750000  0.986691  0.337325  1
  Tb  Tb3  1  0.750000  0.459859  0.178974  1
  Mg  Mg4  1  0.250000  0.139376  0.070036  1
  Sc  Sc5  1  0.250000  0.636210  0.435351  1
  Sc  Sc6  1  0.750000  0.867299  0.934055  1
  Al  Al7  1  0.750000  0.363598  0.563453  1
  Pt  Pt8  1  0.250000  0.263136  0.389800  1
  Pt  Pt9  1  0.250000  0.742250  0.105151  1
  Pt  Pt10  1  0.750000  0.732071  0.615826  1
  Pt  Pt11  1  0.750000  0.244205  0.875370  1
