# generated using pymatgen
data_AcDy6Sn23Ir6
_symmetry_space_group_name_H-M   'P 1'
_cell_length_a   9.89504000
_cell_length_b   9.89504086
_cell_length_c   10.10802500
_cell_angle_alpha   90.00000000
_cell_angle_beta   90.00000000
_cell_angle_gamma   119.99999714
_symmetry_Int_Tables_number   1
_chemical_formula_structural   AcDy6Sn23Ir6
_chemical_formula_sum   'Ac1 Dy6 Sn23 Ir6'
_cell_volume   857.10118882
_cell_formula_units_Z   1
loop_
 _symmetry_equiv_pos_site_id
 _symmetry_equiv_pos_as_xyz
  1  'x, y, z'
loop_
 _atom_site_type_symbol
 _atom_site_label
 _atom_site_symmetry_multiplicity
 _atom_site_fract_x
 _atom_site_fract_y
 _atom_site_fract_z
 _atom_site_occupancy
  Ac  Ac0  1  0.000000  0.000000  0.000000  1
  Dy  Dy1  1  0.481146  0.518854  0.306503  1
  Dy  Dy2  1  0.518854  0.481146  0.693497  1
  Dy  Dy3  1  0.481146  0.962291  0.306503  1
  Dy  Dy4  1  0.518854  0.037709  0.693497  1
  Dy  Dy5  1  0.037709  0.518854  0.306503  1
  Dy  Dy6  1  0.962291  0.481146  0.693497  1
  Sn  Sn7  1  0.354770  0.000000  0.000000  1
  Sn  Sn8  1  0.645230  0.000000  0.000000  1
  Sn  Sn9  1  0.000000  0.354770  0.000000  1
  Sn  Sn10  1  0.000000  0.645230  0.000000  1
  Sn  Sn11  1  0.645230  0.645230  0.000000  1
  Sn  Sn12  1  0.354770  0.354770  0.000000  1
  Sn  Sn13  1  0.333333  0.666667  0.826216  1
  Sn  Sn14  1  0.666667  0.333333  0.173784  1
  Sn  Sn15  1  0.000000  0.000000  0.500000  1
  Sn  Sn16  1  0.777609  0.222391  0.458233  1
  Sn  Sn17  1  0.222391  0.777609  0.541767  1
  Sn  Sn18  1  0.777609  0.555218  0.458233  1
  Sn  Sn19  1  0.222391  0.444782  0.541767  1
  Sn  Sn20  1  0.444782  0.222391  0.458233  1
  Sn  Sn21  1  0.555218  0.777609  0.541767  1
  Sn  Sn22  1  0.333333  0.666667  0.122447  1
  Sn  Sn23  1  0.666667  0.333333  0.877553  1
  Sn  Sn24  1  0.119456  0.880544  0.285905  1
  Sn  Sn25  1  0.880544  0.119456  0.714095  1
  Sn  Sn26  1  0.119456  0.238911  0.285905  1
  Sn  Sn27  1  0.880544  0.761089  0.714095  1
  Sn  Sn28  1  0.761089  0.880544  0.285905  1
  Sn  Sn29  1  0.238911  0.119456  0.714095  1
  Ir  Ir30  1  0.829774  0.170226  0.200369  1
  Ir  Ir31  1  0.170226  0.829774  0.799631  1
  Ir  Ir32  1  0.829774  0.659547  0.200369  1
  Ir  Ir33  1  0.170226  0.340453  0.799631  1
  Ir  Ir34  1  0.340453  0.170226  0.200369  1
  Ir  Ir35  1  0.659547  0.829774  0.799631  1
