# generated using pymatgen
data_Dy9Tm(SiB4)4
_symmetry_space_group_name_H-M   'P 1'
_cell_length_a   7.22174800
_cell_length_b   7.22174800
_cell_length_c   8.08790400
_cell_angle_alpha   90.00000000
_cell_angle_beta   90.00000000
_cell_angle_gamma   90.00000000
_symmetry_Int_Tables_number   1
_chemical_formula_structural   Dy9Tm(SiB4)4
_chemical_formula_sum   'Dy9 Tm1 Si4 B16'
_cell_volume   421.81366734
_cell_formula_units_Z   1
loop_
 _symmetry_equiv_pos_site_id
 _symmetry_equiv_pos_as_xyz
  1  'x, y, z'
loop_
 _atom_site_type_symbol
 _atom_site_label
 _atom_site_symmetry_multiplicity
 _atom_site_fract_x
 _atom_site_fract_y
 _atom_site_fract_z
 _atom_site_occupancy
  Dy  Dy0  1  0.680491  0.180097  0.224169  1
  Dy  Dy1  1  0.319509  0.819903  0.775831  1
  Dy  Dy2  1  0.319509  0.819903  0.224169  1
  Dy  Dy3  1  0.819903  0.680491  0.224169  1
  Dy  Dy4  1  0.819903  0.680491  0.775831  1
  Dy  Dy5  1  0.680491  0.180097  0.775831  1
  Dy  Dy6  1  0.180097  0.319509  0.775831  1
  Dy  Dy7  1  0.180097  0.319509  0.224169  1
  Dy  Dy8  1  0.500000  0.500000  0.500000  1
  Tm  Tm9  1  0.000000  0.000000  0.500000  1
  Si  Si10  1  0.114053  0.616598  0.500000  1
  Si  Si11  1  0.885947  0.383402  0.500000  1
  Si  Si12  1  0.383402  0.114053  0.500000  1
  Si  Si13  1  0.616598  0.885947  0.500000  1
  B  B14  1  0.172414  0.039080  0.000000  1
  B  B15  1  0.827586  0.960920  0.000000  1
  B  B16  1  0.960920  0.172414  0.000000  1
  B  B17  1  0.327583  0.539146  0.000000  1
  B  B18  1  0.039080  0.827586  0.000000  1
  B  B19  1  0.672417  0.460854  0.000000  1
  B  B20  1  0.539146  0.672417  0.000000  1
  B  B21  1  0.460854  0.327583  0.000000  1
  B  B22  1  0.089978  0.589903  0.000000  1
  B  B23  1  0.910022  0.410097  0.000000  1
  B  B24  1  0.410097  0.089978  0.000000  1
  B  B25  1  0.589903  0.910022  0.000000  1
  B  B26  1  0.000000  0.000000  0.162593  1
  B  B27  1  0.000000  0.000000  0.837407  1
  B  B28  1  0.500000  0.500000  0.837948  1
  B  B29  1  0.500000  0.500000  0.162052  1
