# generated using pymatgen
data_Li6Ga13Pd
_symmetry_space_group_name_H-M   'P 1'
_cell_length_a   7.46244015
_cell_length_b   7.54854405
_cell_length_c   7.46243916
_cell_angle_alpha   69.36625855
_cell_angle_beta   69.47368672
_cell_angle_gamma   69.36626065
_symmetry_Int_Tables_number   1
_chemical_formula_structural   Li6Ga13Pd
_chemical_formula_sum   'Li6 Ga13 Pd1'
_cell_volume   355.64250054
_cell_formula_units_Z   1
loop_
 _symmetry_equiv_pos_site_id
 _symmetry_equiv_pos_as_xyz
  1  'x, y, z'
loop_
 _atom_site_type_symbol
 _atom_site_label
 _atom_site_symmetry_multiplicity
 _atom_site_fract_x
 _atom_site_fract_y
 _atom_site_fract_z
 _atom_site_occupancy
  Li  Li0  1  0.882155  0.470241  0.882155  1
  Li  Li1  1  0.468695  0.886028  0.872793  1
  Li  Li2  1  0.527872  0.120071  0.127999  1
  Li  Li3  1  0.872793  0.886028  0.468695  1
  Li  Li4  1  0.127999  0.120071  0.527872  1
  Li  Li5  1  0.118847  0.523947  0.118847  1
  Ga  Ga6  1  0.700746  0.179897  0.700746  1
  Ga  Ga7  1  0.300226  0.290426  0.810892  1
  Ga  Ga8  1  0.509679  0.835686  0.509679  1
  Ga  Ga9  1  0.704136  0.703190  0.185135  1
  Ga  Ga10  1  0.823791  0.510423  0.510042  1
  Ga  Ga11  1  0.296472  0.814053  0.296472  1
  Ga  Ga12  1  0.080685  0.082987  0.080685  1
  Ga  Ga13  1  0.510042  0.510423  0.823791  1
  Ga  Ga14  1  0.810892  0.290426  0.300226  1
  Ga  Ga15  1  0.178562  0.483113  0.489917  1
  Ga  Ga16  1  0.185135  0.703190  0.704136  1
  Ga  Ga17  1  0.489917  0.483113  0.178562  1
  Ga  Ga18  1  0.922818  0.926507  0.922818  1
  Pd  Pd19  1  0.488538  0.180180  0.488538  1
