# generated using pymatgen
data_Ho8Ti5Si16Mo6W
_symmetry_space_group_name_H-M   'P 1'
_cell_length_a   6.93121943
_cell_length_b   6.92171927
_cell_length_c   12.81298304
_cell_angle_alpha   89.86122304
_cell_angle_beta   90.02049835
_cell_angle_gamma   90.03983273
_symmetry_Int_Tables_number   1
_chemical_formula_structural   Ho8Ti5Si16Mo6W
_chemical_formula_sum   'Ho8 Ti5 Si16 Mo6 W1'
_cell_volume   614.71310826
_cell_formula_units_Z   1
loop_
 _symmetry_equiv_pos_site_id
 _symmetry_equiv_pos_as_xyz
  1  'x, y, z'
loop_
 _atom_site_type_symbol
 _atom_site_label
 _atom_site_symmetry_multiplicity
 _atom_site_fract_x
 _atom_site_fract_y
 _atom_site_fract_z
 _atom_site_occupancy
  Ho  Ho0  1  0.340213  0.002032  0.467478  1
  Ho  Ho1  1  0.498621  0.840076  0.718911  1
  Ho  Ho2  1  0.501292  0.160458  0.218804  1
  Ho  Ho3  1  0.839056  0.497699  0.280848  1
  Ho  Ho4  1  0.160691  0.501197  0.782502  1
  Ho  Ho5  1  0.660210  0.998755  0.968488  1
  Ho  Ho6  1  0.001762  0.338987  0.531696  1
  Ho  Ho7  1  0.997290  0.662112  0.030907  1
  Ti  Ti8  1  0.330331  0.331206  0.999588  1
  Ti  Ti9  1  0.168312  0.830247  0.249916  1
  Ti  Ti10  1  0.829166  0.170948  0.750433  1
  Ti  Ti11  1  0.669094  0.666413  0.499162  1
  Ti  Ti12  1  0.994533  0.840561  0.626076  1
  Si  Si13  1  0.203483  0.129002  0.683419  1
  Si  Si14  1  0.371739  0.702639  0.933446  1
  Si  Si15  1  0.629839  0.297848  0.433487  1
  Si  Si16  1  0.700483  0.371356  0.066899  1
  Si  Si17  1  0.299831  0.628496  0.565871  1
  Si  Si18  1  0.797719  0.871252  0.183187  1
  Si  Si19  1  0.126591  0.201344  0.316882  1
  Si  Si20  1  0.872829  0.799019  0.816483  1
  Si  Si21  1  0.290168  0.960201  0.062726  1
  Si  Si22  1  0.539462  0.789308  0.312725  1
  Si  Si23  1  0.459539  0.210744  0.812607  1
  Si  Si24  1  0.790131  0.541675  0.687656  1
  Si  Si25  1  0.210046  0.459583  0.186924  1
  Si  Si26  1  0.710396  0.041128  0.563209  1
  Si  Si27  1  0.959402  0.290540  0.937395  1
  Si  Si28  1  0.042198  0.709657  0.437331  1
  Mo  Mo29  1  0.160159  0.009079  0.875154  1
  Mo  Mo30  1  0.492113  0.659588  0.124043  1
  Mo  Mo31  1  0.507825  0.340512  0.623194  1
  Mo  Mo32  1  0.658245  0.492003  0.878056  1
  Mo  Mo33  1  0.341835  0.504181  0.374702  1
  Mo  Mo34  1  0.839177  0.990749  0.373186  1
  W  W35  1  0.006220  0.159404  0.126609  1
