# generated using pymatgen
data_Fe5P4Ru3
_symmetry_space_group_name_H-M   'P 1'
_cell_length_a   3.69247900
_cell_length_b   5.74751374
_cell_length_c   6.58551601
_cell_angle_alpha   89.46847007
_cell_angle_beta   90.00000000
_cell_angle_gamma   90.00000000
_symmetry_Int_Tables_number   1
_chemical_formula_structural   Fe5P4Ru3
_chemical_formula_sum   'Fe5 P4 Ru3'
_cell_volume   139.75558537
_cell_formula_units_Z   1
loop_
 _symmetry_equiv_pos_site_id
 _symmetry_equiv_pos_as_xyz
  1  'x, y, z'
loop_
 _atom_site_type_symbol
 _atom_site_label
 _atom_site_symmetry_multiplicity
 _atom_site_fract_x
 _atom_site_fract_y
 _atom_site_fract_z
 _atom_site_occupancy
  Fe  Fe0  1  0.000000  0.353275  0.566555  1
  Fe  Fe1  1  0.000000  0.861689  0.934842  1
  Fe  Fe2  1  0.500000  0.640668  0.429952  1
  Fe  Fe3  1  0.500000  0.139291  0.065484  1
  Fe  Fe4  1  0.000000  0.472809  0.164443  1
  P  P5  1  0.000000  0.729227  0.620119  1
  P  P6  1  0.000000  0.241367  0.886776  1
  P  P7  1  0.500000  0.267428  0.378083  1
  P  P8  1  0.500000  0.762362  0.119136  1
  Ru  Ru9  1  0.000000  0.976204  0.335178  1
  Ru  Ru10  1  0.500000  0.533006  0.832349  1
  Ru  Ru11  1  0.500000  0.022673  0.667082  1
