# generated using pymatgen
data_Er2Ta3Sn(B2Ru5)2
_symmetry_space_group_name_H-M   'P 1'
_cell_length_a   9.52534408
_cell_length_b   9.61064463
_cell_length_c   3.09327700
_cell_angle_alpha   90.00000000
_cell_angle_beta   90.00000000
_cell_angle_gamma   90.93522988
_symmetry_Int_Tables_number   1
_chemical_formula_structural   Er2Ta3Sn(B2Ru5)2
_chemical_formula_sum   'Er2 Ta3 Sn1 B4 Ru10'
_cell_volume   283.13538281
_cell_formula_units_Z   1
loop_
 _symmetry_equiv_pos_site_id
 _symmetry_equiv_pos_as_xyz
  1  'x, y, z'
loop_
 _atom_site_type_symbol
 _atom_site_label
 _atom_site_symmetry_multiplicity
 _atom_site_fract_x
 _atom_site_fract_y
 _atom_site_fract_z
 _atom_site_occupancy
  Er  Er0  1  0.820288  0.673373  0.000000  1
  Er  Er1  1  0.179712  0.326627  0.000000  1
  Ta  Ta2  1  0.320557  0.829118  0.000000  1
  Ta  Ta3  1  0.679443  0.170882  0.000000  1
  Ta  Ta4  1  0.000000  0.000000  0.000000  1
  Sn  Sn5  1  0.500000  0.500000  0.000000  1
  B  B6  1  0.619053  0.879171  0.000000  1
  B  B7  1  0.380947  0.120829  0.000000  1
  B  B8  1  0.120369  0.622714  0.000000  1
  B  B9  1  0.879631  0.377286  0.000000  1
  Ru  Ru10  1  0.554934  0.728678  0.500000  1
  Ru  Ru11  1  0.445066  0.271322  0.500000  1
  Ru  Ru12  1  0.077330  0.786261  0.500000  1
  Ru  Ru13  1  0.922670  0.213739  0.500000  1
  Ru  Ru14  1  0.282775  0.591391  0.500000  1
  Ru  Ru15  1  0.717225  0.408609  0.500000  1
  Ru  Ru16  1  0.222665  0.060763  0.500000  1
  Ru  Ru17  1  0.777335  0.939237  0.500000  1
  Ru  Ru18  1  0.500000  0.000000  0.500000  1
  Ru  Ru19  1  0.000000  0.500000  0.500000  1
