# generated using pymatgen
data_Na2MnFeAs2(O4F)2
_symmetry_space_group_name_H-M   'P 1'
_cell_length_a   6.83684699
_cell_length_b   8.85087600
_cell_length_c   7.48127100
_cell_angle_alpha   89.99998705
_cell_angle_beta   115.91476715
_cell_angle_gamma   89.99999401
_symmetry_Int_Tables_number   1
_chemical_formula_structural   Na2MnFeAs2(O4F)2
_chemical_formula_sum   'Na4 Mn2 Fe2 As4 O16 F4'
_cell_volume   407.18539978
_cell_formula_units_Z   2
loop_
 _symmetry_equiv_pos_site_id
 _symmetry_equiv_pos_as_xyz
  1  'x, y, z'
loop_
 _atom_site_type_symbol
 _atom_site_label
 _atom_site_symmetry_multiplicity
 _atom_site_fract_x
 _atom_site_fract_y
 _atom_site_fract_z
 _atom_site_occupancy
  Na  Na0  1  0.501395  0.834144  0.749573  1
  Na  Na1  1  0.998670  0.334141  0.750347  1
  Na  Na2  1  0.498619  0.165880  0.250367  1
  Na  Na3  1  0.001434  0.665877  0.249570  1
  Mn  Mn4  1  0.500039  0.499949  0.999911  1
  Mn  Mn5  1  0.000084  0.999945  0.499963  1
  Fe  Fe6  1  0.999954  0.000050  0.999915  1
  Fe  Fe7  1  0.499988  0.500000  0.500040  1
  As  As8  1  0.498902  0.187472  0.753428  1
  As  As9  1  0.001069  0.687491  0.746590  1
  As  As10  1  0.501076  0.812516  0.246616  1
  As  As11  1  0.998899  0.312534  0.253398  1
  O  O12  1  0.607535  0.294316  0.627164  1
  O  O13  1  0.109992  0.798318  0.620594  1
  O  O14  1  0.392513  0.705668  0.372994  1
  O  O15  1  0.889997  0.201589  0.379276  1
  O  O16  1  0.389975  0.298340  0.879362  1
  O  O17  1  0.892425  0.794393  0.872827  1
  O  O18  1  0.609964  0.701614  0.120675  1
  O  O19  1  0.107447  0.205742  0.126983  1
  O  O20  1  0.686484  0.064673  0.916836  1
  O  O21  1  0.195171  0.567492  0.913780  1
  O  O22  1  0.313455  0.935302  0.083124  1
  O  O23  1  0.804772  0.432558  0.086315  1
  O  O24  1  0.304814  0.067484  0.586292  1
  O  O25  1  0.813504  0.564627  0.583236  1
  O  O26  1  0.695218  0.932546  0.413760  1
  O  O27  1  0.186526  0.435250  0.416940  1
  F  F28  1  0.499843  0.584489  0.738909  1
  F  F29  1  0.000190  0.084516  0.761146  1
  F  F30  1  0.500196  0.415527  0.261256  1
  F  F31  1  0.999849  0.915554  0.238809  1
