# generated using pymatgen
data_Pu3BiO12
_symmetry_space_group_name_H-M   'P 1'
_cell_length_a   5.52006578
_cell_length_b   5.57076542
_cell_length_c   7.87617000
_cell_angle_alpha   93.42030894
_cell_angle_beta   88.95632040
_cell_angle_gamma   90.08552372
_symmetry_Int_Tables_number   1
_chemical_formula_structural   Pu3BiO12
_chemical_formula_sum   'Pu3 Bi1 O12'
_cell_volume   241.72848747
_cell_formula_units_Z   1
loop_
 _symmetry_equiv_pos_site_id
 _symmetry_equiv_pos_as_xyz
  1  'x, y, z'
loop_
 _atom_site_type_symbol
 _atom_site_label
 _atom_site_symmetry_multiplicity
 _atom_site_fract_x
 _atom_site_fract_y
 _atom_site_fract_z
 _atom_site_occupancy
  Pu  Pu0  1  0.999883  0.006609  0.996625  1
  Pu  Pu1  1  0.999995  0.007128  0.496268  1
  Pu  Pu2  1  0.500084  0.506701  0.996745  1
  Bi  Bi3  1  0.499945  0.507165  0.496657  1
  O  O4  1  0.297032  0.149767  0.432631  1
  O  O5  1  0.131272  0.021660  0.774376  1
  O  O6  1  0.334672  0.791221  0.071943  1
  O  O7  1  0.139075  0.701578  0.444755  1
  O  O8  1  0.837746  0.719543  0.926061  1
  O  O9  1  0.374542  0.531902  0.776774  1
  O  O10  1  0.625663  0.481457  0.216663  1
  O  O11  1  0.162151  0.293589  0.067060  1
  O  O12  1  0.861086  0.312668  0.548139  1
  O  O13  1  0.665507  0.222234  0.921371  1
  O  O14  1  0.868380  0.991677  0.218930  1
  O  O15  1  0.702967  0.864700  0.560205  1
