# generated using pymatgen
data_Pu5MnCl30
_symmetry_space_group_name_H-M   'P 1'
_cell_length_a   13.98234137
_cell_length_b   13.88844597
_cell_length_c   7.11209488
_cell_angle_alpha   85.99754934
_cell_angle_beta   85.98464548
_cell_angle_gamma   88.88184913
_symmetry_Int_Tables_number   1
_chemical_formula_structural   Pu5MnCl30
_chemical_formula_sum   'Pu5 Mn1 Cl30'
_cell_volume   1374.22012594
_cell_formula_units_Z   1
loop_
 _symmetry_equiv_pos_site_id
 _symmetry_equiv_pos_as_xyz
  1  'x, y, z'
loop_
 _atom_site_type_symbol
 _atom_site_label
 _atom_site_symmetry_multiplicity
 _atom_site_fract_x
 _atom_site_fract_y
 _atom_site_fract_z
 _atom_site_occupancy
  Pu  Pu0  1  0.893900  0.105366  0.000360  1
  Pu  Pu1  1  0.105489  0.894786  0.000262  1
  Pu  Pu2  1  0.762989  0.570444  0.433516  1
  Pu  Pu3  1  0.229025  0.438533  0.566253  1
  Pu  Pu4  1  0.439236  0.226696  0.566304  1
  Mn  Mn5  1  0.562515  0.771071  0.433613  1
  Cl  Cl6  1  0.514714  0.307739  0.813423  1
  Cl  Cl7  1  0.266827  0.264901  0.738284  1
  Cl  Cl8  1  0.175518  0.969574  0.699143  1
  Cl  Cl9  1  0.596251  0.606572  0.597537  1
  Cl  Cl10  1  0.219882  0.594383  0.380850  1
  Cl  Cl11  1  0.725934  0.737737  0.268845  1
  Cl  Cl12  1  0.153017  0.357706  0.319282  1
  Cl  Cl13  1  0.069946  0.071706  0.121943  1
  Cl  Cl14  1  0.642221  0.831892  0.654981  1
  Cl  Cl15  1  0.594221  0.217868  0.380300  1
  Cl  Cl16  1  0.111472  0.735041  0.868863  1
  Cl  Cl17  1  0.030876  0.824679  0.301395  1
  Cl  Cl18  1  0.918903  0.557049  0.252850  1
  Cl  Cl19  1  0.823802  0.030617  0.300636  1
  Cl  Cl20  1  0.426395  0.779653  0.595501  1
  Cl  Cl21  1  0.777057  0.413637  0.614213  1
  Cl  Cl22  1  0.554643  0.908167  0.271679  1
  Cl  Cl23  1  0.968381  0.175756  0.699236  1
  Cl  Cl24  1  0.841048  0.648523  0.680875  1
  Cl  Cl25  1  0.888240  0.265136  0.132117  1
  Cl  Cl26  1  0.501799  0.690900  0.212541  1
  Cl  Cl27  1  0.358640  0.151005  0.319017  1
  Cl  Cl28  1  0.073818  0.447798  0.751630  1
  Cl  Cl29  1  0.735507  0.110569  0.868533  1
  Cl  Cl30  1  0.448153  0.070790  0.751294  1
  Cl  Cl31  1  0.401497  0.400378  0.395271  1
  Cl  Cl32  1  0.308681  0.514992  0.813181  1
  Cl  Cl33  1  0.263888  0.888389  0.131075  1
  Cl  Cl34  1  0.929688  0.928650  0.878766  1
  Cl  Cl35  1  0.685831  0.491293  0.186432  1
