# generated using pymatgen
data_NdHoPa2(Al3Rh)6
_symmetry_space_group_name_H-M   'P 1'
_cell_length_a   7.60771407
_cell_length_b   7.60712069
_cell_length_c   9.40613100
_cell_angle_alpha   90.00000000
_cell_angle_beta   90.00000000
_cell_angle_gamma   119.58232702
_symmetry_Int_Tables_number   1
_chemical_formula_structural   NdHoPa2(Al3Rh)6
_chemical_formula_sum   'Nd1 Ho1 Pa2 Al18 Rh6'
_cell_volume   473.40041744
_cell_formula_units_Z   1
loop_
 _symmetry_equiv_pos_site_id
 _symmetry_equiv_pos_as_xyz
  1  'x, y, z'
loop_
 _atom_site_type_symbol
 _atom_site_label
 _atom_site_symmetry_multiplicity
 _atom_site_fract_x
 _atom_site_fract_y
 _atom_site_fract_z
 _atom_site_occupancy
  Nd  Nd0  1  0.330345  0.006386  0.250000  1
  Ho  Ho1  1  0.670718  0.993689  0.750000  1
  Pa  Pa2  1  0.997749  0.671686  0.750000  1
  Pa  Pa3  1  0.002428  0.328621  0.250000  1
  Al  Al4  1  0.128587  0.126505  0.750000  1
  Al  Al5  1  0.867688  0.873021  0.250000  1
  Al  Al6  1  0.999180  0.331469  0.577909  1
  Al  Al7  1  0.997850  0.665842  0.424657  1
  Al  Al8  1  0.997850  0.665842  0.075343  1
  Al  Al9  1  0.339262  0.003235  0.922020  1
  Al  Al10  1  0.999180  0.331469  0.922091  1
  Al  Al11  1  0.663911  0.997217  0.072394  1
  Al  Al12  1  0.663911  0.997217  0.427606  1
  Al  Al13  1  0.339262  0.003235  0.577980  1
  Al  Al14  1  0.334459  0.334597  0.049513  1
  Al  Al15  1  0.665369  0.667433  0.946156  1
  Al  Al16  1  0.665369  0.667433  0.553844  1
  Al  Al17  1  0.334459  0.334597  0.450487  1
  Al  Al18  1  0.340409  0.549743  0.750000  1
  Al  Al19  1  0.662346  0.453554  0.250000  1
  Al  Al20  1  0.551306  0.342863  0.750000  1
  Al  Al21  1  0.449669  0.655520  0.250000  1
  Rh  Rh22  1  0.675440  0.329842  0.500550  1
  Rh  Rh23  1  0.324990  0.670199  0.501438  1
  Rh  Rh24  1  0.324990  0.670199  0.998562  1
  Rh  Rh25  1  0.675440  0.329842  0.999450  1
  Rh  Rh26  1  0.998916  0.999372  0.501328  1
  Rh  Rh27  1  0.998916  0.999372  0.998672  1
