# generated using pymatgen
data_TbTm11TcOs3
_symmetry_space_group_name_H-M   'P 1'
_cell_length_a   7.36624156
_cell_length_b   8.91094700
_cell_length_c   6.22824656
_cell_angle_alpha   90.00000000
_cell_angle_beta   90.03896340
_cell_angle_gamma   90.00000000
_symmetry_Int_Tables_number   1
_chemical_formula_structural   TbTm11TcOs3
_chemical_formula_sum   'Tb1 Tm11 Tc1 Os3'
_cell_volume   408.82318105
_cell_formula_units_Z   1
loop_
 _symmetry_equiv_pos_site_id
 _symmetry_equiv_pos_as_xyz
  1  'x, y, z'
loop_
 _atom_site_type_symbol
 _atom_site_label
 _atom_site_symmetry_multiplicity
 _atom_site_fract_x
 _atom_site_fract_y
 _atom_site_fract_z
 _atom_site_occupancy
  Tb  Tb0  1  0.040060  0.250000  0.625892  1
  Tm  Tm1  1  0.959682  0.750000  0.371033  1
  Tm  Tm2  1  0.460412  0.750000  0.129563  1
  Tm  Tm3  1  0.539254  0.250000  0.875415  1
  Tm  Tm4  1  0.174945  0.061644  0.162986  1
  Tm  Tm5  1  0.824035  0.937448  0.834100  1
  Tm  Tm6  1  0.326239  0.936948  0.665098  1
  Tm  Tm7  1  0.824035  0.562552  0.834100  1
  Tm  Tm8  1  0.674682  0.062242  0.334443  1
  Tm  Tm9  1  0.174945  0.438356  0.162986  1
  Tm  Tm10  1  0.674682  0.437758  0.334443  1
  Tm  Tm11  1  0.326239  0.563052  0.665098  1
  Tc  Tc12  1  0.383084  0.250000  0.463632  1
  Os  Os13  1  0.618886  0.750000  0.538434  1
  Os  Os14  1  0.117815  0.750000  0.962278  1
  Os  Os15  1  0.881004  0.250000  0.040496  1
