# generated using pymatgen
data_TbYb2Y(NiB4)4
_symmetry_space_group_name_H-M   'P 1'
_cell_length_a   6.81911742
_cell_length_b   6.81911705
_cell_length_c   6.81911604
_cell_angle_alpha   112.84156695
_cell_angle_beta   112.84156379
_cell_angle_gamma   102.92241833
_symmetry_Int_Tables_number   1
_chemical_formula_structural   TbYb2Y(NiB4)4
_chemical_formula_sum   'Tb1 Yb2 Y1 Ni4 B16'
_cell_volume   241.74305038
_cell_formula_units_Z   1
loop_
 _symmetry_equiv_pos_site_id
 _symmetry_equiv_pos_as_xyz
  1  'x, y, z'
loop_
 _atom_site_type_symbol
 _atom_site_label
 _atom_site_symmetry_multiplicity
 _atom_site_fract_x
 _atom_site_fract_y
 _atom_site_fract_z
 _atom_site_occupancy
  Tb  Tb0  1  0.250000  0.750000  0.500000  1
  Yb  Yb1  1  0.204220  0.204220  0.000000  1
  Yb  Yb2  1  0.795780  0.795780  0.000000  1
  Y  Y3  1  0.750000  0.250000  0.500000  1
  Ni  Ni4  1  0.499978  0.273512  0.773534  1
  Ni  Ni5  1  0.499978  0.726444  0.226466  1
  Ni  Ni6  1  0.726488  0.500022  0.226466  1
  Ni  Ni7  1  0.273556  0.500022  0.773534  1
  B  B8  1  0.112266  0.276274  0.388474  1
  B  B9  1  0.887800  0.723792  0.611526  1
  B  B10  1  0.887800  0.276274  0.164009  1
  B  B11  1  0.112266  0.723792  0.835991  1
  B  B12  1  0.723726  0.887734  0.611526  1
  B  B13  1  0.276208  0.112200  0.388474  1
  B  B14  1  0.723726  0.112200  0.835991  1
  B  B15  1  0.276208  0.887734  0.164009  1
  B  B16  1  0.417008  0.416992  0.530228  1
  B  B17  1  0.886765  0.886781  0.469772  1
  B  B18  1  0.583008  0.113235  0.000016  1
  B  B19  1  0.113219  0.582992  0.999984  1
  B  B20  1  0.583008  0.582992  0.469772  1
  B  B21  1  0.113219  0.113235  0.530228  1
  B  B22  1  0.886765  0.416992  0.999984  1
  B  B23  1  0.417008  0.886781  0.000016  1
