# generated using pymatgen
data_Dy2Ho3Bi3C
_symmetry_space_group_name_H-M   'P 1'
_cell_length_a   6.48087000
_cell_length_b   9.13052206
_cell_length_c   9.12963100
_cell_angle_alpha   120.00321972
_cell_angle_beta   90.00000000
_cell_angle_gamma   90.00000000
_symmetry_Int_Tables_number   1
_chemical_formula_structural   Dy2Ho3Bi3C
_chemical_formula_sum   'Dy4 Ho6 Bi6 C2'
_cell_volume   467.84143722
_cell_formula_units_Z   2
loop_
 _symmetry_equiv_pos_site_id
 _symmetry_equiv_pos_as_xyz
  1  'x, y, z'
loop_
 _atom_site_type_symbol
 _atom_site_label
 _atom_site_symmetry_multiplicity
 _atom_site_fract_x
 _atom_site_fract_y
 _atom_site_fract_z
 _atom_site_occupancy
  Dy  Dy0  1  0.499998  0.333324  0.666653  1
  Dy  Dy1  1  0.499998  0.666671  0.333347  1
  Dy  Dy2  1  0.999998  0.666676  0.333347  1
  Dy  Dy3  1  0.999998  0.333329  0.666653  1
  Ho  Ho4  1  0.749997  0.207088  0.000000  1
  Ho  Ho5  1  0.750006  0.792831  0.792841  1
  Ho  Ho6  1  0.750006  0.999990  0.207159  1
  Ho  Ho7  1  0.249997  0.792912  0.000000  1
  Ho  Ho8  1  0.250006  0.207169  0.207159  1
  Ho  Ho9  1  0.250006  0.000010  0.792841  1
  Bi  Bi10  1  0.750005  0.598797  0.000000  1
  Bi  Bi11  1  0.749997  0.401237  0.401260  1
  Bi  Bi12  1  0.749997  0.999978  0.598740  1
  Bi  Bi13  1  0.250005  0.401203  0.000000  1
  Bi  Bi14  1  0.249997  0.598763  0.598740  1
  Bi  Bi15  1  0.249997  0.000022  0.401260  1
  C  C16  1  0.499998  0.999999  0.000000  1
  C  C17  1  0.999998  0.000001  0.000000  1
