# generated using pymatgen
data_Sm2MnTe2(SO7)2
_symmetry_space_group_name_H-M   'P 1'
_cell_length_a   5.40402389
_cell_length_b   8.05252527
_cell_length_c   8.36913463
_cell_angle_alpha   115.14638753
_cell_angle_beta   106.22731523
_cell_angle_gamma   85.78899316
_symmetry_Int_Tables_number   1
_chemical_formula_structural   Sm2MnTe2(SO7)2
_chemical_formula_sum   'Sm2 Mn1 Te2 S2 O14'
_cell_volume   316.11072994
_cell_formula_units_Z   1
loop_
 _symmetry_equiv_pos_site_id
 _symmetry_equiv_pos_as_xyz
  1  'x, y, z'
loop_
 _atom_site_type_symbol
 _atom_site_label
 _atom_site_symmetry_multiplicity
 _atom_site_fract_x
 _atom_site_fract_y
 _atom_site_fract_z
 _atom_site_occupancy
  Sm  Sm0  1  0.081640  0.251138  0.985021  1
  Sm  Sm1  1  0.918360  0.748862  0.014979  1
  Mn  Mn2  1  0.000000  0.000000  0.500000  1
  Te  Te3  1  0.524076  0.277731  0.671813  1
  Te  Te4  1  0.475924  0.722269  0.328187  1
  S  S5  1  0.760534  0.244684  0.247902  1
  S  S6  1  0.239466  0.755316  0.752098  1
  O  O7  1  0.888368  0.403792  0.251201  1
  O  O8  1  0.111632  0.596208  0.748799  1
  O  O9  1  0.858763  0.227336  0.423536  1
  O  O10  1  0.141237  0.772664  0.576464  1
  O  O11  1  0.476905  0.261882  0.209429  1
  O  O12  1  0.523095  0.738118  0.790571  1
  O  O13  1  0.827423  0.079199  0.093469  1
  O  O14  1  0.172577  0.920801  0.906531  1
  O  O15  1  0.751580  0.441496  0.896546  1
  O  O16  1  0.248420  0.558504  0.103454  1
  O  O17  1  0.281053  0.198968  0.754185  1
  O  O18  1  0.718947  0.801032  0.245815  1
  O  O19  1  0.752396  0.085718  0.676431  1
  O  O20  1  0.247604  0.914282  0.323569  1
