# generated using pymatgen
data_Tm12Ni5Bi
_symmetry_space_group_name_H-M   'P 1'
_cell_length_a   8.25456144
_cell_length_b   8.25456174
_cell_length_c   8.25456079
_cell_angle_alpha   109.37710081
_cell_angle_beta   111.51121387
_cell_angle_gamma   107.54967017
_symmetry_Int_Tables_number   1
_chemical_formula_structural   Tm12Ni5Bi
_chemical_formula_sum   'Tm12 Ni5 Bi1'
_cell_volume   432.45304447
_cell_formula_units_Z   1
loop_
 _symmetry_equiv_pos_site_id
 _symmetry_equiv_pos_as_xyz
  1  'x, y, z'
loop_
 _atom_site_type_symbol
 _atom_site_label
 _atom_site_symmetry_multiplicity
 _atom_site_fract_x
 _atom_site_fract_y
 _atom_site_fract_z
 _atom_site_occupancy
  Tm  Tm0  1  0.290737  0.178228  0.468965  1
  Tm  Tm1  1  0.709263  0.821772  0.531035  1
  Tm  Tm2  1  0.290737  0.821772  0.112509  1
  Tm  Tm3  1  0.709263  0.178228  0.887491  1
  Tm  Tm4  1  0.627391  0.320442  0.306950  1
  Tm  Tm5  1  0.372609  0.679558  0.693050  1
  Tm  Tm6  1  0.013492  0.320442  0.693050  1
  Tm  Tm7  1  0.986508  0.679558  0.306950  1
  Tm  Tm8  1  0.208961  0.403654  0.194694  1
  Tm  Tm9  1  0.791039  0.596346  0.805306  1
  Tm  Tm10  1  0.208961  0.014267  0.805306  1
  Tm  Tm11  1  0.791039  0.985733  0.194694  1
  Ni  Ni12  1  0.000000  0.366446  0.366446  1
  Ni  Ni13  1  0.000000  0.633554  0.633554  1
  Ni  Ni14  1  0.376072  0.876072  0.500000  1
  Ni  Ni15  1  0.623928  0.123928  0.500000  1
  Ni  Ni16  1  0.000000  0.000000  0.000000  1
  Bi  Bi17  1  0.500000  0.500000  0.000000  1
