# generated using pymatgen
data_Tb5HoAl24Ir5Ru3
_symmetry_space_group_name_H-M   'P 1'
_cell_length_a   8.84889008
_cell_length_b   8.80903308
_cell_length_c   9.54676828
_cell_angle_alpha   90.01331144
_cell_angle_beta   89.91106711
_cell_angle_gamma   119.98737625
_symmetry_Int_Tables_number   1
_chemical_formula_structural   Tb5HoAl24Ir5Ru3
_chemical_formula_sum   'Tb5 Ho1 Al24 Ir5 Ru3'
_cell_volume   644.55306233
_cell_formula_units_Z   1
loop_
 _symmetry_equiv_pos_site_id
 _symmetry_equiv_pos_as_xyz
  1  'x, y, z'
loop_
 _atom_site_type_symbol
 _atom_site_label
 _atom_site_symmetry_multiplicity
 _atom_site_fract_x
 _atom_site_fract_y
 _atom_site_fract_z
 _atom_site_occupancy
  Tb  Tb0  1  0.808968  0.193671  0.249917  1
  Tb  Tb1  1  0.808531  0.615107  0.249903  1
  Tb  Tb2  1  0.614983  0.807338  0.750026  1
  Tb  Tb3  1  0.190820  0.806202  0.750060  1
  Tb  Tb4  1  0.191261  0.384810  0.750075  1
  Ho  Ho5  1  0.386775  0.193530  0.249980  1
  Al  Al6  1  0.437942  0.875010  0.250336  1
  Al  Al7  1  0.124978  0.562552  0.248842  1
  Al  Al8  1  0.438031  0.562917  0.250359  1
  Al  Al9  1  0.561801  0.125264  0.749658  1
  Al  Al10  1  0.874953  0.437424  0.751183  1
  Al  Al11  1  0.561712  0.436556  0.749634  1
  Al  Al12  1  0.164506  0.837975  0.423136  1
  Al  Al13  1  0.164494  0.326502  0.423219  1
  Al  Al14  1  0.674065  0.837091  0.423505  1
  Al  Al15  1  0.835548  0.162459  0.576405  1
  Al  Al16  1  0.835564  0.673119  0.576332  1
  Al  Al17  1  0.325828  0.162854  0.575866  1
  Al  Al18  1  0.837294  0.164312  0.923631  1
  Al  Al19  1  0.837357  0.672966  0.923661  1
  Al  Al20  1  0.326384  0.163072  0.924850  1
  Al  Al21  1  0.162804  0.836144  0.076814  1
  Al  Al22  1  0.162742  0.326673  0.076777  1
  Al  Al23  1  0.673489  0.836863  0.075796  1
  Al  Al24  1  0.332953  0.666363  0.527732  1
  Al  Al25  1  0.666749  0.333490  0.471701  1
  Al  Al26  1  0.668897  0.334434  0.027631  1
  Al  Al27  1  0.330832  0.665431  0.972920  1
  Al  Al28  1  0.003291  0.001591  0.250054  1
  Al  Al29  1  0.998051  0.999074  0.749972  1
  Ir  Ir30  1  0.499766  0.000179  0.499674  1
  Ir  Ir31  1  0.999804  0.499895  0.499895  1
  Ir  Ir32  1  0.499768  0.499592  0.499677  1
  Ir  Ir33  1  0.499760  0.000202  0.000329  1
  Ir  Ir34  1  0.499767  0.499568  0.000320  1
  Ru  Ru35  1  0.999856  0.999937  0.499974  1
  Ru  Ru36  1  0.999828  0.999920  0.000052  1
  Ru  Ru37  1  0.999846  0.499916  0.000105  1
