# generated using pymatgen
data_Er20Ir5Pt7
_symmetry_space_group_name_H-M   'P 1'
_cell_length_a   10.95708796
_cell_length_b   10.95708796
_cell_length_c   6.28482301
_cell_angle_alpha   90.00356187
_cell_angle_beta   90.00356187
_cell_angle_gamma   90.11944321
_symmetry_Int_Tables_number   1
_chemical_formula_structural   Er20Ir5Pt7
_chemical_formula_sum   'Er20 Ir5 Pt7'
_cell_volume   754.54023338
_cell_formula_units_Z   1
loop_
 _symmetry_equiv_pos_site_id
 _symmetry_equiv_pos_as_xyz
  1  'x, y, z'
loop_
 _atom_site_type_symbol
 _atom_site_label
 _atom_site_symmetry_multiplicity
 _atom_site_fract_x
 _atom_site_fract_y
 _atom_site_fract_z
 _atom_site_occupancy
  Er  Er0  1  0.294887  0.086727  0.374548  1
  Er  Er1  1  0.295059  0.909895  0.874032  1
  Er  Er2  1  0.705153  0.086870  0.874544  1
  Er  Er3  1  0.705286  0.912813  0.374250  1
  Er  Er4  1  0.584265  0.793211  0.873601  1
  Er  Er5  1  0.586958  0.205669  0.375230  1
  Er  Er6  1  0.411695  0.792334  0.378239  1
  Er  Er7  1  0.412975  0.204892  0.875147  1
  Er  Er8  1  0.206789  0.415735  0.626399  1
  Er  Er9  1  0.207666  0.588305  0.121761  1
  Er  Er10  1  0.794331  0.413042  0.124770  1
  Er  Er11  1  0.795108  0.587025  0.624853  1
  Er  Er12  1  0.913273  0.705113  0.125452  1
  Er  Er13  1  0.913130  0.294847  0.625456  1
  Er  Er14  1  0.090105  0.704941  0.625968  1
  Er  Er15  1  0.087187  0.294714  0.125750  1
  Er  Er16  1  0.999952  0.999962  0.500082  1
  Er  Er17  1  0.000038  0.000048  0.999918  1
  Er  Er18  1  0.498293  0.501329  0.999287  1
  Er  Er19  1  0.498671  0.501707  0.500713  1
  Ir  Ir20  1  0.346595  0.653405  0.750000  1
  Ir  Ir21  1  0.500217  0.000432  0.121587  1
  Ir  Ir22  1  0.500068  0.000439  0.620634  1
  Ir  Ir23  1  0.999561  0.499932  0.879366  1
  Ir  Ir24  1  0.999568  0.499783  0.378413  1
  Pt  Pt25  1  0.846182  0.153818  0.250000  1
  Pt  Pt26  1  0.846010  0.846314  0.750248  1
  Pt  Pt27  1  0.153686  0.153990  0.749752  1
  Pt  Pt28  1  0.153399  0.846601  0.250000  1
  Pt  Pt29  1  0.653676  0.346324  0.750000  1
  Pt  Pt30  1  0.654400  0.654184  0.250092  1
  Pt  Pt31  1  0.345816  0.345600  0.249908  1
