# generated using pymatgen
data_TbTm5Mn2Fe2(Co7P6)2
_symmetry_space_group_name_H-M   'P 1'
_cell_length_a   3.69498900
_cell_length_b   10.55605500
_cell_length_c   12.07834000
_cell_angle_alpha   90.00000000
_cell_angle_beta   90.00000000
_cell_angle_gamma   90.00000000
_symmetry_Int_Tables_number   1
_chemical_formula_structural   TbTm5Mn2Fe2(Co7P6)2
_chemical_formula_sum   'Tb1 Tm5 Mn2 Fe2 Co14 P12'
_cell_volume   471.10969839
_cell_formula_units_Z   1
loop_
 _symmetry_equiv_pos_site_id
 _symmetry_equiv_pos_as_xyz
  1  'x, y, z'
loop_
 _atom_site_type_symbol
 _atom_site_label
 _atom_site_symmetry_multiplicity
 _atom_site_fract_x
 _atom_site_fract_y
 _atom_site_fract_z
 _atom_site_occupancy
  Tb  Tb0  1  0.000000  0.500000  0.523665  1
  Tm  Tm1  1  0.500000  0.000000  0.476523  1
  Tm  Tm2  1  0.500000  0.819772  0.203571  1
  Tm  Tm3  1  0.500000  0.180228  0.203571  1
  Tm  Tm4  1  0.000000  0.680440  0.796744  1
  Tm  Tm5  1  0.000000  0.319560  0.796744  1
  Mn  Mn6  1  0.500000  0.500000  0.156016  1
  Mn  Mn7  1  0.000000  0.000000  0.843163  1
  Fe  Fe8  1  0.000000  0.500000  0.988178  1
  Fe  Fe9  1  0.500000  0.000000  0.012093  1
  Co  Co10  1  0.500000  0.500000  0.702193  1
  Co  Co11  1  0.000000  0.000000  0.299022  1
  Co  Co12  1  0.500000  0.331724  0.994136  1
  Co  Co13  1  0.500000  0.668276  0.994136  1
  Co  Co14  1  0.000000  0.167946  0.005795  1
  Co  Co15  1  0.000000  0.832054  0.005795  1
  Co  Co16  1  0.500000  0.294782  0.430017  1
  Co  Co17  1  0.500000  0.705218  0.430017  1
  Co  Co18  1  0.000000  0.202796  0.569964  1
  Co  Co19  1  0.000000  0.797204  0.569964  1
  Co  Co20  1  0.500000  0.878912  0.709434  1
  Co  Co21  1  0.500000  0.121088  0.709434  1
  Co  Co22  1  0.000000  0.621664  0.290253  1
  Co  Co23  1  0.000000  0.378336  0.290253  1
  P  P24  1  0.500000  0.500000  0.883831  1
  P  P25  1  0.000000  0.000000  0.116614  1
  P  P26  1  0.500000  0.500000  0.343149  1
  P  P27  1  0.000000  0.000000  0.654779  1
  P  P28  1  0.500000  0.310541  0.617674  1
  P  P29  1  0.500000  0.689459  0.617674  1
  P  P30  1  0.000000  0.187988  0.382922  1
  P  P31  1  0.000000  0.812012  0.382922  1
  P  P32  1  0.500000  0.846851  0.893339  1
  P  P33  1  0.500000  0.153149  0.893339  1
  P  P34  1  0.000000  0.653352  0.106540  1
  P  P35  1  0.000000  0.346648  0.106540  1
