# generated using pymatgen
data_Pr4Y6Sn7Hg
_symmetry_space_group_name_H-M   'P 1'
_cell_length_a   8.01110000
_cell_length_b   8.43824700
_cell_length_c   15.68104700
_cell_angle_alpha   90.00000000
_cell_angle_beta   90.00000000
_cell_angle_gamma   90.00000000
_symmetry_Int_Tables_number   1
_chemical_formula_structural   Pr4Y6Sn7Hg
_chemical_formula_sum   'Pr8 Y12 Sn14 Hg2'
_cell_volume   1060.03314052
_cell_formula_units_Z   2
loop_
 _symmetry_equiv_pos_site_id
 _symmetry_equiv_pos_as_xyz
  1  'x, y, z'
loop_
 _atom_site_type_symbol
 _atom_site_label
 _atom_site_symmetry_multiplicity
 _atom_site_fract_x
 _atom_site_fract_y
 _atom_site_fract_z
 _atom_site_occupancy
  Pr  Pr0  1  0.498274  0.313227  0.907409  1
  Pr  Pr1  1  0.998274  0.186773  0.592591  1
  Pr  Pr2  1  0.499103  0.679257  0.405142  1
  Pr  Pr3  1  0.999103  0.820743  0.094858  1
  Pr  Pr4  1  0.499103  0.679257  0.094858  1
  Pr  Pr5  1  0.999103  0.820743  0.405142  1
  Pr  Pr6  1  0.498274  0.313227  0.592591  1
  Pr  Pr7  1  0.998274  0.186773  0.907409  1
  Y  Y8  1  0.334723  0.833947  0.874008  1
  Y  Y9  1  0.834723  0.666053  0.625992  1
  Y  Y10  1  0.664956  0.165278  0.374359  1
  Y  Y11  1  0.164956  0.334722  0.125641  1
  Y  Y12  1  0.664956  0.165278  0.125641  1
  Y  Y13  1  0.164956  0.334722  0.374359  1
  Y  Y14  1  0.334723  0.833947  0.625992  1
  Y  Y15  1  0.834723  0.666053  0.874008  1
  Y  Y16  1  0.178020  0.494096  0.750000  1
  Y  Y17  1  0.678020  0.005904  0.750000  1
  Y  Y18  1  0.828911  0.503245  0.250000  1
  Y  Y19  1  0.328911  0.996755  0.250000  1
  Sn  Sn20  1  0.323266  0.038905  0.040848  1
  Sn  Sn21  1  0.823266  0.461095  0.459152  1
  Sn  Sn22  1  0.680894  0.960666  0.541958  1
  Sn  Sn23  1  0.180894  0.539334  0.958042  1
  Sn  Sn24  1  0.680894  0.960666  0.958042  1
  Sn  Sn25  1  0.180894  0.539334  0.541958  1
  Sn  Sn26  1  0.323266  0.038905  0.459152  1
  Sn  Sn27  1  0.823266  0.461095  0.040848  1
  Sn  Sn28  1  0.468177  0.379133  0.250000  1
  Sn  Sn29  1  0.968177  0.120867  0.250000  1
  Sn  Sn30  1  0.295616  0.134686  0.750000  1
  Sn  Sn31  1  0.795616  0.365314  0.750000  1
  Sn  Sn32  1  0.693486  0.854335  0.250000  1
  Sn  Sn33  1  0.193486  0.645665  0.250000  1
  Hg  Hg34  1  0.533361  0.621870  0.750000  1
  Hg  Hg35  1  0.033361  0.878130  0.750000  1
