# generated using pymatgen
data_Zr9N10
_symmetry_space_group_name_H-M   'P 1'
_cell_length_a   5.64161412
_cell_length_b   5.64161484
_cell_length_c   10.27753569
_cell_angle_alpha   90.13125075
_cell_angle_beta   90.13124853
_cell_angle_gamma   47.91128220
_symmetry_Int_Tables_number   1
_chemical_formula_structural   Zr9N10
_chemical_formula_sum   'Zr9 N10'
_cell_volume   242.75124154
_cell_formula_units_Z   1
loop_
 _symmetry_equiv_pos_site_id
 _symmetry_equiv_pos_as_xyz
  1  'x, y, z'
loop_
 _atom_site_type_symbol
 _atom_site_label
 _atom_site_symmetry_multiplicity
 _atom_site_fract_x
 _atom_site_fract_y
 _atom_site_fract_z
 _atom_site_occupancy
  Zr  Zr0  1  0.697686  0.697686  0.092840  1
  Zr  Zr1  1  0.410677  0.410677  0.190644  1
  Zr  Zr2  1  0.589323  0.589323  0.809356  1
  Zr  Zr3  1  0.302314  0.302314  0.907160  1
  Zr  Zr4  1  0.103527  0.103527  0.290907  1
  Zr  Zr5  1  0.798485  0.798485  0.398308  1
  Zr  Zr6  1  0.500000  0.500000  0.500000  1
  Zr  Zr7  1  0.201515  0.201515  0.601692  1
  Zr  Zr8  1  0.896473  0.896473  0.709093  1
  N  N9  1  0.397751  0.397751  0.701520  1
  N  N10  1  0.301118  0.301118  0.397878  1
  N  N11  1  0.102213  0.102213  0.790055  1
  N  N12  1  0.000000  0.000000  0.500000  1
  N  N13  1  0.698882  0.698882  0.602122  1
  N  N14  1  0.897787  0.897787  0.209945  1
  N  N15  1  0.602249  0.602249  0.298480  1
  N  N16  1  0.788257  0.788257  0.895726  1
  N  N17  1  0.500000  0.500000  0.000000  1
  N  N18  1  0.211743  0.211743  0.104274  1
