# generated using pymatgen
data_Li2Sc2As6Ir7
_symmetry_space_group_name_H-M   'P 1'
_cell_length_a   7.09872482
_cell_length_b   7.09872596
_cell_length_c   7.03195413
_cell_angle_alpha   109.37224075
_cell_angle_beta   109.37224773
_cell_angle_gamma   110.04950174
_symmetry_Int_Tables_number   1
_chemical_formula_structural   Li2Sc2As6Ir7
_chemical_formula_sum   'Li2 Sc2 As6 Ir7'
_cell_volume   271.48408157
_cell_formula_units_Z   1
loop_
 _symmetry_equiv_pos_site_id
 _symmetry_equiv_pos_as_xyz
  1  'x, y, z'
loop_
 _atom_site_type_symbol
 _atom_site_label
 _atom_site_symmetry_multiplicity
 _atom_site_fract_x
 _atom_site_fract_y
 _atom_site_fract_z
 _atom_site_occupancy
  Li  Li0  1  0.500000  0.000000  0.000000  1
  Li  Li1  1  0.000000  0.500000  0.000000  1
  Sc  Sc2  1  0.000000  0.000000  0.500000  1
  Sc  Sc3  1  0.500000  0.500000  0.500000  1
  As  As4  1  0.686930  0.686930  0.000000  1
  As  As5  1  0.313070  0.313070  0.000000  1
  As  As6  1  0.011932  0.686837  0.698770  1
  As  As7  1  0.988068  0.313163  0.301230  1
  As  As8  1  0.686837  0.011932  0.698770  1
  As  As9  1  0.313163  0.988068  0.301230  1
  Ir  Ir10  1  0.000000  0.000000  0.000000  1
  Ir  Ir11  1  0.250116  0.495847  0.745963  1
  Ir  Ir12  1  0.750000  0.250000  0.500000  1
  Ir  Ir13  1  0.495847  0.250116  0.745963  1
  Ir  Ir14  1  0.504153  0.749884  0.254037  1
  Ir  Ir15  1  0.749884  0.504153  0.254037  1
  Ir  Ir16  1  0.250000  0.750000  0.500000  1
