# generated using pymatgen
data_BaEuAl16Pt9
_symmetry_space_group_name_H-M   'P 1'
_cell_length_a   11.22459226
_cell_length_b   11.22459372
_cell_length_c   11.22459400
_cell_angle_alpha   158.46371729
_cell_angle_beta   115.39925424
_cell_angle_gamma   68.95453423
_symmetry_Int_Tables_number   1
_chemical_formula_structural   BaEuAl16Pt9
_chemical_formula_sum   'Ba1 Eu1 Al16 Pt9'
_cell_volume   465.55884597
_cell_formula_units_Z   1
loop_
 _symmetry_equiv_pos_site_id
 _symmetry_equiv_pos_as_xyz
  1  'x, y, z'
loop_
 _atom_site_type_symbol
 _atom_site_label
 _atom_site_symmetry_multiplicity
 _atom_site_fract_x
 _atom_site_fract_y
 _atom_site_fract_z
 _atom_site_occupancy
  Ba  Ba0  1  0.228056  0.228056  0.000000  1
  Eu  Eu1  1  0.772275  0.772275  0.000000  1
  Al  Al2  1  0.274908  0.393528  0.881378  1
  Al  Al3  1  0.091507  0.920352  0.171154  1
  Al  Al4  1  0.512365  0.204406  0.307960  1
  Al  Al5  1  0.252270  0.078710  0.173560  1
  Al  Al6  1  0.913769  0.413769  0.500000  1
  Al  Al7  1  0.723650  0.607359  0.116292  1
  Al  Al8  1  0.896446  0.204406  0.692040  1
  Al  Al9  1  0.494137  0.795466  0.698671  1
  Al  Al10  1  0.384387  0.000632  0.383756  1
  Al  Al11  1  0.616876  0.000632  0.616244  1
  Al  Al12  1  0.491067  0.607359  0.883708  1
  Al  Al13  1  0.096796  0.795466  0.301329  1
  Al  Al14  1  0.905151  0.078710  0.826440  1
  Al  Al15  1  0.749198  0.920352  0.828846  1
  Al  Al16  1  0.512150  0.393528  0.118622  1
  Al  Al17  1  0.082979  0.582979  0.500000  1
  Pt  Pt18  1  0.749609  0.500069  0.249541  1
  Pt  Pt19  1  0.028976  0.340758  0.688219  1
  Pt  Pt20  1  0.623051  0.123051  0.500000  1
  Pt  Pt21  1  0.250529  0.500069  0.750459  1
  Pt  Pt22  1  0.381323  0.881323  0.500000  1
  Pt  Pt23  1  0.000010  0.000010  0.000000  1
  Pt  Pt24  1  0.652539  0.340758  0.311781  1
  Pt  Pt25  1  0.351270  0.657987  0.693283  1
  Pt  Pt26  1  0.964704  0.657987  0.306717  1
