# generated using pymatgen
data_Cu(S8Br)3
_symmetry_space_group_name_H-M   'P 1'
_cell_length_a   14.83879192
_cell_length_b   14.83879136
_cell_length_c   14.83879114
_cell_angle_alpha   118.77014650
_cell_angle_beta   118.77014741
_cell_angle_gamma   118.77015149
_symmetry_Int_Tables_number   1
_chemical_formula_structural   Cu(S8Br)3
_chemical_formula_sum   'Cu1 S24 Br3'
_cell_volume   936.06896871
_cell_formula_units_Z   1
loop_
 _symmetry_equiv_pos_site_id
 _symmetry_equiv_pos_as_xyz
  1  'x, y, z'
loop_
 _atom_site_type_symbol
 _atom_site_label
 _atom_site_symmetry_multiplicity
 _atom_site_fract_x
 _atom_site_fract_y
 _atom_site_fract_z
 _atom_site_occupancy
  Cu  Cu0  1  0.951104  0.951104  0.951104  1
  S  S1  1  0.808340  0.528762  0.528762  1
  S  S2  1  0.528762  0.528762  0.808340  1
  S  S3  1  0.528762  0.808340  0.528762  1
  S  S4  1  0.242810  0.373702  0.631079  1
  S  S5  1  0.351140  0.954572  0.351140  1
  S  S6  1  0.351140  0.351140  0.954572  1
  S  S7  1  0.954572  0.351140  0.351140  1
  S  S8  1  0.118440  0.734261  0.249359  1
  S  S9  1  0.249359  0.118440  0.734261  1
  S  S10  1  0.734261  0.249359  0.118440  1
  S  S11  1  0.734261  0.118440  0.249359  1
  S  S12  1  0.249359  0.734261  0.118440  1
  S  S13  1  0.118440  0.249359  0.734261  1
  S  S14  1  0.349410  0.882993  0.533727  1
  S  S15  1  0.533727  0.349410  0.882993  1
  S  S16  1  0.882993  0.533727  0.349410  1
  S  S17  1  0.882993  0.349410  0.533727  1
  S  S18  1  0.533727  0.882993  0.349410  1
  S  S19  1  0.349410  0.533727  0.882993  1
  S  S20  1  0.242810  0.631079  0.373702  1
  S  S21  1  0.373702  0.242810  0.631079  1
  S  S22  1  0.631079  0.373702  0.242810  1
  S  S23  1  0.631079  0.242810  0.373702  1
  S  S24  1  0.373702  0.631079  0.242810  1
  Br  Br25  1  0.837857  0.991029  0.991029  1
  Br  Br26  1  0.991029  0.991029  0.837857  1
  Br  Br27  1  0.991029  0.837857  0.991029  1
