# generated using pymatgen
data_Y20In3Ag3Pt2
_symmetry_space_group_name_H-M   'P 1'
_cell_length_a   9.70503500
_cell_length_b   9.70503488
_cell_length_c   9.68486300
_cell_angle_alpha   90.00000000
_cell_angle_beta   90.00000000
_cell_angle_gamma   119.99999701
_symmetry_Int_Tables_number   1
_chemical_formula_structural   Y20In3Ag3Pt2
_chemical_formula_sum   'Y20 In3 Ag3 Pt2'
_cell_volume   789.98406806
_cell_formula_units_Z   1
loop_
 _symmetry_equiv_pos_site_id
 _symmetry_equiv_pos_as_xyz
  1  'x, y, z'
loop_
 _atom_site_type_symbol
 _atom_site_label
 _atom_site_symmetry_multiplicity
 _atom_site_fract_x
 _atom_site_fract_y
 _atom_site_fract_z
 _atom_site_occupancy
  Y  Y0  1  0.000000  0.000000  0.533345  1
  Y  Y1  1  0.000000  0.000000  0.966655  1
  Y  Y2  1  0.207172  0.792828  0.443462  1
  Y  Y3  1  0.207172  0.414343  0.443462  1
  Y  Y4  1  0.585657  0.792828  0.443462  1
  Y  Y5  1  0.791926  0.208074  0.558458  1
  Y  Y6  1  0.791926  0.583851  0.558458  1
  Y  Y7  1  0.416149  0.208074  0.558458  1
  Y  Y8  1  0.791926  0.208074  0.941542  1
  Y  Y9  1  0.791926  0.583851  0.941542  1
  Y  Y10  1  0.416149  0.208074  0.941542  1
  Y  Y11  1  0.207172  0.792828  0.056538  1
  Y  Y12  1  0.207172  0.414343  0.056538  1
  Y  Y13  1  0.585657  0.792828  0.056538  1
  Y  Y14  1  0.541514  0.458486  0.250000  1
  Y  Y15  1  0.541514  0.083026  0.250000  1
  Y  Y16  1  0.916974  0.458486  0.250000  1
  Y  Y17  1  0.457503  0.542497  0.750000  1
  Y  Y18  1  0.457503  0.915008  0.750000  1
  Y  Y19  1  0.084992  0.542497  0.750000  1
  In  In20  1  0.890132  0.109868  0.250000  1
  In  In21  1  0.890132  0.780265  0.250000  1
  In  In22  1  0.219735  0.109868  0.250000  1
  Ag  Ag23  1  0.127042  0.872958  0.750000  1
  Ag  Ag24  1  0.127042  0.254081  0.750000  1
  Ag  Ag25  1  0.745919  0.872958  0.750000  1
  Pt  Pt26  1  0.333333  0.666667  0.250000  1
  Pt  Pt27  1  0.666667  0.333333  0.750000  1
