# generated using pymatgen
data_Cs2PuO5
_symmetry_space_group_name_H-M   'P 1'
_cell_length_a   6.82131300
_cell_length_b   6.82131300
_cell_length_c   4.33681700
_cell_angle_alpha   90.00000000
_cell_angle_beta   90.00000000
_cell_angle_gamma   90.00000000
_symmetry_Int_Tables_number   1
_chemical_formula_structural   Cs2PuO5
_chemical_formula_sum   'Cs2 Pu1 O5'
_cell_volume   201.79344395
_cell_formula_units_Z   1
loop_
 _symmetry_equiv_pos_site_id
 _symmetry_equiv_pos_as_xyz
  1  'x, y, z'
loop_
 _atom_site_type_symbol
 _atom_site_label
 _atom_site_symmetry_multiplicity
 _atom_site_fract_x
 _atom_site_fract_y
 _atom_site_fract_z
 _atom_site_occupancy
  Cs  Cs0  1  0.500000  0.000000  0.500000  1
  Cs  Cs1  1  0.000000  0.500000  0.500000  1
  Pu  Pu2  1  0.000000  0.000000  0.000000  1
  O  O3  1  0.803394  0.803394  0.000000  1
  O  O4  1  0.803394  0.196606  0.000000  1
  O  O5  1  0.196606  0.803394  0.000000  1
  O  O6  1  0.000000  0.000000  0.500000  1
  O  O7  1  0.196606  0.196606  0.000000  1
