# generated using pymatgen
data_Cr20Fe(ReC3)2
_symmetry_space_group_name_H-M   'P 1'
_cell_length_a   7.50356667
_cell_length_b   7.50336597
_cell_length_c   7.50343400
_cell_angle_alpha   59.99863700
_cell_angle_beta   60.00169751
_cell_angle_gamma   60.00191452
_symmetry_Int_Tables_number   1
_chemical_formula_structural   Cr20Fe(ReC3)2
_chemical_formula_sum   'Cr20 Fe1 Re2 C6'
_cell_volume   298.72827077
_cell_formula_units_Z   1
loop_
 _symmetry_equiv_pos_site_id
 _symmetry_equiv_pos_as_xyz
  1  'x, y, z'
loop_
 _atom_site_type_symbol
 _atom_site_label
 _atom_site_symmetry_multiplicity
 _atom_site_fract_x
 _atom_site_fract_y
 _atom_site_fract_z
 _atom_site_occupancy
  Cr  Cr0  1  0.616907  0.616943  0.149234  1
  Cr  Cr1  1  0.616934  0.149211  0.616930  1
  Cr  Cr2  1  0.149181  0.616957  0.616933  1
  Cr  Cr3  1  0.616935  0.616941  0.616929  1
  Cr  Cr4  1  0.383075  0.383076  0.850755  1
  Cr  Cr5  1  0.383063  0.850781  0.383061  1
  Cr  Cr6  1  0.850838  0.383044  0.383051  1
  Cr  Cr7  1  0.383062  0.383070  0.383067  1
  Cr  Cr8  1  0.999997  0.999961  0.333026  1
  Cr  Cr9  1  0.666997  0.999975  0.333030  1
  Cr  Cr10  1  0.999985  0.666985  0.333045  1
  Cr  Cr11  1  0.666948  0.333010  0.000023  1
  Cr  Cr12  1  0.000010  0.333044  0.000009  1
  Cr  Cr13  1  0.999998  0.333106  0.666899  1
  Cr  Cr14  1  0.333001  0.666982  0.000029  1
  Cr  Cr15  1  0.333074  0.999998  0.666935  1
  Cr  Cr16  1  0.333061  0.999994  0.000012  1
  Cr  Cr17  1  0.999992  0.999991  0.666961  1
  Cr  Cr18  1  0.999991  0.666968  0.000027  1
  Cr  Cr19  1  0.666934  0.000000  0.000025  1
  Fe  Fe20  1  0.999985  0.999963  0.000058  1
  Re  Re21  1  0.750014  0.750025  0.749987  1
  Re  Re22  1  0.250020  0.249980  0.249969  1
  C  C23  1  0.723600  0.723620  0.276379  1
  C  C24  1  0.276413  0.723604  0.276410  1
  C  C25  1  0.723592  0.276403  0.276425  1
  C  C26  1  0.276411  0.276388  0.723620  1
  C  C27  1  0.723568  0.276403  0.723592  1
  C  C28  1  0.276415  0.723576  0.723576  1
