# generated using pymatgen
data_La7HoGePd24
_symmetry_space_group_name_H-M   'P 1'
_cell_length_a   8.54006493
_cell_length_b   8.54006493
_cell_length_c   8.54006493
_cell_angle_alpha   89.93290323
_cell_angle_beta   90.06709677
_cell_angle_gamma   90.06709677
_symmetry_Int_Tables_number   1
_chemical_formula_structural   La7HoGePd24
_chemical_formula_sum   'La7 Ho1 Ge1 Pd24'
_cell_volume   622.84878938
_cell_formula_units_Z   1
loop_
 _symmetry_equiv_pos_site_id
 _symmetry_equiv_pos_as_xyz
  1  'x, y, z'
loop_
 _atom_site_type_symbol
 _atom_site_label
 _atom_site_symmetry_multiplicity
 _atom_site_fract_x
 _atom_site_fract_y
 _atom_site_fract_z
 _atom_site_occupancy
  La  La0  1  0.253878  0.253449  0.253449  1
  La  La1  1  0.746890  0.747105  0.747105  1
  La  La2  1  0.746551  0.746122  0.253449  1
  La  La3  1  0.746551  0.253449  0.746122  1
  La  La4  1  0.252895  0.253110  0.747105  1
  La  La5  1  0.252895  0.747105  0.253110  1
  La  La6  1  0.253220  0.746780  0.746780  1
  Ho  Ho7  1  0.746594  0.253406  0.253406  1
  Ge  Ge8  1  0.000314  0.999686  0.999686  1
  Pd  Pd9  1  0.259586  0.499649  0.000132  1
  Pd  Pd10  1  0.740279  0.497405  0.003004  1
  Pd  Pd11  1  0.996996  0.259721  0.497405  1
  Pd  Pd12  1  0.502595  0.259721  0.003004  1
  Pd  Pd13  1  0.999868  0.740414  0.499649  1
  Pd  Pd14  1  0.500351  0.740414  0.000132  1
  Pd  Pd15  1  0.502595  0.003004  0.259721  1
  Pd  Pd16  1  0.259586  0.000132  0.499649  1
  Pd  Pd17  1  0.500351  0.000132  0.740414  1
  Pd  Pd18  1  0.740279  0.003004  0.497405  1
  Pd  Pd19  1  0.996996  0.497405  0.259721  1
  Pd  Pd20  1  0.999868  0.499649  0.740414  1
  Pd  Pd21  1  0.252929  0.499808  0.499808  1
  Pd  Pd22  1  0.747061  0.497059  0.497059  1
  Pd  Pd23  1  0.502941  0.252939  0.497059  1
  Pd  Pd24  1  0.500192  0.747071  0.499808  1
  Pd  Pd25  1  0.502941  0.497059  0.252939  1
  Pd  Pd26  1  0.500192  0.499808  0.747071  1
  Pd  Pd27  1  0.291263  0.000324  0.000324  1
  Pd  Pd28  1  0.710294  0.003153  0.003153  1
  Pd  Pd29  1  0.996847  0.289706  0.003153  1
  Pd  Pd30  1  0.999676  0.708737  0.000324  1
  Pd  Pd31  1  0.996847  0.003153  0.289706  1
  Pd  Pd32  1  0.999676  0.000324  0.708737  1
