# generated using pymatgen
data_Er4ScSi3H
_symmetry_space_group_name_H-M   'P 1'
_cell_length_a   8.29609300
_cell_length_b   8.29609436
_cell_length_c   6.03944900
_cell_angle_alpha   90.00000000
_cell_angle_beta   90.00000000
_cell_angle_gamma   120.00000652
_symmetry_Int_Tables_number   1
_chemical_formula_structural   Er4ScSi3H
_chemical_formula_sum   'Er8 Sc2 Si6 H2'
_cell_volume   359.97738404
_cell_formula_units_Z   2
loop_
 _symmetry_equiv_pos_site_id
 _symmetry_equiv_pos_as_xyz
  1  'x, y, z'
loop_
 _atom_site_type_symbol
 _atom_site_label
 _atom_site_symmetry_multiplicity
 _atom_site_fract_x
 _atom_site_fract_y
 _atom_site_fract_z
 _atom_site_occupancy
  Er  Er0  1  0.333333  0.666667  0.500000  1
  Er  Er1  1  0.666667  0.333333  0.500000  1
  Er  Er2  1  0.748742  0.748742  0.754381  1
  Er  Er3  1  0.251258  0.000000  0.754381  1
  Er  Er4  1  0.000000  0.251258  0.754381  1
  Er  Er5  1  0.251258  0.251258  0.245619  1
  Er  Er6  1  0.748742  0.000000  0.245619  1
  Er  Er7  1  0.000000  0.748742  0.245619  1
  Sc  Sc8  1  0.666667  0.333333  0.000000  1
  Sc  Sc9  1  0.333333  0.666667  0.000000  1
  Si  Si10  1  0.392173  0.392173  0.764028  1
  Si  Si11  1  0.607827  0.000000  0.764028  1
  Si  Si12  1  0.000000  0.607827  0.764028  1
  Si  Si13  1  0.607827  0.607827  0.235972  1
  Si  Si14  1  0.392173  0.000000  0.235972  1
  Si  Si15  1  0.000000  0.392173  0.235972  1
  H  H16  1  0.000000  0.000000  0.500000  1
  H  H17  1  0.000000  0.000000  0.000000  1
