# generated using pymatgen
data_Nd4LuIr2Pt
_symmetry_space_group_name_H-M   'P 1'
_cell_length_a   11.25270900
_cell_length_b   11.25270900
_cell_length_c   6.48486200
_cell_angle_alpha   90.00000000
_cell_angle_beta   90.00000000
_cell_angle_gamma   90.00000000
_symmetry_Int_Tables_number   1
_chemical_formula_structural   Nd4LuIr2Pt
_chemical_formula_sum   'Nd16 Lu4 Ir8 Pt4'
_cell_volume   821.13566302
_cell_formula_units_Z   4
loop_
 _symmetry_equiv_pos_site_id
 _symmetry_equiv_pos_as_xyz
  1  'x, y, z'
loop_
 _atom_site_type_symbol
 _atom_site_label
 _atom_site_symmetry_multiplicity
 _atom_site_fract_x
 _atom_site_fract_y
 _atom_site_fract_z
 _atom_site_occupancy
  Nd  Nd0  1  0.087648  0.288880  0.116280  1
  Nd  Nd1  1  0.788880  0.412352  0.116280  1
  Nd  Nd2  1  0.211120  0.587648  0.116280  1
  Nd  Nd3  1  0.912352  0.711120  0.116280  1
  Nd  Nd4  1  0.412352  0.788880  0.383720  1
  Nd  Nd5  1  0.587648  0.211120  0.383720  1
  Nd  Nd6  1  0.288880  0.087648  0.383720  1
  Nd  Nd7  1  0.711120  0.912352  0.383720  1
  Nd  Nd8  1  0.413430  0.209644  0.878424  1
  Nd  Nd9  1  0.709644  0.086570  0.878424  1
  Nd  Nd10  1  0.290356  0.913430  0.878424  1
  Nd  Nd11  1  0.586570  0.790356  0.878424  1
  Nd  Nd12  1  0.086570  0.709644  0.621576  1
  Nd  Nd13  1  0.913430  0.290356  0.621576  1
  Nd  Nd14  1  0.209644  0.413430  0.621576  1
  Nd  Nd15  1  0.790356  0.586570  0.621576  1
  Lu  Lu16  1  0.000000  0.000000  0.996433  1
  Lu  Lu17  1  0.500000  0.500000  0.996433  1
  Lu  Lu18  1  0.500000  0.500000  0.503567  1
  Lu  Lu19  1  0.000000  0.000000  0.503567  1
  Ir  Ir20  1  0.353905  0.646095  0.750000  1
  Ir  Ir21  1  0.146095  0.146095  0.750000  1
  Ir  Ir22  1  0.853905  0.853905  0.750000  1
  Ir  Ir23  1  0.646095  0.353905  0.750000  1
  Ir  Ir24  1  0.000000  0.500000  0.376789  1
  Ir  Ir25  1  0.500000  0.000000  0.123211  1
  Ir  Ir26  1  0.500000  0.000000  0.620116  1
  Ir  Ir27  1  0.000000  0.500000  0.879884  1
  Pt  Pt28  1  0.145973  0.854027  0.250000  1
  Pt  Pt29  1  0.354027  0.354027  0.250000  1
  Pt  Pt30  1  0.645973  0.645973  0.250000  1
  Pt  Pt31  1  0.854027  0.145973  0.250000  1
