# generated using pymatgen
data_Ce4PdPt3Pb2
_symmetry_space_group_name_H-M   'P 1'
_cell_length_a   8.00385085
_cell_length_b   8.00385085
_cell_length_c   3.71213900
_cell_angle_alpha   90.00000000
_cell_angle_beta   90.00000000
_cell_angle_gamma   89.81132979
_symmetry_Int_Tables_number   1
_chemical_formula_structural   Ce4PdPt3Pb2
_chemical_formula_sum   'Ce4 Pd1 Pt3 Pb2'
_cell_volume   237.80437991
_cell_formula_units_Z   1
loop_
 _symmetry_equiv_pos_site_id
 _symmetry_equiv_pos_as_xyz
  1  'x, y, z'
loop_
 _atom_site_type_symbol
 _atom_site_label
 _atom_site_symmetry_multiplicity
 _atom_site_fract_x
 _atom_site_fract_y
 _atom_site_fract_z
 _atom_site_occupancy
  Ce  Ce0  1  0.669403  0.169403  0.500000  1
  Ce  Ce1  1  0.177573  0.329194  0.500000  1
  Ce  Ce2  1  0.829194  0.677573  0.500000  1
  Ce  Ce3  1  0.325723  0.825723  0.500000  1
  Pd  Pd4  1  0.870286  0.370286  0.000000  1
  Pt  Pt5  1  0.372463  0.126802  0.000000  1
  Pt  Pt6  1  0.123563  0.623563  0.000000  1
  Pt  Pt7  1  0.626802  0.872463  0.000000  1
  Pb  Pb8  1  0.999905  0.005088  0.000000  1
  Pb  Pb9  1  0.505088  0.499905  0.000000  1
