# generated using pymatgen
data_YTm5(Si3Ru)8
_symmetry_space_group_name_H-M   'P 1'
_cell_length_a   10.09512973
_cell_length_b   10.09513053
_cell_length_c   8.10715589
_cell_angle_alpha   89.92856640
_cell_angle_beta   90.07143184
_cell_angle_gamma   132.67137922
_symmetry_Int_Tables_number   1
_chemical_formula_structural   YTm5(Si3Ru)8
_chemical_formula_sum   'Y1 Tm5 Si24 Ru8'
_cell_volume   607.47572023
_cell_formula_units_Z   1
loop_
 _symmetry_equiv_pos_site_id
 _symmetry_equiv_pos_as_xyz
  1  'x, y, z'
loop_
 _atom_site_type_symbol
 _atom_site_label
 _atom_site_symmetry_multiplicity
 _atom_site_fract_x
 _atom_site_fract_y
 _atom_site_fract_z
 _atom_site_occupancy
  Y  Y0  1  0.502692  0.002692  0.250000  1
  Tm  Tm1  1  0.999995  0.999998  0.999953  1
  Tm  Tm2  1  0.499998  0.499995  0.500047  1
  Tm  Tm3  1  0.002442  0.502442  0.250000  1
  Tm  Tm4  1  0.497723  0.997723  0.750000  1
  Tm  Tm5  1  0.997771  0.497771  0.750000  1
  Si  Si6  1  0.295273  0.705325  0.999535  1
  Si  Si7  1  0.794755  0.204758  0.500552  1
  Si  Si8  1  0.704758  0.294755  0.999448  1
  Si  Si9  1  0.205325  0.795273  0.500465  1
  Si  Si10  1  0.832038  0.832588  0.333145  1
  Si  Si11  1  0.167700  0.167715  0.666705  1
  Si  Si12  1  0.667715  0.667700  0.833295  1
  Si  Si13  1  0.332588  0.332038  0.166855  1
  Si  Si14  1  0.622083  0.387578  0.229237  1
  Si  Si15  1  0.611241  0.376945  0.771874  1
  Si  Si16  1  0.113656  0.879722  0.728349  1
  Si  Si17  1  0.121808  0.887265  0.271376  1
  Si  Si18  1  0.379722  0.613656  0.771651  1
  Si  Si19  1  0.387265  0.621808  0.228624  1
  Si  Si20  1  0.887578  0.122083  0.270763  1
  Si  Si21  1  0.876945  0.111241  0.728126  1
  Si  Si22  1  0.843939  0.611351  0.004853  1
  Si  Si23  1  0.387290  0.153047  0.994200  1
  Si  Si24  1  0.888749  0.656132  0.504033  1
  Si  Si25  1  0.346477  0.112540  0.496352  1
  Si  Si26  1  0.156132  0.388749  0.995967  1
  Si  Si27  1  0.612540  0.846477  0.003648  1
  Si  Si28  1  0.111351  0.343939  0.495147  1
  Si  Si29  1  0.653047  0.887290  0.505800  1
  Ru  Ru30  1  0.166310  0.827063  0.999035  1
  Ru  Ru31  1  0.672771  0.333597  0.501468  1
  Ru  Ru32  1  0.833597  0.172771  0.998532  1
  Ru  Ru33  1  0.327063  0.666310  0.500965  1
  Ru  Ru34  1  0.626227  0.626534  0.128027  1
  Ru  Ru35  1  0.373556  0.373349  0.872275  1
  Ru  Ru36  1  0.873349  0.873556  0.627725  1
  Ru  Ru37  1  0.126534  0.126227  0.371973  1
