# generated using pymatgen
data_Dy2UCoTc2
_symmetry_space_group_name_H-M   'P 1'
_cell_length_a   5.75523425
_cell_length_b   5.77962282
_cell_length_c   7.99579000
_cell_angle_alpha   90.00000000
_cell_angle_beta   90.00000000
_cell_angle_gamma   120.14026584
_symmetry_Int_Tables_number   1
_chemical_formula_structural   Dy2UCoTc2
_chemical_formula_sum   'Dy4 U2 Co2 Tc4'
_cell_volume   230.00588042
_cell_formula_units_Z   2
loop_
 _symmetry_equiv_pos_site_id
 _symmetry_equiv_pos_as_xyz
  1  'x, y, z'
loop_
 _atom_site_type_symbol
 _atom_site_label
 _atom_site_symmetry_multiplicity
 _atom_site_fract_x
 _atom_site_fract_y
 _atom_site_fract_z
 _atom_site_occupancy
  Dy  Dy0  1  0.333304  0.666653  0.438074  1
  Dy  Dy1  1  0.669948  0.334974  0.553804  1
  Dy  Dy2  1  0.669948  0.334974  0.946196  1
  Dy  Dy3  1  0.333304  0.666653  0.061926  1
  U  U4  1  0.001009  0.000504  0.495620  1
  U  U5  1  0.001009  0.000504  0.004380  1
  Co  Co6  1  0.834242  0.160082  0.250000  1
  Co  Co7  1  0.834242  0.674161  0.250000  1
  Tc  Tc8  1  0.327598  0.163799  0.250000  1
  Tc  Tc9  1  0.163132  0.840433  0.750000  1
  Tc  Tc10  1  0.163132  0.322697  0.750000  1
  Tc  Tc11  1  0.669132  0.834566  0.750000  1
