# generated using pymatgen
data_AcSm(ZnPb)2
_symmetry_space_group_name_H-M   'P 1'
_cell_length_a   4.71053400
_cell_length_b   4.71053441
_cell_length_c   17.27805200
_cell_angle_alpha   90.00000000
_cell_angle_beta   90.00000000
_cell_angle_gamma   120.00001120
_symmetry_Int_Tables_number   1
_chemical_formula_structural   AcSm(ZnPb)2
_chemical_formula_sum   'Ac2 Sm2 Zn4 Pb4'
_cell_volume   332.02109873
_cell_formula_units_Z   2
loop_
 _symmetry_equiv_pos_site_id
 _symmetry_equiv_pos_as_xyz
  1  'x, y, z'
loop_
 _atom_site_type_symbol
 _atom_site_label
 _atom_site_symmetry_multiplicity
 _atom_site_fract_x
 _atom_site_fract_y
 _atom_site_fract_z
 _atom_site_occupancy
  Ac  Ac0  1  0.000000  0.000000  0.500000  1
  Ac  Ac1  1  0.000000  0.000000  0.000000  1
  Sm  Sm2  1  0.000000  0.000000  0.750000  1
  Sm  Sm3  1  0.000000  0.000000  0.250000  1
  Zn  Zn4  1  0.333333  0.666667  0.169183  1
  Zn  Zn5  1  0.666667  0.333333  0.669183  1
  Zn  Zn6  1  0.666667  0.333333  0.830817  1
  Zn  Zn7  1  0.333333  0.666667  0.330817  1
  Pb  Pb8  1  0.666667  0.333333  0.379087  1
  Pb  Pb9  1  0.666667  0.333333  0.120913  1
  Pb  Pb10  1  0.333333  0.666667  0.879087  1
  Pb  Pb11  1  0.333333  0.666667  0.620913  1
