# generated using pymatgen
data_Ba5LaSn8BiSe
_symmetry_space_group_name_H-M   'P 1'
_cell_length_a   9.17017382
_cell_length_b   9.17017376
_cell_length_c   9.24796641
_cell_angle_alpha   119.72214059
_cell_angle_beta   119.72212906
_cell_angle_gamma   90.00000180
_symmetry_Int_Tables_number   1
_chemical_formula_structural   Ba5LaSn8BiSe
_chemical_formula_sum   'Ba5 La1 Sn8 Bi1 Se1'
_cell_volume   554.49033345
_cell_formula_units_Z   1
loop_
 _symmetry_equiv_pos_site_id
 _symmetry_equiv_pos_as_xyz
  1  'x, y, z'
loop_
 _atom_site_type_symbol
 _atom_site_label
 _atom_site_symmetry_multiplicity
 _atom_site_fract_x
 _atom_site_fract_y
 _atom_site_fract_z
 _atom_site_occupancy
  Ba  Ba0  1  0.759083  0.759083  0.518167  1
  Ba  Ba1  1  0.672711  0.157611  0.001036  1
  Ba  Ba2  1  0.328325  0.843425  0.001036  1
  Ba  Ba3  1  0.843425  0.672711  0.001036  1
  Ba  Ba4  1  0.157611  0.328325  0.001036  1
  La  La5  1  0.239269  0.239269  0.478538  1
  Sn  Sn6  1  0.334008  0.835077  0.384542  1
  Sn  Sn7  1  0.661361  0.171540  0.617116  1
  Sn  Sn8  1  0.050535  0.549464  0.384542  1
  Sn  Sn9  1  0.549464  0.334008  0.384542  1
  Sn  Sn10  1  0.171540  0.955754  0.617116  1
  Sn  Sn11  1  0.955754  0.445576  0.617116  1
  Sn  Sn12  1  0.445576  0.661361  0.617116  1
  Sn  Sn13  1  0.835077  0.050535  0.384542  1
  Bi  Bi14  1  0.485794  0.485794  0.971587  1
  Se  Se15  1  0.010466  0.010466  0.020933  1
