# generated using pymatgen
data_BaAl10ZnO17
_symmetry_space_group_name_H-M   'P 1'
_cell_length_a   5.68308000
_cell_length_b   5.68308030
_cell_length_c   22.89610400
_cell_angle_alpha   90.00000000
_cell_angle_beta   90.00000000
_cell_angle_gamma   119.99999824
_symmetry_Int_Tables_number   1
_chemical_formula_structural   BaAl10ZnO17
_chemical_formula_sum   'Ba2 Al20 Zn2 O34'
_cell_volume   640.41248605
_cell_formula_units_Z   2
loop_
 _symmetry_equiv_pos_site_id
 _symmetry_equiv_pos_as_xyz
  1  'x, y, z'
loop_
 _atom_site_type_symbol
 _atom_site_label
 _atom_site_symmetry_multiplicity
 _atom_site_fract_x
 _atom_site_fract_y
 _atom_site_fract_z
 _atom_site_occupancy
  Ba  Ba0  1  0.000000  0.000000  0.247614  1
  Ba  Ba1  1  0.666667  0.333333  0.747689  1
  Al  Al2  1  0.000000  0.000000  0.672293  1
  Al  Al3  1  0.666667  0.333333  0.324420  1
  Al  Al4  1  0.666667  0.333333  0.172036  1
  Al  Al5  1  0.000000  0.000000  0.824085  1
  Al  Al6  1  0.333333  0.666667  0.502525  1
  Al  Al7  1  0.333333  0.666667  0.001706  1
  Al  Al8  1  0.165444  0.330889  0.394691  1
  Al  Al9  1  0.165444  0.834556  0.394691  1
  Al  Al10  1  0.669111  0.834556  0.394691  1
  Al  Al11  1  0.497014  0.994028  0.605813  1
  Al  Al12  1  0.497014  0.502986  0.605813  1
  Al  Al13  1  0.005972  0.502986  0.605813  1
  Al  Al14  1  0.501172  0.002343  0.893892  1
  Al  Al15  1  0.501172  0.498828  0.893892  1
  Al  Al16  1  0.997657  0.498828  0.893892  1
  Al  Al17  1  0.169598  0.339196  0.105008  1
  Al  Al18  1  0.169598  0.830402  0.105008  1
  Al  Al19  1  0.660804  0.830402  0.105008  1
  Al  Al20  1  0.666667  0.333333  0.477522  1
  Al  Al21  1  0.000000  0.000000  0.976576  1
  Zn  Zn22  1  0.000000  0.000000  0.524908  1
  Zn  Zn23  1  0.666667  0.333333  0.023898  1
  O  O24  1  0.185289  0.370579  0.554067  1
  O  O25  1  0.185289  0.814711  0.554067  1
  O  O26  1  0.629421  0.814711  0.554067  1
  O  O27  1  0.491194  0.982388  0.450318  1
  O  O28  1  0.491194  0.508806  0.450318  1
  O  O29  1  0.017612  0.508806  0.450318  1
  O  O30  1  0.481445  0.962891  0.053182  1
  O  O31  1  0.481445  0.518555  0.053182  1
  O  O32  1  0.037109  0.518555  0.053182  1
  O  O33  1  0.175522  0.351045  0.949413  1
  O  O34  1  0.175522  0.824478  0.949413  1
  O  O35  1  0.648955  0.824478  0.949413  1
  O  O36  1  0.000000  0.000000  0.437618  1
  O  O37  1  0.666667  0.333333  0.556772  1
  O  O38  1  0.666667  0.333333  0.936799  1
  O  O39  1  0.000000  0.000000  0.055903  1
  O  O40  1  0.827797  0.655596  0.647686  1
  O  O41  1  0.827797  0.172203  0.647686  1
  O  O42  1  0.344404  0.172203  0.647686  1
  O  O43  1  0.836677  0.673353  0.351297  1
  O  O44  1  0.836677  0.163323  0.351297  1
  O  O45  1  0.326647  0.163323  0.351297  1
  O  O46  1  0.838811  0.677621  0.147094  1
  O  O47  1  0.838811  0.161189  0.147094  1
  O  O48  1  0.322379  0.161189  0.147094  1
  O  O49  1  0.829985  0.659970  0.850724  1
  O  O50  1  0.829985  0.170015  0.850724  1
  O  O51  1  0.340030  0.170015  0.850724  1
  O  O52  1  0.333333  0.666667  0.647328  1
  O  O53  1  0.333333  0.666667  0.359216  1
  O  O54  1  0.333333  0.666667  0.146380  1
  O  O55  1  0.333333  0.666667  0.858218  1
  O  O56  1  0.000000  0.000000  0.748456  1
  O  O57  1  0.666667  0.333333  0.248486  1
