# generated using pymatgen
data_Ce4Si4Tc3Ir
_symmetry_space_group_name_H-M   'P 1'
_cell_length_a   7.43211796
_cell_length_b   4.43488400
_cell_length_c   6.71786298
_cell_angle_alpha   90.00000000
_cell_angle_beta   90.38805885
_cell_angle_gamma   90.00000000
_symmetry_Int_Tables_number   1
_chemical_formula_structural   Ce4Si4Tc3Ir
_chemical_formula_sum   'Ce4 Si4 Tc3 Ir1'
_cell_volume   221.41958826
_cell_formula_units_Z   1
loop_
 _symmetry_equiv_pos_site_id
 _symmetry_equiv_pos_as_xyz
  1  'x, y, z'
loop_
 _atom_site_type_symbol
 _atom_site_label
 _atom_site_symmetry_multiplicity
 _atom_site_fract_x
 _atom_site_fract_y
 _atom_site_fract_z
 _atom_site_occupancy
  Ce  Ce0  1  0.517624  0.750000  0.166374  1
  Ce  Ce1  1  0.025419  0.750000  0.337017  1
  Ce  Ce2  1  0.976871  0.249999  0.661982  1
  Ce  Ce3  1  0.478051  0.249999  0.835090  1
  Si  Si4  1  0.809868  0.249999  0.116104  1
  Si  Si5  1  0.309958  0.249999  0.389632  1
  Si  Si6  1  0.691676  0.750000  0.608542  1
  Si  Si7  1  0.189560  0.750000  0.887279  1
  Tc  Tc8  1  0.138101  0.249999  0.062980  1
  Tc  Tc9  1  0.642780  0.249999  0.435628  1
  Tc  Tc10  1  0.360738  0.750000  0.567476  1
  Ir  Ir11  1  0.859354  0.750000  0.931895  1
