# generated using pymatgen
data_Li2ErLu2Si3Ag
_symmetry_space_group_name_H-M   'P 1'
_cell_length_a   6.91304666
_cell_length_b   6.88222003
_cell_length_c   4.17671800
_cell_angle_alpha   90.00000000
_cell_angle_beta   90.00000000
_cell_angle_gamma   120.30005134
_symmetry_Int_Tables_number   1
_chemical_formula_structural   Li2ErLu2Si3Ag
_chemical_formula_sum   'Li2 Er1 Lu2 Si3 Ag1'
_cell_volume   171.57056203
_cell_formula_units_Z   1
loop_
 _symmetry_equiv_pos_site_id
 _symmetry_equiv_pos_as_xyz
  1  'x, y, z'
loop_
 _atom_site_type_symbol
 _atom_site_label
 _atom_site_symmetry_multiplicity
 _atom_site_fract_x
 _atom_site_fract_y
 _atom_site_fract_z
 _atom_site_occupancy
  Li  Li0  1  0.765481  0.769344  0.000000  1
  Li  Li1  1  0.233751  0.002871  0.000000  1
  Er  Er2  1  0.428187  0.427610  0.500000  1
  Lu  Lu3  1  0.574726  0.999958  0.500000  1
  Lu  Lu4  1  0.000650  0.570904  0.500000  1
  Si  Si5  1  0.666630  0.330828  0.000000  1
  Si  Si6  1  0.334475  0.669212  0.000000  1
  Si  Si7  1  0.995932  0.992362  0.500000  1
  Ag  Ag8  1  0.000168  0.236911  0.000000  1
