# generated using pymatgen
data_Rb2Al3GaAu6
_symmetry_space_group_name_H-M   'P 1'
_cell_length_a   5.61992665
_cell_length_b   7.19644278
_cell_length_c   13.54167800
_cell_angle_alpha   90.00000000
_cell_angle_beta   90.00000000
_cell_angle_gamma   89.94569165
_symmetry_Int_Tables_number   1
_chemical_formula_structural   Rb2Al3GaAu6
_chemical_formula_sum   'Rb4 Al6 Ga2 Au12'
_cell_volume   547.67234532
_cell_formula_units_Z   2
loop_
 _symmetry_equiv_pos_site_id
 _symmetry_equiv_pos_as_xyz
  1  'x, y, z'
loop_
 _atom_site_type_symbol
 _atom_site_label
 _atom_site_symmetry_multiplicity
 _atom_site_fract_x
 _atom_site_fract_y
 _atom_site_fract_z
 _atom_site_occupancy
  Rb  Rb0  1  0.248761  0.101958  0.072856  1
  Rb  Rb1  1  0.251239  0.398042  0.572856  1
  Rb  Rb2  1  0.750024  0.898185  0.927127  1
  Rb  Rb3  1  0.749976  0.601815  0.427127  1
  Al  Al4  1  0.999475  0.900584  0.657096  1
  Al  Al5  1  0.500525  0.599416  0.157096  1
  Al  Al6  1  0.499033  0.101278  0.343642  1
  Al  Al7  1  0.000967  0.398722  0.843642  1
  Al  Al8  1  0.001361  0.100962  0.343625  1
  Al  Al9  1  0.498639  0.399038  0.843625  1
  Ga  Ga10  1  0.501887  0.896042  0.655578  1
  Ga  Ga11  1  0.998113  0.603958  0.155578  1
  Au  Au12  1  0.248684  0.115070  0.786917  1
  Au  Au13  1  0.251316  0.384930  0.286917  1
  Au  Au14  1  0.745968  0.889818  0.215023  1
  Au  Au15  1  0.754032  0.610182  0.715023  1
  Au  Au16  1  0.246395  0.696681  0.788741  1
  Au  Au17  1  0.253605  0.803319  0.288741  1
  Au  Au18  1  0.747708  0.301226  0.212060  1
  Au  Au19  1  0.752292  0.198774  0.712060  1
  Au  Au20  1  0.255745  0.577496  0.993543  1
  Au  Au21  1  0.244255  0.922504  0.493543  1
  Au  Au22  1  0.749519  0.419701  0.003794  1
  Au  Au23  1  0.750481  0.080299  0.503794  1
