# generated using pymatgen
data_NaLa3(As3Rh4)2
_symmetry_space_group_name_H-M   'P 1'
_cell_length_a   4.10262100
_cell_length_b   11.67110100
_cell_length_c   13.35274200
_cell_angle_alpha   90.00000000
_cell_angle_beta   90.00000000
_cell_angle_gamma   90.00000000
_symmetry_Int_Tables_number   1
_chemical_formula_structural   NaLa3(As3Rh4)2
_chemical_formula_sum   'Na2 La6 As12 Rh16'
_cell_volume   639.35738187
_cell_formula_units_Z   2
loop_
 _symmetry_equiv_pos_site_id
 _symmetry_equiv_pos_as_xyz
  1  'x, y, z'
loop_
 _atom_site_type_symbol
 _atom_site_label
 _atom_site_symmetry_multiplicity
 _atom_site_fract_x
 _atom_site_fract_y
 _atom_site_fract_z
 _atom_site_occupancy
  Na  Na0  1  0.500000  0.500000  0.153495  1
  Na  Na1  1  0.000000  0.000000  0.846505  1
  La  La2  1  0.000000  0.500000  0.520466  1
  La  La3  1  0.500000  0.000000  0.479534  1
  La  La4  1  0.500000  0.820549  0.206985  1
  La  La5  1  0.500000  0.179451  0.206985  1
  La  La6  1  0.000000  0.679451  0.793015  1
  La  La7  1  0.000000  0.320549  0.793015  1
  As  As8  1  0.500000  0.500000  0.885163  1
  As  As9  1  0.000000  0.000000  0.114837  1
  As  As10  1  0.500000  0.500000  0.349854  1
  As  As11  1  0.000000  0.000000  0.650146  1
  As  As12  1  0.500000  0.311313  0.615420  1
  As  As13  1  0.500000  0.688687  0.615420  1
  As  As14  1  0.000000  0.188687  0.384580  1
  As  As15  1  0.000000  0.811313  0.384580  1
  As  As16  1  0.500000  0.841331  0.890943  1
  As  As17  1  0.500000  0.158669  0.890943  1
  As  As18  1  0.000000  0.658669  0.109057  1
  As  As19  1  0.000000  0.341331  0.109057  1
  Rh  Rh20  1  0.500000  0.500000  0.703319  1
  Rh  Rh21  1  0.000000  0.000000  0.296681  1
  Rh  Rh22  1  0.000000  0.500000  0.985502  1
  Rh  Rh23  1  0.500000  0.000000  0.014498  1
  Rh  Rh24  1  0.500000  0.331422  0.997435  1
  Rh  Rh25  1  0.500000  0.668578  0.997435  1
  Rh  Rh26  1  0.000000  0.168578  0.002565  1
  Rh  Rh27  1  0.000000  0.831422  0.002565  1
  Rh  Rh28  1  0.500000  0.294135  0.431276  1
  Rh  Rh29  1  0.500000  0.705865  0.431276  1
  Rh  Rh30  1  0.000000  0.205865  0.568724  1
  Rh  Rh31  1  0.000000  0.794135  0.568724  1
  Rh  Rh32  1  0.500000  0.876260  0.702744  1
  Rh  Rh33  1  0.500000  0.123740  0.702744  1
  Rh  Rh34  1  0.000000  0.623740  0.297256  1
  Rh  Rh35  1  0.000000  0.376260  0.297256  1
