# generated using pymatgen
data_LiTm16In3CoNi3
_symmetry_space_group_name_H-M   'P 1'
_cell_length_a   9.43338111
_cell_length_b   9.43299095
_cell_length_c   9.43336405
_cell_angle_alpha   59.73261384
_cell_angle_beta   59.73417010
_cell_angle_gamma   59.73244308
_symmetry_Int_Tables_number   1
_chemical_formula_structural   LiTm16In3CoNi3
_chemical_formula_sum   'Li1 Tm16 In3 Co1 Ni3'
_cell_volume   589.96700589
_cell_formula_units_Z   1
loop_
 _symmetry_equiv_pos_site_id
 _symmetry_equiv_pos_as_xyz
  1  'x, y, z'
loop_
 _atom_site_type_symbol
 _atom_site_label
 _atom_site_symmetry_multiplicity
 _atom_site_fract_x
 _atom_site_fract_y
 _atom_site_fract_z
 _atom_site_occupancy
  Li  Li0  1  0.571046  0.571047  0.571048  1
  Tm  Tm1  1  0.350394  0.350417  0.350387  1
  Tm  Tm2  1  0.344309  0.344335  0.960891  1
  Tm  Tm3  1  0.344325  0.960875  0.344322  1
  Tm  Tm4  1  0.960888  0.344338  0.344309  1
  Tm  Tm5  1  0.814928  0.189110  0.189113  1
  Tm  Tm6  1  0.186866  0.813117  0.813156  1
  Tm  Tm7  1  0.189109  0.814914  0.189111  1
  Tm  Tm8  1  0.813131  0.186867  0.813137  1
  Tm  Tm9  1  0.189111  0.189111  0.814933  1
  Tm  Tm10  1  0.813153  0.813119  0.186867  1
  Tm  Tm11  1  0.936350  0.562912  0.562916  1
  Tm  Tm12  1  0.563028  0.936156  0.936157  1
  Tm  Tm13  1  0.562914  0.936350  0.562913  1
  Tm  Tm14  1  0.936156  0.563027  0.936157  1
  Tm  Tm15  1  0.562914  0.562910  0.936353  1
  Tm  Tm16  1  0.936154  0.936155  0.563031  1
  In  In17  1  0.582658  0.582660  0.255228  1
  In  In18  1  0.582658  0.255227  0.582659  1
  In  In19  1  0.255224  0.582660  0.582661  1
  Co  Co20  1  0.142244  0.142240  0.142245  1
  Ni  Ni21  1  0.144749  0.144749  0.572945  1
  Ni  Ni22  1  0.144725  0.572979  0.144730  1
  Ni  Ni23  1  0.572971  0.144728  0.144736  1
