# generated using pymatgen
data_Sm4Tc3B16Mo
_symmetry_space_group_name_H-M   'P 1'
_cell_length_a   6.04412024
_cell_length_b   11.69970960
_cell_length_c   3.65819500
_cell_angle_alpha   90.00000000
_cell_angle_beta   90.00000000
_cell_angle_gamma   89.95528658
_symmetry_Int_Tables_number   1
_chemical_formula_structural   Sm4Tc3B16Mo
_chemical_formula_sum   'Sm4 Tc3 B16 Mo1'
_cell_volume   258.68717441
_cell_formula_units_Z   1
loop_
 _symmetry_equiv_pos_site_id
 _symmetry_equiv_pos_as_xyz
  1  'x, y, z'
loop_
 _atom_site_type_symbol
 _atom_site_label
 _atom_site_symmetry_multiplicity
 _atom_site_fract_x
 _atom_site_fract_y
 _atom_site_fract_z
 _atom_site_occupancy
  Sm  Sm0  1  0.625771  0.347981  0.000000  1
  Sm  Sm1  1  0.372861  0.652039  0.000000  1
  Sm  Sm2  1  0.126480  0.149209  0.000000  1
  Sm  Sm3  1  0.873383  0.851193  0.000000  1
  Tc  Tc4  1  0.633231  0.087405  0.000000  1
  Tc  Tc5  1  0.367442  0.913812  0.000000  1
  Tc  Tc6  1  0.128029  0.414990  0.000000  1
  B  B7  1  0.784075  0.183823  0.500000  1
  B  B8  1  0.216928  0.816667  0.500000  1
  B  B9  1  0.284276  0.315801  0.500000  1
  B  B10  1  0.713758  0.685448  0.500000  1
  B  B11  1  0.861244  0.031800  0.500000  1
  B  B12  1  0.139008  0.968603  0.500000  1
  B  B13  1  0.362292  0.466858  0.500000  1
  B  B14  1  0.635609  0.531421  0.500000  1
  B  B15  1  0.888368  0.452073  0.500000  1
  B  B16  1  0.114675  0.545353  0.500000  1
  B  B17  1  0.388059  0.046510  0.500000  1
  B  B18  1  0.612162  0.954155  0.500000  1
  B  B19  1  0.977804  0.308173  0.500000  1
  B  B20  1  0.024338  0.692013  0.500000  1
  B  B21  1  0.475969  0.190384  0.500000  1
  B  B22  1  0.523109  0.810069  0.500000  1
  Mo  Mo23  1  0.871128  0.584220  0.000000  1
