# generated using pymatgen
data_ErTm3(BeSi3)2
_symmetry_space_group_name_H-M   'P 1'
_cell_length_a   7.79421700
_cell_length_b   7.79467697
_cell_length_c   7.91817800
_cell_angle_alpha   90.00000000
_cell_angle_beta   90.00000000
_cell_angle_gamma   119.99943069
_symmetry_Int_Tables_number   1
_chemical_formula_structural   ErTm3(BeSi3)2
_chemical_formula_sum   'Er2 Tm6 Be4 Si12'
_cell_volume   416.60933631
_cell_formula_units_Z   2
loop_
 _symmetry_equiv_pos_site_id
 _symmetry_equiv_pos_as_xyz
  1  'x, y, z'
loop_
 _atom_site_type_symbol
 _atom_site_label
 _atom_site_symmetry_multiplicity
 _atom_site_fract_x
 _atom_site_fract_y
 _atom_site_fract_z
 _atom_site_occupancy
  Er  Er0  1  0.000037  0.000015  0.750000  1
  Er  Er1  1  0.999963  0.999985  0.250000  1
  Tm  Tm2  1  0.999515  0.499760  0.250000  1
  Tm  Tm3  1  0.500246  0.499761  0.250000  1
  Tm  Tm4  1  0.499757  0.999514  0.750000  1
  Tm  Tm5  1  0.000485  0.500240  0.750000  1
  Tm  Tm6  1  0.499754  0.500239  0.750000  1
  Tm  Tm7  1  0.500243  0.000486  0.250000  1
  Be  Be8  1  0.333326  0.666669  0.001925  1
  Be  Be9  1  0.666674  0.333331  0.998075  1
  Be  Be10  1  0.666674  0.333331  0.501925  1
  Be  Be11  1  0.333326  0.666669  0.498075  1
  Si  Si12  1  0.172781  0.827300  0.500120  1
  Si  Si13  1  0.172764  0.345494  0.500117  1
  Si  Si14  1  0.654540  0.827293  0.500127  1
  Si  Si15  1  0.345460  0.172707  0.000127  1
  Si  Si16  1  0.827236  0.654506  0.499883  1
  Si  Si17  1  0.827219  0.172700  0.000120  1
  Si  Si18  1  0.827236  0.654506  0.000117  1
  Si  Si19  1  0.172764  0.345494  0.999883  1
  Si  Si20  1  0.654540  0.827293  0.999873  1
  Si  Si21  1  0.345460  0.172707  0.499873  1
  Si  Si22  1  0.827219  0.172700  0.499880  1
  Si  Si23  1  0.172781  0.827300  0.999880  1
