# generated using pymatgen
data_Sc8Ti8Re4Si15Ge
_symmetry_space_group_name_H-M   'P 1'
_cell_length_a   6.77863609
_cell_length_b   6.76601680
_cell_length_c   12.45839363
_cell_angle_alpha   90.05558773
_cell_angle_beta   90.01835426
_cell_angle_gamma   90.00307513
_symmetry_Int_Tables_number   1
_chemical_formula_structural   Sc8Ti8Re4Si15Ge
_chemical_formula_sum   'Sc8 Ti8 Re4 Si15 Ge1'
_cell_volume   571.39602162
_cell_formula_units_Z   1
loop_
 _symmetry_equiv_pos_site_id
 _symmetry_equiv_pos_as_xyz
  1  'x, y, z'
loop_
 _atom_site_type_symbol
 _atom_site_label
 _atom_site_symmetry_multiplicity
 _atom_site_fract_x
 _atom_site_fract_y
 _atom_site_fract_z
 _atom_site_occupancy
  Sc  Sc0  1  0.000612  0.660872  0.029352  1
  Sc  Sc1  1  0.000021  0.336904  0.530670  1
  Sc  Sc2  1  0.340868  0.000512  0.470247  1
  Sc  Sc3  1  0.160646  0.500409  0.780070  1
  Sc  Sc4  1  0.837503  0.497880  0.277778  1
  Sc  Sc5  1  0.499786  0.160857  0.219910  1
  Sc  Sc6  1  0.500744  0.840246  0.720605  1
  Sc  Sc7  1  0.660723  0.000058  0.970301  1
  Ti  Ti8  1  0.996035  0.850217  0.627680  1
  Ti  Ti9  1  0.004634  0.150365  0.125523  1
  Ti  Ti10  1  0.847791  0.998945  0.373083  1
  Ti  Ti11  1  0.351520  0.503432  0.375821  1
  Ti  Ti12  1  0.650481  0.495347  0.875619  1
  Ti  Ti13  1  0.504785  0.348843  0.624899  1
  Ti  Ti14  1  0.495137  0.650708  0.123995  1
  Ti  Ti15  1  0.150480  0.004526  0.874084  1
  Re  Re16  1  0.666130  0.671337  0.500995  1
  Re  Re17  1  0.173491  0.829903  0.247105  1
  Re  Re18  1  0.327650  0.328073  0.000030  1
  Re  Re19  1  0.828377  0.171725  0.750410  1
  Si  Si20  1  0.636552  0.296709  0.429393  1
  Si  Si21  1  0.364499  0.703956  0.928728  1
  Si  Si22  1  0.204832  0.135718  0.679274  1
  Si  Si23  1  0.298331  0.635598  0.573594  1
  Si  Si24  1  0.703758  0.364076  0.070716  1
  Si  Si25  1  0.796302  0.863683  0.178589  1
  Si  Si26  1  0.136650  0.203624  0.320829  1
  Si  Si27  1  0.955298  0.298026  0.933716  1
  Si  Si28  1  0.702486  0.043819  0.566387  1
  Si  Si29  1  0.202019  0.455823  0.183622  1
  Si  Si30  1  0.798171  0.544724  0.683764  1
  Si  Si31  1  0.455316  0.202238  0.816748  1
  Si  Si32  1  0.544382  0.798108  0.316097  1
  Si  Si33  1  0.298526  0.956179  0.065478  1
  Si  Si34  1  0.863821  0.795777  0.821700  1
  Ge  Ge35  1  0.041645  0.700784  0.433187  1
