# generated using pymatgen
data_Ba8NaTa6O24
_symmetry_space_group_name_H-M   'P 1'
_cell_length_a   5.89346400
_cell_length_b   5.89346576
_cell_length_c   19.35443200
_cell_angle_alpha   90.00000000
_cell_angle_beta   90.00000000
_cell_angle_gamma   120.00000132
_symmetry_Int_Tables_number   1
_chemical_formula_structural   Ba8NaTa6O24
_chemical_formula_sum   'Ba8 Na1 Ta6 O24'
_cell_volume   582.17353153
_cell_formula_units_Z   1
loop_
 _symmetry_equiv_pos_site_id
 _symmetry_equiv_pos_as_xyz
  1  'x, y, z'
loop_
 _atom_site_type_symbol
 _atom_site_label
 _atom_site_symmetry_multiplicity
 _atom_site_fract_x
 _atom_site_fract_y
 _atom_site_fract_z
 _atom_site_occupancy
  Ba  Ba0  1  0.666667  0.333333  0.320363  1
  Ba  Ba1  1  0.666667  0.333333  0.940284  1
  Ba  Ba2  1  0.333333  0.666667  0.059716  1
  Ba  Ba3  1  0.333333  0.666667  0.679637  1
  Ba  Ba4  1  0.333333  0.666667  0.457900  1
  Ba  Ba5  1  0.666667  0.333333  0.542100  1
  Ba  Ba6  1  0.000000  0.000000  0.813927  1
  Ba  Ba7  1  0.000000  0.000000  0.186073  1
  Na  Na8  1  0.000000  0.000000  0.000000  1
  Ta  Ta9  1  0.000000  0.000000  0.383090  1
  Ta  Ta10  1  0.666667  0.333333  0.745552  1
  Ta  Ta11  1  0.000000  0.000000  0.616910  1
  Ta  Ta12  1  0.333333  0.666667  0.874046  1
  Ta  Ta13  1  0.333333  0.666667  0.254448  1
  Ta  Ta14  1  0.666667  0.333333  0.125954  1
  O  O15  1  0.168709  0.831291  0.309447  1
  O  O16  1  0.337416  0.168709  0.690553  1
  O  O17  1  0.162247  0.837753  0.571054  1
  O  O18  1  0.837753  0.162247  0.428946  1
  O  O19  1  0.497004  0.502996  0.192518  1
  O  O20  1  0.502996  0.497004  0.807482  1
  O  O21  1  0.502996  0.005993  0.807482  1
  O  O22  1  0.994007  0.497004  0.807482  1
  O  O23  1  0.005993  0.502996  0.192518  1
  O  O24  1  0.497004  0.994007  0.192518  1
  O  O25  1  0.176443  0.823557  0.927091  1
  O  O26  1  0.324494  0.162247  0.428946  1
  O  O27  1  0.675506  0.837753  0.571054  1
  O  O28  1  0.168709  0.337416  0.309447  1
  O  O29  1  0.837753  0.675506  0.428946  1
  O  O30  1  0.823557  0.647114  0.072909  1
  O  O31  1  0.831291  0.662584  0.690553  1
  O  O32  1  0.662584  0.831291  0.309447  1
  O  O33  1  0.352886  0.176443  0.072909  1
  O  O34  1  0.823557  0.176443  0.072909  1
  O  O35  1  0.162247  0.324494  0.571054  1
  O  O36  1  0.176443  0.352886  0.927091  1
  O  O37  1  0.647114  0.823557  0.927091  1
  O  O38  1  0.831291  0.168709  0.690553  1
