# generated using pymatgen
data_Sm2Eu2Si10NiPt5
_symmetry_space_group_name_H-M   'P 1'
_cell_length_a   8.25383677
_cell_length_b   8.26280169
_cell_length_c   8.26280184
_cell_angle_alpha   137.30932460
_cell_angle_beta   104.94943741
_cell_angle_gamma   90.41804584
_symmetry_Int_Tables_number   1
_chemical_formula_structural   Sm2Eu2Si10NiPt5
_chemical_formula_sum   'Sm2 Eu2 Si10 Ni1 Pt5'
_cell_volume   352.08666008
_cell_formula_units_Z   1
loop_
 _symmetry_equiv_pos_site_id
 _symmetry_equiv_pos_as_xyz
  1  'x, y, z'
loop_
 _atom_site_type_symbol
 _atom_site_label
 _atom_site_symmetry_multiplicity
 _atom_site_fract_x
 _atom_site_fract_y
 _atom_site_fract_z
 _atom_site_occupancy
  Sm  Sm0  1  0.104999  0.873639  0.235717  1
  Sm  Sm1  1  0.895001  0.130718  0.768640  1
  Eu  Eu2  1  0.636115  0.368108  0.263559  1
  Eu  Eu3  1  0.363885  0.627444  0.731993  1
  Si  Si4  1  0.000000  0.744510  0.744510  1
  Si  Si5  1  0.000000  0.255374  0.255374  1
  Si  Si6  1  0.274214  0.021677  0.749624  1
  Si  Si7  1  0.725786  0.475410  0.747463  1
  Si  Si8  1  0.726129  0.977969  0.250062  1
  Si  Si9  1  0.273871  0.523933  0.251840  1
  Si  Si10  1  0.752987  0.619275  0.157528  1
  Si  Si11  1  0.247013  0.404540  0.866288  1
  Si  Si12  1  0.458828  0.096495  0.339285  1
  Si  Si13  1  0.541172  0.880457  0.637668  1
  Ni  Ni14  1  0.500000  0.753845  0.253845  1
  Pt  Pt15  1  0.500000  0.246319  0.746319  1
  Pt  Pt16  1  0.023053  0.639484  0.385652  1
  Pt  Pt17  1  0.976947  0.362600  0.616432  1
  Pt  Pt18  1  0.245306  0.134216  0.109292  1
  Pt  Pt19  1  0.754694  0.863986  0.888910  1
