# generated using pymatgen
data_Pr2Nd2Al3(Ga5Ir2)3
_symmetry_space_group_name_H-M   'P 1'
_cell_length_a   7.64841209
_cell_length_b   7.65194623
_cell_length_c   9.61336400
_cell_angle_alpha   89.99859021
_cell_angle_beta   90.00002066
_cell_angle_gamma   119.57447819
_symmetry_Int_Tables_number   1
_chemical_formula_structural   Pr2Nd2Al3(Ga5Ir2)3
_chemical_formula_sum   'Pr2 Nd2 Al3 Ga15 Ir6'
_cell_volume   489.32281824
_cell_formula_units_Z   1
loop_
 _symmetry_equiv_pos_site_id
 _symmetry_equiv_pos_as_xyz
  1  'x, y, z'
loop_
 _atom_site_type_symbol
 _atom_site_label
 _atom_site_symmetry_multiplicity
 _atom_site_fract_x
 _atom_site_fract_y
 _atom_site_fract_z
 _atom_site_occupancy
  Pr  Pr0  1  0.999934  0.669970  0.250066  1
  Pr  Pr1  1  0.999874  0.330473  0.748998  1
  Nd  Nd2  1  0.670011  0.000155  0.250082  1
  Nd  Nd3  1  0.330441  0.999703  0.748983  1
  Al  Al4  1  0.663534  0.663752  0.454172  1
  Al  Al5  1  0.667629  0.667852  0.045666  1
  Al  Al6  1  0.332362  0.332146  0.952862  1
  Ga  Ga7  1  0.127160  0.127462  0.249484  1
  Ga  Ga8  1  0.873108  0.872825  0.749317  1
  Ga  Ga9  1  0.002248  0.335103  0.077763  1
  Ga  Ga10  1  0.998667  0.665491  0.921250  1
  Ga  Ga11  1  0.997679  0.665058  0.578144  1
  Ga  Ga12  1  0.336423  0.004370  0.420619  1
  Ga  Ga13  1  0.003997  0.335530  0.420327  1
  Ga  Ga14  1  0.664163  0.997308  0.577854  1
  Ga  Ga15  1  0.664594  0.998297  0.921537  1
  Ga  Ga16  1  0.335993  0.002616  0.077470  1
  Ga  Ga17  1  0.329760  0.329391  0.560384  1
  Ga  Ga18  1  0.348798  0.549423  0.249895  1
  Ga  Ga19  1  0.654551  0.451536  0.750207  1
  Ga  Ga20  1  0.548985  0.348135  0.249896  1
  Ga  Ga21  1  0.451952  0.655226  0.750206  1
  Ir  Ir22  1  0.668118  0.331848  0.999703  1
  Ir  Ir23  1  0.332125  0.668399  0.999708  1
  Ir  Ir24  1  0.331770  0.671474  0.499106  1
  Ir  Ir25  1  0.671199  0.331497  0.499089  1
  Ir  Ir26  1  0.999774  0.999772  0.999333  1
  Ir  Ir27  1  0.995150  0.995188  0.497877  1
