# generated using pymatgen
data_DyHoPt2F14
_symmetry_space_group_name_H-M   'P 1'
_cell_length_a   5.54427800
_cell_length_b   8.87212452
_cell_length_c   11.98218713
_cell_angle_alpha   62.48520495
_cell_angle_beta   90.00000000
_cell_angle_gamma   90.00000000
_symmetry_Int_Tables_number   1
_chemical_formula_structural   DyHoPt2F14
_chemical_formula_sum   'Dy2 Ho2 Pt4 F28'
_cell_volume   522.73219828
_cell_formula_units_Z   2
loop_
 _symmetry_equiv_pos_site_id
 _symmetry_equiv_pos_as_xyz
  1  'x, y, z'
loop_
 _atom_site_type_symbol
 _atom_site_label
 _atom_site_symmetry_multiplicity
 _atom_site_fract_x
 _atom_site_fract_y
 _atom_site_fract_z
 _atom_site_occupancy
  Dy  Dy0  1  0.760845  0.813534  0.764503  1
  Dy  Dy1  1  0.260845  0.186466  0.735497  1
  Ho  Ho2  1  0.238994  0.185739  0.235705  1
  Ho  Ho3  1  0.738994  0.814261  0.264295  1
  Pt  Pt4  1  0.758931  0.272070  0.957307  1
  Pt  Pt5  1  0.258931  0.727930  0.542693  1
  Pt  Pt6  1  0.241097  0.727415  0.043483  1
  Pt  Pt7  1  0.741097  0.272585  0.456517  1
  F  F8  1  0.436132  0.702718  0.915904  1
  F  F9  1  0.936132  0.297282  0.584096  1
  F  F10  1  0.563137  0.297074  0.084546  1
  F  F11  1  0.063137  0.702926  0.415454  1
  F  F12  1  0.439993  0.278001  0.542364  1
  F  F13  1  0.939993  0.721999  0.957636  1
  F  F14  1  0.560526  0.722393  0.456972  1
  F  F15  1  0.060526  0.277607  0.043028  1
  F  F16  1  0.774915  0.521285  0.858477  1
  F  F17  1  0.274915  0.478715  0.641523  1
  F  F18  1  0.225168  0.477849  0.141834  1
  F  F19  1  0.725168  0.522151  0.358166  1
  F  F20  1  0.754101  0.022831  0.050577  1
  F  F21  1  0.254101  0.977169  0.449423  1
  F  F22  1  0.245815  0.976612  0.949983  1
  F  F23  1  0.745815  0.023388  0.550017  1
  F  F24  1  0.966042  0.724858  0.636221  1
  F  F25  1  0.466042  0.275142  0.863779  1
  F  F26  1  0.034440  0.274875  0.363348  1
  F  F27  1  0.534440  0.725125  0.136652  1
  F  F28  1  0.050922  0.746065  0.175776  1
  F  F29  1  0.550922  0.253935  0.324224  1
  F  F30  1  0.948004  0.254145  0.824583  1
  F  F31  1  0.448004  0.745855  0.675417  1
  F  F32  1  0.416009  0.970288  0.232669  1
  F  F33  1  0.916009  0.029712  0.267331  1
  F  F34  1  0.584927  0.030209  0.767532  1
  F  F35  1  0.084927  0.969791  0.732468  1
