# generated using pymatgen
data_Tb3Ho3Al20(SiRu2)4
_symmetry_space_group_name_H-M   'P 1'
_cell_length_a   8.68936601
_cell_length_b   8.68871221
_cell_length_c   9.63376000
_cell_angle_alpha   90.00000000
_cell_angle_beta   90.00000000
_cell_angle_gamma   120.00873006
_symmetry_Int_Tables_number   1
_chemical_formula_structural   Tb3Ho3Al20(SiRu2)4
_chemical_formula_sum   'Tb3 Ho3 Al20 Si4 Ru8'
_cell_volume   629.84218677
_cell_formula_units_Z   1
loop_
 _symmetry_equiv_pos_site_id
 _symmetry_equiv_pos_as_xyz
  1  'x, y, z'
loop_
 _atom_site_type_symbol
 _atom_site_label
 _atom_site_symmetry_multiplicity
 _atom_site_fract_x
 _atom_site_fract_y
 _atom_site_fract_z
 _atom_site_occupancy
  Tb  Tb0  1  0.194705  0.389648  0.250000  1
  Tb  Tb1  1  0.805095  0.610158  0.750000  1
  Tb  Tb2  1  0.610295  0.805276  0.250000  1
  Ho  Ho3  1  0.390742  0.195246  0.750000  1
  Ho  Ho4  1  0.195233  0.804766  0.250000  1
  Ho  Ho5  1  0.804504  0.195279  0.750000  1
  Al  Al6  1  0.164893  0.329802  0.577320  1
  Al  Al7  1  0.835195  0.670109  0.422789  1
  Al  Al8  1  0.670120  0.835195  0.577246  1
  Al  Al9  1  0.835195  0.670109  0.077211  1
  Al  Al10  1  0.329907  0.164813  0.422935  1
  Al  Al11  1  0.164893  0.329802  0.922680  1
  Al  Al12  1  0.165084  0.835173  0.577096  1
  Al  Al13  1  0.329907  0.164813  0.077065  1
  Al  Al14  1  0.835008  0.164993  0.423023  1
  Al  Al15  1  0.670120  0.835195  0.922754  1
  Al  Al16  1  0.835008  0.164993  0.076977  1
  Al  Al17  1  0.165084  0.835173  0.922904  1
  Al  Al18  1  0.563330  0.127048  0.250000  1
  Al  Al19  1  0.436616  0.873253  0.750000  1
  Al  Al20  1  0.872943  0.436652  0.250000  1
  Al  Al21  1  0.127106  0.563365  0.750000  1
  Al  Al22  1  0.563708  0.436265  0.250000  1
  Al  Al23  1  0.436242  0.563364  0.750000  1
  Al  Al24  1  0.000199  0.999794  0.250000  1
  Al  Al25  1  0.000195  0.000401  0.750000  1
  Si  Si26  1  0.333100  0.666846  0.036745  1
  Si  Si27  1  0.666447  0.332930  0.962946  1
  Si  Si28  1  0.666447  0.332930  0.537054  1
  Si  Si29  1  0.333100  0.666846  0.463255  1
  Ru  Ru30  1  0.499907  0.000124  0.999848  1
  Ru  Ru31  1  0.999905  0.499952  0.999982  1
  Ru  Ru32  1  0.499907  0.000124  0.500152  1
  Ru  Ru33  1  0.499908  0.499778  0.999848  1
  Ru  Ru34  1  0.999905  0.499952  0.500018  1
  Ru  Ru35  1  0.499908  0.499778  0.500152  1
  Ru  Ru36  1  0.000068  0.000028  0.999963  1
  Ru  Ru37  1  0.000068  0.000028  0.500037  1
