# generated using pymatgen
data_Zr8Ti3Si16Ru9
_symmetry_space_group_name_H-M   'P 1'
_cell_length_a   10.06060368
_cell_length_b   10.06849827
_cell_length_c   13.49813500
_cell_angle_alpha   53.74916854
_cell_angle_beta   53.77063952
_cell_angle_gamma   30.77542958
_symmetry_Int_Tables_number   1
_chemical_formula_structural   Zr8Ti3Si16Ru9
_chemical_formula_sum   'Zr8 Ti3 Si16 Ru9'
_cell_volume   552.66850276
_cell_formula_units_Z   1
loop_
 _symmetry_equiv_pos_site_id
 _symmetry_equiv_pos_as_xyz
  1  'x, y, z'
loop_
 _atom_site_type_symbol
 _atom_site_label
 _atom_site_symmetry_multiplicity
 _atom_site_fract_x
 _atom_site_fract_y
 _atom_site_fract_z
 _atom_site_occupancy
  Zr  Zr0  1  0.037956  0.288385  0.637955  1
  Zr  Zr1  1  0.708345  0.962699  0.863391  1
  Zr  Zr2  1  0.963207  0.710196  0.360571  1
  Zr  Zr3  1  0.292055  0.035736  0.139341  1
  Zr  Zr4  1  0.299449  0.555940  0.647244  1
  Zr  Zr5  1  0.444896  0.703238  0.847186  1
  Zr  Zr6  1  0.707494  0.444264  0.342849  1
  Zr  Zr7  1  0.559522  0.289360  0.156585  1
  Ti  Ti8  1  0.495235  0.745875  0.560024  1
  Ti  Ti9  1  0.754129  0.491995  0.057417  1
  Ti  Ti10  1  0.505482  0.251706  0.442126  1
  Si  Si11  1  0.979234  0.245274  0.886677  1
  Si  Si12  1  0.752268  0.023313  0.613396  1
  Si  Si13  1  0.032113  0.743978  0.104877  1
  Si  Si14  1  0.247871  0.976686  0.388576  1
  Si  Si15  1  0.145857  0.391614  0.898233  1
  Si  Si16  1  0.608777  0.854453  0.604851  1
  Si  Si17  1  0.857633  0.617146  0.100669  1
  Si  Si18  1  0.389272  0.146005  0.396567  1
  Si  Si19  1  0.063542  0.588348  0.572417  1
  Si  Si20  1  0.410279  0.936067  0.929620  1
  Si  Si21  1  0.933176  0.411754  0.429488  1
  Si  Si22  1  0.569753  0.085908  0.070099  1
  Si  Si23  1  0.616510  0.380371  0.751458  1
  Si  Si24  1  0.370636  0.629239  0.250319  1
  Si  Si25  1  0.131219  0.865584  0.752480  1
  Si  Si26  1  0.878795  0.121071  0.250098  1
  Ru  Ru27  1  0.909255  0.134590  0.583448  1
  Ru  Ru28  1  0.859624  0.093909  0.918738  1
  Ru  Ru29  1  0.092857  0.861534  0.420858  1
  Ru  Ru30  1  0.140752  0.903892  0.079999  1
  Ru  Ru31  1  0.836301  0.637402  0.786627  1
  Ru  Ru32  1  0.362325  0.165267  0.715898  1
  Ru  Ru33  1  0.161760  0.363061  0.218400  1
  Ru  Ru34  1  0.635780  0.835611  0.285939  1
  Ru  Ru35  1  0.246639  0.508528  0.935582  1
