# generated using pymatgen
data_Ta8Nb4Ga8CoRu3C4
_symmetry_space_group_name_H-M   'P 1'
_cell_length_a   8.21334792
_cell_length_b   8.21724416
_cell_length_c   8.21334700
_cell_angle_alpha   60.01945065
_cell_angle_beta   60.01430452
_cell_angle_gamma   60.01944806
_symmetry_Int_Tables_number   1
_chemical_formula_structural   Ta8Nb4Ga8CoRu3C4
_chemical_formula_sum   'Ta8 Nb4 Ga8 Co1 Ru3 C4'
_cell_volume   392.12646139
_cell_formula_units_Z   1
loop_
 _symmetry_equiv_pos_site_id
 _symmetry_equiv_pos_as_xyz
  1  'x, y, z'
loop_
 _atom_site_type_symbol
 _atom_site_label
 _atom_site_symmetry_multiplicity
 _atom_site_fract_x
 _atom_site_fract_y
 _atom_site_fract_z
 _atom_site_occupancy
  Ta  Ta0  1  0.690403  0.307373  0.694994  1
  Ta  Ta1  1  0.942276  0.561094  0.556268  1
  Ta  Ta2  1  0.555471  0.943256  0.944152  1
  Ta  Ta3  1  0.942612  0.556067  0.943193  1
  Ta  Ta4  1  0.557999  0.557781  0.943301  1
  Ta  Ta5  1  0.942907  0.942748  0.553965  1
  Ta  Ta6  1  0.691829  0.692347  0.308116  1
  Ta  Ta7  1  0.309218  0.689064  0.693488  1
  Nb  Nb8  1  0.693545  0.307048  0.306874  1
  Nb  Nb9  1  0.307922  0.307153  0.695180  1
  Nb  Nb10  1  0.561199  0.942144  0.556225  1
  Nb  Nb11  1  0.307296  0.693773  0.306639  1
  Ga  Ga12  1  0.331535  0.330337  0.343234  1
  Ga  Ga13  1  0.254709  0.919434  0.906084  1
  Ga  Ga14  1  0.919346  0.254919  0.907362  1
  Ga  Ga15  1  0.913785  0.915199  0.255463  1
  Ga  Ga16  1  0.331461  0.994909  0.343613  1
  Ga  Ga17  1  0.334616  0.336000  0.993447  1
  Ga  Ga18  1  0.994421  0.331661  0.342338  1
  Ga  Ga19  1  0.919059  0.917749  0.906733  1
  Co  Co20  1  0.119781  0.125243  0.625168  1
  Ru  Ru21  1  0.125440  0.124612  0.125233  1
  Ru  Ru22  1  0.625117  0.124998  0.121291  1
  Ru  Ru23  1  0.124037  0.625037  0.123902  1
  C  C24  1  0.626251  0.623076  0.626185  1
  C  C25  1  0.123716  0.626425  0.626690  1
  C  C26  1  0.627269  0.124000  0.627316  1
  C  C27  1  0.626774  0.626556  0.123544  1
