# generated using pymatgen
data_Tb20Co4SnSb7
_symmetry_space_group_name_H-M   'P 1'
_cell_length_a   7.94044778
_cell_length_b   8.79649812
_cell_length_c   12.23436042
_cell_angle_alpha   90.04353622
_cell_angle_beta   89.96598903
_cell_angle_gamma   90.03799096
_symmetry_Int_Tables_number   1
_chemical_formula_structural   Tb20Co4SnSb7
_chemical_formula_sum   'Tb20 Co4 Sn1 Sb7'
_cell_volume   854.54666132
_cell_formula_units_Z   1
loop_
 _symmetry_equiv_pos_site_id
 _symmetry_equiv_pos_as_xyz
  1  'x, y, z'
loop_
 _atom_site_type_symbol
 _atom_site_label
 _atom_site_symmetry_multiplicity
 _atom_site_fract_x
 _atom_site_fract_y
 _atom_site_fract_z
 _atom_site_occupancy
  Tb  Tb0  1  0.154149  0.750652  0.203873  1
  Tb  Tb1  1  0.655718  0.249814  0.296014  1
  Tb  Tb2  1  0.845974  0.250215  0.797437  1
  Tb  Tb3  1  0.345564  0.750377  0.703075  1
  Tb  Tb4  1  0.454919  0.749804  0.997427  1
  Tb  Tb5  1  0.953846  0.249034  0.502168  1
  Tb  Tb6  1  0.543650  0.250271  0.002251  1
  Tb  Tb7  1  0.043970  0.751279  0.496893  1
  Tb  Tb8  1  0.623619  0.750513  0.305793  1
  Tb  Tb9  1  0.120378  0.249518  0.193993  1
  Tb  Tb10  1  0.378204  0.249785  0.694446  1
  Tb  Tb11  1  0.878473  0.750235  0.805924  1
  Tb  Tb12  1  0.821462  0.965103  0.066500  1
  Tb  Tb13  1  0.319293  0.034577  0.434783  1
  Tb  Tb14  1  0.178983  0.464841  0.934935  1
  Tb  Tb15  1  0.679171  0.534376  0.564871  1
  Tb  Tb16  1  0.179250  0.034348  0.934850  1
  Tb  Tb17  1  0.679663  0.963566  0.564058  1
  Tb  Tb18  1  0.820041  0.535589  0.064721  1
  Tb  Tb19  1  0.321399  0.465899  0.435423  1
  Co  Co20  1  0.434203  0.748813  0.490223  1
  Co  Co21  1  0.933575  0.250273  0.009491  1
  Co  Co22  1  0.566383  0.250617  0.510424  1
  Co  Co23  1  0.066942  0.749395  0.989678  1
  Sn  Sn24  1  0.926452  0.992565  0.327669  1
  Sb  Sb25  1  0.426673  0.007939  0.172467  1
  Sb  Sb26  1  0.073409  0.492195  0.672797  1
  Sb  Sb27  1  0.572949  0.507965  0.826907  1
  Sb  Sb28  1  0.073615  0.008317  0.673339  1
  Sb  Sb29  1  0.573088  0.992160  0.827333  1
  Sb  Sb30  1  0.927679  0.507537  0.327147  1
  Sb  Sb31  1  0.427305  0.492427  0.173090  1
