# generated using pymatgen
data_Sr4Li4YbHg4
_symmetry_space_group_name_H-M   'P 1'
_cell_length_a   9.36272953
_cell_length_b   9.36273042
_cell_length_c   9.36273014
_cell_angle_alpha   93.75872702
_cell_angle_beta   93.75873328
_cell_angle_gamma   150.32986552
_symmetry_Int_Tables_number   1
_chemical_formula_structural   Sr4Li4YbHg4
_chemical_formula_sum   'Sr4 Li4 Yb1 Hg4'
_cell_volume   392.73051326
_cell_formula_units_Z   1
loop_
 _symmetry_equiv_pos_site_id
 _symmetry_equiv_pos_as_xyz
  1  'x, y, z'
loop_
 _atom_site_type_symbol
 _atom_site_label
 _atom_site_symmetry_multiplicity
 _atom_site_fract_x
 _atom_site_fract_y
 _atom_site_fract_z
 _atom_site_occupancy
  Sr  Sr0  1  0.128402  0.793094  0.921496  1
  Sr  Sr1  1  0.206906  0.128402  0.335307  1
  Sr  Sr2  1  0.871598  0.206906  0.078504  1
  Sr  Sr3  1  0.793094  0.871598  0.664693  1
  Li  Li4  1  0.598439  0.073838  0.672276  1
  Li  Li5  1  0.926162  0.598439  0.524601  1
  Li  Li6  1  0.073838  0.401561  0.475399  1
  Li  Li7  1  0.401561  0.926162  0.327724  1
  Yb  Yb8  1  0.500000  0.500000  0.000000  1
  Hg  Hg9  1  0.445249  0.243424  0.688674  1
  Hg  Hg10  1  0.554751  0.756576  0.311326  1
  Hg  Hg11  1  0.243424  0.554751  0.798175  1
  Hg  Hg12  1  0.756576  0.445249  0.201825  1
