# generated using pymatgen
data_Ce2Pr2LuP12Ru19
_symmetry_space_group_name_H-M   'P 1'
_cell_length_a   12.60125803
_cell_length_b   12.60125722
_cell_length_c   4.00847900
_cell_angle_alpha   90.00000000
_cell_angle_beta   90.00000000
_cell_angle_gamma   119.95371312
_symmetry_Int_Tables_number   1
_chemical_formula_structural   Ce2Pr2LuP12Ru19
_chemical_formula_sum   'Ce2 Pr2 Lu1 P12 Ru19'
_cell_volume   551.49350118
_cell_formula_units_Z   1
loop_
 _symmetry_equiv_pos_site_id
 _symmetry_equiv_pos_as_xyz
  1  'x, y, z'
loop_
 _atom_site_type_symbol
 _atom_site_label
 _atom_site_symmetry_multiplicity
 _atom_site_fract_x
 _atom_site_fract_y
 _atom_site_fract_z
 _atom_site_occupancy
  Ce  Ce0  1  0.332849  0.666443  0.000000  1
  Ce  Ce1  1  0.666443  0.332849  0.000000  1
  Pr  Pr2  1  0.815021  0.000240  0.500000  1
  Pr  Pr3  1  0.000240  0.815021  0.500000  1
  Lu  Lu4  1  0.184363  0.184363  0.500000  1
  P  P5  1  0.814146  0.814146  0.000000  1
  P  P6  1  0.187624  0.002465  0.000000  1
  P  P7  1  0.002465  0.187624  0.000000  1
  P  P8  1  0.171600  0.475927  0.500000  1
  P  P9  1  0.523042  0.694764  0.500000  1
  P  P10  1  0.304120  0.829219  0.500000  1
  P  P11  1  0.694764  0.523042  0.500000  1
  P  P12  1  0.829219  0.304120  0.500000  1
  P  P13  1  0.475927  0.171600  0.500000  1
  P  P14  1  0.372142  0.372142  0.000000  1
  P  P15  1  0.625859  0.000039  0.000000  1
  P  P16  1  0.000039  0.625859  0.000000  1
  Ru  Ru17  1  0.552708  0.552708  0.000000  1
  Ru  Ru18  1  0.446071  0.001029  0.000000  1
  Ru  Ru19  1  0.001029  0.446071  0.000000  1
  Ru  Ru20  1  0.714350  0.714350  0.500000  1
  Ru  Ru21  1  0.284370  0.002187  0.500000  1
  Ru  Ru22  1  0.002187  0.284370  0.500000  1
  Ru  Ru23  1  0.185833  0.375933  0.000000  1
  Ru  Ru24  1  0.620037  0.804686  0.000000  1
  Ru  Ru25  1  0.195307  0.816309  0.000000  1
  Ru  Ru26  1  0.804686  0.620037  0.000000  1
  Ru  Ru27  1  0.816309  0.195307  0.000000  1
  Ru  Ru28  1  0.375933  0.185833  0.000000  1
  Ru  Ru29  1  0.366079  0.492380  0.500000  1
  Ru  Ru30  1  0.505464  0.873478  0.500000  1
  Ru  Ru31  1  0.126079  0.632563  0.500000  1
  Ru  Ru32  1  0.873478  0.505464  0.500000  1
  Ru  Ru33  1  0.632563  0.126079  0.500000  1
  Ru  Ru34  1  0.492380  0.366079  0.500000  1
  Ru  Ru35  1  0.005275  0.005275  0.000000  1
