# generated using pymatgen
data_Cs3Mn3(AsO4)4
_symmetry_space_group_name_H-M   'P 1'
_cell_length_a   5.28724576
_cell_length_b   7.28893205
_cell_length_c   12.05648436
_cell_angle_alpha   78.39319663
_cell_angle_beta   90.01613015
_cell_angle_gamma   82.50541544
_symmetry_Int_Tables_number   1
_chemical_formula_structural   Cs3Mn3(AsO4)4
_chemical_formula_sum   'Cs3 Mn3 As4 O16'
_cell_volume   451.07965877
_cell_formula_units_Z   1
loop_
 _symmetry_equiv_pos_site_id
 _symmetry_equiv_pos_as_xyz
  1  'x, y, z'
loop_
 _atom_site_type_symbol
 _atom_site_label
 _atom_site_symmetry_multiplicity
 _atom_site_fract_x
 _atom_site_fract_y
 _atom_site_fract_z
 _atom_site_occupancy
  Cs  Cs0  1  0.000000  0.000000  0.000000  1
  Cs  Cs1  1  0.129774  0.256638  0.478733  1
  Cs  Cs2  1  0.870226  0.743362  0.521267  1
  Mn  Mn3  1  0.500000  0.500000  0.000000  1
  Mn  Mn4  1  0.008302  0.446351  0.129486  1
  Mn  Mn5  1  0.991698  0.553649  0.870514  1
  As  As6  1  0.523576  0.136585  0.230303  1
  As  As7  1  0.514112  0.679845  0.238591  1
  As  As8  1  0.485888  0.320154  0.761408  1
  As  As9  1  0.476424  0.863415  0.769697  1
  O  O10  1  0.803948  0.612889  0.004000  1
  O  O11  1  0.679892  0.272655  0.123659  1
  O  O12  1  0.336276  0.619448  0.132630  1
  O  O13  1  0.537104  0.925179  0.171099  1
  O  O14  1  0.203551  0.226061  0.229563  1
  O  O15  1  0.823698  0.564690  0.245536  1
  O  O16  1  0.384131  0.663591  0.365223  1
  O  O17  1  0.653678  0.094589  0.360224  1
  O  O18  1  0.346321  0.905411  0.639776  1
  O  O19  1  0.615869  0.336410  0.634778  1
  O  O20  1  0.176302  0.435309  0.754464  1
  O  O21  1  0.796449  0.773938  0.770437  1
  O  O22  1  0.462895  0.074822  0.828901  1
  O  O23  1  0.663724  0.380551  0.867370  1
  O  O24  1  0.320108  0.727344  0.876341  1
  O  O25  1  0.196052  0.387112  0.996000  1
