# generated using pymatgen
data_NaCe3Er6(Sn3Au)2
_symmetry_space_group_name_H-M   'P 1'
_cell_length_a   9.28803500
_cell_length_b   9.28803452
_cell_length_c   6.51347000
_cell_angle_alpha   90.00000000
_cell_angle_beta   90.00000000
_cell_angle_gamma   119.99999813
_symmetry_Int_Tables_number   1
_chemical_formula_structural   NaCe3Er6(Sn3Au)2
_chemical_formula_sum   'Na1 Ce3 Er6 Sn6 Au2'
_cell_volume   486.62085936
_cell_formula_units_Z   1
loop_
 _symmetry_equiv_pos_site_id
 _symmetry_equiv_pos_as_xyz
  1  'x, y, z'
loop_
 _atom_site_type_symbol
 _atom_site_label
 _atom_site_symmetry_multiplicity
 _atom_site_fract_x
 _atom_site_fract_y
 _atom_site_fract_z
 _atom_site_occupancy
  Na  Na0  1  0.333333  0.666667  0.500000  1
  Ce  Ce1  1  0.666667  0.333333  0.500000  1
  Ce  Ce2  1  0.666667  0.333333  0.000000  1
  Ce  Ce3  1  0.333333  0.666667  0.000000  1
  Er  Er4  1  0.271218  0.000944  0.744375  1
  Er  Er5  1  0.729727  0.000944  0.255625  1
  Er  Er6  1  0.999056  0.270273  0.744375  1
  Er  Er7  1  0.999056  0.728782  0.255625  1
  Er  Er8  1  0.729727  0.728782  0.744375  1
  Er  Er9  1  0.271218  0.270273  0.255625  1
  Sn  Sn10  1  0.617968  0.998109  0.751937  1
  Sn  Sn11  1  0.380140  0.998109  0.248063  1
  Sn  Sn12  1  0.001891  0.619860  0.751937  1
  Sn  Sn13  1  0.001891  0.382032  0.248063  1
  Sn  Sn14  1  0.380140  0.382032  0.751937  1
  Sn  Sn15  1  0.617968  0.619860  0.248063  1
  Au  Au16  1  0.000000  0.000000  0.500000  1
  Au  Au17  1  0.000000  0.000000  0.000000  1
