# generated using pymatgen
data_Ca10CdSi4Ag
_symmetry_space_group_name_H-M   'P 1'
_cell_length_a   9.43453865
_cell_length_b   9.43453850
_cell_length_c   9.43453800
_cell_angle_alpha   131.55472894
_cell_angle_beta   131.55472003
_cell_angle_gamma   70.93320420
_symmetry_Int_Tables_number   1
_chemical_formula_structural   Ca10CdSi4Ag
_chemical_formula_sum   'Ca10 Cd1 Si4 Ag1'
_cell_volume   460.52828480
_cell_formula_units_Z   1
loop_
 _symmetry_equiv_pos_site_id
 _symmetry_equiv_pos_as_xyz
  1  'x, y, z'
loop_
 _atom_site_type_symbol
 _atom_site_label
 _atom_site_symmetry_multiplicity
 _atom_site_fract_x
 _atom_site_fract_y
 _atom_site_fract_z
 _atom_site_occupancy
  Ca  Ca0  1  0.534558  0.038422  0.848141  1
  Ca  Ca1  1  0.190279  0.686416  0.151859  1
  Ca  Ca2  1  0.038422  0.190279  0.503864  1
  Ca  Ca3  1  0.686416  0.534558  0.496136  1
  Ca  Ca4  1  0.461578  0.965442  0.151859  1
  Ca  Ca5  1  0.813584  0.309721  0.848141  1
  Ca  Ca6  1  0.965442  0.813584  0.503864  1
  Ca  Ca7  1  0.309721  0.461578  0.496136  1
  Ca  Ca8  1  0.502770  0.502770  0.000000  1
  Ca  Ca9  1  0.997230  0.997230  0.000000  1
  Cd  Cd10  1  0.750000  0.750000  0.000000  1
  Si  Si11  1  0.612232  0.887768  0.500000  1
  Si  Si12  1  0.387768  0.112232  0.500000  1
  Si  Si13  1  0.112232  0.612232  0.724466  1
  Si  Si14  1  0.887768  0.387768  0.275534  1
  Ag  Ag15  1  0.250000  0.250000  0.000000  1
