# generated using pymatgen
data_Dy6P12Ru17Rh
_symmetry_space_group_name_H-M   'P 1'
_cell_length_a   3.97469900
_cell_length_b   11.20796500
_cell_length_c   12.55356000
_cell_angle_alpha   90.00000000
_cell_angle_beta   90.00000000
_cell_angle_gamma   90.00000000
_symmetry_Int_Tables_number   1
_chemical_formula_structural   Dy6P12Ru17Rh
_chemical_formula_sum   'Dy6 P12 Ru17 Rh1'
_cell_volume   559.23959724
_cell_formula_units_Z   1
loop_
 _symmetry_equiv_pos_site_id
 _symmetry_equiv_pos_as_xyz
  1  'x, y, z'
loop_
 _atom_site_type_symbol
 _atom_site_label
 _atom_site_symmetry_multiplicity
 _atom_site_fract_x
 _atom_site_fract_y
 _atom_site_fract_z
 _atom_site_occupancy
  Dy  Dy0  1  0.000000  0.500000  0.526266  1
  Dy  Dy1  1  0.500000  0.000000  0.474920  1
  Dy  Dy2  1  0.500000  0.816696  0.204508  1
  Dy  Dy3  1  0.500000  0.183304  0.204508  1
  Dy  Dy4  1  0.000000  0.680761  0.794190  1
  Dy  Dy5  1  0.000000  0.319239  0.794190  1
  P  P6  1  0.500000  0.500000  0.879084  1
  P  P7  1  0.000000  0.000000  0.119185  1
  P  P8  1  0.500000  0.500000  0.339461  1
  P  P9  1  0.000000  0.000000  0.660792  1
  P  P10  1  0.500000  0.300935  0.617582  1
  P  P11  1  0.500000  0.699065  0.617582  1
  P  P12  1  0.000000  0.199056  0.383557  1
  P  P13  1  0.000000  0.800944  0.383557  1
  P  P14  1  0.500000  0.845600  0.895149  1
  P  P15  1  0.500000  0.154400  0.895149  1
  P  P16  1  0.000000  0.654107  0.104786  1
  P  P17  1  0.000000  0.345893  0.104786  1
  Ru  Ru18  1  0.500000  0.500000  0.155757  1
  Ru  Ru19  1  0.000000  0.000000  0.844540  1
  Ru  Ru20  1  0.500000  0.500000  0.690986  1
  Ru  Ru21  1  0.000000  0.500000  0.985185  1
  Ru  Ru22  1  0.500000  0.000000  0.014626  1
  Ru  Ru23  1  0.500000  0.331977  0.989813  1
  Ru  Ru24  1  0.500000  0.668023  0.989813  1
  Ru  Ru25  1  0.000000  0.168324  0.010240  1
  Ru  Ru26  1  0.000000  0.831676  0.010240  1
  Ru  Ru27  1  0.500000  0.301016  0.430856  1
  Ru  Ru28  1  0.500000  0.698984  0.430856  1
  Ru  Ru29  1  0.000000  0.197692  0.569981  1
  Ru  Ru30  1  0.000000  0.802308  0.569981  1
  Ru  Ru31  1  0.500000  0.878879  0.714174  1
  Ru  Ru32  1  0.500000  0.121121  0.714174  1
  Ru  Ru33  1  0.000000  0.621465  0.286131  1
  Ru  Ru34  1  0.000000  0.378535  0.286131  1
  Rh  Rh35  1  0.000000  0.000000  0.307261  1
