# generated using pymatgen
data_Dy12Co2Ni2BiRu
_symmetry_space_group_name_H-M   'P 1'
_cell_length_a   8.34526133
_cell_length_b   8.34526224
_cell_length_c   8.34526195
_cell_angle_alpha   111.21975125
_cell_angle_beta   109.90327942
_cell_angle_gamma   107.31475398
_symmetry_Int_Tables_number   1
_chemical_formula_structural   Dy12Co2Ni2BiRu
_chemical_formula_sum   'Dy12 Co2 Ni2 Bi1 Ru1'
_cell_volume   446.86755272
_cell_formula_units_Z   1
loop_
 _symmetry_equiv_pos_site_id
 _symmetry_equiv_pos_as_xyz
  1  'x, y, z'
loop_
 _atom_site_type_symbol
 _atom_site_label
 _atom_site_symmetry_multiplicity
 _atom_site_fract_x
 _atom_site_fract_y
 _atom_site_fract_z
 _atom_site_occupancy
  Dy  Dy0  1  0.818760  0.712006  0.530766  1
  Dy  Dy1  1  0.181240  0.287994  0.469234  1
  Dy  Dy2  1  0.181240  0.712006  0.893245  1
  Dy  Dy3  1  0.818760  0.287994  0.106755  1
  Dy  Dy4  1  0.687851  0.378576  0.690725  1
  Dy  Dy5  1  0.312149  0.621424  0.309275  1
  Dy  Dy6  1  0.687851  0.997126  0.309275  1
  Dy  Dy7  1  0.312149  0.002874  0.690725  1
  Dy  Dy8  1  0.594596  0.788018  0.806579  1
  Dy  Dy9  1  0.405404  0.211982  0.193421  1
  Dy  Dy10  1  0.981439  0.788018  0.193421  1
  Dy  Dy11  1  0.018561  0.211982  0.806579  1
  Co  Co12  1  0.112528  0.612528  0.500000  1
  Co  Co13  1  0.887472  0.387472  0.500000  1
  Ni  Ni14  1  0.631779  0.000000  0.631779  1
  Ni  Ni15  1  0.368221  0.000000  0.368221  1
  Bi  Bi16  1  0.500000  0.500000  0.000000  1
  Ru  Ru17  1  0.000000  0.000000  0.000000  1
