# generated using pymatgen
data_Hf18FeRe7WAu
_symmetry_space_group_name_H-M   'P 1'
_cell_length_a   8.52997601
_cell_length_b   8.65337561
_cell_length_c   8.65456005
_cell_angle_alpha   120.00110725
_cell_angle_beta   89.99732678
_cell_angle_gamma   90.00085665
_symmetry_Int_Tables_number   1
_chemical_formula_structural   Hf18FeRe7WAu
_chemical_formula_sum   'Hf18 Fe1 Re7 W1 Au1'
_cell_volume   553.22799127
_cell_formula_units_Z   1
loop_
 _symmetry_equiv_pos_site_id
 _symmetry_equiv_pos_as_xyz
  1  'x, y, z'
loop_
 _atom_site_type_symbol
 _atom_site_label
 _atom_site_symmetry_multiplicity
 _atom_site_fract_x
 _atom_site_fract_y
 _atom_site_fract_z
 _atom_site_occupancy
  Hf  Hf0  1  0.549596  0.807191  0.614340  1
  Hf  Hf1  1  0.549565  0.807147  0.192875  1
  Hf  Hf2  1  0.549535  0.385804  0.192880  1
  Hf  Hf3  1  0.441037  0.201903  0.403785  1
  Hf  Hf4  1  0.440942  0.201953  0.798057  1
  Hf  Hf5  1  0.440838  0.596105  0.798053  1
  Hf  Hf6  1  0.059824  0.200888  0.401752  1
  Hf  Hf7  1  0.059943  0.200923  0.799102  1
  Hf  Hf8  1  0.060064  0.598172  0.799097  1
  Hf  Hf9  1  0.949782  0.810199  0.620356  1
  Hf  Hf10  1  0.949780  0.810103  0.189931  1
  Hf  Hf11  1  0.949858  0.379825  0.189897  1
  Hf  Hf12  1  0.751058  0.457659  0.915219  1
  Hf  Hf13  1  0.751051  0.457693  0.542499  1
  Hf  Hf14  1  0.751038  0.084854  0.542480  1
  Hf  Hf15  1  0.248742  0.540802  0.081528  1
  Hf  Hf16  1  0.248743  0.540751  0.459331  1
  Hf  Hf17  1  0.248754  0.918746  0.459376  1
  Fe  Fe18  1  0.249010  0.332526  0.665931  1
  Re  Re19  1  0.748680  0.111657  0.223280  1
  Re  Re20  1  0.748704  0.111645  0.888414  1
  Re  Re21  1  0.748661  0.776808  0.888395  1
  Re  Re22  1  0.250710  0.889899  0.779961  1
  Re  Re23  1  0.250793  0.889926  0.109928  1
  Re  Re24  1  0.250665  0.220073  0.110063  1
  Re  Re25  1  0.998946  0.000075  0.000059  1
  W  W26  1  0.500808  0.999937  0.999982  1
  Au  Au27  1  0.752873  0.666733  0.333433  1
