# generated using pymatgen
data_Th4Mg2PdPt3
_symmetry_space_group_name_H-M   'P 1'
_cell_length_a   3.85737200
_cell_length_b   7.92661636
_cell_length_c   7.92661636
_cell_angle_alpha   89.83353272
_cell_angle_beta   90.00000000
_cell_angle_gamma   90.00000000
_symmetry_Int_Tables_number   1
_chemical_formula_structural   Th4Mg2PdPt3
_chemical_formula_sum   'Th4 Mg2 Pd1 Pt3'
_cell_volume   242.36246989
_cell_formula_units_Z   1
loop_
 _symmetry_equiv_pos_site_id
 _symmetry_equiv_pos_as_xyz
  1  'x, y, z'
loop_
 _atom_site_type_symbol
 _atom_site_label
 _atom_site_symmetry_multiplicity
 _atom_site_fract_x
 _atom_site_fract_y
 _atom_site_fract_z
 _atom_site_occupancy
  Th  Th0  1  0.500000  0.171899  0.674955  1
  Th  Th1  1  0.500000  0.825045  0.328101  1
  Th  Th2  1  0.500000  0.329577  0.170423  1
  Th  Th3  1  0.500000  0.672964  0.827036  1
  Mg  Mg4  1  0.000000  0.999938  0.999821  1
  Mg  Mg5  1  0.000000  0.500179  0.500062  1
  Pd  Pd6  1  0.000000  0.132404  0.367596  1
  Pt  Pt7  1  0.000000  0.632543  0.133136  1
  Pt  Pt8  1  0.000000  0.366864  0.867457  1
  Pt  Pt9  1  0.000000  0.868589  0.631411  1
