# generated using pymatgen
data_Th7ReNiOs
_symmetry_space_group_name_H-M   'P 1'
_cell_length_a   9.91077248
_cell_length_b   10.01505450
_cell_length_c   6.29158306
_cell_angle_alpha   89.92144360
_cell_angle_beta   90.15876032
_cell_angle_gamma   119.65615000
_symmetry_Int_Tables_number   1
_chemical_formula_structural   Th7ReNiOs
_chemical_formula_sum   'Th14 Re2 Ni2 Os2'
_cell_volume   542.68033946
_cell_formula_units_Z   2
loop_
 _symmetry_equiv_pos_site_id
 _symmetry_equiv_pos_as_xyz
  1  'x, y, z'
loop_
 _atom_site_type_symbol
 _atom_site_label
 _atom_site_symmetry_multiplicity
 _atom_site_fract_x
 _atom_site_fract_y
 _atom_site_fract_z
 _atom_site_occupancy
  Th  Th0  1  0.333043  0.668121  0.037802  1
  Th  Th1  1  0.664923  0.331879  0.537802  1
  Th  Th2  1  0.126871  0.875339  0.247225  1
  Th  Th3  1  0.251531  0.124661  0.747225  1
  Th  Th4  1  0.872673  0.742866  0.754449  1
  Th  Th5  1  0.129807  0.257134  0.254449  1
  Th  Th6  1  0.750977  0.874157  0.252603  1
  Th  Th7  1  0.876819  0.125843  0.752603  1
  Th  Th8  1  0.534520  0.454898  0.045689  1
  Th  Th9  1  0.079621  0.545102  0.545689  1
  Th  Th10  1  0.459222  0.918111  0.542401  1
  Th  Th11  1  0.541111  0.081889  0.042401  1
  Th  Th12  1  0.916670  0.452947  0.045426  1
  Th  Th13  1  0.463723  0.547053  0.545426  1
  Re  Re14  1  0.189250  0.375751  0.800940  1
  Re  Re15  1  0.813500  0.624249  0.300940  1
  Ni  Ni16  1  0.372465  0.181338  0.302088  1
  Ni  Ni17  1  0.191127  0.818662  0.802088  1
  Os  Os18  1  0.806235  0.180320  0.301378  1
  Os  Os19  1  0.625914  0.819680  0.801378  1
