# generated using pymatgen
data_Dy2PdN2
_symmetry_space_group_name_H-M   'P 1'
_cell_length_a   3.43130007
_cell_length_b   3.43132393
_cell_length_c   6.84688200
_cell_angle_alpha   104.49639710
_cell_angle_beta   104.51147105
_cell_angle_gamma   90.00000256
_symmetry_Int_Tables_number   1
_chemical_formula_structural   Dy2PdN2
_chemical_formula_sum   'Dy2 Pd1 N2'
_cell_volume   75.38871664
_cell_formula_units_Z   1
loop_
 _symmetry_equiv_pos_site_id
 _symmetry_equiv_pos_as_xyz
  1  'x, y, z'
loop_
 _atom_site_type_symbol
 _atom_site_label
 _atom_site_symmetry_multiplicity
 _atom_site_fract_x
 _atom_site_fract_y
 _atom_site_fract_z
 _atom_site_occupancy
  Dy  Dy0  1  0.155464  0.155536  0.810926  1
  Dy  Dy1  1  0.844536  0.844464  0.189074  1
  Pd  Pd2  1  0.500000  0.500000  0.500000  1
  N  N3  1  0.665372  0.665270  0.830746  1
  N  N4  1  0.334628  0.334730  0.169254  1
