# generated using pymatgen
data_Zr15Ta4Si16W
_symmetry_space_group_name_H-M   'P 1'
_cell_length_a   7.02340063
_cell_length_b   7.02715353
_cell_length_c   12.91235760
_cell_angle_alpha   90.37291056
_cell_angle_beta   90.27549058
_cell_angle_gamma   90.03251609
_symmetry_Int_Tables_number   1
_chemical_formula_structural   Zr15Ta4Si16W
_chemical_formula_sum   'Zr15 Ta4 Si16 W1'
_cell_volume   637.26216282
_cell_formula_units_Z   1
loop_
 _symmetry_equiv_pos_site_id
 _symmetry_equiv_pos_as_xyz
  1  'x, y, z'
loop_
 _atom_site_type_symbol
 _atom_site_label
 _atom_site_symmetry_multiplicity
 _atom_site_fract_x
 _atom_site_fract_y
 _atom_site_fract_z
 _atom_site_occupancy
  Zr  Zr0  1  0.854209  0.998424  0.373758  1
  Zr  Zr1  1  0.006671  0.147089  0.128087  1
  Zr  Zr2  1  0.998907  0.850356  0.624420  1
  Zr  Zr3  1  0.645922  0.497957  0.876317  1
  Zr  Zr4  1  0.499431  0.352498  0.623106  1
  Zr  Zr5  1  0.499597  0.644027  0.124099  1
  Zr  Zr6  1  0.146416  0.001998  0.873906  1
  Zr  Zr7  1  0.004157  0.650896  0.035293  1
  Zr  Zr8  1  0.001761  0.348723  0.530451  1
  Zr  Zr9  1  0.650707  0.998758  0.966699  1
  Zr  Zr10  1  0.150862  0.499702  0.783302  1
  Zr  Zr11  1  0.847717  0.499295  0.283967  1
  Zr  Zr12  1  0.502374  0.150743  0.219700  1
  Zr  Zr13  1  0.499102  0.846678  0.713380  1
  Zr  Zr14  1  0.346482  0.999977  0.466946  1
  Ta  Ta15  1  0.670662  0.672302  0.498195  1
  Ta  Ta16  1  0.823842  0.174343  0.749844  1
  Ta  Ta17  1  0.177229  0.825233  0.251406  1
  Ta  Ta18  1  0.326283  0.325035  0.001533  1
  Si  Si19  1  0.053327  0.698672  0.433807  1
  Si  Si20  1  0.952615  0.300954  0.936477  1
  Si  Si21  1  0.700605  0.049522  0.564009  1
  Si  Si22  1  0.202729  0.453417  0.189839  1
  Si  Si23  1  0.799717  0.547012  0.684874  1
  Si  Si24  1  0.451683  0.198659  0.814453  1
  Si  Si25  1  0.545373  0.795893  0.315131  1
  Si  Si26  1  0.301774  0.950811  0.065276  1
  Si  Si27  1  0.852182  0.797380  0.820102  1
  Si  Si28  1  0.148512  0.214202  0.325585  1
  Si  Si29  1  0.797575  0.854140  0.178704  1
  Si  Si30  1  0.297745  0.643814  0.566115  1
  Si  Si31  1  0.703560  0.350878  0.071991  1
  Si  Si32  1  0.635136  0.300520  0.425469  1
  Si  Si33  1  0.352450  0.701912  0.929712  1
  Si  Si34  1  0.199277  0.147511  0.678614  1
  W  W35  1  0.353409  0.510669  0.375432  1
