# generated using pymatgen
data_AcPr3(PPt3)8
_symmetry_space_group_name_H-M   'P 1'
_cell_length_a   8.57265421
_cell_length_b   8.57265443
_cell_length_c   8.57265400
_cell_angle_alpha   90.01280569
_cell_angle_beta   89.98719431
_cell_angle_gamma   89.98719718
_symmetry_Int_Tables_number   1
_chemical_formula_structural   AcPr3(PPt3)8
_chemical_formula_sum   'Ac1 Pr3 P8 Pt24'
_cell_volume   630.00774241
_cell_formula_units_Z   1
loop_
 _symmetry_equiv_pos_site_id
 _symmetry_equiv_pos_as_xyz
  1  'x, y, z'
loop_
 _atom_site_type_symbol
 _atom_site_label
 _atom_site_symmetry_multiplicity
 _atom_site_fract_x
 _atom_site_fract_y
 _atom_site_fract_z
 _atom_site_occupancy
  Ac  Ac0  1  0.500000  0.500000  0.000000  1
  Pr  Pr1  1  0.500000  0.000000  0.500000  1
  Pr  Pr2  1  0.000000  0.500000  0.500000  1
  Pr  Pr3  1  0.000000  0.000000  0.000000  1
  P  P4  1  0.805876  0.305439  0.195857  1
  P  P5  1  0.194620  0.805380  0.305380  1
  P  P6  1  0.694561  0.695857  0.694124  1
  P  P7  1  0.304143  0.194124  0.805439  1
  P  P8  1  0.194124  0.694561  0.804143  1
  P  P9  1  0.805380  0.194620  0.694620  1
  P  P10  1  0.305439  0.304143  0.305876  1
  P  P11  1  0.695857  0.805876  0.194561  1
  Pt  Pt12  1  0.422992  0.844849  0.160451  1
  Pt  Pt13  1  0.577071  0.340757  0.345040  1
  Pt  Pt14  1  0.077216  0.156379  0.658077  1
  Pt  Pt15  1  0.921549  0.657047  0.841754  1
  Pt  Pt16  1  0.154960  0.422929  0.840757  1
  Pt  Pt17  1  0.339549  0.577008  0.344849  1
  Pt  Pt18  1  0.658246  0.078451  0.157047  1
  Pt  Pt19  1  0.841923  0.922784  0.656379  1
  Pt  Pt20  1  0.843621  0.158077  0.422784  1
  Pt  Pt21  1  0.342953  0.341754  0.578451  1
  Pt  Pt22  1  0.155151  0.660451  0.077008  1
  Pt  Pt23  1  0.659243  0.845040  0.922929  1
  Pt  Pt24  1  0.577008  0.155151  0.839549  1
  Pt  Pt25  1  0.422929  0.659243  0.654960  1
  Pt  Pt26  1  0.922784  0.843621  0.341923  1
  Pt  Pt27  1  0.078451  0.342953  0.158246  1
  Pt  Pt28  1  0.845040  0.577071  0.159243  1
  Pt  Pt29  1  0.660451  0.422992  0.655151  1
  Pt  Pt30  1  0.341754  0.921549  0.842953  1
  Pt  Pt31  1  0.158077  0.077216  0.343621  1
  Pt  Pt32  1  0.156379  0.841923  0.577216  1
  Pt  Pt33  1  0.657047  0.658246  0.421549  1
  Pt  Pt34  1  0.844849  0.339549  0.922992  1
  Pt  Pt35  1  0.340757  0.154960  0.077071  1
