# generated using pymatgen
data_CaPr3ThCdPd4
_symmetry_space_group_name_H-M   'P 1'
_cell_length_a   8.10461004
_cell_length_b   8.14691552
_cell_length_c   3.90201400
_cell_angle_alpha   90.00000000
_cell_angle_beta   90.00000000
_cell_angle_gamma   91.13154438
_symmetry_Int_Tables_number   1
_chemical_formula_structural   CaPr3ThCdPd4
_chemical_formula_sum   'Ca1 Pr3 Th1 Cd1 Pd4'
_cell_volume   257.59027341
_cell_formula_units_Z   1
loop_
 _symmetry_equiv_pos_site_id
 _symmetry_equiv_pos_as_xyz
  1  'x, y, z'
loop_
 _atom_site_type_symbol
 _atom_site_label
 _atom_site_symmetry_multiplicity
 _atom_site_fract_x
 _atom_site_fract_y
 _atom_site_fract_z
 _atom_site_occupancy
  Ca  Ca0  1  0.995582  0.002334  0.000000  1
  Pr  Pr1  1  0.816114  0.645927  0.500000  1
  Pr  Pr2  1  0.187319  0.352325  0.500000  1
  Pr  Pr3  1  0.645838  0.190326  0.500000  1
  Th  Th4  1  0.353510  0.815588  0.500000  1
  Cd  Cd5  1  0.501678  0.499867  0.000000  1
  Pd  Pd6  1  0.359612  0.111548  0.000000  1
  Pd  Pd7  1  0.879840  0.368583  0.000000  1
  Pd  Pd8  1  0.137454  0.645018  0.000000  1
  Pd  Pd9  1  0.623052  0.868482  0.000000  1
