# generated using pymatgen
data_Dy8Er5Tm7(CoBi2)4
_symmetry_space_group_name_H-M   'P 1'
_cell_length_a   7.91775243
_cell_length_b   8.87689143
_cell_length_c   12.35993511
_cell_angle_alpha   89.98729121
_cell_angle_beta   90.01110760
_cell_angle_gamma   90.01465892
_symmetry_Int_Tables_number   1
_chemical_formula_structural   Dy8Er5Tm7(CoBi2)4
_chemical_formula_sum   'Dy8 Er5 Tm7 Co4 Bi8'
_cell_volume   868.71832796
_cell_formula_units_Z   1
loop_
 _symmetry_equiv_pos_site_id
 _symmetry_equiv_pos_as_xyz
  1  'x, y, z'
loop_
 _atom_site_type_symbol
 _atom_site_label
 _atom_site_symmetry_multiplicity
 _atom_site_fract_x
 _atom_site_fract_y
 _atom_site_fract_z
 _atom_site_occupancy
  Dy  Dy0  1  0.653003  0.749892  0.699254  1
  Dy  Dy1  1  0.347013  0.250087  0.300580  1
  Dy  Dy2  1  0.152930  0.249953  0.800702  1
  Dy  Dy3  1  0.847078  0.750082  0.199308  1
  Dy  Dy4  1  0.120839  0.750241  0.812547  1
  Dy  Dy5  1  0.879400  0.249864  0.187651  1
  Dy  Dy6  1  0.621146  0.250279  0.687785  1
  Dy  Dy7  1  0.379740  0.749670  0.312238  1
  Er  Er8  1  0.552749  0.749990  0.996862  1
  Er  Er9  1  0.447032  0.249998  0.003184  1
  Er  Er10  1  0.051731  0.250337  0.503061  1
  Er  Er11  1  0.946721  0.749770  0.496845  1
  Er  Er12  1  0.324737  0.963127  0.562795  1
  Tm  Tm13  1  0.826505  0.463481  0.937143  1
  Tm  Tm14  1  0.173644  0.536652  0.063021  1
  Tm  Tm15  1  0.326385  0.536676  0.562816  1
  Tm  Tm16  1  0.173662  0.963348  0.063028  1
  Tm  Tm17  1  0.673689  0.463193  0.436866  1
  Tm  Tm18  1  0.826441  0.036523  0.937152  1
  Tm  Tm19  1  0.673657  0.036605  0.436999  1
  Co  Co20  1  0.937373  0.750029  0.992576  1
  Co  Co21  1  0.062777  0.249975  0.007555  1
  Co  Co22  1  0.437499  0.250214  0.507545  1
  Co  Co23  1  0.563501  0.749673  0.492193  1
  Bi  Bi24  1  0.931755  0.007421  0.672015  1
  Bi  Bi25  1  0.068032  0.992581  0.328301  1
  Bi  Bi26  1  0.432564  0.992798  0.828164  1
  Bi  Bi27  1  0.067820  0.507415  0.328070  1
  Bi  Bi28  1  0.567731  0.007388  0.171826  1
  Bi  Bi29  1  0.932568  0.492857  0.672075  1
  Bi  Bi30  1  0.567943  0.492558  0.171722  1
  Bi  Bi31  1  0.432331  0.507317  0.828123  1
