# generated using pymatgen
data_YbZnInCu3
_symmetry_space_group_name_H-M   'P 1'
_cell_length_a   5.09562904
_cell_length_b   5.09562879
_cell_length_c   5.09563009
_cell_angle_alpha   60.58307176
_cell_angle_beta   60.58307659
_cell_angle_gamma   60.58307465
_symmetry_Int_Tables_number   1
_chemical_formula_structural   YbZnInCu3
_chemical_formula_sum   'Yb1 Zn1 In1 Cu3'
_cell_volume   94.78964778
_cell_formula_units_Z   1
loop_
 _symmetry_equiv_pos_site_id
 _symmetry_equiv_pos_as_xyz
  1  'x, y, z'
loop_
 _atom_site_type_symbol
 _atom_site_label
 _atom_site_symmetry_multiplicity
 _atom_site_fract_x
 _atom_site_fract_y
 _atom_site_fract_z
 _atom_site_occupancy
  Yb  Yb0  1  0.751129  0.751129  0.751129  1
  Zn  Zn1  1  0.374746  0.374746  0.374746  1
  In  In2  1  0.000362  0.000362  0.000362  1
  Cu  Cu3  1  0.373671  0.876422  0.373671  1
  Cu  Cu4  1  0.373671  0.373671  0.876422  1
  Cu  Cu5  1  0.876422  0.373671  0.373671  1
