# generated using pymatgen
data_Ho7Er5Tm4(Ga3Co)2
_symmetry_space_group_name_H-M   'P 1'
_cell_length_a   9.92593701
_cell_length_b   9.92585016
_cell_length_c   6.89744800
_cell_angle_alpha   89.99973616
_cell_angle_beta   90.00007391
_cell_angle_gamma   119.98943423
_symmetry_Int_Tables_number   1
_chemical_formula_structural   Ho7Er5Tm4(Ga3Co)2
_chemical_formula_sum   'Ho7 Er5 Tm4 Ga6 Co2'
_cell_volume   588.57867718
_cell_formula_units_Z   1
loop_
 _symmetry_equiv_pos_site_id
 _symmetry_equiv_pos_as_xyz
  1  'x, y, z'
loop_
 _atom_site_type_symbol
 _atom_site_label
 _atom_site_symmetry_multiplicity
 _atom_site_fract_x
 _atom_site_fract_y
 _atom_site_fract_z
 _atom_site_occupancy
  Ho  Ho0  1  0.072622  0.536090  0.208097  1
  Ho  Ho1  1  0.463913  0.927382  0.208089  1
  Ho  Ho2  1  0.536065  0.463964  0.707345  1
  Ho  Ho3  1  0.927702  0.463635  0.707688  1
  Ho  Ho4  1  0.536344  0.072282  0.707713  1
  Ho  Ho5  1  0.999916  0.000092  0.231612  1
  Ho  Ho6  1  0.999873  0.000123  0.730566  1
  Er  Er7  1  0.346287  0.173370  0.010815  1
  Er  Er8  1  0.826634  0.653699  0.010835  1
  Er  Er9  1  0.333449  0.666545  0.827276  1
  Er  Er10  1  0.666689  0.333306  0.327630  1
  Er  Er11  1  0.463443  0.536517  0.208145  1
  Tm  Tm12  1  0.173244  0.826776  0.510585  1
  Tm  Tm13  1  0.653457  0.826618  0.510494  1
  Tm  Tm14  1  0.173389  0.346541  0.510483  1
  Tm  Tm15  1  0.826782  0.173219  0.010696  1
  Ga  Ga16  1  0.163537  0.836468  0.959001  1
  Ga  Ga17  1  0.672981  0.836807  0.959307  1
  Ga  Ga18  1  0.163188  0.327008  0.959286  1
  Ga  Ga19  1  0.836819  0.163194  0.459387  1
  Ga  Ga20  1  0.326517  0.163266  0.459852  1
  Ga  Ga21  1  0.836750  0.673498  0.459900  1
  Co  Co22  1  0.333552  0.666461  0.444681  1
  Co  Co23  1  0.666848  0.333140  0.944557  1
