# generated using pymatgen
data_LuZr2ScIr2
_symmetry_space_group_name_H-M   'P 1'
_cell_length_a   4.51548800
_cell_length_b   6.95995700
_cell_length_c   8.25591500
_cell_angle_alpha   90.00000000
_cell_angle_beta   90.00000000
_cell_angle_gamma   90.00000000
_symmetry_Int_Tables_number   1
_chemical_formula_structural   LuZr2ScIr2
_chemical_formula_sum   'Lu2 Zr4 Sc2 Ir4'
_cell_volume   259.46361336
_cell_formula_units_Z   2
loop_
 _symmetry_equiv_pos_site_id
 _symmetry_equiv_pos_as_xyz
  1  'x, y, z'
loop_
 _atom_site_type_symbol
 _atom_site_label
 _atom_site_symmetry_multiplicity
 _atom_site_fract_x
 _atom_site_fract_y
 _atom_site_fract_z
 _atom_site_occupancy
  Lu  Lu0  1  0.250000  0.988422  0.325810  1
  Lu  Lu1  1  0.250000  0.488422  0.174190  1
  Zr  Zr2  1  0.250000  0.353107  0.583836  1
  Zr  Zr3  1  0.250000  0.853107  0.916164  1
  Zr  Zr4  1  0.750000  0.645012  0.428668  1
  Zr  Zr5  1  0.750000  0.145012  0.071332  1
  Sc  Sc6  1  0.750000  0.015702  0.673151  1
  Sc  Sc7  1  0.750000  0.515702  0.826849  1
  Ir  Ir8  1  0.250000  0.240507  0.906342  1
  Ir  Ir9  1  0.250000  0.740507  0.593658  1
  Ir  Ir10  1  0.750000  0.757248  0.088358  1
  Ir  Ir11  1  0.750000  0.257248  0.411642  1
