# generated using pymatgen
data_Sm8Lu11Si16Pd
_symmetry_space_group_name_H-M   'P 1'
_cell_length_a   7.28278700
_cell_length_b   7.65710806
_cell_length_c   14.49038500
_cell_angle_alpha   90.00000000
_cell_angle_beta   90.00000000
_cell_angle_gamma   89.94874355
_symmetry_Int_Tables_number   1
_chemical_formula_structural   Sm8Lu11Si16Pd
_chemical_formula_sum   'Sm8 Lu11 Si16 Pd1'
_cell_volume   808.05725780
_cell_formula_units_Z   1
loop_
 _symmetry_equiv_pos_site_id
 _symmetry_equiv_pos_as_xyz
  1  'x, y, z'
loop_
 _atom_site_type_symbol
 _atom_site_label
 _atom_site_symmetry_multiplicity
 _atom_site_fract_x
 _atom_site_fract_y
 _atom_site_fract_z
 _atom_site_occupancy
  Sm  Sm0  1  0.016629  0.176921  0.096409  1
  Sm  Sm1  1  0.985056  0.808983  0.898574  1
  Sm  Sm2  1  0.475383  0.673273  0.898727  1
  Sm  Sm3  1  0.985056  0.808983  0.601426  1
  Sm  Sm4  1  0.516038  0.323293  0.096301  1
  Sm  Sm5  1  0.016629  0.176921  0.403591  1
  Sm  Sm6  1  0.516038  0.323293  0.403699  1
  Sm  Sm7  1  0.475383  0.673273  0.601273  1
  Lu  Lu8  1  0.841929  0.491664  0.250000  1
  Lu  Lu9  1  0.344908  0.009697  0.250000  1
  Lu  Lu10  1  0.651360  0.993492  0.750000  1
  Lu  Lu11  1  0.318168  0.185866  0.627174  1
  Lu  Lu12  1  0.676735  0.823129  0.377022  1
  Lu  Lu13  1  0.176090  0.680092  0.375444  1
  Lu  Lu14  1  0.676735  0.823129  0.122978  1
  Lu  Lu15  1  0.836256  0.328472  0.627397  1
  Lu  Lu16  1  0.318168  0.185866  0.872826  1
  Lu  Lu17  1  0.836256  0.328472  0.872603  1
  Lu  Lu18  1  0.176090  0.680092  0.124556  1
  Si  Si19  1  0.023966  0.091077  0.750000  1
  Si  Si20  1  0.972765  0.891025  0.250000  1
  Si  Si21  1  0.471024  0.615804  0.250000  1
  Si  Si22  1  0.529720  0.391188  0.750000  1
  Si  Si23  1  0.276425  0.876594  0.750000  1
  Si  Si24  1  0.720890  0.125760  0.250000  1
  Si  Si25  1  0.220460  0.375104  0.250000  1
  Si  Si26  1  0.775717  0.624701  0.750000  1
  Si  Si27  1  0.156490  0.462846  0.532608  1
  Si  Si28  1  0.849717  0.531528  0.461049  1
  Si  Si29  1  0.350236  0.968275  0.463962  1
  Si  Si30  1  0.849717  0.531528  0.038951  1
  Si  Si31  1  0.652482  0.032044  0.541285  1
  Si  Si32  1  0.156490  0.462846  0.967392  1
  Si  Si33  1  0.652482  0.032044  0.958715  1
  Si  Si34  1  0.350236  0.968275  0.036038  1
  Pd  Pd35  1  0.152276  0.524449  0.750000  1
