# generated using pymatgen
data_NdTh2In5
_symmetry_space_group_name_H-M   'P 1'
_cell_length_a   6.62967429
_cell_length_b   6.62967430
_cell_length_c   10.41363100
_cell_angle_alpha   90.00000000
_cell_angle_beta   90.00000000
_cell_angle_gamma   102.45697586
_symmetry_Int_Tables_number   1
_chemical_formula_structural   NdTh2In5
_chemical_formula_sum   'Nd2 Th4 In10'
_cell_volume   446.93076786
_cell_formula_units_Z   2
loop_
 _symmetry_equiv_pos_site_id
 _symmetry_equiv_pos_as_xyz
  1  'x, y, z'
loop_
 _atom_site_type_symbol
 _atom_site_label
 _atom_site_symmetry_multiplicity
 _atom_site_fract_x
 _atom_site_fract_y
 _atom_site_fract_z
 _atom_site_occupancy
  Nd  Nd0  1  0.631438  0.631438  0.250000  1
  Nd  Nd1  1  0.368562  0.368562  0.750000  1
  Th  Th2  1  0.205822  0.794178  0.500000  1
  Th  Th3  1  0.205822  0.794178  0.000000  1
  Th  Th4  1  0.794178  0.205822  0.500000  1
  Th  Th5  1  0.794178  0.205822  0.000000  1
  In  In6  1  0.013921  0.013921  0.250000  1
  In  In7  1  0.986079  0.986079  0.750000  1
  In  In8  1  0.308768  0.308768  0.048170  1
  In  In9  1  0.691232  0.691232  0.951830  1
  In  In10  1  0.308768  0.308768  0.451830  1
  In  In11  1  0.691232  0.691232  0.548170  1
  In  In12  1  0.494304  0.071563  0.250000  1
  In  In13  1  0.928437  0.505696  0.750000  1
  In  In14  1  0.505696  0.928437  0.750000  1
  In  In15  1  0.071563  0.494304  0.250000  1
