# generated using pymatgen
data_K8Ti6HCl20
_symmetry_space_group_name_H-M   'P 1'
_cell_length_a   10.71259799
_cell_length_b   10.71259839
_cell_length_c   10.71259900
_cell_angle_alpha   60.00000120
_cell_angle_beta   59.99999998
_cell_angle_gamma   59.99999943
_symmetry_Int_Tables_number   1
_chemical_formula_structural   K8Ti6HCl20
_chemical_formula_sum   'K8 Ti6 H1 Cl20'
_cell_volume   869.29960834
_cell_formula_units_Z   1
loop_
 _symmetry_equiv_pos_site_id
 _symmetry_equiv_pos_as_xyz
  1  'x, y, z'
loop_
 _atom_site_type_symbol
 _atom_site_label
 _atom_site_symmetry_multiplicity
 _atom_site_fract_x
 _atom_site_fract_y
 _atom_site_fract_z
 _atom_site_occupancy
  K  K0  1  0.081710  0.639430  0.639430  1
  K  K1  1  0.639430  0.081710  0.639430  1
  K  K2  1  0.639430  0.639430  0.081710  1
  K  K3  1  0.639430  0.639430  0.639430  1
  K  K4  1  0.360570  0.918290  0.360570  1
  K  K5  1  0.918290  0.360570  0.360570  1
  K  K6  1  0.360570  0.360570  0.918290  1
  K  K7  1  0.360570  0.360570  0.360570  1
  Ti  Ti8  1  0.860627  0.860627  0.139373  1
  Ti  Ti9  1  0.860627  0.139373  0.860627  1
  Ti  Ti10  1  0.139373  0.139373  0.860627  1
  Ti  Ti11  1  0.139373  0.860627  0.139373  1
  Ti  Ti12  1  0.139373  0.860627  0.860627  1
  Ti  Ti13  1  0.860627  0.139373  0.139373  1
  H  H14  1  0.000000  0.000000  0.000000  1
  Cl  Cl15  1  0.681208  0.318792  0.000000  1
  Cl  Cl16  1  0.000000  0.681208  0.000000  1
  Cl  Cl17  1  0.000000  0.000000  0.681208  1
  Cl  Cl18  1  0.681208  0.000000  0.318792  1
  Cl  Cl19  1  0.318792  0.681208  0.000000  1
  Cl  Cl20  1  0.318792  0.000000  0.681208  1
  Cl  Cl21  1  0.000000  0.000000  0.318792  1
  Cl  Cl22  1  0.000000  0.318792  0.000000  1
  Cl  Cl23  1  0.000000  0.681208  0.318792  1
  Cl  Cl24  1  0.681208  0.000000  0.000000  1
  Cl  Cl25  1  0.000000  0.318792  0.681208  1
  Cl  Cl26  1  0.318792  0.000000  0.000000  1
  Cl  Cl27  1  0.690090  0.690090  0.309910  1
  Cl  Cl28  1  0.690090  0.309910  0.690090  1
  Cl  Cl29  1  0.309910  0.309910  0.690090  1
  Cl  Cl30  1  0.309910  0.690090  0.309910  1
  Cl  Cl31  1  0.309910  0.690090  0.690090  1
  Cl  Cl32  1  0.690090  0.309910  0.309910  1
  Cl  Cl33  1  0.750000  0.750000  0.750000  1
  Cl  Cl34  1  0.250000  0.250000  0.250000  1
