# generated using pymatgen
data_Hf3Ga3Os2Au
_symmetry_space_group_name_H-M   'P 1'
_cell_length_a   7.43448900
_cell_length_b   7.43448846
_cell_length_c   3.28672500
_cell_angle_alpha   90.00000000
_cell_angle_beta   90.00000000
_cell_angle_gamma   119.99999797
_symmetry_Int_Tables_number   1
_chemical_formula_structural   Hf3Ga3Os2Au
_chemical_formula_sum   'Hf3 Ga3 Os2 Au1'
_cell_volume   157.32445050
_cell_formula_units_Z   1
loop_
 _symmetry_equiv_pos_site_id
 _symmetry_equiv_pos_as_xyz
  1  'x, y, z'
loop_
 _atom_site_type_symbol
 _atom_site_label
 _atom_site_symmetry_multiplicity
 _atom_site_fract_x
 _atom_site_fract_y
 _atom_site_fract_z
 _atom_site_occupancy
  Hf  Hf0  1  0.392302  0.019825  0.500000  1
  Hf  Hf1  1  0.980175  0.372476  0.500000  1
  Hf  Hf2  1  0.627524  0.607698  0.500000  1
  Ga  Ga3  1  0.722739  0.998031  0.000000  1
  Ga  Ga4  1  0.001969  0.724707  0.000000  1
  Ga  Ga5  1  0.275293  0.277261  0.000000  1
  Os  Os6  1  0.666667  0.333333  0.000000  1
  Os  Os7  1  0.000000  0.000000  0.500000  1
  Au  Au8  1  0.333333  0.666667  0.000000  1
