# generated using pymatgen
data_YbGd8Ho(SiB4)4
_symmetry_space_group_name_H-M   'P 1'
_cell_length_a   7.27260700
_cell_length_b   7.27260700
_cell_length_c   8.20861400
_cell_angle_alpha   90.00000000
_cell_angle_beta   90.00000000
_cell_angle_gamma   90.00000000
_symmetry_Int_Tables_number   1
_chemical_formula_structural   YbGd8Ho(SiB4)4
_chemical_formula_sum   'Yb1 Gd8 Ho1 Si4 B16'
_cell_volume   434.16026459
_cell_formula_units_Z   1
loop_
 _symmetry_equiv_pos_site_id
 _symmetry_equiv_pos_as_xyz
  1  'x, y, z'
loop_
 _atom_site_type_symbol
 _atom_site_label
 _atom_site_symmetry_multiplicity
 _atom_site_fract_x
 _atom_site_fract_y
 _atom_site_fract_z
 _atom_site_occupancy
  Yb  Yb0  1  0.000000  0.000000  0.500000  1
  Gd  Gd1  1  0.682772  0.181408  0.227140  1
  Gd  Gd2  1  0.317228  0.818592  0.772860  1
  Gd  Gd3  1  0.317228  0.818592  0.227140  1
  Gd  Gd4  1  0.818592  0.682772  0.227140  1
  Gd  Gd5  1  0.818592  0.682772  0.772860  1
  Gd  Gd6  1  0.682772  0.181408  0.772860  1
  Gd  Gd7  1  0.181408  0.317228  0.772860  1
  Gd  Gd8  1  0.181408  0.317228  0.227140  1
  Ho  Ho9  1  0.500000  0.500000  0.500000  1
  Si  Si10  1  0.119315  0.608357  0.500000  1
  Si  Si11  1  0.880685  0.391643  0.500000  1
  Si  Si12  1  0.391643  0.119315  0.500000  1
  Si  Si13  1  0.608357  0.880685  0.500000  1
  B  B14  1  0.173025  0.039070  0.000000  1
  B  B15  1  0.826975  0.960930  0.000000  1
  B  B16  1  0.960930  0.173025  0.000000  1
  B  B17  1  0.327543  0.539724  0.000000  1
  B  B18  1  0.039070  0.826975  0.000000  1
  B  B19  1  0.672457  0.460276  0.000000  1
  B  B20  1  0.539724  0.672457  0.000000  1
  B  B21  1  0.460276  0.327543  0.000000  1
  B  B22  1  0.090115  0.589955  0.000000  1
  B  B23  1  0.909885  0.410045  0.000000  1
  B  B24  1  0.410045  0.090115  0.000000  1
  B  B25  1  0.589955  0.909885  0.000000  1
  B  B26  1  0.000000  0.000000  0.155391  1
  B  B27  1  0.000000  0.000000  0.844609  1
  B  B28  1  0.500000  0.500000  0.840978  1
  B  B29  1  0.500000  0.500000  0.159022  1
