# generated using pymatgen
data_Er2Hf2(Al8Pt3)3
_symmetry_space_group_name_H-M   'P 1'
_cell_length_a   7.49265011
_cell_length_b   7.49484509
_cell_length_c   13.02303264
_cell_angle_alpha   84.45746846
_cell_angle_beta   101.03450518
_cell_angle_gamma   119.90872978
_symmetry_Int_Tables_number   1
_chemical_formula_structural   Er2Hf2(Al8Pt3)3
_chemical_formula_sum   'Er2 Hf2 Al24 Pt9'
_cell_volume   622.20689584
_cell_formula_units_Z   1
loop_
 _symmetry_equiv_pos_site_id
 _symmetry_equiv_pos_as_xyz
  1  'x, y, z'
loop_
 _atom_site_type_symbol
 _atom_site_label
 _atom_site_symmetry_multiplicity
 _atom_site_fract_x
 _atom_site_fract_y
 _atom_site_fract_z
 _atom_site_occupancy
  Er  Er0  1  0.062190  0.668246  0.191934  1
  Er  Er1  1  0.937810  0.331754  0.808066  1
  Hf  Hf2  1  0.732257  0.999923  0.191791  1
  Hf  Hf3  1  0.267743  0.000077  0.808209  1
  Al  Al4  1  0.812069  0.869120  0.815419  1
  Al  Al5  1  0.187931  0.130880  0.184581  1
  Al  Al6  1  0.984175  0.669056  0.941727  1
  Al  Al7  1  0.015825  0.330944  0.058273  1
  Al  Al8  1  0.398827  0.669407  0.816636  1
  Al  Al9  1  0.601173  0.330593  0.183364  1
  Al  Al10  1  0.885144  0.666829  0.673696  1
  Al  Al11  1  0.114856  0.333171  0.326304  1
  Al  Al12  1  0.597287  0.452606  0.815924  1
  Al  Al13  1  0.402713  0.547394  0.184076  1
  Al  Al14  1  0.230523  0.338061  0.672242  1
  Al  Al15  1  0.769477  0.661939  0.327758  1
  Al  Al16  1  0.852721  0.333054  0.559577  1
  Al  Al17  1  0.186658  0.999651  0.560529  1
  Al  Al18  1  0.813342  0.000349  0.439471  1
  Al  Al19  1  0.355000  0.998267  0.057000  1
  Al  Al20  1  0.645000  0.001733  0.943000  1
  Al  Al21  1  0.555251  0.993490  0.673911  1
  Al  Al22  1  0.444749  0.006510  0.326089  1
  Al  Al23  1  0.521452  0.667325  0.563156  1
  Al  Al24  1  0.478548  0.332675  0.436844  1
  Al  Al25  1  0.684462  0.670685  0.049598  1
  Al  Al26  1  0.315538  0.329315  0.950402  1
  Al  Al27  1  0.147279  0.666946  0.440423  1
  Pt  Pt28  1  0.327482  0.671050  0.000123  1
  Pt  Pt29  1  0.545001  0.323049  0.637865  1
  Pt  Pt30  1  0.454999  0.676951  0.362135  1
  Pt  Pt31  1  0.889667  0.009229  0.639603  1
  Pt  Pt32  1  0.110333  0.990771  0.360397  1
  Pt  Pt33  1  0.672518  0.328950  0.999877  1
  Pt  Pt34  1  0.203249  0.667234  0.639707  1
  Pt  Pt35  1  0.796751  0.332766  0.360293  1
  Pt  Pt36  1  0.000000  0.000000  0.000000  1
