# generated using pymatgen
data_Ce4Sb12OsRu3
_symmetry_space_group_name_H-M   'P 1'
_cell_length_a   6.10899201
_cell_length_b   6.26433501
_cell_length_c   12.66450000
_cell_angle_alpha   90.00000000
_cell_angle_beta   90.00000000
_cell_angle_gamma   90.00466744
_symmetry_Int_Tables_number   1
_chemical_formula_structural   Ce4Sb12OsRu3
_chemical_formula_sum   'Ce4 Sb12 Os1 Ru3'
_cell_volume   484.65486726
_cell_formula_units_Z   1
loop_
 _symmetry_equiv_pos_site_id
 _symmetry_equiv_pos_as_xyz
  1  'x, y, z'
loop_
 _atom_site_type_symbol
 _atom_site_label
 _atom_site_symmetry_multiplicity
 _atom_site_fract_x
 _atom_site_fract_y
 _atom_site_fract_z
 _atom_site_occupancy
  Ce  Ce0  1  0.250014  0.499376  0.303441  1
  Ce  Ce1  1  0.750873  0.501843  0.696922  1
  Ce  Ce2  1  0.249127  0.998157  0.696922  1
  Ce  Ce3  1  0.749986  0.000624  0.303441  1
  Sb  Sb4  1  0.000000  0.750000  0.502395  1
  Sb  Sb5  1  0.000000  0.250000  0.497614  1
  Sb  Sb6  1  0.500000  0.250000  0.497630  1
  Sb  Sb7  1  0.500000  0.750000  0.502347  1
  Sb  Sb8  1  0.249470  0.600095  0.058941  1
  Sb  Sb9  1  0.750183  0.399509  0.941539  1
  Sb  Sb10  1  0.249817  0.100491  0.941539  1
  Sb  Sb11  1  0.750530  0.899905  0.058941  1
  Sb  Sb12  1  0.249936  0.989750  0.226228  1
  Sb  Sb13  1  0.749810  0.010702  0.773602  1
  Sb  Sb14  1  0.250190  0.489298  0.773602  1
  Sb  Sb15  1  0.750064  0.510250  0.226228  1
  Os  Os16  1  0.000000  0.750000  0.896711  1
  Ru  Ru17  1  0.000000  0.250000  0.101777  1
  Ru  Ru18  1  0.500000  0.250000  0.101491  1
  Ru  Ru19  1  0.500000  0.750000  0.898690  1
