# generated using pymatgen
data_LiNi3B2
_symmetry_space_group_name_H-M   'P 1'
_cell_length_a   4.83679300
_cell_length_b   4.83679309
_cell_length_c   8.62347100
_cell_angle_alpha   90.00000000
_cell_angle_beta   90.00000000
_cell_angle_gamma   119.99999257
_symmetry_Int_Tables_number   1
_chemical_formula_structural   LiNi3B2
_chemical_formula_sum   'Li3 Ni9 B6'
_cell_volume   174.71403019
_cell_formula_units_Z   3
loop_
 _symmetry_equiv_pos_site_id
 _symmetry_equiv_pos_as_xyz
  1  'x, y, z'
loop_
 _atom_site_type_symbol
 _atom_site_label
 _atom_site_symmetry_multiplicity
 _atom_site_fract_x
 _atom_site_fract_y
 _atom_site_fract_z
 _atom_site_occupancy
  Li  Li0  1  0.000000  0.000000  0.666667  1
  Li  Li1  1  0.000000  0.000000  0.000000  1
  Li  Li2  1  0.000000  0.000000  0.333333  1
  Ni  Ni3  1  0.500000  0.000000  0.788979  1
  Ni  Ni4  1  0.500000  0.500000  0.877688  1
  Ni  Ni5  1  0.500000  0.500000  0.455646  1
  Ni  Ni6  1  0.000000  0.500000  0.833333  1
  Ni  Ni7  1  0.000000  0.500000  0.122312  1
  Ni  Ni8  1  0.500000  0.500000  0.166667  1
  Ni  Ni9  1  0.500000  0.000000  0.211021  1
  Ni  Ni10  1  0.000000  0.500000  0.544354  1
  Ni  Ni11  1  0.500000  0.000000  0.500000  1
  B  B12  1  0.608743  0.217485  0.000000  1
  B  B13  1  0.782515  0.391257  0.333333  1
  B  B14  1  0.217485  0.608743  0.333333  1
  B  B15  1  0.608743  0.391257  0.666667  1
  B  B16  1  0.391257  0.608743  0.666667  1
  B  B17  1  0.391257  0.782515  0.000000  1
