# generated using pymatgen
data_Dy2YHf3(SnRh)6
_symmetry_space_group_name_H-M   'P 1'
_cell_length_a   7.47784577
_cell_length_b   7.47522743
_cell_length_c   7.52178400
_cell_angle_alpha   90.00000000
_cell_angle_beta   90.00000000
_cell_angle_gamma   120.00134103
_symmetry_Int_Tables_number   1
_chemical_formula_structural   Dy2YHf3(SnRh)6
_chemical_formula_sum   'Dy2 Y1 Hf3 Sn6 Rh6'
_cell_volume   364.12167724
_cell_formula_units_Z   1
loop_
 _symmetry_equiv_pos_site_id
 _symmetry_equiv_pos_as_xyz
  1  'x, y, z'
loop_
 _atom_site_type_symbol
 _atom_site_label
 _atom_site_symmetry_multiplicity
 _atom_site_fract_x
 _atom_site_fract_y
 _atom_site_fract_z
 _atom_site_occupancy
  Dy  Dy0  1  0.001374  0.407060  0.250000  1
  Dy  Dy1  1  0.594622  0.592730  0.250000  1
  Y  Y2  1  0.404648  0.999432  0.250000  1
  Hf  Hf3  1  0.997680  0.391147  0.750000  1
  Hf  Hf4  1  0.606097  0.609275  0.750000  1
  Hf  Hf5  1  0.394405  0.999882  0.750000  1
  Sn  Sn6  1  0.267060  0.267229  0.508193  1
  Sn  Sn7  1  0.999620  0.732711  0.508374  1
  Sn  Sn8  1  0.999620  0.732711  0.991626  1
  Sn  Sn9  1  0.733774  0.000186  0.504717  1
  Sn  Sn10  1  0.733774  0.000186  0.995283  1
  Sn  Sn11  1  0.267060  0.267229  0.991807  1
  Rh  Rh12  1  0.333503  0.666723  0.539901  1
  Rh  Rh13  1  0.666872  0.333324  0.540601  1
  Rh  Rh14  1  0.333503  0.666723  0.960099  1
  Rh  Rh15  1  0.998040  0.000285  0.750000  1
  Rh  Rh16  1  0.001477  0.999843  0.250000  1
  Rh  Rh17  1  0.666872  0.333324  0.959399  1
