# generated using pymatgen
data_Cs12Nb3SbS16
_symmetry_space_group_name_H-M   'P 1'
_cell_length_a   10.09031099
_cell_length_b   11.79604100
_cell_length_c   10.24647100
_cell_angle_alpha   90.00000000
_cell_angle_beta   89.94929862
_cell_angle_gamma   90.00000000
_symmetry_Int_Tables_number   1
_chemical_formula_structural   Cs12Nb3SbS16
_chemical_formula_sum   'Cs12 Nb3 Sb1 S16'
_cell_volume   1219.59313273
_cell_formula_units_Z   1
loop_
 _symmetry_equiv_pos_site_id
 _symmetry_equiv_pos_as_xyz
  1  'x, y, z'
loop_
 _atom_site_type_symbol
 _atom_site_label
 _atom_site_symmetry_multiplicity
 _atom_site_fract_x
 _atom_site_fract_y
 _atom_site_fract_z
 _atom_site_occupancy
  Cs  Cs0  1  0.146301  0.750000  0.081152  1
  Cs  Cs1  1  0.549307  0.042979  0.206511  1
  Cs  Cs2  1  0.549307  0.457021  0.206511  1
  Cs  Cs3  1  0.050340  0.042102  0.295119  1
  Cs  Cs4  1  0.050340  0.457898  0.295119  1
  Cs  Cs5  1  0.646060  0.750000  0.418531  1
  Cs  Cs6  1  0.353643  0.250000  0.581667  1
  Cs  Cs7  1  0.951011  0.541616  0.705226  1
  Cs  Cs8  1  0.951011  0.958384  0.705226  1
  Cs  Cs9  1  0.450159  0.542241  0.794173  1
  Cs  Cs10  1  0.450159  0.957759  0.794173  1
  Cs  Cs11  1  0.853063  0.250000  0.917618  1
  Nb  Nb12  1  0.275080  0.250000  0.017856  1
  Nb  Nb13  1  0.775462  0.250000  0.482107  1
  Nb  Nb14  1  0.224574  0.750000  0.517665  1
  Sb  Sb15  1  0.725467  0.750000  0.982789  1
  S  S16  1  0.839671  0.583443  0.042751  1
  S  S17  1  0.839671  0.916557  0.042751  1
  S  S18  1  0.511736  0.750000  0.079402  1
  S  S19  1  0.296578  0.250000  0.241274  1
  S  S20  1  0.797212  0.250000  0.258740  1
  S  S21  1  0.016996  0.750000  0.424343  1
  S  S22  1  0.336295  0.588918  0.457441  1
  S  S23  1  0.336295  0.911082  0.457441  1
  S  S24  1  0.663646  0.089024  0.542364  1
  S  S25  1  0.663646  0.410976  0.542364  1
  S  S26  1  0.983231  0.250000  0.575404  1
  S  S27  1  0.202957  0.750000  0.741072  1
  S  S28  1  0.701398  0.750000  0.752879  1
  S  S29  1  0.482805  0.250000  0.924456  1
  S  S30  1  0.163287  0.088930  0.957939  1
  S  S31  1  0.163287  0.411070  0.957939  1
