# generated using pymatgen
data_Hf6Ta3Ti(GaSi2)2
_symmetry_space_group_name_H-M   'P 1'
_cell_length_a   7.84121582
_cell_length_b   7.84121659
_cell_length_c   5.36188001
_cell_angle_alpha   90.00373737
_cell_angle_beta   90.00374140
_cell_angle_gamma   120.28362704
_symmetry_Int_Tables_number   1
_chemical_formula_structural   Hf6Ta3Ti(GaSi2)2
_chemical_formula_sum   'Hf6 Ta3 Ti1 Ga2 Si4'
_cell_volume   284.68609055
_cell_formula_units_Z   1
loop_
 _symmetry_equiv_pos_site_id
 _symmetry_equiv_pos_as_xyz
  1  'x, y, z'
loop_
 _atom_site_type_symbol
 _atom_site_label
 _atom_site_symmetry_multiplicity
 _atom_site_fract_x
 _atom_site_fract_y
 _atom_site_fract_z
 _atom_site_occupancy
  Hf  Hf0  1  0.254314  0.999469  0.249326  1
  Hf  Hf1  1  0.747017  0.002653  0.751495  1
  Hf  Hf2  1  0.997347  0.252983  0.248505  1
  Hf  Hf3  1  0.000531  0.745686  0.750674  1
  Hf  Hf4  1  0.755590  0.754466  0.247751  1
  Hf  Hf5  1  0.245534  0.244410  0.752249  1
  Ta  Ta6  1  0.329193  0.670807  0.000000  1
  Ta  Ta7  1  0.670606  0.329394  0.000000  1
  Ta  Ta8  1  0.670478  0.329522  0.500000  1
  Ti  Ti9  1  0.329609  0.670391  0.500000  1
  Ga  Ga10  1  0.398007  0.400229  0.252325  1
  Ga  Ga11  1  0.599771  0.601993  0.747675  1
  Si  Si12  1  0.603817  0.995570  0.251680  1
  Si  Si13  1  0.394457  0.000700  0.748588  1
  Si  Si14  1  0.999300  0.605543  0.251412  1
  Si  Si15  1  0.004430  0.396183  0.748320  1
