# generated using pymatgen
data_TbDy3(Sc3Ga4)2
_symmetry_space_group_name_H-M   'P 1'
_cell_length_a   7.29400402
_cell_length_b   7.56061705
_cell_length_c   14.49953112
_cell_angle_alpha   90.01250046
_cell_angle_beta   90.00806830
_cell_angle_gamma   89.99832573
_symmetry_Int_Tables_number   1
_chemical_formula_structural   TbDy3(Sc3Ga4)2
_chemical_formula_sum   'Tb2 Dy6 Sc12 Ga16'
_cell_volume   799.60809661
_cell_formula_units_Z   2
loop_
 _symmetry_equiv_pos_site_id
 _symmetry_equiv_pos_as_xyz
  1  'x, y, z'
loop_
 _atom_site_type_symbol
 _atom_site_label
 _atom_site_symmetry_multiplicity
 _atom_site_fract_x
 _atom_site_fract_y
 _atom_site_fract_z
 _atom_site_occupancy
  Tb  Tb0  1  0.011575  0.177845  0.095491  1
  Tb  Tb1  1  0.988425  0.822155  0.904509  1
  Dy  Dy2  1  0.488370  0.677913  0.904498  1
  Dy  Dy3  1  0.988462  0.822081  0.595587  1
  Dy  Dy4  1  0.511630  0.322087  0.095502  1
  Dy  Dy5  1  0.011538  0.177919  0.404413  1
  Dy  Dy6  1  0.511561  0.322076  0.404462  1
  Dy  Dy7  1  0.488439  0.677924  0.595538  1
  Sc  Sc8  1  0.161990  0.502784  0.750003  1
  Sc  Sc9  1  0.838010  0.497216  0.249997  1
  Sc  Sc10  1  0.338164  0.002766  0.250019  1
  Sc  Sc11  1  0.661836  0.997234  0.749981  1
  Sc  Sc12  1  0.330129  0.174587  0.624312  1
  Sc  Sc13  1  0.669871  0.825413  0.375688  1
  Sc  Sc14  1  0.169874  0.674630  0.375713  1
  Sc  Sc15  1  0.669733  0.825380  0.124362  1
  Sc  Sc16  1  0.830126  0.325370  0.624287  1
  Sc  Sc17  1  0.330267  0.174620  0.875638  1
  Sc  Sc18  1  0.830012  0.325448  0.875653  1
  Sc  Sc19  1  0.169988  0.674552  0.124347  1
  Ga  Ga20  1  0.031774  0.117989  0.750038  1
  Ga  Ga21  1  0.968226  0.882011  0.249962  1
  Ga  Ga22  1  0.468390  0.617961  0.249913  1
  Ga  Ga23  1  0.531610  0.382039  0.750087  1
  Ga  Ga24  1  0.284589  0.872887  0.749955  1
  Ga  Ga25  1  0.715411  0.127113  0.250045  1
  Ga  Ga26  1  0.215672  0.372884  0.249998  1
  Ga  Ga27  1  0.784328  0.627116  0.750002  1
  Ga  Ga28  1  0.160587  0.465198  0.540192  1
  Ga  Ga29  1  0.839413  0.534802  0.459808  1
  Ga  Ga30  1  0.339465  0.965216  0.459824  1
  Ga  Ga31  1  0.839295  0.535032  0.040204  1
  Ga  Ga32  1  0.660535  0.034784  0.540176  1
  Ga  Ga33  1  0.160705  0.464968  0.959796  1
  Ga  Ga34  1  0.659911  0.035086  0.959920  1
  Ga  Ga35  1  0.340089  0.964914  0.040080  1
