# generated using pymatgen
data_HfZr9AlSi2Sb5
_symmetry_space_group_name_H-M   'P 1'
_cell_length_a   8.60422902
_cell_length_b   8.64481806
_cell_length_c   5.82578004
_cell_angle_alpha   90.01037598
_cell_angle_beta   90.00178691
_cell_angle_gamma   119.85137694
_symmetry_Int_Tables_number   1
_chemical_formula_structural   HfZr9AlSi2Sb5
_chemical_formula_sum   'Hf1 Zr9 Al1 Si2 Sb5'
_cell_volume   375.83825746
_cell_formula_units_Z   1
loop_
 _symmetry_equiv_pos_site_id
 _symmetry_equiv_pos_as_xyz
  1  'x, y, z'
loop_
 _atom_site_type_symbol
 _atom_site_label
 _atom_site_symmetry_multiplicity
 _atom_site_fract_x
 _atom_site_fract_y
 _atom_site_fract_z
 _atom_site_occupancy
  Hf  Hf0  1  0.336427  0.670622  0.003942  1
  Zr  Zr1  1  0.267300  0.999745  0.249791  1
  Zr  Zr2  1  0.256301  0.255454  0.750070  1
  Zr  Zr3  1  0.001123  0.744678  0.750001  1
  Zr  Zr4  1  0.994131  0.261880  0.249906  1
  Zr  Zr5  1  0.731990  0.738198  0.249776  1
  Zr  Zr6  1  0.744159  0.999826  0.750104  1
  Zr  Zr7  1  0.665828  0.329767  0.496386  1
  Zr  Zr8  1  0.665836  0.329734  0.003615  1
  Zr  Zr9  1  0.335904  0.670073  0.496233  1
  Al  Al10  1  0.606773  0.999654  0.249686  1
  Si  Si11  1  0.999267  0.000030  0.010429  1
  Si  Si12  1  0.999230  0.999998  0.489581  1
  Sb  Sb13  1  0.602906  0.603065  0.750342  1
  Sb  Sb14  1  0.000591  0.397312  0.750349  1
  Sb  Sb15  1  0.999371  0.608479  0.249686  1
  Sb  Sb16  1  0.390489  0.391869  0.249713  1
  Sb  Sb17  1  0.402374  0.999615  0.750390  1
