# generated using pymatgen
data_DyTm7Sc12Si15Au
_symmetry_space_group_name_H-M   'P 1'
_cell_length_a   7.07843681
_cell_length_b   7.33944498
_cell_length_c   13.98721743
_cell_angle_alpha   89.95771357
_cell_angle_beta   89.66544189
_cell_angle_gamma   90.17665322
_symmetry_Int_Tables_number   1
_chemical_formula_structural   DyTm7Sc12Si15Au
_chemical_formula_sum   'Dy1 Tm7 Sc12 Si15 Au1'
_cell_volume   726.64503840
_cell_formula_units_Z   1
loop_
 _symmetry_equiv_pos_site_id
 _symmetry_equiv_pos_as_xyz
  1  'x, y, z'
loop_
 _atom_site_type_symbol
 _atom_site_label
 _atom_site_symmetry_multiplicity
 _atom_site_fract_x
 _atom_site_fract_y
 _atom_site_fract_z
 _atom_site_occupancy
  Dy  Dy0  1  0.012274  0.175824  0.096923  1
  Tm  Tm1  1  0.987337  0.824180  0.903629  1
  Tm  Tm2  1  0.487223  0.677606  0.903479  1
  Tm  Tm3  1  0.988232  0.826783  0.597567  1
  Tm  Tm4  1  0.512110  0.323102  0.096412  1
  Tm  Tm5  1  0.010837  0.174996  0.400020  1
  Tm  Tm6  1  0.509506  0.324024  0.401365  1
  Tm  Tm7  1  0.490799  0.676418  0.598725  1
  Sc  Sc8  1  0.162812  0.502264  0.751134  1
  Sc  Sc9  1  0.837265  0.497973  0.250852  1
  Sc  Sc10  1  0.338155  0.001359  0.249424  1
  Sc  Sc11  1  0.663730  0.995364  0.750788  1
  Sc  Sc12  1  0.338150  0.176028  0.625866  1
  Sc  Sc13  1  0.666510  0.823296  0.373633  1
  Sc  Sc14  1  0.168969  0.673667  0.373262  1
  Sc  Sc15  1  0.669950  0.823856  0.125350  1
  Sc  Sc16  1  0.828418  0.325608  0.625541  1
  Sc  Sc17  1  0.329010  0.175420  0.875732  1
  Sc  Sc18  1  0.830247  0.322896  0.875742  1
  Sc  Sc19  1  0.169256  0.676606  0.125216  1
  Si  Si20  1  0.034515  0.116785  0.750625  1
  Si  Si21  1  0.966889  0.885723  0.249449  1
  Si  Si22  1  0.466963  0.613342  0.248428  1
  Si  Si23  1  0.534384  0.386817  0.752241  1
  Si  Si24  1  0.284646  0.871780  0.750814  1
  Si  Si25  1  0.713111  0.129998  0.249344  1
  Si  Si26  1  0.215113  0.369390  0.248251  1
  Si  Si27  1  0.786858  0.629457  0.752612  1
  Si  Si28  1  0.833965  0.536211  0.459530  1
  Si  Si29  1  0.339533  0.963981  0.460057  1
  Si  Si30  1  0.842074  0.535557  0.038859  1
  Si  Si31  1  0.659240  0.035367  0.537951  1
  Si  Si32  1  0.157471  0.465485  0.961421  1
  Si  Si33  1  0.657926  0.034317  0.961059  1
  Si  Si34  1  0.342903  0.964479  0.039171  1
  Au  Au35  1  0.163619  0.464043  0.539527  1
