# generated using pymatgen
data_Pr16Lu4Sn7Pb9
_symmetry_space_group_name_H-M   'P 1'
_cell_length_a   8.29097500
_cell_length_b   8.44629934
_cell_length_c   15.99369000
_cell_angle_alpha   90.00000000
_cell_angle_beta   90.00000000
_cell_angle_gamma   90.10182772
_symmetry_Int_Tables_number   1
_chemical_formula_structural   Pr16Lu4Sn7Pb9
_chemical_formula_sum   'Pr16 Lu4 Sn7 Pb9'
_cell_volume   1120.00526076
_cell_formula_units_Z   1
loop_
 _symmetry_equiv_pos_site_id
 _symmetry_equiv_pos_as_xyz
  1  'x, y, z'
loop_
 _atom_site_type_symbol
 _atom_site_label
 _atom_site_symmetry_multiplicity
 _atom_site_fract_x
 _atom_site_fract_y
 _atom_site_fract_z
 _atom_site_occupancy
  Pr  Pr0  1  0.365623  0.840401  0.877350  1
  Pr  Pr1  1  0.868861  0.661966  0.623283  1
  Pr  Pr2  1  0.632725  0.161607  0.376224  1
  Pr  Pr3  1  0.132567  0.338414  0.123757  1
  Pr  Pr4  1  0.632725  0.161607  0.123776  1
  Pr  Pr5  1  0.132567  0.338414  0.376243  1
  Pr  Pr6  1  0.365623  0.840401  0.622650  1
  Pr  Pr7  1  0.868861  0.661966  0.876717  1
  Pr  Pr8  1  0.521370  0.318528  0.900813  1
  Pr  Pr9  1  0.021538  0.179361  0.599768  1
  Pr  Pr10  1  0.478829  0.679592  0.399945  1
  Pr  Pr11  1  0.978596  0.820420  0.100098  1
  Pr  Pr12  1  0.478829  0.679592  0.100055  1
  Pr  Pr13  1  0.978596  0.820420  0.399902  1
  Pr  Pr14  1  0.521370  0.318528  0.599187  1
  Pr  Pr15  1  0.021538  0.179361  0.900232  1
  Lu  Lu16  1  0.195719  0.500246  0.750000  1
  Lu  Lu17  1  0.699900  0.000793  0.750000  1
  Lu  Lu18  1  0.801036  0.498642  0.250000  1
  Lu  Lu19  1  0.301073  0.001513  0.250000  1
  Sn  Sn20  1  0.062283  0.883734  0.750000  1
  Sn  Sn21  1  0.437885  0.383505  0.250000  1
  Sn  Sn22  1  0.937778  0.116089  0.250000  1
  Sn  Sn23  1  0.327849  0.150369  0.750000  1
  Sn  Sn24  1  0.829799  0.348239  0.750000  1
  Sn  Sn25  1  0.672536  0.849738  0.250000  1
  Sn  Sn26  1  0.172621  0.650399  0.250000  1
  Pb  Pb27  1  0.291466  0.035469  0.043947  1
  Pb  Pb28  1  0.791598  0.464800  0.456475  1
  Pb  Pb29  1  0.708623  0.964578  0.543571  1
  Pb  Pb30  1  0.208761  0.534953  0.956457  1
  Pb  Pb31  1  0.708623  0.964578  0.956429  1
  Pb  Pb32  1  0.208761  0.534953  0.543543  1
  Pb  Pb33  1  0.291466  0.035469  0.456053  1
  Pb  Pb34  1  0.791598  0.464800  0.043525  1
  Pb  Pb35  1  0.560402  0.616552  0.750000  1
