# generated using pymatgen
data_Ta2TeSe2
_symmetry_space_group_name_H-M   'P 1'
_cell_length_a   7.64261554
_cell_length_b   7.64261564
_cell_length_c   12.31794523
_cell_angle_alpha   56.21422335
_cell_angle_beta   56.21422228
_cell_angle_gamma   26.07289656
_symmetry_Int_Tables_number   1
_chemical_formula_structural   Ta2TeSe2
_chemical_formula_sum   'Ta4 Te2 Se4'
_cell_volume   259.64823221
_cell_formula_units_Z   2
loop_
 _symmetry_equiv_pos_site_id
 _symmetry_equiv_pos_as_xyz
  1  'x, y, z'
loop_
 _atom_site_type_symbol
 _atom_site_label
 _atom_site_symmetry_multiplicity
 _atom_site_fract_x
 _atom_site_fract_y
 _atom_site_fract_z
 _atom_site_occupancy
  Ta  Ta0  1  0.586789  0.586789  0.854485  1
  Ta  Ta1  1  0.413211  0.413211  0.145515  1
  Ta  Ta2  1  0.760587  0.760587  0.391318  1
  Ta  Ta3  1  0.239413  0.239413  0.608682  1
  Te  Te4  1  0.896635  0.896635  0.969408  1
  Te  Te5  1  0.103365  0.103365  0.030592  1
  Se  Se6  1  0.591916  0.591916  0.640613  1
  Se  Se7  1  0.408084  0.408084  0.359387  1
  Se  Se8  1  0.801947  0.801947  0.709127  1
  Se  Se9  1  0.198053  0.198053  0.290873  1
