# generated using pymatgen
data_BaFe3NiSb12
_symmetry_space_group_name_H-M   'P 1'
_cell_length_a   8.01219960
_cell_length_b   8.01430338
_cell_length_c   8.01219903
_cell_angle_alpha   109.47654312
_cell_angle_beta   109.46590379
_cell_angle_gamma   109.47654293
_symmetry_Int_Tables_number   1
_chemical_formula_structural   BaFe3NiSb12
_chemical_formula_sum   'Ba1 Fe3 Ni1 Sb12'
_cell_volume   396.02154457
_cell_formula_units_Z   1
loop_
 _symmetry_equiv_pos_site_id
 _symmetry_equiv_pos_as_xyz
  1  'x, y, z'
loop_
 _atom_site_type_symbol
 _atom_site_label
 _atom_site_symmetry_multiplicity
 _atom_site_fract_x
 _atom_site_fract_y
 _atom_site_fract_z
 _atom_site_occupancy
  Ba  Ba0  1  0.000000  0.000000  0.000000  1
  Fe  Fe1  1  0.000000  0.000000  0.500000  1
  Fe  Fe2  1  0.500000  0.000000  0.000000  1
  Fe  Fe3  1  0.500000  0.500000  0.500000  1
  Ni  Ni4  1  0.000000  0.500000  0.000000  1
  Sb  Sb5  1  0.336802  0.171742  0.835866  1
  Sb  Sb6  1  0.663198  0.828258  0.164134  1
  Sb  Sb7  1  0.655167  0.497920  0.834417  1
  Sb  Sb8  1  0.344833  0.502080  0.165583  1
  Sb  Sb9  1  0.179252  0.842754  0.344833  1
  Sb  Sb10  1  0.820748  0.157246  0.655167  1
  Sb  Sb11  1  0.499064  0.834939  0.663198  1
  Sb  Sb12  1  0.500936  0.165061  0.336802  1
  Sb  Sb13  1  0.834417  0.336497  0.179252  1
  Sb  Sb14  1  0.165583  0.663503  0.820748  1
  Sb  Sb15  1  0.835866  0.664126  0.499064  1
  Sb  Sb16  1  0.164134  0.335874  0.500936  1
