# generated using pymatgen
data_LaEuBO4
_symmetry_space_group_name_H-M   'P 1'
_cell_length_a   3.86881200
_cell_length_b   10.13068600
_cell_length_c   11.01478000
_cell_angle_alpha   90.00000000
_cell_angle_beta   90.00000000
_cell_angle_gamma   90.00000000
_symmetry_Int_Tables_number   1
_chemical_formula_structural   LaEuBO4
_chemical_formula_sum   'La4 Eu4 B4 O16'
_cell_volume   431.71019839
_cell_formula_units_Z   4
loop_
 _symmetry_equiv_pos_site_id
 _symmetry_equiv_pos_as_xyz
  1  'x, y, z'
loop_
 _atom_site_type_symbol
 _atom_site_label
 _atom_site_symmetry_multiplicity
 _atom_site_fract_x
 _atom_site_fract_y
 _atom_site_fract_z
 _atom_site_occupancy
  La  La0  1  0.250000  0.081749  0.121563  1
  La  La1  1  0.750000  0.918251  0.878437  1
  La  La2  1  0.750000  0.581749  0.378437  1
  La  La3  1  0.250000  0.418251  0.621563  1
  Eu  Eu4  1  0.250000  0.672046  0.074744  1
  Eu  Eu5  1  0.750000  0.327954  0.925256  1
  Eu  Eu6  1  0.750000  0.172046  0.425256  1
  Eu  Eu7  1  0.250000  0.827954  0.574744  1
  B  B8  1  0.250000  0.367491  0.200321  1
  B  B9  1  0.750000  0.632509  0.799679  1
  B  B10  1  0.750000  0.867491  0.299679  1
  B  B11  1  0.250000  0.132509  0.700321  1
  O  O12  1  0.250000  0.497142  0.242050  1
  O  O13  1  0.750000  0.502858  0.757950  1
  O  O14  1  0.750000  0.997142  0.257950  1
  O  O15  1  0.250000  0.002858  0.742050  1
  O  O16  1  0.250000  0.260025  0.280515  1
  O  O17  1  0.750000  0.739975  0.719485  1
  O  O18  1  0.750000  0.760025  0.219485  1
  O  O19  1  0.250000  0.239975  0.780515  1
  O  O20  1  0.250000  0.343241  0.074190  1
  O  O21  1  0.750000  0.656759  0.925810  1
  O  O22  1  0.750000  0.843241  0.425810  1
  O  O23  1  0.250000  0.156759  0.574190  1
  O  O24  1  0.250000  0.610499  0.497929  1
  O  O25  1  0.750000  0.389501  0.502071  1
  O  O26  1  0.750000  0.110499  0.002071  1
  O  O27  1  0.250000  0.889501  0.997929  1
