# generated using pymatgen
data_Hf16Co4Tc3Au
_symmetry_space_group_name_H-M   'P 1'
_cell_length_a   8.63537246
_cell_length_b   8.63537334
_cell_length_c   8.63537314
_cell_angle_alpha   59.84054605
_cell_angle_beta   59.84054276
_cell_angle_gamma   59.84054127
_symmetry_Int_Tables_number   1
_chemical_formula_structural   Hf16Co4Tc3Au
_chemical_formula_sum   'Hf16 Co4 Tc3 Au1'
_cell_volume   453.68434002
_cell_formula_units_Z   1
loop_
 _symmetry_equiv_pos_site_id
 _symmetry_equiv_pos_as_xyz
  1  'x, y, z'
loop_
 _atom_site_type_symbol
 _atom_site_label
 _atom_site_symmetry_multiplicity
 _atom_site_fract_x
 _atom_site_fract_y
 _atom_site_fract_z
 _atom_site_occupancy
  Hf  Hf0  1  0.051626  0.650483  0.650483  1
  Hf  Hf1  1  0.650483  0.051626  0.650483  1
  Hf  Hf2  1  0.650483  0.650483  0.051626  1
  Hf  Hf3  1  0.648159  0.648159  0.648159  1
  Hf  Hf4  1  0.798673  0.798673  0.201799  1
  Hf  Hf5  1  0.197306  0.197306  0.806807  1
  Hf  Hf6  1  0.798673  0.201799  0.798673  1
  Hf  Hf7  1  0.197306  0.806807  0.197306  1
  Hf  Hf8  1  0.201799  0.798673  0.798673  1
  Hf  Hf9  1  0.806807  0.197306  0.197306  1
  Hf  Hf10  1  0.435641  0.435641  0.055186  1
  Hf  Hf11  1  0.064749  0.064749  0.435221  1
  Hf  Hf12  1  0.435641  0.055186  0.435641  1
  Hf  Hf13  1  0.064749  0.435221  0.064749  1
  Hf  Hf14  1  0.055186  0.435641  0.435641  1
  Hf  Hf15  1  0.435221  0.064749  0.064749  1
  Co  Co16  1  0.422884  0.859384  0.859384  1
  Co  Co17  1  0.859384  0.422884  0.859384  1
  Co  Co18  1  0.859384  0.859384  0.422884  1
  Co  Co19  1  0.859969  0.859969  0.859969  1
  Tc  Tc20  1  0.753882  0.416995  0.416995  1
  Tc  Tc21  1  0.416995  0.753882  0.416995  1
  Tc  Tc22  1  0.416995  0.416995  0.753882  1
  Au  Au23  1  0.418008  0.418008  0.418008  1
