# generated using pymatgen
data_Cr(CoTe4)3
_symmetry_space_group_name_H-M   'P 1'
_cell_length_a   11.27559700
_cell_length_b   8.20080630
_cell_length_c   11.27235614
_cell_angle_alpha   62.77020644
_cell_angle_beta   90.00000000
_cell_angle_gamma   90.00000000
_symmetry_Int_Tables_number   1
_chemical_formula_structural   Cr(CoTe4)3
_chemical_formula_sum   'Cr2 Co6 Te24'
_cell_volume   926.82936569
_cell_formula_units_Z   2
loop_
 _symmetry_equiv_pos_site_id
 _symmetry_equiv_pos_as_xyz
  1  'x, y, z'
loop_
 _atom_site_type_symbol
 _atom_site_label
 _atom_site_symmetry_multiplicity
 _atom_site_fract_x
 _atom_site_fract_y
 _atom_site_fract_z
 _atom_site_occupancy
  Cr  Cr0  1  0.283671  0.964617  0.511509  1
  Cr  Cr1  1  0.783671  0.035383  0.988491  1
  Co  Co2  1  0.998986  0.993642  0.323655  1
  Co  Co3  1  0.498986  0.006358  0.176345  1
  Co  Co4  1  0.999259  0.991355  0.680619  1
  Co  Co5  1  0.499259  0.008645  0.819381  1
  Co  Co6  1  0.714599  0.053536  0.482069  1
  Co  Co7  1  0.214599  0.946464  0.017931  1
  Te  Te8  1  0.090046  0.184377  0.438474  1
  Te  Te9  1  0.590046  0.815623  0.061526  1
  Te  Te10  1  0.895067  0.829561  0.556280  1
  Te  Te11  1  0.395067  0.170439  0.943720  1
  Te  Te12  1  0.664413  0.247459  0.761344  1
  Te  Te13  1  0.164413  0.752541  0.738656  1
  Te  Te14  1  0.335905  0.768055  0.231191  1
  Te  Te15  1  0.835905  0.231945  0.268809  1
  Te  Te16  1  0.837536  0.231419  0.576050  1
  Te  Te17  1  0.337536  0.768581  0.923950  1
  Te  Te18  1  0.162157  0.751735  0.426845  1
  Te  Te19  1  0.662157  0.248265  0.073155  1
  Te  Te20  1  0.382666  0.192184  0.606247  1
  Te  Te21  1  0.882666  0.807816  0.893753  1
  Te  Te22  1  0.620856  0.843832  0.388972  1
  Te  Te23  1  0.120856  0.156168  0.111028  1
  Te  Te24  1  0.562539  0.299957  0.400014  1
  Te  Te25  1  0.062539  0.700043  0.099986  1
  Te  Te26  1  0.448259  0.695692  0.602444  1
  Te  Te27  1  0.948259  0.304308  0.897556  1
  Te  Te28  1  0.382823  0.191996  0.265777  1
  Te  Te29  1  0.882823  0.808004  0.234223  1
  Te  Te30  1  0.621217  0.846439  0.714509  1
  Te  Te31  1  0.121217  0.153561  0.785491  1
