# generated using pymatgen
data_Sm6BCCl6
_symmetry_space_group_name_H-M   'P 1'
_cell_length_a   9.55159928
_cell_length_b   9.55159347
_cell_length_c   9.62883182
_cell_angle_alpha   109.49226210
_cell_angle_beta   109.49222755
_cell_angle_gamma   109.10165056
_symmetry_Int_Tables_number   1
_chemical_formula_structural   Sm6BCCl6
_chemical_formula_sum   'Sm12 B2 C2 Cl12'
_cell_volume   678.95609848
_cell_formula_units_Z   2
loop_
 _symmetry_equiv_pos_site_id
 _symmetry_equiv_pos_as_xyz
  1  'x, y, z'
loop_
 _atom_site_type_symbol
 _atom_site_label
 _atom_site_symmetry_multiplicity
 _atom_site_fract_x
 _atom_site_fract_y
 _atom_site_fract_z
 _atom_site_occupancy
  Sm  Sm0  1  0.469953  0.480459  0.237359  1
  Sm  Sm1  1  0.743100  0.232594  0.262641  1
  Sm  Sm2  1  0.743982  0.013322  0.480426  1
  Sm  Sm3  1  0.236443  0.467103  0.480425  1
  Sm  Sm4  1  0.267407  0.756900  0.237360  1
  Sm  Sm5  1  0.032897  0.263556  0.019574  1
  Sm  Sm6  1  0.019541  0.030048  0.262641  1
  Sm  Sm7  1  0.486677  0.756018  0.019575  1
  Sm  Sm8  1  0.482071  0.232071  0.464140  1
  Sm  Sm9  1  0.013012  0.486987  0.750000  1
  Sm  Sm10  1  0.267930  0.017930  0.035860  1
  Sm  Sm11  1  0.236988  0.263011  0.750000  1
  B  B12  1  0.999522  0.249521  0.499043  1
  B  B13  1  0.250479  0.500479  0.000957  1
  C  C14  1  0.249744  0.250256  0.250000  1
  C  C15  1  0.500256  0.999744  0.250000  1
  Cl  Cl16  1  0.251851  0.758646  0.745897  1
  Cl  Cl17  1  0.512751  0.505956  0.754104  1
  Cl  Cl18  1  0.988021  0.745697  0.994091  1
  Cl  Cl19  1  0.741352  0.248150  0.754104  1
  Cl  Cl20  1  0.994044  0.987247  0.745895  1
  Cl  Cl21  1  0.251605  0.993930  0.505908  1
  Cl  Cl22  1  0.754304  0.511980  0.505909  1
  Cl  Cl23  1  0.506072  0.248395  0.994092  1
  Cl  Cl24  1  0.755530  0.744469  0.249999  1
  Cl  Cl25  1  0.743897  0.993897  0.987796  1
  Cl  Cl26  1  0.994470  0.505531  0.250001  1
  Cl  Cl27  1  0.506103  0.756102  0.512204  1
