# generated using pymatgen
data_Ho3LuRh4F28
_symmetry_space_group_name_H-M   'P 1'
_cell_length_a   5.49701157
_cell_length_b   8.79542997
_cell_length_c   11.85926976
_cell_angle_alpha   62.72470269
_cell_angle_beta   89.82781490
_cell_angle_gamma   89.92776795
_symmetry_Int_Tables_number   1
_chemical_formula_structural   Ho3LuRh4F28
_chemical_formula_sum   'Ho3 Lu1 Rh4 F28'
_cell_volume   509.62536132
_cell_formula_units_Z   1
loop_
 _symmetry_equiv_pos_site_id
 _symmetry_equiv_pos_as_xyz
  1  'x, y, z'
loop_
 _atom_site_type_symbol
 _atom_site_label
 _atom_site_symmetry_multiplicity
 _atom_site_fract_x
 _atom_site_fract_y
 _atom_site_fract_z
 _atom_site_occupancy
  Ho  Ho0  1  0.261192  0.812475  0.265291  1
  Ho  Ho1  1  0.739786  0.184766  0.734631  1
  Ho  Ho2  1  0.760723  0.187203  0.234623  1
  Lu  Lu3  1  0.238280  0.812656  0.765324  1
  Rh  Rh4  1  0.759082  0.727064  0.041861  1
  Rh  Rh5  1  0.242181  0.275066  0.955247  1
  Rh  Rh6  1  0.257119  0.271947  0.457058  1
  Rh  Rh7  1  0.740216  0.727351  0.545722  1
  F  F8  1  0.938623  0.704276  0.418139  1
  F  F9  1  0.061848  0.295795  0.585336  1
  F  F10  1  0.437526  0.297076  0.083753  1
  F  F11  1  0.561342  0.703528  0.914637  1
  F  F12  1  0.466078  0.725922  0.135618  1
  F  F13  1  0.535397  0.273663  0.862980  1
  F  F14  1  0.963067  0.273463  0.364643  1
  F  F15  1  0.031484  0.727933  0.640174  1
  F  F16  1  0.950787  0.747155  0.173362  1
  F  F17  1  0.051384  0.254670  0.824082  1
  F  F18  1  0.447659  0.252472  0.324839  1
  F  F19  1  0.543574  0.748630  0.675968  1
  F  F20  1  0.776958  0.480436  0.139723  1
  F  F21  1  0.227364  0.522206  0.858350  1
  F  F22  1  0.274157  0.518789  0.359790  1
  F  F23  1  0.723869  0.480776  0.641957  1
  F  F24  1  0.940598  0.279244  0.042176  1
  F  F25  1  0.061616  0.723374  0.953606  1
  F  F26  1  0.441171  0.722136  0.457533  1
  F  F27  1  0.559272  0.276774  0.543426  1
  F  F28  1  0.743708  0.973615  0.451588  1
  F  F29  1  0.253546  0.025437  0.550739  1
  F  F30  1  0.245291  0.028716  0.048669  1
  F  F31  1  0.754412  0.973861  0.949148  1
  F  F32  1  0.586459  0.969331  0.231513  1
  F  F33  1  0.416330  0.023823  0.767579  1
  F  F34  1  0.085750  0.030196  0.268385  1
  F  F35  1  0.922158  0.968175  0.732528  1
