# generated using pymatgen
data_CaTbNdGa8Ag3
_symmetry_space_group_name_H-M   'P 1'
_cell_length_a   4.37871007
_cell_length_b   8.42759301
_cell_length_c   8.42759260
_cell_angle_alpha   70.53501002
_cell_angle_beta   74.94274270
_cell_angle_gamma   74.94273367
_symmetry_Int_Tables_number   1
_chemical_formula_structural   CaTbNdGa8Ag3
_chemical_formula_sum   'Ca1 Tb1 Nd1 Ga8 Ag3'
_cell_volume   277.98136215
_cell_formula_units_Z   1
loop_
 _symmetry_equiv_pos_site_id
 _symmetry_equiv_pos_as_xyz
  1  'x, y, z'
loop_
 _atom_site_type_symbol
 _atom_site_label
 _atom_site_symmetry_multiplicity
 _atom_site_fract_x
 _atom_site_fract_y
 _atom_site_fract_z
 _atom_site_occupancy
  Ca  Ca0  1  0.196665  0.803335  0.803335  1
  Tb  Tb1  1  0.800845  0.199155  0.199155  1
  Nd  Nd2  1  0.499817  0.500183  0.500183  1
  Ga  Ga3  1  0.358482  0.357950  0.925084  1
  Ga  Ga4  1  0.644215  0.635642  0.075929  1
  Ga  Ga5  1  0.358482  0.925084  0.357950  1
  Ga  Ga6  1  0.644215  0.075929  0.635642  1
  Ga  Ga7  1  0.160857  0.468236  0.210051  1
  Ga  Ga8  1  0.837339  0.530111  0.795212  1
  Ga  Ga9  1  0.160857  0.210051  0.468236  1
  Ga  Ga10  1  0.837339  0.795212  0.530111  1
  Ag  Ag11  1  0.499666  0.000334  0.000334  1
  Ag  Ag12  1  0.000611  0.801553  0.197226  1
  Ag  Ag13  1  0.000611  0.197226  0.801553  1
