# generated using pymatgen
data_Tb16Y3ThSn16
_symmetry_space_group_name_H-M   'P 1'
_cell_length_a   8.09431036
_cell_length_b   8.21901211
_cell_length_c   15.55890050
_cell_angle_alpha   90.07588951
_cell_angle_beta   89.80075815
_cell_angle_gamma   89.89197680
_symmetry_Int_Tables_number   1
_chemical_formula_structural   Tb16Y3ThSn16
_chemical_formula_sum   'Tb16 Y3 Th1 Sn16'
_cell_volume   1035.08161373
_cell_formula_units_Z   1
loop_
 _symmetry_equiv_pos_site_id
 _symmetry_equiv_pos_as_xyz
  1  'x, y, z'
loop_
 _atom_site_type_symbol
 _atom_site_label
 _atom_site_symmetry_multiplicity
 _atom_site_fract_x
 _atom_site_fract_y
 _atom_site_fract_z
 _atom_site_occupancy
  Tb  Tb0  1  0.367024  0.835805  0.877824  1
  Tb  Tb1  1  0.868195  0.664082  0.621412  1
  Tb  Tb2  1  0.631612  0.163047  0.377963  1
  Tb  Tb3  1  0.133051  0.337070  0.122561  1
  Tb  Tb4  1  0.633075  0.163052  0.122393  1
  Tb  Tb5  1  0.132125  0.337252  0.378128  1
  Tb  Tb6  1  0.368198  0.836688  0.621931  1
  Tb  Tb7  1  0.867167  0.662864  0.877987  1
  Tb  Tb8  1  0.522734  0.322082  0.901984  1
  Tb  Tb9  1  0.022830  0.178991  0.598881  1
  Tb  Tb10  1  0.478464  0.678539  0.401950  1
  Tb  Tb11  1  0.979319  0.821306  0.098435  1
  Tb  Tb12  1  0.479718  0.678420  0.098021  1
  Tb  Tb13  1  0.978714  0.821073  0.401950  1
  Tb  Tb14  1  0.521384  0.322652  0.597179  1
  Tb  Tb15  1  0.198128  0.500858  0.749344  1
  Y  Y16  1  0.698012  0.997467  0.748866  1
  Y  Y17  1  0.801571  0.498053  0.250573  1
  Y  Y18  1  0.301746  0.001837  0.250043  1
  Th  Th19  1  0.017849  0.180236  0.903153  1
  Sn  Sn20  1  0.293324  0.035057  0.042370  1
  Sn  Sn21  1  0.791157  0.463992  0.458074  1
  Sn  Sn22  1  0.708967  0.965893  0.541909  1
  Sn  Sn23  1  0.209356  0.535366  0.957958  1
  Sn  Sn24  1  0.704600  0.961129  0.958898  1
  Sn  Sn25  1  0.208395  0.536577  0.541684  1
  Sn  Sn26  1  0.291417  0.036141  0.458305  1
  Sn  Sn27  1  0.792855  0.462124  0.041210  1
  Sn  Sn28  1  0.564789  0.619954  0.749790  1
  Sn  Sn29  1  0.065066  0.879514  0.750992  1
  Sn  Sn30  1  0.435160  0.380880  0.249940  1
  Sn  Sn31  1  0.934956  0.119219  0.250272  1
  Sn  Sn32  1  0.331308  0.147303  0.749869  1
  Sn  Sn33  1  0.826893  0.355681  0.748227  1
  Sn  Sn34  1  0.670594  0.852680  0.249912  1
  Sn  Sn35  1  0.170249  0.647115  0.250009  1
