# generated using pymatgen
data_Nd3Ho3Tm2(CdIr)2
_symmetry_space_group_name_H-M   'P 1'
_cell_length_a   9.70359184
_cell_length_b   9.70025289
_cell_length_c   9.70025258
_cell_angle_alpha   60.02277671
_cell_angle_beta   59.98860689
_cell_angle_gamma   59.98861260
_symmetry_Int_Tables_number   1
_chemical_formula_structural   Nd3Ho3Tm2(CdIr)2
_chemical_formula_sum   'Nd6 Ho6 Tm4 Cd4 Ir4'
_cell_volume   645.62970912
_cell_formula_units_Z   2
loop_
 _symmetry_equiv_pos_site_id
 _symmetry_equiv_pos_as_xyz
  1  'x, y, z'
loop_
 _atom_site_type_symbol
 _atom_site_label
 _atom_site_symmetry_multiplicity
 _atom_site_fract_x
 _atom_site_fract_y
 _atom_site_fract_z
 _atom_site_occupancy
  Nd  Nd0  1  0.940752  0.559248  0.559248  1
  Nd  Nd1  1  0.559248  0.940752  0.940752  1
  Nd  Nd2  1  0.559301  0.940699  0.559301  1
  Nd  Nd3  1  0.940699  0.559301  0.940699  1
  Nd  Nd4  1  0.559301  0.559301  0.940699  1
  Nd  Nd5  1  0.940699  0.940699  0.559301  1
  Ho  Ho6  1  0.347046  0.347570  0.347570  1
  Ho  Ho7  1  0.347570  0.347046  0.957814  1
  Ho  Ho8  1  0.347570  0.957814  0.347046  1
  Ho  Ho9  1  0.957814  0.347570  0.347570  1
  Ho  Ho10  1  0.813805  0.186195  0.186195  1
  Ho  Ho11  1  0.186195  0.813805  0.813805  1
  Tm  Tm12  1  0.186452  0.813548  0.186452  1
  Tm  Tm13  1  0.813548  0.186452  0.813548  1
  Tm  Tm14  1  0.186452  0.186452  0.813548  1
  Tm  Tm15  1  0.813548  0.813548  0.186452  1
  Cd  Cd16  1  0.579447  0.579297  0.579297  1
  Cd  Cd17  1  0.579297  0.579447  0.261956  1
  Cd  Cd18  1  0.579297  0.261956  0.579447  1
  Cd  Cd19  1  0.261956  0.579297  0.579297  1
  Ir  Ir20  1  0.141619  0.140741  0.140741  1
  Ir  Ir21  1  0.140741  0.141619  0.576899  1
  Ir  Ir22  1  0.140741  0.576899  0.141619  1
  Ir  Ir23  1  0.576899  0.140741  0.140741  1
