# generated using pymatgen
data_Nb5(Re7Tc)3
_symmetry_space_group_name_H-M   'P 1'
_cell_length_a   8.41015953
_cell_length_b   8.40936083
_cell_length_c   8.40929030
_cell_angle_alpha   109.46659084
_cell_angle_beta   109.47050769
_cell_angle_gamma   109.47848840
_symmetry_Int_Tables_number   1
_chemical_formula_structural   Nb5(Re7Tc)3
_chemical_formula_sum   'Nb5 Re21 Tc3'
_cell_volume   457.81957130
_cell_formula_units_Z   1
loop_
 _symmetry_equiv_pos_site_id
 _symmetry_equiv_pos_as_xyz
  1  'x, y, z'
loop_
 _atom_site_type_symbol
 _atom_site_label
 _atom_site_symmetry_multiplicity
 _atom_site_fract_x
 _atom_site_fract_y
 _atom_site_fract_z
 _atom_site_occupancy
  Nb  Nb0  1  0.999238  0.000053  0.999980  1
  Nb  Nb1  1  0.632800  0.000006  0.999995  1
  Nb  Nb2  1  0.999146  0.635080  0.000000  1
  Nb  Nb3  1  0.999144  0.000007  0.635037  1
  Nb  Nb4  1  0.364087  0.364967  0.364964  1
  Re  Re5  1  0.681940  0.398673  0.000019  1
  Re  Re6  1  0.001913  0.400722  0.683230  1
  Re  Re7  1  0.318684  0.717519  0.316780  1
  Re  Re8  1  0.318689  0.316732  0.717425  1
  Re  Re9  1  0.001964  0.683272  0.400758  1
  Re  Re10  1  0.681995  0.000006  0.398749  1
  Re  Re11  1  0.601286  0.599329  0.282584  1
  Re  Re12  1  0.283236  0.601266  0.601263  1
  Re  Re13  1  0.601191  0.282495  0.599247  1
  Re  Re14  1  0.375998  0.194519  0.000011  1
  Re  Re15  1  0.181469  0.805501  0.805480  1
  Re  Re16  1  0.376004  0.000034  0.194526  1
  Re  Re17  1  0.194443  0.378956  0.000009  1
  Re  Re18  1  0.000624  0.377316  0.194222  1
  Re  Re19  1  0.806387  0.183071  0.805775  1
  Re  Re20  1  0.806353  0.805762  0.183051  1
  Re  Re21  1  0.000539  0.194171  0.377204  1
  Re  Re22  1  0.194410  0.999952  0.378878  1
  Re  Re23  1  0.623288  0.622689  0.816919  1
  Re  Re24  1  0.815522  0.621060  0.621100  1
  Re  Re25  1  0.623322  0.816947  0.622770  1
  Tc  Tc26  1  0.400075  0.683953  0.000002  1
  Tc  Tc27  1  0.716153  0.315986  0.316045  1
  Tc  Tc28  1  0.400102  0.999955  0.683977  1
