# generated using pymatgen
data_La3In(GaCo)2
_symmetry_space_group_name_H-M   'P 1'
_cell_length_a   8.45077553
_cell_length_b   8.45077574
_cell_length_c   5.05151397
_cell_angle_alpha   98.88005286
_cell_angle_beta   98.88005221
_cell_angle_gamma   30.70633057
_symmetry_Int_Tables_number   1
_chemical_formula_structural   La3In(GaCo)2
_chemical_formula_sum   'La3 In1 Ga2 Co2'
_cell_volume   181.84055330
_cell_formula_units_Z   1
loop_
 _symmetry_equiv_pos_site_id
 _symmetry_equiv_pos_as_xyz
  1  'x, y, z'
loop_
 _atom_site_type_symbol
 _atom_site_label
 _atom_site_symmetry_multiplicity
 _atom_site_fract_x
 _atom_site_fract_y
 _atom_site_fract_z
 _atom_site_occupancy
  La  La0  1  0.000000  0.000000  0.000000  1
  La  La1  1  0.832864  0.832864  0.426941  1
  La  La2  1  0.167136  0.167136  0.573060  1
  In  In3  1  0.500000  0.500000  0.499999  1
  Ga  Ga4  1  0.647601  0.647601  0.049603  1
  Ga  Ga5  1  0.352399  0.352399  0.950398  1
  Co  Co6  1  0.209907  0.209907  0.085343  1
  Co  Co7  1  0.790093  0.790093  0.914658  1
