# generated using pymatgen
data_Tb2Pr18Si15Pt
_symmetry_space_group_name_H-M   'P 1'
_cell_length_a   7.90010432
_cell_length_b   7.90514967
_cell_length_c   15.26375200
_cell_angle_alpha   89.97225502
_cell_angle_beta   89.60861393
_cell_angle_gamma   90.05554558
_symmetry_Int_Tables_number   1
_chemical_formula_structural   Tb2Pr18Si15Pt
_chemical_formula_sum   'Tb2 Pr18 Si15 Pt1'
_cell_volume   953.22151218
_cell_formula_units_Z   1
loop_
 _symmetry_equiv_pos_site_id
 _symmetry_equiv_pos_as_xyz
  1  'x, y, z'
loop_
 _atom_site_type_symbol
 _atom_site_label
 _atom_site_symmetry_multiplicity
 _atom_site_fract_x
 _atom_site_fract_y
 _atom_site_fract_z
 _atom_site_occupancy
  Tb  Tb0  1  0.308712  0.309244  0.999599  1
  Tb  Tb1  1  0.189283  0.809973  0.250116  1
  Pr  Pr2  1  0.814215  0.187201  0.750529  1
  Pr  Pr3  1  0.694029  0.687396  0.498753  1
  Pr  Pr4  1  0.373717  0.010225  0.447222  1
  Pr  Pr5  1  0.489903  0.873603  0.699666  1
  Pr  Pr6  1  0.510507  0.124234  0.196793  1
  Pr  Pr7  1  0.876888  0.487836  0.300082  1
  Pr  Pr8  1  0.123994  0.511205  0.801770  1
  Pr  Pr9  1  0.626161  0.987842  0.949868  1
  Pr  Pr10  1  0.004287  0.377036  0.550749  1
  Pr  Pr11  1  0.988933  0.626236  0.052723  1
  Pr  Pr12  1  0.133801  0.984735  0.876742  1
  Pr  Pr13  1  0.517641  0.631709  0.125958  1
  Pr  Pr14  1  0.475221  0.366841  0.628482  1
  Pr  Pr15  1  0.628348  0.517299  0.874487  1
  Pr  Pr16  1  0.371871  0.481527  0.371622  1
  Pr  Pr17  1  0.871745  0.020457  0.375622  1
  Pr  Pr18  1  0.981979  0.127939  0.124425  1
  Pr  Pr19  1  0.022192  0.874696  0.622965  1
  Si  Si20  1  0.331049  0.691864  0.952949  1
  Si  Si21  1  0.662832  0.303298  0.451798  1
  Si  Si22  1  0.694028  0.333040  0.048282  1
  Si  Si23  1  0.305739  0.669029  0.546434  1
  Si  Si24  1  0.808980  0.830570  0.203896  1
  Si  Si25  1  0.170012  0.192902  0.296071  1
  Si  Si26  1  0.835013  0.802935  0.798680  1
  Si  Si27  1  0.287434  0.924094  0.062139  1
  Si  Si28  1  0.574630  0.788166  0.308783  1
  Si  Si29  1  0.425843  0.210222  0.816963  1
  Si  Si30  1  0.785246  0.579727  0.690309  1
  Si  Si31  1  0.213243  0.424466  0.187784  1
  Si  Si32  1  0.704971  0.074620  0.558711  1
  Si  Si33  1  0.925306  0.289329  0.942686  1
  Si  Si34  1  0.081805  0.715843  0.437090  1
  Pt  Pt35  1  0.190443  0.172664  0.699253  1
