# generated using pymatgen
data_Eu12Ni3Pt
_symmetry_space_group_name_H-M   'P 1'
_cell_length_a   6.80641400
_cell_length_b   7.83595918
_cell_length_c   10.16149500
_cell_angle_alpha   90.00000000
_cell_angle_beta   90.00000000
_cell_angle_gamma   89.92802160
_symmetry_Int_Tables_number   1
_chemical_formula_structural   Eu12Ni3Pt
_chemical_formula_sum   'Eu12 Ni3 Pt1'
_cell_volume   541.96069589
_cell_formula_units_Z   1
loop_
 _symmetry_equiv_pos_site_id
 _symmetry_equiv_pos_as_xyz
  1  'x, y, z'
loop_
 _atom_site_type_symbol
 _atom_site_label
 _atom_site_symmetry_multiplicity
 _atom_site_fract_x
 _atom_site_fract_y
 _atom_site_fract_z
 _atom_site_occupancy
  Eu  Eu0  1  0.332228  0.670991  0.069321  1
  Eu  Eu1  1  0.169090  0.170634  0.429354  1
  Eu  Eu2  1  0.669459  0.326479  0.568643  1
  Eu  Eu3  1  0.831740  0.829923  0.930559  1
  Eu  Eu4  1  0.669459  0.326479  0.931357  1
  Eu  Eu5  1  0.831740  0.829923  0.569441  1
  Eu  Eu6  1  0.332228  0.670991  0.430679  1
  Eu  Eu7  1  0.169090  0.170634  0.070646  1
  Eu  Eu8  1  0.848716  0.545453  0.250000  1
  Eu  Eu9  1  0.652870  0.045212  0.250000  1
  Eu  Eu10  1  0.147960  0.454313  0.750000  1
  Eu  Eu11  1  0.344877  0.958824  0.750000  1
  Ni  Ni12  1  0.048453  0.880360  0.250000  1
  Ni  Ni13  1  0.452080  0.380142  0.250000  1
  Ni  Ni14  1  0.950311  0.119555  0.750000  1
  Pt  Pt15  1  0.549702  0.620087  0.750000  1
