# generated using pymatgen
data_Tb7Pr9(LuSn4)4
_symmetry_space_group_name_H-M   'P 1'
_cell_length_a   8.10670512
_cell_length_b   8.32972482
_cell_length_c   15.72561749
_cell_angle_alpha   90.00696422
_cell_angle_beta   90.06447913
_cell_angle_gamma   90.05091331
_symmetry_Int_Tables_number   1
_chemical_formula_structural   Tb7Pr9(LuSn4)4
_chemical_formula_sum   'Tb7 Pr9 Lu4 Sn16'
_cell_volume   1061.89674110
_cell_formula_units_Z   1
loop_
 _symmetry_equiv_pos_site_id
 _symmetry_equiv_pos_as_xyz
  1  'x, y, z'
loop_
 _atom_site_type_symbol
 _atom_site_label
 _atom_site_symmetry_multiplicity
 _atom_site_fract_x
 _atom_site_fract_y
 _atom_site_fract_z
 _atom_site_occupancy
  Tb  Tb0  1  0.352924  0.835308  0.875222  1
  Tb  Tb1  1  0.852710  0.665044  0.623222  1
  Tb  Tb2  1  0.647093  0.164695  0.376227  1
  Tb  Tb3  1  0.145874  0.336336  0.123544  1
  Tb  Tb4  1  0.645579  0.163892  0.126012  1
  Tb  Tb5  1  0.147621  0.334977  0.376284  1
  Tb  Tb6  1  0.353182  0.835741  0.622525  1
  Pr  Pr7  1  0.854569  0.665116  0.878647  1
  Pr  Pr8  1  0.510855  0.321205  0.903543  1
  Pr  Pr9  1  0.009970  0.178353  0.594619  1
  Pr  Pr10  1  0.490437  0.677944  0.404022  1
  Pr  Pr11  1  0.990059  0.821735  0.097764  1
  Pr  Pr12  1  0.489531  0.677887  0.097154  1
  Pr  Pr13  1  0.990128  0.822134  0.403691  1
  Pr  Pr14  1  0.509238  0.321325  0.595006  1
  Pr  Pr15  1  0.009903  0.179064  0.903860  1
  Lu  Lu16  1  0.186507  0.501174  0.749459  1
  Lu  Lu17  1  0.685200  0.998590  0.748787  1
  Lu  Lu18  1  0.813761  0.497903  0.250830  1
  Lu  Lu19  1  0.313730  0.001733  0.250066  1
  Sn  Sn20  1  0.308833  0.040016  0.042612  1
  Sn  Sn21  1  0.810557  0.460076  0.457430  1
  Sn  Sn22  1  0.690764  0.960000  0.542257  1
  Sn  Sn23  1  0.199771  0.538752  0.957914  1
  Sn  Sn24  1  0.686147  0.965017  0.958821  1
  Sn  Sn25  1  0.189674  0.540140  0.542409  1
  Sn  Sn26  1  0.309542  0.039749  0.456565  1
  Sn  Sn27  1  0.806201  0.456945  0.046403  1
  Sn  Sn28  1  0.547883  0.620300  0.747508  1
  Sn  Sn29  1  0.051568  0.881553  0.748415  1
  Sn  Sn30  1  0.449476  0.379138  0.250586  1
  Sn  Sn31  1  0.950538  0.121608  0.250204  1
  Sn  Sn32  1  0.317952  0.145295  0.749176  1
  Sn  Sn33  1  0.816881  0.352473  0.748268  1
  Sn  Sn34  1  0.682676  0.854341  0.250643  1
  Sn  Sn35  1  0.182664  0.644442  0.250303  1
