# generated using pymatgen
data_Ti6Co15Si7Rh
_symmetry_space_group_name_H-M   'P 1'
_cell_length_a   7.87151537
_cell_length_b   7.87151521
_cell_length_c   7.90094196
_cell_angle_alpha   60.12312815
_cell_angle_beta   60.12312835
_cell_angle_gamma   59.99999933
_symmetry_Int_Tables_number   1
_chemical_formula_structural   Ti6Co15Si7Rh
_chemical_formula_sum   'Ti6 Co15 Si7 Rh1'
_cell_volume   346.80576960
_cell_formula_units_Z   1
loop_
 _symmetry_equiv_pos_site_id
 _symmetry_equiv_pos_as_xyz
  1  'x, y, z'
loop_
 _atom_site_type_symbol
 _atom_site_label
 _atom_site_symmetry_multiplicity
 _atom_site_fract_x
 _atom_site_fract_y
 _atom_site_fract_z
 _atom_site_occupancy
  Ti  Ti0  1  0.200821  0.801737  0.796623  1
  Ti  Ti1  1  0.803054  0.803054  0.199123  1
  Ti  Ti2  1  0.803054  0.194768  0.199123  1
  Ti  Ti3  1  0.200821  0.200821  0.796623  1
  Ti  Ti4  1  0.801737  0.200821  0.796623  1
  Ti  Ti5  1  0.194768  0.803054  0.199123  1
  Co  Co6  1  0.166013  0.499819  0.168154  1
  Co  Co7  1  0.858633  0.378017  0.385332  1
  Co  Co8  1  0.495087  0.836977  0.830962  1
  Co  Co9  1  0.499819  0.166013  0.168154  1
  Co  Co10  1  0.833738  0.833738  0.498788  1
  Co  Co11  1  0.167644  0.167644  0.497067  1
  Co  Co12  1  0.141416  0.619570  0.619444  1
  Co  Co13  1  0.166013  0.166013  0.168154  1
  Co  Co14  1  0.379302  0.379302  0.862095  1
  Co  Co15  1  0.619570  0.619570  0.619444  1
  Co  Co16  1  0.378017  0.858633  0.385332  1
  Co  Co17  1  0.378017  0.378017  0.385332  1
  Co  Co18  1  0.836977  0.836977  0.830962  1
  Co  Co19  1  0.619570  0.141416  0.619444  1
  Co  Co20  1  0.836977  0.495087  0.830962  1
  Si  Si21  1  0.501248  0.999953  0.498845  1
  Si  Si22  1  0.499450  0.499450  0.994407  1
  Si  Si23  1  0.495264  0.495264  0.514207  1
  Si  Si24  1  0.999953  0.999953  0.498845  1
  Si  Si25  1  0.006692  0.499450  0.994407  1
  Si  Si26  1  0.999953  0.501248  0.498845  1
  Si  Si27  1  0.499450  0.006692  0.994407  1
  Rh  Rh28  1  0.616944  0.616944  0.149167  1
