# generated using pymatgen
data_RbVIO6
_symmetry_space_group_name_H-M   'P 1'
_cell_length_a   5.21598000
_cell_length_b   5.21598071
_cell_length_c   6.48044600
_cell_angle_alpha   90.00000000
_cell_angle_beta   90.00000000
_cell_angle_gamma   119.99999553
_symmetry_Int_Tables_number   1
_chemical_formula_structural   RbVIO6
_chemical_formula_sum   'Rb1 V1 I1 O6'
_cell_volume   152.68889110
_cell_formula_units_Z   1
loop_
 _symmetry_equiv_pos_site_id
 _symmetry_equiv_pos_as_xyz
  1  'x, y, z'
loop_
 _atom_site_type_symbol
 _atom_site_label
 _atom_site_symmetry_multiplicity
 _atom_site_fract_x
 _atom_site_fract_y
 _atom_site_fract_z
 _atom_site_occupancy
  Rb  Rb0  1  0.666667  0.333333  0.000000  1
  V  V1  1  0.000000  0.000000  0.500000  1
  I  I2  1  0.333333  0.666667  0.500000  1
  O  O3  1  0.065414  0.725681  0.330327  1
  O  O4  1  0.065414  0.339733  0.669673  1
  O  O5  1  0.660267  0.725681  0.669673  1
  O  O6  1  0.274319  0.934586  0.669673  1
  O  O7  1  0.660267  0.934586  0.330327  1
  O  O8  1  0.274319  0.339733  0.330327  1
