# generated using pymatgen
data_Ca2Cr2H11
_symmetry_space_group_name_H-M   'P 1'
_cell_length_a   4.52606575
_cell_length_b   6.29685382
_cell_length_c   7.75051428
_cell_angle_alpha   53.79280038
_cell_angle_beta   54.88683615
_cell_angle_gamma   90.48727136
_symmetry_Int_Tables_number   1
_chemical_formula_structural   Ca2Cr2H11
_chemical_formula_sum   'Ca2 Cr2 H11'
_cell_volume   123.84918184
_cell_formula_units_Z   1
loop_
 _symmetry_equiv_pos_site_id
 _symmetry_equiv_pos_as_xyz
  1  'x, y, z'
loop_
 _atom_site_type_symbol
 _atom_site_label
 _atom_site_symmetry_multiplicity
 _atom_site_fract_x
 _atom_site_fract_y
 _atom_site_fract_z
 _atom_site_occupancy
  Ca  Ca0  1  0.089307  0.208393  0.877216  1
  Ca  Ca1  1  0.901461  0.907300  0.580455  1
  Cr  Cr2  1  0.173130  0.620236  0.316367  1
  Cr  Cr3  1  0.843498  0.494536  0.135091  1
  H  H4  1  0.785590  0.335619  0.436673  1
  H  H5  1  0.638469  0.127379  0.344831  1
  H  H6  1  0.369420  0.740418  0.391981  1
  H  H7  1  0.725668  0.783630  0.003717  1
  H  H8  1  0.217514  0.776590  0.012695  1
  H  H9  1  0.066000  0.897379  0.250697  1
  H  H10  1  0.214156  0.774843  0.765744  1
  H  H11  1  0.221978  0.426696  0.006078  1
  H  H12  1  0.296288  0.325477  0.444391  1
  H  H13  1  0.754951  0.401689  0.692875  1
  H  H14  1  0.704548  0.418930  0.014415  1
