# generated using pymatgen
data_LaY4(MnB3)2
_symmetry_space_group_name_H-M   'P 1'
_cell_length_a   5.46332241
_cell_length_b   5.46332156
_cell_length_c   8.34920029
_cell_angle_alpha   70.90251678
_cell_angle_beta   70.90252254
_cell_angle_gamma   59.99999960
_symmetry_Int_Tables_number   1
_chemical_formula_structural   LaY4(MnB3)2
_chemical_formula_sum   'La1 Y4 Mn2 B6'
_cell_volume   199.82461094
_cell_formula_units_Z   1
loop_
 _symmetry_equiv_pos_site_id
 _symmetry_equiv_pos_as_xyz
  1  'x, y, z'
loop_
 _atom_site_type_symbol
 _atom_site_label
 _atom_site_symmetry_multiplicity
 _atom_site_fract_x
 _atom_site_fract_y
 _atom_site_fract_z
 _atom_site_occupancy
  La  La0  1  0.000000  0.000000  0.000000  1
  Y  Y1  1  0.750090  0.750090  0.749732  1
  Y  Y2  1  0.249910  0.249910  0.250268  1
  Y  Y3  1  0.582222  0.582222  0.253334  1
  Y  Y4  1  0.417778  0.417778  0.746666  1
  Mn  Mn5  1  0.884858  0.884858  0.345426  1
  Mn  Mn6  1  0.115142  0.115142  0.654574  1
  B  B7  1  0.500000  0.165714  0.500000  1
  B  B8  1  0.834286  0.500000  0.500000  1
  B  B9  1  0.165714  0.834286  0.500000  1
  B  B10  1  0.165714  0.500000  0.500000  1
  B  B11  1  0.834286  0.165714  0.500000  1
  B  B12  1  0.500000  0.834286  0.500000  1
