# generated using pymatgen
data_Nd2DyTm(NiAs)4
_symmetry_space_group_name_H-M   'P 1'
_cell_length_a   4.07144200
_cell_length_b   4.07144269
_cell_length_c   15.82220300
_cell_angle_alpha   90.00000000
_cell_angle_beta   90.00000000
_cell_angle_gamma   119.99999439
_symmetry_Int_Tables_number   1
_chemical_formula_structural   Nd2DyTm(NiAs)4
_chemical_formula_sum   'Nd2 Dy1 Tm1 Ni4 As4'
_cell_volume   227.14029580
_cell_formula_units_Z   1
loop_
 _symmetry_equiv_pos_site_id
 _symmetry_equiv_pos_as_xyz
  1  'x, y, z'
loop_
 _atom_site_type_symbol
 _atom_site_label
 _atom_site_symmetry_multiplicity
 _atom_site_fract_x
 _atom_site_fract_y
 _atom_site_fract_z
 _atom_site_occupancy
  Nd  Nd0  1  0.000000  0.000000  0.001095  1
  Nd  Nd1  1  0.000000  0.000000  0.498905  1
  Dy  Dy2  1  0.000000  0.000000  0.750000  1
  Tm  Tm3  1  0.000000  0.000000  0.250000  1
  Ni  Ni4  1  0.333333  0.666667  0.140600  1
  Ni  Ni5  1  0.666667  0.333333  0.863524  1
  Ni  Ni6  1  0.666667  0.333333  0.636476  1
  Ni  Ni7  1  0.333333  0.666667  0.359400  1
  As  As8  1  0.333333  0.666667  0.625158  1
  As  As9  1  0.666667  0.333333  0.373609  1
  As  As10  1  0.666667  0.333333  0.126391  1
  As  As11  1  0.333333  0.666667  0.874842  1
