# generated using pymatgen
data_Pr4SmP12Pd3Ru16
_symmetry_space_group_name_H-M   'P 1'
_cell_length_a   12.71977200
_cell_length_b   12.71977141
_cell_length_c   4.02698100
_cell_angle_alpha   90.00000000
_cell_angle_beta   90.00000000
_cell_angle_gamma   120.00000154
_symmetry_Int_Tables_number   1
_chemical_formula_structural   Pr4SmP12Pd3Ru16
_chemical_formula_sum   'Pr4 Sm1 P12 Pd3 Ru16'
_cell_volume   564.24645442
_cell_formula_units_Z   1
loop_
 _symmetry_equiv_pos_site_id
 _symmetry_equiv_pos_as_xyz
  1  'x, y, z'
loop_
 _atom_site_type_symbol
 _atom_site_label
 _atom_site_symmetry_multiplicity
 _atom_site_fract_x
 _atom_site_fract_y
 _atom_site_fract_z
 _atom_site_occupancy
  Pr  Pr0  1  0.182003  0.181944  0.500000  1
  Pr  Pr1  1  0.818056  0.000060  0.500000  1
  Pr  Pr2  1  0.999940  0.817997  0.500000  1
  Pr  Pr3  1  0.333333  0.666667  0.000000  1
  Sm  Sm4  1  0.666667  0.333333  0.000000  1
  P  P5  1  0.811071  0.810718  0.000000  1
  P  P6  1  0.189282  0.000353  0.000000  1
  P  P7  1  0.999647  0.188929  0.000000  1
  P  P8  1  0.178272  0.477458  0.500000  1
  P  P9  1  0.522542  0.700813  0.500000  1
  P  P10  1  0.299187  0.821728  0.500000  1
  P  P11  1  0.700364  0.520631  0.500000  1
  P  P12  1  0.820267  0.299636  0.500000  1
  P  P13  1  0.479369  0.179733  0.500000  1
  P  P14  1  0.369204  0.369250  0.000000  1
  P  P15  1  0.630750  0.999954  0.000000  1
  P  P16  1  0.000046  0.630796  0.000000  1
  Pd  Pd17  1  0.553612  0.553620  0.000000  1
  Pd  Pd18  1  0.446380  0.999992  0.000000  1
  Pd  Pd19  1  0.000008  0.446388  0.000000  1
  Ru  Ru20  1  0.710452  0.709976  0.500000  1
  Ru  Ru21  1  0.290024  0.000476  0.500000  1
  Ru  Ru22  1  0.999524  0.289548  0.500000  1
  Ru  Ru23  1  0.185330  0.379733  0.000000  1
  Ru  Ru24  1  0.620267  0.805597  0.000000  1
  Ru  Ru25  1  0.194403  0.814670  0.000000  1
  Ru  Ru26  1  0.805062  0.618888  0.000000  1
  Ru  Ru27  1  0.813826  0.194938  0.000000  1
  Ru  Ru28  1  0.381112  0.186174  0.000000  1
  Ru  Ru29  1  0.369358  0.491317  0.500000  1
  Ru  Ru30  1  0.508683  0.878042  0.500000  1
  Ru  Ru31  1  0.121958  0.630642  0.500000  1
  Ru  Ru32  1  0.876443  0.506762  0.500000  1
  Ru  Ru33  1  0.630318  0.123557  0.500000  1
  Ru  Ru34  1  0.493238  0.369682  0.500000  1
  Ru  Ru35  1  0.000000  0.000000  0.000000  1
