# generated using pymatgen
data_Ho4B4I5
_symmetry_space_group_name_H-M   'P 1'
_cell_length_a   9.66531691
_cell_length_b   9.66531639
_cell_length_c   9.70636376
_cell_angle_alpha   74.56177687
_cell_angle_beta   74.56177632
_cell_angle_gamma   25.56634369
_symmetry_Int_Tables_number   1
_chemical_formula_structural   Ho4B4I5
_chemical_formula_sum   'Ho4 B4 I5'
_cell_volume   376.45384156
_cell_formula_units_Z   1
loop_
 _symmetry_equiv_pos_site_id
 _symmetry_equiv_pos_as_xyz
  1  'x, y, z'
loop_
 _atom_site_type_symbol
 _atom_site_label
 _atom_site_symmetry_multiplicity
 _atom_site_fract_x
 _atom_site_fract_y
 _atom_site_fract_z
 _atom_site_occupancy
  Ho  Ho0  1  0.506537  0.506537  0.754766  1
  Ho  Ho1  1  0.494996  0.494996  0.244802  1
  Ho  Ho2  1  0.127945  0.127945  0.936864  1
  Ho  Ho3  1  0.873113  0.873113  0.061730  1
  B  B4  1  0.314491  0.686541  0.999933  1
  B  B5  1  0.686541  0.314491  0.999933  1
  B  B6  1  0.999010  0.999010  0.101344  1
  B  B7  1  0.001975  0.001975  0.898487  1
  I  I8  1  0.677376  0.677376  0.688854  1
  I  I9  1  0.324172  0.324172  0.310757  1
  I  I10  1  0.332233  0.332233  0.853094  1
  I  I11  1  0.670281  0.670281  0.142450  1
  I  I12  1  0.005630  0.005630  0.497186  1
