# generated using pymatgen
data_Y2HoTm7Cd3Ru
_symmetry_space_group_name_H-M   'P 1'
_cell_length_a   9.52665975
_cell_length_b   9.51769537
_cell_length_c   9.75553300
_cell_angle_alpha   90.00000000
_cell_angle_beta   90.00000000
_cell_angle_gamma   119.96887293
_symmetry_Int_Tables_number   1
_chemical_formula_structural   Y2HoTm7Cd3Ru
_chemical_formula_sum   'Y4 Ho2 Tm14 Cd6 Ru2'
_cell_volume   766.28482072
_cell_formula_units_Z   2
loop_
 _symmetry_equiv_pos_site_id
 _symmetry_equiv_pos_as_xyz
  1  'x, y, z'
loop_
 _atom_site_type_symbol
 _atom_site_label
 _atom_site_symmetry_multiplicity
 _atom_site_fract_x
 _atom_site_fract_y
 _atom_site_fract_z
 _atom_site_occupancy
  Y  Y0  1  0.918768  0.459383  0.250000  1
  Y  Y1  1  0.459739  0.540047  0.750000  1
  Y  Y2  1  0.459739  0.919693  0.750000  1
  Y  Y3  1  0.080158  0.540079  0.750000  1
  Ho  Ho4  1  0.539988  0.459748  0.250000  1
  Ho  Ho5  1  0.539988  0.080241  0.250000  1
  Tm  Tm6  1  0.000106  0.000053  0.500030  1
  Tm  Tm7  1  0.000106  0.000053  0.999970  1
  Tm  Tm8  1  0.210395  0.790377  0.440268  1
  Tm  Tm9  1  0.210395  0.420020  0.440268  1
  Tm  Tm10  1  0.580156  0.790079  0.440137  1
  Tm  Tm11  1  0.789540  0.209876  0.559478  1
  Tm  Tm12  1  0.789540  0.579663  0.559478  1
  Tm  Tm13  1  0.420509  0.210254  0.559190  1
  Tm  Tm14  1  0.789540  0.209876  0.940522  1
  Tm  Tm15  1  0.789540  0.579663  0.940522  1
  Tm  Tm16  1  0.420509  0.210254  0.940810  1
  Tm  Tm17  1  0.210395  0.790377  0.059732  1
  Tm  Tm18  1  0.210395  0.420020  0.059732  1
  Tm  Tm19  1  0.580156  0.790079  0.059863  1
  Cd  Cd20  1  0.885850  0.113193  0.250000  1
  Cd  Cd21  1  0.885850  0.772657  0.250000  1
  Cd  Cd22  1  0.227920  0.113960  0.250000  1
  Cd  Cd23  1  0.113578  0.886622  0.750000  1
  Cd  Cd24  1  0.113578  0.226956  0.750000  1
  Cd  Cd25  1  0.773002  0.886501  0.750000  1
  Ru  Ru26  1  0.333778  0.666889  0.250000  1
  Ru  Ru27  1  0.666781  0.333390  0.750000  1
