# generated using pymatgen
data_HoEr2Zn(Ga4Pd)2
_symmetry_space_group_name_H-M   'P 1'
_cell_length_a   8.10489748
_cell_length_b   8.10489756
_cell_length_c   8.10489701
_cell_angle_alpha   149.11559987
_cell_angle_beta   108.77916374
_cell_angle_gamma   79.62289373
_symmetry_Int_Tables_number   1
_chemical_formula_structural   HoEr2Zn(Ga4Pd)2
_chemical_formula_sum   'Ho1 Er2 Zn1 Ga8 Pd2'
_cell_volume   253.62537727
_cell_formula_units_Z   1
loop_
 _symmetry_equiv_pos_site_id
 _symmetry_equiv_pos_as_xyz
  1  'x, y, z'
loop_
 _atom_site_type_symbol
 _atom_site_label
 _atom_site_symmetry_multiplicity
 _atom_site_fract_x
 _atom_site_fract_y
 _atom_site_fract_z
 _atom_site_occupancy
  Ho  Ho0  1  0.500000  0.500000  0.000000  1
  Er  Er1  1  0.200640  0.200640  0.000000  1
  Er  Er2  1  0.799360  0.799360  0.000000  1
  Zn  Zn3  1  0.000000  0.500000  0.500000  1
  Ga  Ga4  1  0.647501  0.363387  0.284114  1
  Ga  Ga5  1  0.352499  0.636613  0.715886  1
  Ga  Ga6  1  0.079273  0.363387  0.715886  1
  Ga  Ga7  1  0.920727  0.636613  0.284114  1
  Ga  Ga8  1  0.522072  0.155982  0.366091  1
  Ga  Ga9  1  0.477928  0.844018  0.633909  1
  Ga  Ga10  1  0.789891  0.155982  0.633909  1
  Ga  Ga11  1  0.210109  0.844018  0.366091  1
  Pd  Pd12  1  0.182671  0.000000  0.182671  1
  Pd  Pd13  1  0.817329  0.000000  0.817329  1
