# generated using pymatgen
data_Hf6Ti(Ga2Mo)3
_symmetry_space_group_name_H-M   'P 1'
_cell_length_a   7.86557100
_cell_length_b   7.86557186
_cell_length_c   5.31774300
_cell_angle_alpha   90.00000000
_cell_angle_beta   90.00000000
_cell_angle_gamma   120.00000061
_symmetry_Int_Tables_number   1
_chemical_formula_structural   Hf6Ti(Ga2Mo)3
_chemical_formula_sum   'Hf6 Ti1 Ga6 Mo3'
_cell_volume   284.91711106
_cell_formula_units_Z   1
loop_
 _symmetry_equiv_pos_site_id
 _symmetry_equiv_pos_as_xyz
  1  'x, y, z'
loop_
 _atom_site_type_symbol
 _atom_site_label
 _atom_site_symmetry_multiplicity
 _atom_site_fract_x
 _atom_site_fract_y
 _atom_site_fract_z
 _atom_site_occupancy
  Hf  Hf0  1  0.247284  0.001288  0.247197  1
  Hf  Hf1  1  0.754003  0.001288  0.752803  1
  Hf  Hf2  1  0.998712  0.245997  0.247197  1
  Hf  Hf3  1  0.998712  0.752716  0.752803  1
  Hf  Hf4  1  0.754003  0.752716  0.247197  1
  Hf  Hf5  1  0.247284  0.245997  0.752803  1
  Ti  Ti6  1  0.333333  0.666667  0.500000  1
  Ga  Ga7  1  0.599389  0.000372  0.248695  1
  Ga  Ga8  1  0.400983  0.000372  0.751305  1
  Ga  Ga9  1  0.999628  0.599017  0.248695  1
  Ga  Ga10  1  0.999628  0.400611  0.751305  1
  Ga  Ga11  1  0.400983  0.400611  0.248695  1
  Ga  Ga12  1  0.599389  0.599017  0.751305  1
  Mo  Mo13  1  0.333333  0.666667  0.000000  1
  Mo  Mo14  1  0.666667  0.333333  0.000000  1
  Mo  Mo15  1  0.666667  0.333333  0.500000  1
