# generated using pymatgen
data_Ba3Sr3Al4(SbAs)4
_symmetry_space_group_name_H-M   'P 1'
_cell_length_a   9.11861293
_cell_length_b   9.08299275
_cell_length_c   7.17826505
_cell_angle_alpha   88.49014245
_cell_angle_beta   88.27673003
_cell_angle_gamma   75.66425314
_symmetry_Int_Tables_number   1
_chemical_formula_structural   Ba3Sr3Al4(SbAs)4
_chemical_formula_sum   'Ba3 Sr3 Al4 Sb4 As4'
_cell_volume   575.65157576
_cell_formula_units_Z   1
loop_
 _symmetry_equiv_pos_site_id
 _symmetry_equiv_pos_as_xyz
  1  'x, y, z'
loop_
 _atom_site_type_symbol
 _atom_site_label
 _atom_site_symmetry_multiplicity
 _atom_site_fract_x
 _atom_site_fract_y
 _atom_site_fract_z
 _atom_site_occupancy
  Ba  Ba0  1  0.003317  0.738902  0.533113  1
  Ba  Ba1  1  0.262192  0.994916  0.967224  1
  Ba  Ba2  1  0.995009  0.261661  0.466144  1
  Sr  Sr3  1  0.733569  0.005171  0.029236  1
  Sr  Sr4  1  0.413221  0.587645  0.250295  1
  Sr  Sr5  1  0.588085  0.413206  0.751048  1
  Al  Al6  1  0.812963  0.588181  0.090047  1
  Al  Al7  1  0.413141  0.186246  0.411244  1
  Al  Al8  1  0.187306  0.410758  0.911600  1
  Al  Al9  1  0.588066  0.813086  0.588898  1
  Sb  Sb10  1  0.062094  0.703382  0.030078  1
  Sb  Sb11  1  0.299177  0.934462  0.471510  1
  Sb  Sb12  1  0.932739  0.296385  0.971654  1
  Sb  Sb13  1  0.702323  0.063434  0.523729  1
  As  As14  1  0.729200  0.577204  0.425845  1
  As  As15  1  0.425786  0.267871  0.074564  1
  As  As16  1  0.270339  0.421618  0.575482  1
  As  As17  1  0.581471  0.735871  0.928288  1
