# generated using pymatgen
data_Nd16CdNi3Hg3Os
_symmetry_space_group_name_H-M   'P 1'
_cell_length_a   9.90426186
_cell_length_b   9.91008180
_cell_length_c   9.91008271
_cell_angle_alpha   59.88944810
_cell_angle_beta   59.38976795
_cell_angle_gamma   59.38977042
_symmetry_Int_Tables_number   1
_chemical_formula_structural   Nd16CdNi3Hg3Os
_chemical_formula_sum   'Nd16 Cd1 Ni3 Hg3 Os1'
_cell_volume   680.82633557
_cell_formula_units_Z   1
loop_
 _symmetry_equiv_pos_site_id
 _symmetry_equiv_pos_as_xyz
  1  'x, y, z'
loop_
 _atom_site_type_symbol
 _atom_site_label
 _atom_site_symmetry_multiplicity
 _atom_site_fract_x
 _atom_site_fract_y
 _atom_site_fract_z
 _atom_site_occupancy
  Nd  Nd0  1  0.598942  0.597429  0.597429  1
  Nd  Nd1  1  0.599322  0.600921  0.203848  1
  Nd  Nd2  1  0.599322  0.203848  0.600921  1
  Nd  Nd3  1  0.202174  0.600727  0.600727  1
  Nd  Nd4  1  0.059368  0.440087  0.440087  1
  Nd  Nd5  1  0.437975  0.057726  0.057726  1
  Nd  Nd6  1  0.437119  0.061490  0.438391  1
  Nd  Nd7  1  0.057885  0.437907  0.059647  1
  Nd  Nd8  1  0.437119  0.438391  0.061490  1
  Nd  Nd9  1  0.057885  0.059647  0.437907  1
  Nd  Nd10  1  0.189954  0.814026  0.814026  1
  Nd  Nd11  1  0.802745  0.190979  0.190979  1
  Nd  Nd12  1  0.814447  0.188502  0.814416  1
  Nd  Nd13  1  0.189203  0.803833  0.190423  1
  Nd  Nd14  1  0.814447  0.814416  0.188502  1
  Nd  Nd15  1  0.189203  0.190423  0.803833  1
  Cd  Cd16  1  0.514700  0.827246  0.827246  1
  Ni  Ni17  1  0.391714  0.394298  0.825855  1
  Ni  Ni18  1  0.391714  0.825855  0.394298  1
  Ni  Ni19  1  0.823680  0.393035  0.393035  1
  Hg  Hg20  1  0.833035  0.835202  0.835202  1
  Hg  Hg21  1  0.832720  0.833747  0.497898  1
  Hg  Hg22  1  0.832720  0.497898  0.833747  1
  Os  Os23  1  0.392610  0.392367  0.392367  1
