# generated using pymatgen
data_LuZr(Ga3Ir)3
_symmetry_space_group_name_H-M   'P 1'
_cell_length_a   7.52784718
_cell_length_b   7.53025246
_cell_length_c   9.42983600
_cell_angle_alpha   89.98913471
_cell_angle_beta   90.01245950
_cell_angle_gamma   119.92801742
_symmetry_Int_Tables_number   1
_chemical_formula_structural   LuZr(Ga3Ir)3
_chemical_formula_sum   'Lu2 Zr2 Ga18 Ir6'
_cell_volume   463.26516604
_cell_formula_units_Z   2
loop_
 _symmetry_equiv_pos_site_id
 _symmetry_equiv_pos_as_xyz
  1  'x, y, z'
loop_
 _atom_site_type_symbol
 _atom_site_label
 _atom_site_symmetry_multiplicity
 _atom_site_fract_x
 _atom_site_fract_y
 _atom_site_fract_z
 _atom_site_occupancy
  Lu  Lu0  1  0.996198  0.669419  0.250015  1
  Lu  Lu1  1  0.003802  0.330581  0.749985  1
  Zr  Zr2  1  0.670345  0.996608  0.249895  1
  Zr  Zr3  1  0.329655  0.003392  0.750105  1
  Ga  Ga4  1  0.127438  0.126447  0.250000  1
  Ga  Ga5  1  0.872563  0.873552  0.750000  1
  Ga  Ga6  1  0.996916  0.332624  0.083481  1
  Ga  Ga7  1  0.003084  0.667376  0.916519  1
  Ga  Ga8  1  0.003148  0.667422  0.583491  1
  Ga  Ga9  1  0.336619  0.997860  0.419464  1
  Ga  Ga10  1  0.996852  0.332578  0.416509  1
  Ga  Ga11  1  0.663381  0.002140  0.580536  1
  Ga  Ga12  1  0.663422  0.002201  0.919461  1
  Ga  Ga13  1  0.336578  0.997799  0.080539  1
  Ga  Ga14  1  0.331493  0.329388  0.570718  1
  Ga  Ga15  1  0.668507  0.670612  0.429282  1
  Ga  Ga16  1  0.668530  0.670616  0.070723  1
  Ga  Ga17  1  0.331470  0.329384  0.929277  1
  Ga  Ga18  1  0.340704  0.551464  0.249923  1
  Ga  Ga19  1  0.659296  0.448536  0.750077  1
  Ga  Ga20  1  0.547985  0.337511  0.250063  1
  Ga  Ga21  1  0.452015  0.662489  0.749937  1
  Ir  Ir22  1  0.672680  0.328945  0.000703  1
  Ir  Ir23  1  0.327320  0.671055  0.999297  1
  Ir  Ir24  1  0.327264  0.670975  0.500419  1
  Ir  Ir25  1  0.672736  0.329025  0.499581  1
  Ir  Ir26  1  0.000000  0.000000  0.000000  1
  Ir  Ir27  1  0.000000  0.000000  0.500000  1
