# generated using pymatgen
data_V8Si5GeMo2
_symmetry_space_group_name_H-M   'P 1'
_cell_length_a   4.79682117
_cell_length_b   7.12244331
_cell_length_c   7.13880275
_cell_angle_alpha   83.54154256
_cell_angle_beta   70.36857201
_cell_angle_gamma   70.32162895
_symmetry_Int_Tables_number   1
_chemical_formula_structural   V8Si5GeMo2
_chemical_formula_sum   'V8 Si5 Ge1 Mo2'
_cell_volume   216.30456590
_cell_formula_units_Z   1
loop_
 _symmetry_equiv_pos_site_id
 _symmetry_equiv_pos_as_xyz
  1  'x, y, z'
loop_
 _atom_site_type_symbol
 _atom_site_label
 _atom_site_symmetry_multiplicity
 _atom_site_fract_x
 _atom_site_fract_y
 _atom_site_fract_z
 _atom_site_occupancy
  V  V0  1  0.772240  0.306918  0.152463  1
  V  V1  1  0.231621  0.693082  0.847537  1
  V  V2  1  0.573149  0.694812  0.153928  1
  V  V3  1  0.421889  0.305188  0.846072  1
  V  V4  1  0.076413  0.153457  0.698334  1
  V  V5  1  0.928205  0.846543  0.301666  1
  V  V6  1  0.749135  0.500000  0.500000  1
  V  V7  1  0.250573  0.500000  0.500000  1
  Si  Si8  1  0.164205  0.503977  0.167508  1
  Si  Si9  1  0.835689  0.496023  0.832492  1
  Si  Si10  1  0.334700  0.829529  0.500966  1
  Si  Si11  1  0.665194  0.170471  0.499034  1
  Si  Si12  1  0.249792  0.000000  0.000000  1
  Ge  Ge13  1  0.753524  0.000000  0.000000  1
  Mo  Mo14  1  0.724129  0.848371  0.697043  1
  Mo  Mo15  1  0.269543  0.151629  0.302957  1
