# generated using pymatgen
data_HoLu(ScIn)2
_symmetry_space_group_name_H-M   'P 1'
_cell_length_a   5.15845500
_cell_length_b   5.15845605
_cell_length_c   6.58662500
_cell_angle_alpha   90.00000000
_cell_angle_beta   90.00000000
_cell_angle_gamma   119.99999967
_symmetry_Int_Tables_number   1
_chemical_formula_structural   HoLu(ScIn)2
_chemical_formula_sum   'Ho1 Lu1 Sc2 In2'
_cell_volume   151.78643209
_cell_formula_units_Z   1
loop_
 _symmetry_equiv_pos_site_id
 _symmetry_equiv_pos_as_xyz
  1  'x, y, z'
loop_
 _atom_site_type_symbol
 _atom_site_label
 _atom_site_symmetry_multiplicity
 _atom_site_fract_x
 _atom_site_fract_y
 _atom_site_fract_z
 _atom_site_occupancy
  Ho  Ho0  1  0.000000  0.000000  0.000000  1
  Lu  Lu1  1  0.000000  0.000000  0.500000  1
  Sc  Sc2  1  0.333333  0.666667  0.747824  1
  Sc  Sc3  1  0.666667  0.333333  0.252176  1
  In  In4  1  0.666667  0.333333  0.748943  1
  In  In5  1  0.333333  0.666667  0.251057  1
