# generated using pymatgen
data_Y6Co23
_symmetry_space_group_name_H-M   'P 1'
_cell_length_a   8.36086300
_cell_length_b   8.36086426
_cell_length_c   8.36086300
_cell_angle_alpha   119.99999897
_cell_angle_beta   90.00000000
_cell_angle_gamma   119.99999897
_symmetry_Int_Tables_number   1
_chemical_formula_structural   Y6Co23
_chemical_formula_sum   'Y6 Co23'
_cell_volume   413.27430368
_cell_formula_units_Z   1
loop_
 _symmetry_equiv_pos_site_id
 _symmetry_equiv_pos_as_xyz
  1  'x, y, z'
loop_
 _atom_site_type_symbol
 _atom_site_label
 _atom_site_symmetry_multiplicity
 _atom_site_fract_x
 _atom_site_fract_y
 _atom_site_fract_z
 _atom_site_occupancy
  Y  Y0  1  0.713314  0.000000  0.286685  1
  Y  Y1  1  0.286686  0.000000  0.286686  1
  Y  Y2  1  0.286686  0.573371  0.286686  1
  Y  Y3  1  0.286685  0.000000  0.713314  1
  Y  Y4  1  0.713314  0.000000  0.713314  1
  Y  Y5  1  0.713314  0.426630  0.713314  1
  Co  Co6  1  0.000000  0.000000  0.000000  1
  Co  Co7  1  0.500001  0.000000  0.000000  1
  Co  Co8  1  0.000000  0.500001  0.000000  1
  Co  Co9  1  0.500001  0.500001  0.000000  1
  Co  Co10  1  0.677672  0.355345  0.033017  1
  Co  Co11  1  0.876064  0.752128  0.123936  1
  Co  Co12  1  0.371808  0.247871  0.123936  1
  Co  Co13  1  0.876064  0.247871  0.123936  1
  Co  Co14  1  0.677672  0.355345  0.322327  1
  Co  Co15  1  0.677672  0.644655  0.322327  1
  Co  Co16  1  0.966983  0.644655  0.322327  1
  Co  Co17  1  0.123936  0.247871  0.371808  1
  Co  Co18  1  0.000000  0.000000  0.500001  1
  Co  Co19  1  0.000000  0.500001  0.500001  1
  Co  Co20  1  0.500001  0.500001  0.500001  1
  Co  Co21  1  0.876064  0.752128  0.628191  1
  Co  Co22  1  0.033017  0.355345  0.677672  1
  Co  Co23  1  0.322327  0.355345  0.677672  1
  Co  Co24  1  0.322327  0.644655  0.677672  1
  Co  Co25  1  0.123936  0.247871  0.876064  1
  Co  Co26  1  0.123936  0.752128  0.876064  1
  Co  Co27  1  0.628191  0.752128  0.876064  1
  Co  Co28  1  0.322327  0.644655  0.966983  1
