# generated using pymatgen
data_Ba3Sr2GeBi2
_symmetry_space_group_name_H-M   'P 1'
_cell_length_a   8.99268500
_cell_length_b   10.30944100
_cell_length_c   14.67082700
_cell_angle_alpha   90.00000000
_cell_angle_beta   90.00000000
_cell_angle_gamma   90.00000000
_symmetry_Int_Tables_number   1
_chemical_formula_structural   Ba3Sr2GeBi2
_chemical_formula_sum   'Ba12 Sr8 Ge4 Bi8'
_cell_volume   1360.12584909
_cell_formula_units_Z   4
loop_
 _symmetry_equiv_pos_site_id
 _symmetry_equiv_pos_as_xyz
  1  'x, y, z'
loop_
 _atom_site_type_symbol
 _atom_site_label
 _atom_site_symmetry_multiplicity
 _atom_site_fract_x
 _atom_site_fract_y
 _atom_site_fract_z
 _atom_site_occupancy
  Ba  Ba0  1  0.189241  0.750000  0.210803  1
  Ba  Ba1  1  0.310759  0.750000  0.710803  1
  Ba  Ba2  1  0.810759  0.250000  0.789197  1
  Ba  Ba3  1  0.689241  0.250000  0.289197  1
  Ba  Ba4  1  0.446225  0.750000  0.999266  1
  Ba  Ba5  1  0.053775  0.750000  0.499266  1
  Ba  Ba6  1  0.553775  0.250000  0.000734  1
  Ba  Ba7  1  0.946225  0.250000  0.500734  1
  Ba  Ba8  1  0.673139  0.750000  0.308891  1
  Ba  Ba9  1  0.826861  0.750000  0.808891  1
  Ba  Ba10  1  0.326861  0.250000  0.691109  1
  Ba  Ba11  1  0.173139  0.250000  0.191109  1
  Sr  Sr12  1  0.850242  0.521097  0.091739  1
  Sr  Sr13  1  0.649758  0.978903  0.591739  1
  Sr  Sr14  1  0.149758  0.021097  0.908261  1
  Sr  Sr15  1  0.350242  0.478903  0.408261  1
  Sr  Sr16  1  0.149758  0.478903  0.908261  1
  Sr  Sr17  1  0.350242  0.021097  0.408261  1
  Sr  Sr18  1  0.850242  0.978903  0.091739  1
  Sr  Sr19  1  0.649758  0.521097  0.591739  1
  Ge  Ge20  1  0.454802  0.750000  0.495411  1
  Ge  Ge21  1  0.045198  0.750000  0.995411  1
  Ge  Ge22  1  0.545198  0.250000  0.504589  1
  Ge  Ge23  1  0.954802  0.250000  0.004589  1
  Bi  Bi24  1  0.975010  0.500379  0.326794  1
  Bi  Bi25  1  0.524990  0.999621  0.826794  1
  Bi  Bi26  1  0.024990  0.000379  0.673206  1
  Bi  Bi27  1  0.475010  0.499621  0.173206  1
  Bi  Bi28  1  0.024990  0.499621  0.673206  1
  Bi  Bi29  1  0.475010  0.000379  0.173206  1
  Bi  Bi30  1  0.975010  0.999621  0.326794  1
  Bi  Bi31  1  0.524990  0.500379  0.826794  1
