# generated using pymatgen
data_K6MnSnF12
_symmetry_space_group_name_H-M   'P 1'
_cell_length_a   6.56545700
_cell_length_b   6.32048391
_cell_length_c   11.03113000
_cell_angle_alpha   55.14722436
_cell_angle_beta   90.00013963
_cell_angle_gamma   89.93128478
_symmetry_Int_Tables_number   1
_chemical_formula_structural   K6MnSnF12
_chemical_formula_sum   'K6 Mn1 Sn1 F12'
_cell_volume   375.64585840
_cell_formula_units_Z   1
loop_
 _symmetry_equiv_pos_site_id
 _symmetry_equiv_pos_as_xyz
  1  'x, y, z'
loop_
 _atom_site_type_symbol
 _atom_site_label
 _atom_site_symmetry_multiplicity
 _atom_site_fract_x
 _atom_site_fract_y
 _atom_site_fract_z
 _atom_site_occupancy
  K  K0  1  0.500000  0.500000  0.000000  1
  K  K1  1  0.000000  0.500000  0.500000  1
  K  K2  1  0.046731  0.705235  0.789699  1
  K  K3  1  0.953269  0.294765  0.210301  1
  K  K4  1  0.565936  0.224784  0.787242  1
  K  K5  1  0.434064  0.775216  0.212758  1
  Mn  Mn6  1  0.000000  0.000000  0.000000  1
  Sn  Sn7  1  0.500000  0.000000  0.500000  1
  F  F8  1  0.753860  0.781840  0.563697  1
  F  F9  1  0.246140  0.218160  0.436303  1
  F  F10  1  0.268476  0.241436  0.938642  1
  F  F11  1  0.731524  0.758564  0.061358  1
  F  F12  1  0.454984  0.892250  0.708216  1
  F  F13  1  0.545016  0.107750  0.291784  1
  F  F14  1  0.948090  0.120112  0.773591  1
  F  F15  1  0.051910  0.879888  0.226409  1
  F  F16  1  0.337037  0.694139  0.545869  1
  F  F17  1  0.662963  0.305861  0.454131  1
  F  F18  1  0.811480  0.313974  0.957706  1
  F  F19  1  0.188520  0.686026  0.042294  1
