# generated using pymatgen
data_Nd9Dy(IrPt2)2
_symmetry_space_group_name_H-M   'P 1'
_cell_length_a   11.41031000
_cell_length_b   11.41031000
_cell_length_c   6.50847900
_cell_angle_alpha   90.00000000
_cell_angle_beta   90.00000000
_cell_angle_gamma   90.00000000
_symmetry_Int_Tables_number   1
_chemical_formula_structural   Nd9Dy(IrPt2)2
_chemical_formula_sum   'Nd18 Dy2 Ir4 Pt8'
_cell_volume   847.37255781
_cell_formula_units_Z   2
loop_
 _symmetry_equiv_pos_site_id
 _symmetry_equiv_pos_as_xyz
  1  'x, y, z'
loop_
 _atom_site_type_symbol
 _atom_site_label
 _atom_site_symmetry_multiplicity
 _atom_site_fract_x
 _atom_site_fract_y
 _atom_site_fract_z
 _atom_site_occupancy
  Nd  Nd0  1  0.295448  0.088701  0.373608  1
  Nd  Nd1  1  0.295448  0.911299  0.873608  1
  Nd  Nd2  1  0.704552  0.088701  0.873608  1
  Nd  Nd3  1  0.704552  0.911299  0.373608  1
  Nd  Nd4  1  0.588163  0.792654  0.875525  1
  Nd  Nd5  1  0.588163  0.207346  0.375525  1
  Nd  Nd6  1  0.411837  0.792654  0.375525  1
  Nd  Nd7  1  0.411837  0.207346  0.875525  1
  Nd  Nd8  1  0.207346  0.411837  0.624475  1
  Nd  Nd9  1  0.207346  0.588163  0.124475  1
  Nd  Nd10  1  0.792654  0.411837  0.124475  1
  Nd  Nd11  1  0.792654  0.588163  0.624475  1
  Nd  Nd12  1  0.911299  0.704552  0.126392  1
  Nd  Nd13  1  0.911299  0.295448  0.626392  1
  Nd  Nd14  1  0.088701  0.704552  0.626392  1
  Nd  Nd15  1  0.088701  0.295448  0.126392  1
  Nd  Nd16  1  0.000000  0.000000  0.500000  1
  Nd  Nd17  1  0.000000  0.000000  0.000000  1
  Dy  Dy18  1  0.500000  0.500000  0.000000  1
  Dy  Dy19  1  0.500000  0.500000  0.500000  1
  Ir  Ir20  1  0.500000  0.000000  0.116028  1
  Ir  Ir21  1  0.500000  0.000000  0.616028  1
  Ir  Ir22  1  0.000000  0.500000  0.883972  1
  Ir  Ir23  1  0.000000  0.500000  0.383972  1
  Pt  Pt24  1  0.845840  0.154160  0.250000  1
  Pt  Pt25  1  0.845840  0.845840  0.750000  1
  Pt  Pt26  1  0.154160  0.154160  0.750000  1
  Pt  Pt27  1  0.154160  0.845840  0.250000  1
  Pt  Pt28  1  0.647355  0.352645  0.750000  1
  Pt  Pt29  1  0.647355  0.647355  0.250000  1
  Pt  Pt30  1  0.352645  0.352645  0.250000  1
  Pt  Pt31  1  0.352645  0.647355  0.750000  1
