# generated using pymatgen
data_HoTm3TiSi8Tc5
_symmetry_space_group_name_H-M   'P 1'
_cell_length_a   6.76597653
_cell_length_b   6.74949629
_cell_length_c   12.77826183
_cell_angle_alpha   90.02560991
_cell_angle_beta   89.98876438
_cell_angle_gamma   89.97803230
_symmetry_Int_Tables_number   1
_chemical_formula_structural   HoTm3TiSi8Tc5
_chemical_formula_sum   'Ho2 Tm6 Ti2 Si16 Tc10'
_cell_volume   583.54392056
_cell_formula_units_Z   2
loop_
 _symmetry_equiv_pos_site_id
 _symmetry_equiv_pos_as_xyz
  1  'x, y, z'
loop_
 _atom_site_type_symbol
 _atom_site_label
 _atom_site_symmetry_multiplicity
 _atom_site_fract_x
 _atom_site_fract_y
 _atom_site_fract_z
 _atom_site_occupancy
  Ho  Ho0  1  0.997087  0.336919  0.530823  1
  Ho  Ho1  1  0.009472  0.661284  0.031988  1
  Tm  Tm2  1  0.336568  0.993089  0.467705  1
  Tm  Tm3  1  0.503542  0.837109  0.719331  1
  Tm  Tm4  1  0.490161  0.160430  0.218285  1
  Tm  Tm5  1  0.839803  0.506041  0.279567  1
  Tm  Tm6  1  0.163592  0.492717  0.782308  1
  Tm  Tm7  1  0.659978  0.006226  0.970455  1
  Ti  Ti8  1  0.838959  0.163941  0.752310  1
  Ti  Ti9  1  0.661292  0.664249  0.498004  1
  Si  Si10  1  0.203824  0.122304  0.682497  1
  Si  Si11  1  0.385761  0.693051  0.931424  1
  Si  Si12  1  0.621584  0.298005  0.432995  1
  Si  Si13  1  0.694454  0.385751  0.067216  1
  Si  Si14  1  0.297466  0.623620  0.567859  1
  Si  Si15  1  0.803945  0.886312  0.183018  1
  Si  Si16  1  0.115248  0.192954  0.317948  1
  Si  Si17  1  0.877519  0.797723  0.816621  1
  Si  Si18  1  0.269490  0.983966  0.059236  1
  Si  Si19  1  0.515742  0.772401  0.305323  1
  Si  Si20  1  0.472647  0.219262  0.813693  1
  Si  Si21  1  0.784116  0.527008  0.689040  1
  Si  Si22  1  0.231549  0.483191  0.191079  1
  Si  Si23  1  0.715258  0.026694  0.561145  1
  Si  Si24  1  0.984299  0.271189  0.944539  1
  Si  Si25  1  0.027606  0.721054  0.436074  1
  Tc  Tc26  1  0.337878  0.334591  0.000570  1
  Tc  Tc27  1  0.162931  0.835754  0.249941  1
  Tc  Tc28  1  0.178231  0.987028  0.866399  1
  Tc  Tc29  1  0.515941  0.690857  0.115005  1
  Tc  Tc30  1  0.497193  0.323103  0.620100  1
  Tc  Tc31  1  0.690075  0.500088  0.880776  1
  Tc  Tc32  1  0.322706  0.487404  0.383058  1
  Tc  Tc33  1  0.808741  0.000921  0.368670  1
  Tc  Tc34  1  0.982954  0.189980  0.134871  1
  Tc  Tc35  1  0.002387  0.823780  0.630128  1
