# generated using pymatgen
data_Er5(InBi)2
_symmetry_space_group_name_H-M   'P 1'
_cell_length_a   8.85625885
_cell_length_b   8.85626070
_cell_length_c   8.13377200
_cell_angle_alpha   90.00000000
_cell_angle_beta   90.00000000
_cell_angle_gamma   125.22713447
_symmetry_Int_Tables_number   1
_chemical_formula_structural   Er5(InBi)2
_chemical_formula_sum   'Er10 In4 Bi4'
_cell_volume   521.13063087
_cell_formula_units_Z   2
loop_
 _symmetry_equiv_pos_site_id
 _symmetry_equiv_pos_as_xyz
  1  'x, y, z'
loop_
 _atom_site_type_symbol
 _atom_site_label
 _atom_site_symmetry_multiplicity
 _atom_site_fract_x
 _atom_site_fract_y
 _atom_site_fract_z
 _atom_site_occupancy
  Er  Er0  1  0.034940  0.302305  0.333961  1
  Er  Er1  1  0.965060  0.697695  0.666039  1
  Er  Er2  1  0.465060  0.197695  0.833961  1
  Er  Er3  1  0.802305  0.534940  0.166039  1
  Er  Er4  1  0.534940  0.802305  0.166039  1
  Er  Er5  1  0.197695  0.465060  0.833961  1
  Er  Er6  1  0.697695  0.965060  0.666039  1
  Er  Er7  1  0.302305  0.034940  0.333961  1
  Er  Er8  1  0.000000  0.000000  0.000000  1
  Er  Er9  1  0.500000  0.500000  0.500000  1
  In  In10  1  0.369119  0.369119  0.129801  1
  In  In11  1  0.630881  0.630881  0.870199  1
  In  In12  1  0.130881  0.130881  0.629801  1
  In  In13  1  0.869119  0.869119  0.370199  1
  Bi  Bi14  1  0.794900  0.205100  0.000000  1
  Bi  Bi15  1  0.205100  0.794900  0.000000  1
  Bi  Bi16  1  0.705100  0.294900  0.500000  1
  Bi  Bi17  1  0.294900  0.705100  0.500000  1
