# generated using pymatgen
data_LaPdAuO4
_symmetry_space_group_name_H-M   'P 1'
_cell_length_a   6.72968073
_cell_length_b   6.72968084
_cell_length_c   6.72416065
_cell_angle_alpha   125.36968811
_cell_angle_beta   126.01738934
_cell_angle_gamma   80.44910611
_symmetry_Int_Tables_number   1
_chemical_formula_structural   LaPdAuO4
_chemical_formula_sum   'La2 Pd2 Au2 O8'
_cell_volume   193.69902687
_cell_formula_units_Z   2
loop_
 _symmetry_equiv_pos_site_id
 _symmetry_equiv_pos_as_xyz
  1  'x, y, z'
loop_
 _atom_site_type_symbol
 _atom_site_label
 _atom_site_symmetry_multiplicity
 _atom_site_fract_x
 _atom_site_fract_y
 _atom_site_fract_z
 _atom_site_occupancy
  La  La0  1  0.752045  0.252045  0.500000  1
  La  La1  1  0.997955  0.997955  0.000000  1
  Pd  Pd2  1  0.375000  0.625000  0.250000  1
  Pd  Pd3  1  0.375000  0.125000  0.750000  1
  Au  Au4  1  0.875000  0.625000  0.250000  1
  Au  Au5  1  0.375000  0.625000  0.750000  1
  O  O6  1  0.597508  0.956171  0.953034  1
  O  O7  1  0.396808  0.845774  0.140990  1
  O  O8  1  0.704785  0.255818  0.859010  1
  O  O9  1  0.003136  0.644474  0.046966  1
  O  O10  1  0.152492  0.293829  0.546966  1
  O  O11  1  0.353192  0.404226  0.359010  1
  O  O12  1  0.746864  0.605526  0.453034  1
  O  O13  1  0.045215  0.994182  0.640990  1
