# generated using pymatgen
data_CaLa2(SnPt)3
_symmetry_space_group_name_H-M   'P 1'
_cell_length_a   7.64714495
_cell_length_b   7.64714457
_cell_length_c   4.20750000
_cell_angle_alpha   90.00000000
_cell_angle_beta   90.00000000
_cell_angle_gamma   120.13043108
_symmetry_Int_Tables_number   1
_chemical_formula_structural   CaLa2(SnPt)3
_chemical_formula_sum   'Ca1 La2 Sn3 Pt3'
_cell_volume   212.80463370
_cell_formula_units_Z   1
loop_
 _symmetry_equiv_pos_site_id
 _symmetry_equiv_pos_as_xyz
  1  'x, y, z'
loop_
 _atom_site_type_symbol
 _atom_site_label
 _atom_site_symmetry_multiplicity
 _atom_site_fract_x
 _atom_site_fract_y
 _atom_site_fract_z
 _atom_site_occupancy
  Ca  Ca0  1  0.410084  0.410084  0.000000  1
  La  La1  1  0.584166  0.998924  0.000000  1
  La  La2  1  0.998924  0.584166  0.000000  1
  Sn  Sn3  1  0.005940  0.252111  0.500000  1
  Sn  Sn4  1  0.745125  0.745125  0.500000  1
  Sn  Sn5  1  0.252111  0.005940  0.500000  1
  Pt  Pt6  1  0.334141  0.669127  0.500000  1
  Pt  Pt7  1  0.000382  0.000382  0.000000  1
  Pt  Pt8  1  0.669127  0.334141  0.500000  1
