# generated using pymatgen
data_Ac3La(GaIr)4
_symmetry_space_group_name_H-M   'P 1'
_cell_length_a   4.34396600
_cell_length_b   7.34828442
_cell_length_c   8.42011003
_cell_angle_alpha   89.94937429
_cell_angle_beta   90.00000000
_cell_angle_gamma   90.00000000
_symmetry_Int_Tables_number   1
_chemical_formula_structural   Ac3La(GaIr)4
_chemical_formula_sum   'Ac3 La1 Ga4 Ir4'
_cell_volume   268.77568195
_cell_formula_units_Z   1
loop_
 _symmetry_equiv_pos_site_id
 _symmetry_equiv_pos_as_xyz
  1  'x, y, z'
loop_
 _atom_site_type_symbol
 _atom_site_label
 _atom_site_symmetry_multiplicity
 _atom_site_fract_x
 _atom_site_fract_y
 _atom_site_fract_z
 _atom_site_occupancy
  Ac  Ac0  1  0.250000  0.529970  0.188403  1
  Ac  Ac1  1  0.750000  0.467733  0.808906  1
  Ac  Ac2  1  0.750000  0.973199  0.688564  1
  La  La3  1  0.250000  0.029859  0.312880  1
  Ga  Ga4  1  0.250000  0.650297  0.562866  1
  Ga  Ga5  1  0.750000  0.349874  0.428730  1
  Ga  Ga6  1  0.750000  0.858328  0.070412  1
  Ga  Ga7  1  0.250000  0.137354  0.945808  1
  Ir  Ir8  1  0.250000  0.777556  0.887900  1
  Ir  Ir9  1  0.750000  0.219779  0.118073  1
  Ir  Ir10  1  0.750000  0.726483  0.389278  1
  Ir  Ir11  1  0.250000  0.279570  0.598181  1
