# generated using pymatgen
data_Tb5Dy3(ZnI6)2
_symmetry_space_group_name_H-M   'P 1'
_cell_length_a   4.19325300
_cell_length_b   14.16496489
_cell_length_c   14.91173793
_cell_angle_alpha   89.95949693
_cell_angle_beta   90.00000000
_cell_angle_gamma   90.00000000
_symmetry_Int_Tables_number   1
_chemical_formula_structural   Tb5Dy3(ZnI6)2
_chemical_formula_sum   'Tb5 Dy3 Zn2 I12'
_cell_volume   885.71647424
_cell_formula_units_Z   1
loop_
 _symmetry_equiv_pos_site_id
 _symmetry_equiv_pos_as_xyz
  1  'x, y, z'
loop_
 _atom_site_type_symbol
 _atom_site_label
 _atom_site_symmetry_multiplicity
 _atom_site_fract_x
 _atom_site_fract_y
 _atom_site_fract_z
 _atom_site_occupancy
  Tb  Tb0  1  0.500000  0.385743  0.847083  1
  Tb  Tb1  1  0.000000  0.114261  0.577367  1
  Tb  Tb2  1  0.000000  0.885634  0.422585  1
  Tb  Tb3  1  0.000000  0.614562  0.922457  1
  Tb  Tb4  1  0.000000  0.385453  0.077573  1
  Dy  Dy5  1  0.500000  0.114012  0.347394  1
  Dy  Dy6  1  0.500000  0.885994  0.652582  1
  Dy  Dy7  1  0.500000  0.614241  0.152894  1
  Zn  Zn8  1  0.500000  0.999970  0.500006  1
  Zn  Zn9  1  0.500000  0.500161  0.000192  1
  I  I10  1  0.500000  0.244901  0.164337  1
  I  I11  1  0.500000  0.755158  0.835762  1
  I  I12  1  0.500000  0.744918  0.335790  1
  I  I13  1  0.500000  0.254697  0.663625  1
  I  I14  1  0.000000  0.259421  0.413621  1
  I  I15  1  0.000000  0.740616  0.586329  1
  I  I16  1  0.000000  0.759579  0.086340  1
  I  I17  1  0.000000  0.239482  0.914572  1
  I  I18  1  0.000000  0.999955  0.238438  1
  I  I19  1  0.000000  0.000016  0.761563  1
  I  I20  1  0.000000  0.499881  0.261702  1
  I  I21  1  0.000000  0.501344  0.737787  1
