# generated using pymatgen
data_NaLa(CN2)2
_symmetry_space_group_name_H-M   'P 1'
_cell_length_a   6.71220600
_cell_length_b   7.68266100
_cell_length_c   10.14610400
_cell_angle_alpha   90.00000000
_cell_angle_beta   90.00000000
_cell_angle_gamma   90.00000000
_symmetry_Int_Tables_number   1
_chemical_formula_structural   NaLa(CN2)2
_chemical_formula_sum   'Na4 La4 C8 N16'
_cell_volume   523.21026571
_cell_formula_units_Z   4
loop_
 _symmetry_equiv_pos_site_id
 _symmetry_equiv_pos_as_xyz
  1  'x, y, z'
loop_
 _atom_site_type_symbol
 _atom_site_label
 _atom_site_symmetry_multiplicity
 _atom_site_fract_x
 _atom_site_fract_y
 _atom_site_fract_z
 _atom_site_occupancy
  Na  Na0  1  0.250000  0.624004  0.000000  1
  Na  Na1  1  0.750000  0.875996  0.500000  1
  Na  Na2  1  0.750000  0.375996  0.000000  1
  Na  Na3  1  0.250000  0.124004  0.500000  1
  La  La4  1  0.250000  0.140660  0.000000  1
  La  La5  1  0.750000  0.359340  0.500000  1
  La  La6  1  0.750000  0.859340  0.000000  1
  La  La7  1  0.250000  0.640660  0.500000  1
  C  C8  1  0.918989  0.114162  0.248131  1
  C  C9  1  0.418989  0.385838  0.251869  1
  C  C10  1  0.081011  0.385838  0.748131  1
  C  C11  1  0.581011  0.114162  0.751869  1
  C  C12  1  0.081011  0.885838  0.751869  1
  C  C13  1  0.581011  0.614162  0.748131  1
  C  C14  1  0.918989  0.614162  0.251869  1
  C  C15  1  0.418989  0.885838  0.248131  1
  N  N16  1  0.927934  0.103335  0.125549  1
  N  N17  1  0.427934  0.396665  0.374451  1
  N  N18  1  0.072066  0.396665  0.625549  1
  N  N19  1  0.572066  0.103335  0.874451  1
  N  N20  1  0.072066  0.896665  0.874451  1
  N  N21  1  0.572066  0.603335  0.625549  1
  N  N22  1  0.927934  0.603335  0.374451  1
  N  N23  1  0.427934  0.896665  0.125549  1
  N  N24  1  0.410343  0.375296  0.131347  1
  N  N25  1  0.910343  0.124704  0.368653  1
  N  N26  1  0.589657  0.124704  0.631347  1
  N  N27  1  0.089657  0.375296  0.868653  1
  N  N28  1  0.589657  0.624704  0.868653  1
  N  N29  1  0.089657  0.875296  0.631347  1
  N  N30  1  0.410343  0.875296  0.368653  1
  N  N31  1  0.910343  0.624704  0.131347  1
