# generated using pymatgen
data_Li4USe5
_symmetry_space_group_name_H-M   'P 1'
_cell_length_a   5.50112772
_cell_length_b   6.93887889
_cell_length_c   6.93848600
_cell_angle_alpha   99.04268263
_cell_angle_beta   66.64831683
_cell_angle_gamma   113.35024183
_symmetry_Int_Tables_number   1
_chemical_formula_structural   Li4USe5
_chemical_formula_sum   'Li4 U1 Se5'
_cell_volume   223.24422502
_cell_formula_units_Z   1
loop_
 _symmetry_equiv_pos_site_id
 _symmetry_equiv_pos_as_xyz
  1  'x, y, z'
loop_
 _atom_site_type_symbol
 _atom_site_label
 _atom_site_symmetry_multiplicity
 _atom_site_fract_x
 _atom_site_fract_y
 _atom_site_fract_z
 _atom_site_occupancy
  Li  Li0  1  0.198473  0.577725  0.180859  1
  Li  Li1  1  0.379300  0.180800  0.422164  1
  Li  Li2  1  0.620699  0.819201  0.577836  1
  Li  Li3  1  0.801528  0.422276  0.819142  1
  U  U4  1  0.000000  0.000000  0.000000  1
  Se  Se5  1  0.499999  0.000000  0.000000  1
  Se  Se6  1  0.715623  0.628468  0.197265  1
  Se  Se7  1  0.912760  0.197028  0.371409  1
  Se  Se8  1  0.087241  0.802973  0.628592  1
  Se  Se9  1  0.284376  0.371532  0.802734  1
