# generated using pymatgen
data_Er3Zn3Hg2Ir
_symmetry_space_group_name_H-M   'P 1'
_cell_length_a   7.64408200
_cell_length_b   7.64408319
_cell_length_c   3.77304500
_cell_angle_alpha   90.00000000
_cell_angle_beta   90.00000000
_cell_angle_gamma   120.00001099
_symmetry_Int_Tables_number   1
_chemical_formula_structural   Er3Zn3Hg2Ir
_chemical_formula_sum   'Er3 Zn3 Hg2 Ir1'
_cell_volume   190.92962108
_cell_formula_units_Z   1
loop_
 _symmetry_equiv_pos_site_id
 _symmetry_equiv_pos_as_xyz
  1  'x, y, z'
loop_
 _atom_site_type_symbol
 _atom_site_label
 _atom_site_symmetry_multiplicity
 _atom_site_fract_x
 _atom_site_fract_y
 _atom_site_fract_z
 _atom_site_occupancy
  Er  Er0  1  0.578120  0.970934  0.000000  1
  Er  Er1  1  0.029066  0.607186  0.000000  1
  Er  Er2  1  0.392814  0.421880  0.000000  1
  Zn  Zn3  1  0.268227  0.988618  0.500000  1
  Zn  Zn4  1  0.011382  0.279608  0.500000  1
  Zn  Zn5  1  0.720392  0.731773  0.500000  1
  Hg  Hg6  1  0.000000  0.000000  0.000000  1
  Hg  Hg7  1  0.666667  0.333333  0.500000  1
  Ir  Ir8  1  0.333333  0.666667  0.500000  1
