# generated using pymatgen
data_TbPa2(SnRh)3
_symmetry_space_group_name_H-M   'P 1'
_cell_length_a   7.48851646
_cell_length_b   7.48851460
_cell_length_c   4.01819800
_cell_angle_alpha   90.00000000
_cell_angle_beta   90.00000000
_cell_angle_gamma   120.81080775
_symmetry_Int_Tables_number   1
_chemical_formula_structural   TbPa2(SnRh)3
_chemical_formula_sum   'Tb1 Pa2 Sn3 Rh3'
_cell_volume   193.52935315
_cell_formula_units_Z   1
loop_
 _symmetry_equiv_pos_site_id
 _symmetry_equiv_pos_as_xyz
  1  'x, y, z'
loop_
 _atom_site_type_symbol
 _atom_site_label
 _atom_site_symmetry_multiplicity
 _atom_site_fract_x
 _atom_site_fract_y
 _atom_site_fract_z
 _atom_site_occupancy
  Tb  Tb0  1  0.591251  0.591251  0.500000  1
  Pa  Pa1  1  0.412378  0.999170  0.500000  1
  Pa  Pa2  1  0.999170  0.412378  0.500000  1
  Sn  Sn3  1  0.745529  0.990840  0.000000  1
  Sn  Sn4  1  0.990840  0.745529  0.000000  1
  Sn  Sn5  1  0.263499  0.263499  0.000000  1
  Rh  Rh6  1  0.314457  0.670172  0.000000  1
  Rh  Rh7  1  0.670172  0.314457  0.000000  1
  Rh  Rh8  1  0.012704  0.012704  0.500000  1
