# generated using pymatgen
data_Zr3Sc(CoP)4
_symmetry_space_group_name_H-M   'P 1'
_cell_length_a   3.70373200
_cell_length_b   6.33600961
_cell_length_c   7.13589869
_cell_angle_alpha   90.05021645
_cell_angle_beta   90.00000000
_cell_angle_gamma   90.00000000
_symmetry_Int_Tables_number   1
_chemical_formula_structural   Zr3Sc(CoP)4
_chemical_formula_sum   'Zr3 Sc1 Co4 P4'
_cell_volume   167.45722480
_cell_formula_units_Z   1
loop_
 _symmetry_equiv_pos_site_id
 _symmetry_equiv_pos_as_xyz
  1  'x, y, z'
loop_
 _atom_site_type_symbol
 _atom_site_label
 _atom_site_symmetry_multiplicity
 _atom_site_fract_x
 _atom_site_fract_y
 _atom_site_fract_z
 _atom_site_occupancy
  Zr  Zr0  1  0.250000  0.018164  0.816053  1
  Zr  Zr1  1  0.750000  0.980555  0.183140  1
  Zr  Zr2  1  0.750000  0.481203  0.317735  1
  Sc  Sc3  1  0.250000  0.519094  0.684284  1
  Co  Co4  1  0.750000  0.360050  0.937978  1
  Co  Co5  1  0.250000  0.139140  0.440705  1
  Co  Co6  1  0.750000  0.860599  0.560393  1
  Co  Co7  1  0.250000  0.639586  0.058744  1
  P  P8  1  0.250000  0.774980  0.389226  1
  P  P9  1  0.250000  0.276983  0.112835  1
  P  P10  1  0.750000  0.227394  0.613882  1
  P  P11  1  0.750000  0.722252  0.885026  1
