# generated using pymatgen
data_ThU(PO5)2
_symmetry_space_group_name_H-M   'P 1'
_cell_length_a   5.65336991
_cell_length_b   9.03236540
_cell_length_c   9.37042602
_cell_angle_alpha   101.80551153
_cell_angle_beta   103.36716616
_cell_angle_gamma   98.87658644
_symmetry_Int_Tables_number   1
_chemical_formula_structural   ThU(PO5)2
_chemical_formula_sum   'Th2 U2 P4 O20'
_cell_volume   445.34739121
_cell_formula_units_Z   2
loop_
 _symmetry_equiv_pos_site_id
 _symmetry_equiv_pos_as_xyz
  1  'x, y, z'
loop_
 _atom_site_type_symbol
 _atom_site_label
 _atom_site_symmetry_multiplicity
 _atom_site_fract_x
 _atom_site_fract_y
 _atom_site_fract_z
 _atom_site_occupancy
  Th  Th0  1  0.352869  0.296480  0.049484  1
  Th  Th1  1  0.647131  0.703520  0.950516  1
  U  U2  1  0.335037  0.803555  0.551363  1
  U  U3  1  0.664963  0.196445  0.448637  1
  P  P4  1  0.090104  0.515454  0.760562  1
  P  P5  1  0.909896  0.484546  0.239438  1
  P  P6  1  0.283272  0.921810  0.181521  1
  P  P7  1  0.716728  0.078190  0.818479  1
  O  O8  1  0.996913  0.138865  0.890665  1
  O  O9  1  0.003087  0.861135  0.109335  1
  O  O10  1  0.975329  0.374918  0.627308  1
  O  O11  1  0.024671  0.625082  0.372692  1
  O  O12  1  0.728949  0.357518  0.276533  1
  O  O13  1  0.271051  0.642482  0.723467  1
  O  O14  1  0.427104  0.818799  0.097231  1
  O  O15  1  0.572896  0.181201  0.902769  1
  O  O16  1  0.438471  0.301804  0.495894  1
  O  O17  1  0.561529  0.698196  0.504106  1
  O  O18  1  0.889033  0.584534  0.821191  1
  O  O19  1  0.110967  0.415466  0.178809  1
  O  O20  1  0.276126  0.473888  0.893057  1
  O  O21  1  0.723874  0.526112  0.106943  1
  O  O22  1  0.881851  0.090862  0.387707  1
  O  O23  1  0.118149  0.909138  0.612293  1
  O  O24  1  0.359500  0.931946  0.353984  1
  O  O25  1  0.640500  0.068054  0.646016  1
  O  O26  1  0.367344  0.093998  0.176793  1
  O  O27  1  0.632656  0.906002  0.823207  1
