# generated using pymatgen
data_Nd5SnPb2N
_symmetry_space_group_name_H-M   'P 1'
_cell_length_a   9.29147600
_cell_length_b   9.29147596
_cell_length_c   6.79994900
_cell_angle_alpha   90.00000000
_cell_angle_beta   90.00000000
_cell_angle_gamma   119.99912087
_symmetry_Int_Tables_number   1
_chemical_formula_structural   Nd5SnPb2N
_chemical_formula_sum   'Nd10 Sn2 Pb4 N2'
_cell_volume   508.40469357
_cell_formula_units_Z   2
loop_
 _symmetry_equiv_pos_site_id
 _symmetry_equiv_pos_as_xyz
  1  'x, y, z'
loop_
 _atom_site_type_symbol
 _atom_site_label
 _atom_site_symmetry_multiplicity
 _atom_site_fract_x
 _atom_site_fract_y
 _atom_site_fract_z
 _atom_site_occupancy
  Nd  Nd0  1  0.667007  0.331795  0.002428  1
  Nd  Nd1  1  0.331795  0.667007  0.002428  1
  Nd  Nd2  1  0.331795  0.667007  0.497572  1
  Nd  Nd3  1  0.667007  0.331795  0.497572  1
  Nd  Nd4  1  0.786390  0.786390  0.750000  1
  Nd  Nd5  1  0.214602  0.000100  0.750000  1
  Nd  Nd6  1  0.000100  0.214602  0.750000  1
  Nd  Nd7  1  0.213539  0.213539  0.250000  1
  Nd  Nd8  1  0.786430  0.001843  0.250000  1
  Nd  Nd9  1  0.001843  0.786430  0.250000  1
  Sn  Sn10  1  0.403094  0.000102  0.250000  1
  Sn  Sn11  1  0.000102  0.403094  0.250000  1
  Pb  Pb12  1  0.404965  0.404965  0.750000  1
  Pb  Pb13  1  0.595609  0.999691  0.750000  1
  Pb  Pb14  1  0.999691  0.595609  0.750000  1
  Pb  Pb15  1  0.596287  0.596287  0.250000  1
  N  N16  1  0.999871  0.999871  0.999740  1
  N  N17  1  0.999871  0.999871  0.500260  1
