# generated using pymatgen
data_Yb(LuS2)2
_symmetry_space_group_name_H-M   'P 1'
_cell_length_a   12.74238800
_cell_length_b   3.81926200
_cell_length_c   12.95480300
_cell_angle_alpha   90.00000000
_cell_angle_beta   90.00000000
_cell_angle_gamma   90.00000000
_symmetry_Int_Tables_number   1
_chemical_formula_structural   Yb(LuS2)2
_chemical_formula_sum   'Yb4 Lu8 S16'
_cell_volume   630.46515698
_cell_formula_units_Z   4
loop_
 _symmetry_equiv_pos_site_id
 _symmetry_equiv_pos_as_xyz
  1  'x, y, z'
loop_
 _atom_site_type_symbol
 _atom_site_label
 _atom_site_symmetry_multiplicity
 _atom_site_fract_x
 _atom_site_fract_y
 _atom_site_fract_z
 _atom_site_occupancy
  Yb  Yb0  1  0.869188  0.250000  0.084628  1
  Yb  Yb1  1  0.369187  0.250000  0.415372  1
  Yb  Yb2  1  0.630813  0.750001  0.584629  1
  Yb  Yb3  1  0.130812  0.750001  0.915371  1
  Lu  Lu4  1  0.392719  0.750001  0.082244  1
  Lu  Lu5  1  0.147658  0.250000  0.201595  1
  Lu  Lu6  1  0.647659  0.250000  0.298405  1
  Lu  Lu7  1  0.892719  0.750001  0.417756  1
  Lu  Lu8  1  0.107281  0.250000  0.582243  1
  Lu  Lu9  1  0.352341  0.750001  0.701596  1
  Lu  Lu10  1  0.852342  0.750001  0.798405  1
  Lu  Lu11  1  0.607281  0.250000  0.917756  1
  S  S12  1  0.257684  0.250000  0.024888  1
  S  S13  1  0.030916  0.750001  0.117313  1
  S  S14  1  0.533835  0.250000  0.118845  1
  S  S15  1  0.783789  0.750001  0.238229  1
  S  S16  1  0.283790  0.750001  0.261771  1
  S  S17  1  0.033834  0.250000  0.381155  1
  S  S18  1  0.530916  0.750001  0.382687  1
  S  S19  1  0.757685  0.250000  0.475112  1
  S  S20  1  0.242315  0.750001  0.524888  1
  S  S21  1  0.469084  0.250000  0.617313  1
  S  S22  1  0.966166  0.750001  0.618845  1
  S  S23  1  0.716210  0.250000  0.738229  1
  S  S24  1  0.216211  0.250000  0.761771  1
  S  S25  1  0.466165  0.750001  0.881156  1
  S  S26  1  0.969084  0.250000  0.882687  1
  S  S27  1  0.742316  0.750001  0.975112  1
