# generated using pymatgen
data_Y4SiNi13
_symmetry_space_group_name_H-M   'P 1'
_cell_length_a   4.89116627
_cell_length_b   5.00832827
_cell_length_c   12.39985306
_cell_angle_alpha   78.34892804
_cell_angle_beta   78.69747822
_cell_angle_gamma   59.20441133
_symmetry_Int_Tables_number   1
_chemical_formula_structural   Y4SiNi13
_chemical_formula_sum   'Y4 Si1 Ni13'
_cell_volume   253.99562117
_cell_formula_units_Z   1
loop_
 _symmetry_equiv_pos_site_id
 _symmetry_equiv_pos_as_xyz
  1  'x, y, z'
loop_
 _atom_site_type_symbol
 _atom_site_label
 _atom_site_symmetry_multiplicity
 _atom_site_fract_x
 _atom_site_fract_y
 _atom_site_fract_z
 _atom_site_occupancy
  Y  Y0  1  0.949297  0.948006  0.154689  1
  Y  Y1  1  0.050703  0.051994  0.845311  1
  Y  Y2  1  0.854665  0.851977  0.441380  1
  Y  Y3  1  0.145335  0.148023  0.558620  1
  Si  Si4  1  0.000000  0.500000  0.000000  1
  Ni  Ni5  1  0.500000  0.500000  0.500000  1
  Ni  Ni6  1  0.732957  0.715649  0.835745  1
  Ni  Ni7  1  0.267043  0.284351  0.164255  1
  Ni  Ni8  1  0.626531  0.604821  0.163827  1
  Ni  Ni9  1  0.373469  0.395179  0.836173  1
  Ni  Ni10  1  0.500000  0.000000  0.000000  1
  Ni  Ni11  1  0.500000  0.500000  0.000000  1
  Ni  Ni12  1  0.393540  0.390583  0.326304  1
  Ni  Ni13  1  0.893299  0.387826  0.331050  1
  Ni  Ni14  1  0.393540  0.889575  0.326304  1
  Ni  Ni15  1  0.606460  0.609417  0.673696  1
  Ni  Ni16  1  0.106701  0.612174  0.668950  1
  Ni  Ni17  1  0.606460  0.110425  0.673696  1
