# generated using pymatgen
data_TaNbCr(Co10B3)2
_symmetry_space_group_name_H-M   'P 1'
_cell_length_a   7.41663807
_cell_length_b   7.41663783
_cell_length_c   7.41663800
_cell_angle_alpha   59.99999925
_cell_angle_beta   60.00000031
_cell_angle_gamma   59.99999142
_symmetry_Int_Tables_number   1
_chemical_formula_structural   TaNbCr(Co10B3)2
_chemical_formula_sum   'Ta1 Nb1 Cr1 Co20 B6'
_cell_volume   288.47369196
_cell_formula_units_Z   1
loop_
 _symmetry_equiv_pos_site_id
 _symmetry_equiv_pos_as_xyz
  1  'x, y, z'
loop_
 _atom_site_type_symbol
 _atom_site_label
 _atom_site_symmetry_multiplicity
 _atom_site_fract_x
 _atom_site_fract_y
 _atom_site_fract_z
 _atom_site_occupancy
  Ta  Ta0  1  0.250000  0.250000  0.250000  1
  Nb  Nb1  1  0.750000  0.750000  0.750000  1
  Cr  Cr2  1  0.000000  0.000000  0.000000  1
  Co  Co3  1  0.849398  0.383534  0.383534  1
  Co  Co4  1  0.383534  0.849398  0.383534  1
  Co  Co5  1  0.383534  0.383534  0.849398  1
  Co  Co6  1  0.383534  0.383534  0.383534  1
  Co  Co7  1  0.150483  0.616505  0.616505  1
  Co  Co8  1  0.616505  0.150483  0.616505  1
  Co  Co9  1  0.616505  0.616505  0.150483  1
  Co  Co10  1  0.616505  0.616505  0.616505  1
  Co  Co11  1  0.661404  0.000131  0.000131  1
  Co  Co12  1  0.661404  0.000131  0.338333  1
  Co  Co13  1  0.661404  0.338333  0.000131  1
  Co  Co14  1  0.000131  0.661404  0.338333  1
  Co  Co15  1  0.000131  0.661404  0.000131  1
  Co  Co16  1  0.338333  0.661404  0.000131  1
  Co  Co17  1  0.000131  0.338333  0.661404  1
  Co  Co18  1  0.338333  0.000131  0.661404  1
  Co  Co19  1  0.000131  0.000131  0.661404  1
  Co  Co20  1  0.338333  0.000131  0.000131  1
  Co  Co21  1  0.000131  0.338333  0.000131  1
  Co  Co22  1  0.000131  0.000131  0.338333  1
  B  B23  1  0.726461  0.273539  0.273539  1
  B  B24  1  0.726461  0.273539  0.726461  1
  B  B25  1  0.726461  0.726461  0.273539  1
  B  B26  1  0.273539  0.726461  0.726461  1
  B  B27  1  0.273539  0.726461  0.273539  1
  B  B28  1  0.273539  0.273539  0.726461  1
