# generated using pymatgen
data_Hf6Al16Ni2Ir4Rh
_symmetry_space_group_name_H-M   'P 1'
_cell_length_a   8.69516645
_cell_length_b   8.60709504
_cell_length_c   8.60709534
_cell_angle_alpha   60.67813659
_cell_angle_beta   59.66093977
_cell_angle_gamma   59.66093250
_symmetry_Int_Tables_number   1
_chemical_formula_structural   Hf6Al16Ni2Ir4Rh
_chemical_formula_sum   'Hf6 Al16 Ni2 Ir4 Rh1'
_cell_volume   455.39079532
_cell_formula_units_Z   1
loop_
 _symmetry_equiv_pos_site_id
 _symmetry_equiv_pos_as_xyz
  1  'x, y, z'
loop_
 _atom_site_type_symbol
 _atom_site_label
 _atom_site_symmetry_multiplicity
 _atom_site_fract_x
 _atom_site_fract_y
 _atom_site_fract_z
 _atom_site_occupancy
  Hf  Hf0  1  0.672909  0.327090  0.327090  1
  Hf  Hf1  1  0.327090  0.672909  0.672909  1
  Hf  Hf2  1  0.307437  0.692562  0.307437  1
  Hf  Hf3  1  0.307437  0.307437  0.692562  1
  Hf  Hf4  1  0.692562  0.307437  0.692562  1
  Hf  Hf5  1  0.692562  0.692562  0.307437  1
  Al  Al6  1  0.328910  0.340475  0.340475  1
  Al  Al7  1  0.340475  0.328910  0.990140  1
  Al  Al8  1  0.990140  0.340475  0.340475  1
  Al  Al9  1  0.340475  0.990140  0.328910  1
  Al  Al10  1  0.671090  0.659525  0.659525  1
  Al  Al11  1  0.659525  0.671090  0.009860  1
  Al  Al12  1  0.659525  0.009860  0.671090  1
  Al  Al13  1  0.009860  0.659525  0.659525  1
  Al  Al14  1  0.118854  0.120435  0.120435  1
  Al  Al15  1  0.120435  0.118854  0.640275  1
  Al  Al16  1  0.640275  0.120435  0.120435  1
  Al  Al17  1  0.120435  0.640275  0.118854  1
  Al  Al18  1  0.881145  0.879564  0.879564  1
  Al  Al19  1  0.879564  0.881145  0.359728  1
  Al  Al20  1  0.879564  0.359728  0.881145  1
  Al  Al21  1  0.359728  0.879564  0.879564  1
  Ni  Ni22  1  0.500000  0.000000  0.000000  1
  Ni  Ni23  1  0.000000  0.500000  0.500000  1
  Ir  Ir24  1  0.000000  0.500000  0.000000  1
  Ir  Ir25  1  0.000000  0.000000  0.500000  1
  Ir  Ir26  1  0.500000  0.000000  0.500000  1
  Ir  Ir27  1  0.500000  0.500000  0.000000  1
  Rh  Rh28  1  0.000000  0.000000  0.000000  1
