# generated using pymatgen
data_Nd3SmFe4(CoO5)4
_symmetry_space_group_name_H-M   'P 1'
_cell_length_a   5.79187000
_cell_length_b   7.50802991
_cell_length_c   8.65712321
_cell_angle_alpha   89.91816758
_cell_angle_beta   90.00000000
_cell_angle_gamma   90.00000000
_symmetry_Int_Tables_number   1
_chemical_formula_structural   Nd3SmFe4(CoO5)4
_chemical_formula_sum   'Nd3 Sm1 Fe4 Co4 O20'
_cell_volume   376.45923486
_cell_formula_units_Z   1
loop_
 _symmetry_equiv_pos_site_id
 _symmetry_equiv_pos_as_xyz
  1  'x, y, z'
loop_
 _atom_site_type_symbol
 _atom_site_label
 _atom_site_symmetry_multiplicity
 _atom_site_fract_x
 _atom_site_fract_y
 _atom_site_fract_z
 _atom_site_occupancy
  Nd  Nd0  1  0.500000  0.638196  0.671104  1
  Nd  Nd1  1  0.500000  0.138697  0.828383  1
  Nd  Nd2  1  0.500000  0.861182  0.171860  1
  Sm  Sm3  1  0.500000  0.361247  0.328478  1
  Fe  Fe4  1  0.000000  0.112910  0.144488  1
  Fe  Fe5  1  0.000000  0.886939  0.856275  1
  Fe  Fe6  1  0.000000  0.387460  0.643377  1
  Fe  Fe7  1  0.000000  0.611644  0.355940  1
  Co  Co8  1  0.247612  0.001360  0.499439  1
  Co  Co9  1  0.752388  0.001360  0.499439  1
  Co  Co10  1  0.752195  0.499223  0.000599  1
  Co  Co11  1  0.247805  0.499223  0.000599  1
  O  O12  1  0.227447  0.999369  0.000587  1
  O  O13  1  0.772553  0.999369  0.000587  1
  O  O14  1  0.770924  0.498028  0.498712  1
  O  O15  1  0.229076  0.498028  0.498712  1
  O  O16  1  0.000000  0.350522  0.061981  1
  O  O17  1  0.000000  0.649196  0.938436  1
  O  O18  1  0.000000  0.149093  0.562346  1
  O  O19  1  0.000000  0.851281  0.435056  1
  O  O20  1  0.253527  0.100914  0.297681  1
  O  O21  1  0.747738  0.903281  0.702292  1
  O  O22  1  0.252262  0.903281  0.702292  1
  O  O23  1  0.747823  0.403230  0.797469  1
  O  O24  1  0.746473  0.100914  0.297681  1
  O  O25  1  0.253865  0.594409  0.203508  1
  O  O26  1  0.746135  0.594409  0.203508  1
  O  O27  1  0.252177  0.403230  0.797469  1
  O  O28  1  0.500000  0.345292  0.053357  1
  O  O29  1  0.500000  0.652597  0.949152  1
  O  O30  1  0.500000  0.155778  0.550506  1
  O  O31  1  0.500000  0.848339  0.448686  1
