# generated using pymatgen
data_Sc3Si2OsC
_symmetry_space_group_name_H-M   'P 1'
_cell_length_a   8.42809437
_cell_length_b   8.42811263
_cell_length_c   8.42780300
_cell_angle_alpha   59.99665839
_cell_angle_beta   59.99539347
_cell_angle_gamma   59.99680406
_symmetry_Int_Tables_number   1
_chemical_formula_structural   Sc3Si2OsC
_chemical_formula_sum   'Sc12 Si8 Os4 C4'
_cell_volume   423.27490286
_cell_formula_units_Z   4
loop_
 _symmetry_equiv_pos_site_id
 _symmetry_equiv_pos_as_xyz
  1  'x, y, z'
loop_
 _atom_site_type_symbol
 _atom_site_label
 _atom_site_symmetry_multiplicity
 _atom_site_fract_x
 _atom_site_fract_y
 _atom_site_fract_z
 _atom_site_occupancy
  Sc  Sc0  1  0.699956  0.300204  0.699721  1
  Sc  Sc1  1  0.949811  0.550002  0.550378  1
  Sc  Sc2  1  0.550204  0.949689  0.949902  1
  Sc  Sc3  1  0.949693  0.550156  0.949833  1
  Sc  Sc4  1  0.550316  0.550153  0.949837  1
  Sc  Sc5  1  0.949884  0.949799  0.550277  1
  Sc  Sc6  1  0.699684  0.699847  0.300163  1
  Sc  Sc7  1  0.300189  0.699998  0.699622  1
  Sc  Sc8  1  0.699796  0.300311  0.300098  1
  Sc  Sc9  1  0.300116  0.300201  0.699723  1
  Sc  Sc10  1  0.550044  0.949796  0.550279  1
  Sc  Sc11  1  0.300307  0.699844  0.300167  1
  Si  Si12  1  0.331328  0.331426  0.331168  1
  Si  Si13  1  0.243930  0.918570  0.918829  1
  Si  Si14  1  0.918464  0.244444  0.918625  1
  Si  Si15  1  0.918968  0.918869  0.243193  1
  Si  Si16  1  0.331536  0.005556  0.331375  1
  Si  Si17  1  0.331032  0.331131  0.006807  1
  Si  Si18  1  0.006070  0.331430  0.331171  1
  Si  Si19  1  0.918672  0.918574  0.918832  1
  Os  Os20  1  0.125000  0.125000  0.125000  1
  Os  Os21  1  0.625000  0.125000  0.125000  1
  Os  Os22  1  0.125000  0.625000  0.125000  1
  Os  Os23  1  0.125000  0.125000  0.625000  1
  C  C24  1  0.625000  0.625000  0.625000  1
  C  C25  1  0.125000  0.625000  0.625000  1
  C  C26  1  0.625000  0.125000  0.625000  1
  C  C27  1  0.625000  0.625000  0.125000  1
