# generated using pymatgen
data_Tm3Be2Rh5
_symmetry_space_group_name_H-M   'P 1'
_cell_length_a   9.75725700
_cell_length_b   9.75725700
_cell_length_c   3.34346200
_cell_angle_alpha   90.00000000
_cell_angle_beta   90.00000000
_cell_angle_gamma   90.00000000
_symmetry_Int_Tables_number   1
_chemical_formula_structural   Tm3Be2Rh5
_chemical_formula_sum   'Tm6 Be4 Rh10'
_cell_volume   318.31117078
_cell_formula_units_Z   2
loop_
 _symmetry_equiv_pos_site_id
 _symmetry_equiv_pos_as_xyz
  1  'x, y, z'
loop_
 _atom_site_type_symbol
 _atom_site_label
 _atom_site_symmetry_multiplicity
 _atom_site_fract_x
 _atom_site_fract_y
 _atom_site_fract_z
 _atom_site_occupancy
  Tm  Tm0  1  0.825831  0.325831  0.000000  1
  Tm  Tm1  1  0.325831  0.174169  0.000000  1
  Tm  Tm2  1  0.674169  0.825831  0.000000  1
  Tm  Tm3  1  0.174169  0.674169  0.000000  1
  Tm  Tm4  1  0.000000  0.000000  0.000000  1
  Tm  Tm5  1  0.500000  0.500000  0.000000  1
  Be  Be6  1  0.621443  0.121443  0.000000  1
  Be  Be7  1  0.121443  0.378557  0.000000  1
  Be  Be8  1  0.878557  0.621443  0.000000  1
  Be  Be9  1  0.378557  0.878557  0.000000  1
  Rh  Rh10  1  0.071574  0.220045  0.500000  1
  Rh  Rh11  1  0.220045  0.928426  0.500000  1
  Rh  Rh12  1  0.779955  0.071574  0.500000  1
  Rh  Rh13  1  0.928426  0.779955  0.500000  1
  Rh  Rh14  1  0.428426  0.720045  0.500000  1
  Rh  Rh15  1  0.571574  0.279955  0.500000  1
  Rh  Rh16  1  0.720045  0.571574  0.500000  1
  Rh  Rh17  1  0.279955  0.428426  0.500000  1
  Rh  Rh18  1  0.500000  0.000000  0.500000  1
  Rh  Rh19  1  0.000000  0.500000  0.500000  1
