# generated using pymatgen
data_Tb3Nd5(Er3Pt4)4
_symmetry_space_group_name_H-M   'P 1'
_cell_length_a   7.52617171
_cell_length_b   7.59900789
_cell_length_c   14.69320700
_cell_angle_alpha   90.03601058
_cell_angle_beta   90.03862771
_cell_angle_gamma   90.01834292
_symmetry_Int_Tables_number   1
_chemical_formula_structural   Tb3Nd5(Er3Pt4)4
_chemical_formula_sum   'Tb3 Nd5 Er12 Pt16'
_cell_volume   840.32524025
_cell_formula_units_Z   1
loop_
 _symmetry_equiv_pos_site_id
 _symmetry_equiv_pos_as_xyz
  1  'x, y, z'
loop_
 _atom_site_type_symbol
 _atom_site_label
 _atom_site_symmetry_multiplicity
 _atom_site_fract_x
 _atom_site_fract_y
 _atom_site_fract_z
 _atom_site_occupancy
  Tb  Tb0  1  0.997483  0.178684  0.096161  1
  Tb  Tb1  1  0.503160  0.678068  0.902990  1
  Tb  Tb2  1  0.002372  0.820750  0.596085  1
  Nd  Nd3  1  0.500628  0.677580  0.594043  1
  Nd  Nd4  1  0.000529  0.824712  0.907699  1
  Nd  Nd5  1  0.498865  0.324501  0.092154  1
  Nd  Nd6  1  0.998940  0.173971  0.407174  1
  Nd  Nd7  1  0.498989  0.324055  0.404855  1
  Er  Er8  1  0.658065  0.167776  0.622514  1
  Er  Er9  1  0.157113  0.331332  0.878667  1
  Er  Er10  1  0.342955  0.831707  0.120568  1
  Er  Er11  1  0.845054  0.669731  0.377613  1
  Er  Er12  1  0.342283  0.833792  0.376265  1
  Er  Er13  1  0.841678  0.666396  0.122710  1
  Er  Er14  1  0.658561  0.166847  0.876864  1
  Er  Er15  1  0.157930  0.333037  0.623649  1
  Er  Er16  1  0.821129  0.509105  0.750832  1
  Er  Er17  1  0.320371  0.991008  0.750175  1
  Er  Er18  1  0.178942  0.490562  0.249209  1
  Er  Er19  1  0.679095  0.009350  0.248217  1
  Pt  Pt20  1  0.677618  0.962310  0.458426  1
  Pt  Pt21  1  0.174713  0.531672  0.044085  1
  Pt  Pt22  1  0.326107  0.032273  0.956074  1
  Pt  Pt23  1  0.825000  0.468904  0.544925  1
  Pt  Pt24  1  0.315349  0.032201  0.543861  1
  Pt  Pt25  1  0.816619  0.465236  0.957148  1
  Pt  Pt26  1  0.684804  0.965713  0.043078  1
  Pt  Pt27  1  0.177997  0.539064  0.457990  1
  Pt  Pt28  1  0.453775  0.379271  0.751604  1
  Pt  Pt29  1  0.954111  0.120478  0.749167  1
  Pt  Pt30  1  0.546912  0.624113  0.249822  1
  Pt  Pt31  1  0.045342  0.877742  0.248127  1
  Pt  Pt32  1  0.686116  0.860051  0.751308  1
  Pt  Pt33  1  0.185559  0.639877  0.749968  1
  Pt  Pt34  1  0.310831  0.137813  0.247872  1
  Pt  Pt35  1  0.815006  0.360318  0.248099  1
