# generated using pymatgen
data_Sr4Ho2TaSbO12
_symmetry_space_group_name_H-M   'P 1'
_cell_length_a   5.84368836
_cell_length_b   5.91460408
_cell_length_c   8.30161447
_cell_angle_alpha   89.93249130
_cell_angle_beta   90.20640024
_cell_angle_gamma   89.98477026
_symmetry_Int_Tables_number   1
_chemical_formula_structural   Sr4Ho2TaSbO12
_chemical_formula_sum   'Sr4 Ho2 Ta1 Sb1 O12'
_cell_volume   286.92748483
_cell_formula_units_Z   1
loop_
 _symmetry_equiv_pos_site_id
 _symmetry_equiv_pos_as_xyz
  1  'x, y, z'
loop_
 _atom_site_type_symbol
 _atom_site_label
 _atom_site_symmetry_multiplicity
 _atom_site_fract_x
 _atom_site_fract_y
 _atom_site_fract_z
 _atom_site_occupancy
  Sr  Sr0  1  0.509128  0.463933  0.748697  1
  Sr  Sr1  1  0.992900  0.964566  0.749784  1
  Sr  Sr2  1  0.490872  0.536068  0.251302  1
  Sr  Sr3  1  0.007102  0.035433  0.250216  1
  Ho  Ho4  1  0.999999  0.500000  0.499999  1
  Ho  Ho5  1  0.499999  0.999998  0.000000  1
  Ta  Ta6  1  0.500001  0.000001  0.500000  1
  Sb  Sb7  1  0.999999  0.499999  0.999999  1
  O  O8  1  0.774041  0.198435  0.540344  1
  O  O9  1  0.726125  0.700172  0.958382  1
  O  O10  1  0.225957  0.801564  0.459657  1
  O  O11  1  0.273873  0.299830  0.041617  1
  O  O12  1  0.803150  0.224768  0.957244  1
  O  O13  1  0.695340  0.724430  0.542066  1
  O  O14  1  0.196851  0.775233  0.042756  1
  O  O15  1  0.304660  0.275569  0.457934  1
  O  O16  1  0.421845  0.021320  0.735555  1
  O  O17  1  0.079426  0.521235  0.763650  1
  O  O18  1  0.578156  0.978679  0.264447  1
  O  O19  1  0.920574  0.478766  0.236350  1
