# generated using pymatgen
data_YSc5(Be2Rh5)2
_symmetry_space_group_name_H-M   'P 1'
_cell_length_a   9.58037001
_cell_length_b   9.58037001
_cell_length_c   3.23855900
_cell_angle_alpha   90.00000000
_cell_angle_beta   90.00000000
_cell_angle_gamma   89.92579346
_symmetry_Int_Tables_number   1
_chemical_formula_structural   YSc5(Be2Rh5)2
_chemical_formula_sum   'Y1 Sc5 Be4 Rh10'
_cell_volume   297.24599669
_cell_formula_units_Z   1
loop_
 _symmetry_equiv_pos_site_id
 _symmetry_equiv_pos_as_xyz
  1  'x, y, z'
loop_
 _atom_site_type_symbol
 _atom_site_label
 _atom_site_symmetry_multiplicity
 _atom_site_fract_x
 _atom_site_fract_y
 _atom_site_fract_z
 _atom_site_occupancy
  Y  Y0  1  0.824908  0.324908  0.000000  1
  Sc  Sc1  1  0.325266  0.174254  0.000000  1
  Sc  Sc2  1  0.674254  0.825266  0.000000  1
  Sc  Sc3  1  0.176281  0.676281  0.000000  1
  Sc  Sc4  1  0.001281  0.998656  0.000000  1
  Sc  Sc5  1  0.498656  0.501281  0.000000  1
  Be  Be6  1  0.618974  0.118974  0.000000  1
  Be  Be7  1  0.126192  0.378807  0.000000  1
  Be  Be8  1  0.878807  0.626192  0.000000  1
  Be  Be9  1  0.376187  0.876187  0.000000  1
  Rh  Rh10  1  0.078077  0.214495  0.500000  1
  Rh  Rh11  1  0.215689  0.928469  0.500000  1
  Rh  Rh12  1  0.780583  0.062922  0.500000  1
  Rh  Rh13  1  0.929109  0.786647  0.500000  1
  Rh  Rh14  1  0.428469  0.715689  0.500000  1
  Rh  Rh15  1  0.562922  0.280583  0.500000  1
  Rh  Rh16  1  0.714495  0.578077  0.500000  1
  Rh  Rh17  1  0.286647  0.429109  0.500000  1
  Rh  Rh18  1  0.497822  0.997822  0.500000  1
  Rh  Rh19  1  0.005381  0.505381  0.500000  1
