# generated using pymatgen
data_Pr2Nd2Ga24IrPd
_symmetry_space_group_name_H-M   'P 1'
_cell_length_a   6.15415500
_cell_length_b   6.15415500
_cell_length_c   15.60112400
_cell_angle_alpha   90.00000000
_cell_angle_beta   90.00000000
_cell_angle_gamma   90.00000000
_symmetry_Int_Tables_number   1
_chemical_formula_structural   Pr2Nd2Ga24IrPd
_chemical_formula_sum   'Pr2 Nd2 Ga24 Ir1 Pd1'
_cell_volume   590.87110067
_cell_formula_units_Z   1
loop_
 _symmetry_equiv_pos_site_id
 _symmetry_equiv_pos_as_xyz
  1  'x, y, z'
loop_
 _atom_site_type_symbol
 _atom_site_label
 _atom_site_symmetry_multiplicity
 _atom_site_fract_x
 _atom_site_fract_y
 _atom_site_fract_z
 _atom_site_occupancy
  Pr  Pr0  1  0.250000  0.750000  0.244134  1
  Pr  Pr1  1  0.250000  0.750000  0.755866  1
  Nd  Nd2  1  0.750000  0.250000  0.245134  1
  Nd  Nd3  1  0.750000  0.250000  0.754866  1
  Ga  Ga4  1  0.250000  0.250000  0.187537  1
  Ga  Ga5  1  0.750000  0.750000  0.187537  1
  Ga  Ga6  1  0.750000  0.750000  0.812463  1
  Ga  Ga7  1  0.250000  0.250000  0.812463  1
  Ga  Ga8  1  0.250000  0.250000  0.346035  1
  Ga  Ga9  1  0.750000  0.750000  0.346035  1
  Ga  Ga10  1  0.750000  0.750000  0.653965  1
  Ga  Ga11  1  0.250000  0.250000  0.653965  1
  Ga  Ga12  1  0.501910  0.001910  0.911977  1
  Ga  Ga13  1  0.998144  0.001856  0.912416  1
  Ga  Ga14  1  0.501856  0.498144  0.912416  1
  Ga  Ga15  1  0.998090  0.498090  0.911977  1
  Ga  Ga16  1  0.501856  0.001856  0.087584  1
  Ga  Ga17  1  0.998090  0.001910  0.088023  1
  Ga  Ga18  1  0.501910  0.498090  0.088023  1
  Ga  Ga19  1  0.998144  0.498144  0.087584  1
  Ga  Ga20  1  0.581556  0.081556  0.431986  1
  Ga  Ga21  1  0.081941  0.918059  0.431314  1
  Ga  Ga22  1  0.418059  0.581941  0.431314  1
  Ga  Ga23  1  0.918444  0.418444  0.431986  1
  Ga  Ga24  1  0.418059  0.918059  0.568686  1
  Ga  Ga25  1  0.918444  0.081556  0.568014  1
  Ga  Ga26  1  0.581556  0.418444  0.568014  1
  Ga  Ga27  1  0.081941  0.581941  0.568686  1
  Ir  Ir28  1  0.750000  0.250000  0.000000  1
  Pd  Pd29  1  0.250000  0.750000  0.000000  1
