# generated using pymatgen
data_Y3Al4SiPd
_symmetry_space_group_name_H-M   'P 1'
_cell_length_a   6.97920300
_cell_length_b   6.97920317
_cell_length_c   4.30244400
_cell_angle_alpha   90.00000000
_cell_angle_beta   90.00000000
_cell_angle_gamma   120.00000395
_symmetry_Int_Tables_number   1
_chemical_formula_structural   Y3Al4SiPd
_chemical_formula_sum   'Y3 Al4 Si1 Pd1'
_cell_volume   181.49201077
_cell_formula_units_Z   1
loop_
 _symmetry_equiv_pos_site_id
 _symmetry_equiv_pos_as_xyz
  1  'x, y, z'
loop_
 _atom_site_type_symbol
 _atom_site_label
 _atom_site_symmetry_multiplicity
 _atom_site_fract_x
 _atom_site_fract_y
 _atom_site_fract_z
 _atom_site_occupancy
  Y  Y0  1  0.419994  0.415084  0.500000  1
  Y  Y1  1  0.584916  0.004911  0.500000  1
  Y  Y2  1  0.995089  0.580006  0.500000  1
  Al  Al3  1  0.001744  0.237433  0.000000  1
  Al  Al4  1  0.762567  0.764310  0.000000  1
  Al  Al5  1  0.235690  0.998256  0.000000  1
  Al  Al6  1  0.333333  0.666667  0.000000  1
  Si  Si7  1  0.666667  0.333333  0.000000  1
  Pd  Pd8  1  0.000000  0.000000  0.500000  1
