# generated using pymatgen
data_NiAsF7
_symmetry_space_group_name_H-M   'P 1'
_cell_length_a   7.29846189
_cell_length_b   7.29846133
_cell_length_c   7.29846162
_cell_angle_alpha   123.86597110
_cell_angle_beta   121.57587701
_cell_angle_gamma   85.36089368
_symmetry_Int_Tables_number   1
_chemical_formula_structural   NiAsF7
_chemical_formula_sum   'Ni2 As2 F14'
_cell_volume   262.51208368
_cell_formula_units_Z   2
loop_
 _symmetry_equiv_pos_site_id
 _symmetry_equiv_pos_as_xyz
  1  'x, y, z'
loop_
 _atom_site_type_symbol
 _atom_site_label
 _atom_site_symmetry_multiplicity
 _atom_site_fract_x
 _atom_site_fract_y
 _atom_site_fract_z
 _atom_site_occupancy
  Ni  Ni0  1  0.500000  0.000000  0.000000  1
  Ni  Ni1  1  0.000000  0.000000  0.500000  1
  As  As2  1  0.500000  0.000000  0.500000  1
  As  As3  1  0.000000  0.500000  0.500000  1
  F  F4  1  0.250000  0.100005  0.850005  1
  F  F5  1  0.750000  0.899995  0.149995  1
  F  F6  1  0.532678  0.279632  0.746954  1
  F  F7  1  0.967322  0.714275  0.746954  1
  F  F8  1  0.063149  0.348465  0.644059  1
  F  F9  1  0.436851  0.080911  0.285315  1
  F  F10  1  0.295595  0.651535  0.714685  1
  F  F11  1  0.204405  0.919089  0.355941  1
  F  F12  1  0.936851  0.651535  0.355941  1
  F  F13  1  0.563149  0.919089  0.714685  1
  F  F14  1  0.704405  0.348465  0.285315  1
  F  F15  1  0.795595  0.080911  0.644059  1
  F  F16  1  0.032678  0.285725  0.253046  1
  F  F17  1  0.467322  0.720368  0.253046  1
