# generated using pymatgen
data_Tb12PdRh3
_symmetry_space_group_name_H-M   'P 1'
_cell_length_a   6.33551308
_cell_length_b   7.17265610
_cell_length_c   9.60734500
_cell_angle_alpha   90.00000000
_cell_angle_beta   90.00000000
_cell_angle_gamma   89.98133633
_symmetry_Int_Tables_number   1
_chemical_formula_structural   Tb12PdRh3
_chemical_formula_sum   'Tb12 Pd1 Rh3'
_cell_volume   436.58133445
_cell_formula_units_Z   1
loop_
 _symmetry_equiv_pos_site_id
 _symmetry_equiv_pos_as_xyz
  1  'x, y, z'
loop_
 _atom_site_type_symbol
 _atom_site_label
 _atom_site_symmetry_multiplicity
 _atom_site_fract_x
 _atom_site_fract_y
 _atom_site_fract_z
 _atom_site_occupancy
  Tb  Tb0  1  0.334439  0.675246  0.061004  1
  Tb  Tb1  1  0.170994  0.181848  0.439113  1
  Tb  Tb2  1  0.670622  0.321775  0.563392  1
  Tb  Tb3  1  0.828872  0.822178  0.934494  1
  Tb  Tb4  1  0.670622  0.321775  0.936608  1
  Tb  Tb5  1  0.828872  0.822178  0.565506  1
  Tb  Tb6  1  0.334439  0.675246  0.438996  1
  Tb  Tb7  1  0.170994  0.181848  0.060887  1
  Tb  Tb8  1  0.861403  0.525375  0.250000  1
  Tb  Tb9  1  0.629555  0.034483  0.250000  1
  Tb  Tb10  1  0.134370  0.467232  0.750000  1
  Tb  Tb11  1  0.364638  0.967454  0.750000  1
  Pd  Pd12  1  0.061994  0.884053  0.250000  1
  Rh  Rh13  1  0.438551  0.382414  0.250000  1
  Rh  Rh14  1  0.939204  0.118609  0.750000  1
  Rh  Rh15  1  0.560432  0.618286  0.750000  1
