# generated using pymatgen
data_Ac5Pr3(SmSn4)2
_symmetry_space_group_name_H-M   'P 1'
_cell_length_a   8.53928300
_cell_length_b   8.67539648
_cell_length_c   16.60887735
_cell_angle_alpha   89.70805647
_cell_angle_beta   90.00000000
_cell_angle_gamma   90.00000000
_symmetry_Int_Tables_number   1
_chemical_formula_structural   Ac5Pr3(SmSn4)2
_chemical_formula_sum   'Ac10 Pr6 Sm4 Sn16'
_cell_volume   1230.39732699
_cell_formula_units_Z   2
loop_
 _symmetry_equiv_pos_site_id
 _symmetry_equiv_pos_as_xyz
  1  'x, y, z'
loop_
 _atom_site_type_symbol
 _atom_site_label
 _atom_site_symmetry_multiplicity
 _atom_site_fract_x
 _atom_site_fract_y
 _atom_site_fract_z
 _atom_site_occupancy
  Ac  Ac0  1  0.488468  0.819523  0.904274  1
  Ac  Ac1  1  0.988468  0.680477  0.595726  1
  Ac  Ac2  1  0.513003  0.176400  0.400303  1
  Ac  Ac3  1  0.013003  0.323600  0.099697  1
  Ac  Ac4  1  0.512588  0.182039  0.099408  1
  Ac  Ac5  1  0.012588  0.317961  0.400592  1
  Ac  Ac6  1  0.484890  0.817471  0.596332  1
  Ac  Ac7  1  0.984890  0.682529  0.903668  1
  Ac  Ac8  1  0.640713  0.340884  0.884128  1
  Ac  Ac9  1  0.140713  0.159116  0.615872  1
  Pr  Pr10  1  0.360793  0.659073  0.374167  1
  Pr  Pr11  1  0.860793  0.840927  0.125833  1
  Pr  Pr12  1  0.355707  0.660245  0.121912  1
  Pr  Pr13  1  0.855707  0.839755  0.378088  1
  Pr  Pr14  1  0.644324  0.338207  0.622802  1
  Pr  Pr15  1  0.144324  0.161793  0.877198  1
  Sm  Sm16  1  0.306310  0.498200  0.751108  1
  Sm  Sm17  1  0.806310  0.001800  0.748892  1
  Sm  Sm18  1  0.694936  0.500915  0.250464  1
  Sm  Sm19  1  0.194936  0.999085  0.249536  1
  Sn  Sn20  1  0.193715  0.961339  0.043815  1
  Sn  Sn21  1  0.693715  0.538661  0.456185  1
  Sn  Sn22  1  0.790639  0.038292  0.542277  1
  Sn  Sn23  1  0.290639  0.461708  0.957723  1
  Sn  Sn24  1  0.816353  0.036075  0.959399  1
  Sn  Sn25  1  0.316353  0.463925  0.540601  1
  Sn  Sn26  1  0.196483  0.950706  0.449368  1
  Sn  Sn27  1  0.696483  0.549294  0.050632  1
  Sn  Sn28  1  0.682889  0.645684  0.748713  1
  Sn  Sn29  1  0.182889  0.854316  0.751287  1
  Sn  Sn30  1  0.317891  0.358266  0.249392  1
  Sn  Sn31  1  0.817891  0.141734  0.250608  1
  Sn  Sn32  1  0.444066  0.121246  0.751453  1
  Sn  Sn33  1  0.944066  0.378754  0.748547  1
  Sn  Sn34  1  0.556233  0.873030  0.248707  1
  Sn  Sn35  1  0.056233  0.626970  0.251293  1
