# generated using pymatgen
data_LuTh4Si4Pb
_symmetry_space_group_name_H-M   'P 1'
_cell_length_a   7.62154000
_cell_length_b   7.62154000
_cell_length_c   4.27468900
_cell_angle_alpha   90.00000000
_cell_angle_beta   90.00000000
_cell_angle_gamma   90.00000000
_symmetry_Int_Tables_number   1
_chemical_formula_structural   LuTh4Si4Pb
_chemical_formula_sum   'Lu1 Th4 Si4 Pb1'
_cell_volume   248.30758735
_cell_formula_units_Z   1
loop_
 _symmetry_equiv_pos_site_id
 _symmetry_equiv_pos_as_xyz
  1  'x, y, z'
loop_
 _atom_site_type_symbol
 _atom_site_label
 _atom_site_symmetry_multiplicity
 _atom_site_fract_x
 _atom_site_fract_y
 _atom_site_fract_z
 _atom_site_occupancy
  Lu  Lu0  1  0.000000  0.000000  0.000000  1
  Th  Th1  1  0.670319  0.189768  0.500000  1
  Th  Th2  1  0.329681  0.810232  0.500000  1
  Th  Th3  1  0.189768  0.329681  0.500000  1
  Th  Th4  1  0.810232  0.670319  0.500000  1
  Si  Si5  1  0.093257  0.630009  0.000000  1
  Si  Si6  1  0.906743  0.369991  0.000000  1
  Si  Si7  1  0.630009  0.906743  0.000000  1
  Si  Si8  1  0.369991  0.093257  0.000000  1
  Pb  Pb9  1  0.500000  0.500000  0.000000  1
