# generated using pymatgen
data_La16Cd4Tc2IrPt
_symmetry_space_group_name_H-M   'P 1'
_cell_length_a   10.15039242
_cell_length_b   10.13012282
_cell_length_c   10.22260300
_cell_angle_alpha   59.69754204
_cell_angle_beta   59.76438490
_cell_angle_gamma   59.44310814
_symmetry_Int_Tables_number   1
_chemical_formula_structural   La16Cd4Tc2IrPt
_chemical_formula_sum   'La16 Cd4 Tc2 Ir1 Pt1'
_cell_volume   737.08795348
_cell_formula_units_Z   1
loop_
 _symmetry_equiv_pos_site_id
 _symmetry_equiv_pos_as_xyz
  1  'x, y, z'
loop_
 _atom_site_type_symbol
 _atom_site_label
 _atom_site_symmetry_multiplicity
 _atom_site_fract_x
 _atom_site_fract_y
 _atom_site_fract_z
 _atom_site_occupancy
  La  La0  1  0.598043  0.592979  0.600229  1
  La  La1  1  0.598043  0.592979  0.208750  1
  La  La2  1  0.595202  0.211640  0.596579  1
  La  La3  1  0.209429  0.592873  0.598849  1
  La  La4  1  0.065108  0.440267  0.437071  1
  La  La5  1  0.440679  0.068523  0.052725  1
  La  La6  1  0.440679  0.068523  0.438074  1
  La  La7  1  0.065108  0.440267  0.057555  1
  La  La8  1  0.438528  0.439143  0.061164  1
  La  La9  1  0.054441  0.063125  0.441217  1
  La  La10  1  0.190022  0.807590  0.812611  1
  La  La11  1  0.808114  0.190478  0.190515  1
  La  La12  1  0.808114  0.190478  0.810893  1
  La  La13  1  0.190022  0.807590  0.189777  1
  La  La14  1  0.811909  0.809372  0.189360  1
  La  La15  1  0.193355  0.192854  0.806895  1
  Cd  Cd16  1  0.829462  0.829322  0.829404  1
  Cd  Cd17  1  0.829462  0.829322  0.511810  1
  Cd  Cd18  1  0.828620  0.512405  0.829486  1
  Cd  Cd19  1  0.512214  0.828548  0.829618  1
  Tc  Tc20  1  0.385105  0.385530  0.385709  1
  Tc  Tc21  1  0.385105  0.385530  0.843656  1
  Ir  Ir22  1  0.830668  0.392037  0.388647  1
  Pt  Pt23  1  0.392569  0.828625  0.389403  1
