# generated using pymatgen
data_Ce4Be(ZnRh3)3
_symmetry_space_group_name_H-M   'P 1'
_cell_length_a   7.13417101
_cell_length_b   7.13416952
_cell_length_c   7.30495600
_cell_angle_alpha   109.95689101
_cell_angle_beta   109.95688669
_cell_angle_gamma   108.98121470
_symmetry_Int_Tables_number   1
_chemical_formula_structural   Ce4Be(ZnRh3)3
_chemical_formula_sum   'Ce4 Be1 Zn3 Rh9'
_cell_volume   284.47520166
_cell_formula_units_Z   1
loop_
 _symmetry_equiv_pos_site_id
 _symmetry_equiv_pos_as_xyz
  1  'x, y, z'
loop_
 _atom_site_type_symbol
 _atom_site_label
 _atom_site_symmetry_multiplicity
 _atom_site_fract_x
 _atom_site_fract_y
 _atom_site_fract_z
 _atom_site_occupancy
  Ce  Ce0  1  0.000000  0.000000  0.500000  1
  Ce  Ce1  1  0.037911  0.518956  0.018956  1
  Ce  Ce2  1  0.481044  0.962089  0.981044  1
  Ce  Ce3  1  0.481044  0.518956  0.500000  1
  Be  Be4  1  0.000000  0.000000  0.000000  1
  Zn  Zn5  1  0.745526  0.254474  0.500000  1
  Zn  Zn6  1  0.745526  0.491052  0.245526  1
  Zn  Zn7  1  0.508948  0.254474  0.754474  1
  Rh  Rh8  1  0.240393  0.480785  0.740393  1
  Rh  Rh9  1  0.240393  0.759607  0.500000  1
  Rh  Rh10  1  0.519215  0.759607  0.259607  1
  Rh  Rh11  1  0.742956  0.716747  0.998654  1
  Rh  Rh12  1  0.283253  0.026209  0.281907  1
  Rh  Rh13  1  0.973791  0.257044  0.255697  1
  Rh  Rh14  1  0.283253  0.257044  0.001346  1
  Rh  Rh15  1  0.742956  0.026209  0.744303  1
  Rh  Rh16  1  0.973791  0.716747  0.718093  1
