# generated using pymatgen
data_Ho8Ta5Si16Mo7
_symmetry_space_group_name_H-M   'P 1'
_cell_length_a   6.94791747
_cell_length_b   6.94328242
_cell_length_c   12.90828238
_cell_angle_alpha   90.04539855
_cell_angle_beta   90.17584414
_cell_angle_gamma   89.95112790
_symmetry_Int_Tables_number   1
_chemical_formula_structural   Ho8Ta5Si16Mo7
_chemical_formula_sum   'Ho8 Ta5 Si16 Mo7'
_cell_volume   622.70965566
_cell_formula_units_Z   1
loop_
 _symmetry_equiv_pos_site_id
 _symmetry_equiv_pos_as_xyz
  1  'x, y, z'
loop_
 _atom_site_type_symbol
 _atom_site_label
 _atom_site_symmetry_multiplicity
 _atom_site_fract_x
 _atom_site_fract_y
 _atom_site_fract_z
 _atom_site_occupancy
  Ho  Ho0  1  0.339434  0.000683  0.466968  1
  Ho  Ho1  1  0.498150  0.839122  0.718734  1
  Ho  Ho2  1  0.500118  0.160872  0.218185  1
  Ho  Ho3  1  0.838818  0.499342  0.280791  1
  Ho  Ho4  1  0.161289  0.499710  0.782663  1
  Ho  Ho5  1  0.660585  0.998972  0.969054  1
  Ho  Ho6  1  0.000854  0.338586  0.531635  1
  Ho  Ho7  1  0.999510  0.661067  0.031917  1
  Ta  Ta8  1  0.331514  0.331656  0.000385  1
  Ta  Ta9  1  0.168511  0.831351  0.249325  1
  Ta  Ta10  1  0.831167  0.168678  0.750571  1
  Ta  Ta11  1  0.668762  0.668015  0.499480  1
  Ta  Ta12  1  0.993991  0.842586  0.625537  1
  Si  Si13  1  0.205447  0.131892  0.683332  1
  Si  Si14  1  0.371875  0.701918  0.934033  1
  Si  Si15  1  0.629653  0.298227  0.433073  1
  Si  Si16  1  0.701829  0.371000  0.066420  1
  Si  Si17  1  0.300156  0.628085  0.565690  1
  Si  Si18  1  0.796324  0.871615  0.183343  1
  Si  Si19  1  0.127881  0.202764  0.316493  1
  Si  Si20  1  0.870993  0.795832  0.817966  1
  Si  Si21  1  0.290697  0.960581  0.062960  1
  Si  Si22  1  0.540171  0.790112  0.312675  1
  Si  Si23  1  0.460256  0.209679  0.813353  1
  Si  Si24  1  0.789475  0.539009  0.687914  1
  Si  Si25  1  0.209440  0.460012  0.186823  1
  Si  Si26  1  0.705607  0.043175  0.562499  1
  Si  Si27  1  0.959686  0.291511  0.937812  1
  Si  Si28  1  0.041384  0.707357  0.435577  1
  Mo  Mo29  1  0.159275  0.006815  0.874656  1
  Mo  Mo30  1  0.495176  0.660716  0.123966  1
  Mo  Mo31  1  0.505014  0.338522  0.623962  1
  Mo  Mo32  1  0.660154  0.494360  0.876708  1
  Mo  Mo33  1  0.340464  0.503729  0.375414  1
  Mo  Mo34  1  0.841496  0.994661  0.374613  1
  Mo  Mo35  1  0.004847  0.157791  0.125473  1
