# generated using pymatgen
data_Nd4Al18PtRh4Au
_symmetry_space_group_name_H-M   'P 1'
_cell_length_a   7.66516118
_cell_length_b   7.66516050
_cell_length_c   9.60030505
_cell_angle_alpha   89.92062494
_cell_angle_beta   89.92062346
_cell_angle_gamma   119.38511319
_symmetry_Int_Tables_number   1
_chemical_formula_structural   Nd4Al18PtRh4Au
_chemical_formula_sum   'Nd4 Al18 Pt1 Rh4 Au1'
_cell_volume   491.48951267
_cell_formula_units_Z   1
loop_
 _symmetry_equiv_pos_site_id
 _symmetry_equiv_pos_as_xyz
  1  'x, y, z'
loop_
 _atom_site_type_symbol
 _atom_site_label
 _atom_site_symmetry_multiplicity
 _atom_site_fract_x
 _atom_site_fract_y
 _atom_site_fract_z
 _atom_site_occupancy
  Nd  Nd0  1  0.995226  0.673728  0.750096  1
  Nd  Nd1  1  0.004000  0.325539  0.250089  1
  Nd  Nd2  1  0.674461  0.996000  0.749911  1
  Nd  Nd3  1  0.326272  0.004774  0.249904  1
  Al  Al4  1  0.137905  0.137372  0.758377  1
  Al  Al5  1  0.862628  0.862095  0.241623  1
  Al  Al6  1  0.007872  0.345461  0.577998  1
  Al  Al7  1  0.999978  0.658566  0.421997  1
  Al  Al8  1  0.999143  0.663552  0.071395  1
  Al  Al9  1  0.336448  0.000857  0.928605  1
  Al  Al10  1  0.001114  0.336209  0.928437  1
  Al  Al11  1  0.663791  0.998886  0.071563  1
  Al  Al12  1  0.654539  0.992128  0.422002  1
  Al  Al13  1  0.341434  0.000022  0.578003  1
  Al  Al14  1  0.333700  0.333791  0.046668  1
  Al  Al15  1  0.666209  0.666300  0.953332  1
  Al  Al16  1  0.656352  0.660150  0.555250  1
  Al  Al17  1  0.339850  0.343648  0.444750  1
  Al  Al18  1  0.340548  0.550588  0.751769  1
  Al  Al19  1  0.659715  0.451598  0.245290  1
  Al  Al20  1  0.548402  0.340285  0.754710  1
  Al  Al21  1  0.449412  0.659452  0.248231  1
  Pt  Pt22  1  0.671640  0.328360  0.500000  1
  Rh  Rh23  1  0.328954  0.671046  0.500000  1
  Rh  Rh24  1  0.329137  0.670863  0.000000  1
  Rh  Rh25  1  0.671250  0.328750  0.000000  1
  Rh  Rh26  1  0.000132  0.999868  0.000000  1
  Au  Au27  1  0.999888  0.000112  0.500000  1
