# generated using pymatgen
data_Ho4ReTc5B12
_symmetry_space_group_name_H-M   'P 1'
_cell_length_a   6.18683658
_cell_length_b   6.19153404
_cell_length_c   7.48982335
_cell_angle_alpha   90.64305531
_cell_angle_beta   90.68203849
_cell_angle_gamma   113.57175251
_symmetry_Int_Tables_number   1
_chemical_formula_structural   Ho4ReTc5B12
_chemical_formula_sum   'Ho4 Re1 Tc5 B12'
_cell_volume   262.90724689
_cell_formula_units_Z   1
loop_
 _symmetry_equiv_pos_site_id
 _symmetry_equiv_pos_as_xyz
  1  'x, y, z'
loop_
 _atom_site_type_symbol
 _atom_site_label
 _atom_site_symmetry_multiplicity
 _atom_site_fract_x
 _atom_site_fract_y
 _atom_site_fract_z
 _atom_site_occupancy
  Ho  Ho0  1  0.101842  0.442696  0.321757  1
  Ho  Ho1  1  0.558767  0.898583  0.177650  1
  Ho  Ho2  1  0.897887  0.554370  0.678154  1
  Ho  Ho3  1  0.439468  0.100929  0.821966  1
  Re  Re4  1  0.806472  0.990118  0.589934  1
  Tc  Tc5  1  0.589029  0.410984  0.249629  1
  Tc  Tc6  1  0.411056  0.588706  0.749726  1
  Tc  Tc7  1  0.990573  0.805501  0.089242  1
  Tc  Tc8  1  0.194028  0.010019  0.410618  1
  Tc  Tc9  1  0.009904  0.195553  0.911724  1
  B  B10  1  0.248110  0.151267  0.129529  1
  B  B11  1  0.848154  0.752348  0.371573  1
  B  B12  1  0.754217  0.848855  0.869170  1
  B  B13  1  0.151216  0.250730  0.629037  1
  B  B14  1  0.585329  0.158279  0.482130  1
  B  B15  1  0.841250  0.415352  0.019041  1
  B  B16  1  0.414105  0.840692  0.518022  1
  B  B17  1  0.159093  0.585674  0.981697  1
  B  B18  1  0.442472  0.349975  0.534640  1
  B  B19  1  0.649626  0.557123  0.965032  1
  B  B20  1  0.556615  0.648804  0.464846  1
  B  B21  1  0.350787  0.443440  0.034884  1
