# generated using pymatgen
data_Dy2HoZn2In3Ir
_symmetry_space_group_name_H-M   'P 1'
_cell_length_a   7.76335412
_cell_length_b   7.76691437
_cell_length_c   3.82534000
_cell_angle_alpha   90.00000000
_cell_angle_beta   90.00000000
_cell_angle_gamma   119.96453451
_symmetry_Int_Tables_number   1
_chemical_formula_structural   Dy2HoZn2In3Ir
_chemical_formula_sum   'Dy2 Ho1 Zn2 In3 Ir1'
_cell_volume   199.82677611
_cell_formula_units_Z   1
loop_
 _symmetry_equiv_pos_site_id
 _symmetry_equiv_pos_as_xyz
  1  'x, y, z'
loop_
 _atom_site_type_symbol
 _atom_site_label
 _atom_site_symmetry_multiplicity
 _atom_site_fract_x
 _atom_site_fract_y
 _atom_site_fract_z
 _atom_site_occupancy
  Dy  Dy0  1  0.387816  0.973535  0.000000  1
  Dy  Dy1  1  0.026420  0.414024  0.000000  1
  Ho  Ho2  1  0.585178  0.612928  0.000000  1
  Zn  Zn3  1  0.000064  0.999861  0.000000  1
  Zn  Zn4  1  0.666525  0.333767  0.500000  1
  In  In5  1  0.990882  0.730513  0.500000  1
  In  In6  1  0.269363  0.260841  0.500000  1
  In  In7  1  0.739460  0.008337  0.500000  1
  Ir  Ir8  1  0.334292  0.666193  0.500000  1
