# generated using pymatgen
data_SrBiRu2O7
_symmetry_space_group_name_H-M   'P 1'
_cell_length_a   7.39362463
_cell_length_b   7.39362497
_cell_length_c   7.34720300
_cell_angle_alpha   60.20747509
_cell_angle_beta   60.20747362
_cell_angle_gamma   60.21680819
_symmetry_Int_Tables_number   1
_chemical_formula_structural   SrBiRu2O7
_chemical_formula_sum   'Sr2 Bi2 Ru4 O14'
_cell_volume   285.35645321
_cell_formula_units_Z   2
loop_
 _symmetry_equiv_pos_site_id
 _symmetry_equiv_pos_as_xyz
  1  'x, y, z'
loop_
 _atom_site_type_symbol
 _atom_site_label
 _atom_site_symmetry_multiplicity
 _atom_site_fract_x
 _atom_site_fract_y
 _atom_site_fract_z
 _atom_site_occupancy
  Sr  Sr0  1  0.125000  0.125000  0.625000  1
  Sr  Sr1  1  0.125000  0.125000  0.125000  1
  Bi  Bi2  1  0.125000  0.625000  0.125000  1
  Bi  Bi3  1  0.625000  0.125000  0.125000  1
  Ru  Ru4  1  0.625000  0.625000  0.125000  1
  Ru  Ru5  1  0.625000  0.125000  0.625000  1
  Ru  Ru6  1  0.125000  0.625000  0.625000  1
  Ru  Ru7  1  0.625000  0.625000  0.625000  1
  O  O8  1  0.261414  0.261414  0.238586  1
  O  O9  1  0.988586  0.988586  0.011414  1
  O  O10  1  0.561937  0.946437  0.542300  1
  O  O11  1  0.303563  0.688063  0.300674  1
  O  O12  1  0.551064  0.551064  0.948936  1
  O  O13  1  0.946437  0.561937  0.542300  1
  O  O14  1  0.561937  0.946437  0.949326  1
  O  O15  1  0.943882  0.943882  0.556118  1
  O  O16  1  0.946437  0.561937  0.949326  1
  O  O17  1  0.688063  0.303563  0.300674  1
  O  O18  1  0.303563  0.688063  0.707700  1
  O  O19  1  0.688063  0.303563  0.707700  1
  O  O20  1  0.306118  0.306118  0.693882  1
  O  O21  1  0.698936  0.698936  0.301064  1
