# generated using pymatgen
data_Yb7PaAs6
_symmetry_space_group_name_H-M   'P 1'
_cell_length_a   7.62559602
_cell_length_b   7.71874149
_cell_length_c   7.71874115
_cell_angle_alpha   109.71438844
_cell_angle_beta   109.22695037
_cell_angle_gamma   109.22694824
_symmetry_Int_Tables_number   1
_chemical_formula_structural   Yb7PaAs6
_chemical_formula_sum   'Yb7 Pa1 As6'
_cell_volume   350.78839577
_cell_formula_units_Z   1
loop_
 _symmetry_equiv_pos_site_id
 _symmetry_equiv_pos_as_xyz
  1  'x, y, z'
loop_
 _atom_site_type_symbol
 _atom_site_label
 _atom_site_symmetry_multiplicity
 _atom_site_fract_x
 _atom_site_fract_y
 _atom_site_fract_z
 _atom_site_occupancy
  Yb  Yb0  1  0.499463  0.999688  0.641800  1
  Yb  Yb1  1  0.364596  0.361122  0.370072  1
  Yb  Yb2  1  0.994524  0.129928  0.491050  1
  Yb  Yb3  1  0.857664  0.858200  0.857888  1
  Yb  Yb4  1  0.999775  0.642112  0.500312  1
  Yb  Yb5  1  0.641261  0.500000  0.000000  1
  Yb  Yb6  1  0.503474  0.008950  0.138878  1
  Pa  Pa7  1  0.145418  0.500000  0.000000  1
  As  As8  1  0.883355  0.256666  0.123315  1
  As  As9  1  0.126690  0.866650  0.243334  1
  As  As10  1  0.368305  0.623487  0.757687  1
  As  As11  1  0.244818  0.134200  0.876513  1
  As  As12  1  0.760040  0.376685  0.633350  1
  As  As13  1  0.610618  0.742313  0.365800  1
