# generated using pymatgen
data_Ca6MoRhO12
_symmetry_space_group_name_H-M   'P 1'
_cell_length_a   6.57808944
_cell_length_b   6.57808878
_cell_length_c   6.57808907
_cell_angle_alpha   91.94575701
_cell_angle_beta   91.94575219
_cell_angle_gamma   91.94575988
_symmetry_Int_Tables_number   1
_chemical_formula_structural   Ca6MoRhO12
_chemical_formula_sum   'Ca6 Mo1 Rh1 O12'
_cell_volume   284.13837554
_cell_formula_units_Z   1
loop_
 _symmetry_equiv_pos_site_id
 _symmetry_equiv_pos_as_xyz
  1  'x, y, z'
loop_
 _atom_site_type_symbol
 _atom_site_label
 _atom_site_symmetry_multiplicity
 _atom_site_fract_x
 _atom_site_fract_y
 _atom_site_fract_z
 _atom_site_occupancy
  Ca  Ca0  1  0.929292  0.434421  0.746041  1
  Ca  Ca1  1  0.746041  0.929292  0.434421  1
  Ca  Ca2  1  0.565579  0.253959  0.070708  1
  Ca  Ca3  1  0.434421  0.746041  0.929292  1
  Ca  Ca4  1  0.253959  0.070708  0.565579  1
  Ca  Ca5  1  0.070708  0.565579  0.253959  1
  Mo  Mo6  1  0.000000  0.000000  0.000000  1
  Rh  Rh7  1  0.500000  0.500000  0.500000  1
  O  O8  1  0.938657  0.283543  0.068484  1
  O  O9  1  0.931516  0.061343  0.716457  1
  O  O10  1  0.785281  0.578226  0.452519  1
  O  O11  1  0.716457  0.931516  0.061343  1
  O  O12  1  0.578226  0.452519  0.785281  1
  O  O13  1  0.547481  0.214719  0.421774  1
  O  O14  1  0.452519  0.785281  0.578226  1
  O  O15  1  0.421774  0.547481  0.214719  1
  O  O16  1  0.283543  0.068484  0.938657  1
  O  O17  1  0.214719  0.421774  0.547481  1
  O  O18  1  0.068484  0.938657  0.283543  1
  O  O19  1  0.061343  0.716457  0.931516  1
