# generated using pymatgen
data_Y20CoBi8Os3
_symmetry_space_group_name_H-M   'P 1'
_cell_length_a   8.00697707
_cell_length_b   9.04442700
_cell_length_c   12.50094325
_cell_angle_alpha   90.00000000
_cell_angle_beta   90.23821650
_cell_angle_gamma   90.00000000
_symmetry_Int_Tables_number   1
_chemical_formula_structural   Y20CoBi8Os3
_chemical_formula_sum   'Y20 Co1 Bi8 Os3'
_cell_volume   905.29197978
_cell_formula_units_Z   1
loop_
 _symmetry_equiv_pos_site_id
 _symmetry_equiv_pos_as_xyz
  1  'x, y, z'
loop_
 _atom_site_type_symbol
 _atom_site_label
 _atom_site_symmetry_multiplicity
 _atom_site_fract_x
 _atom_site_fract_y
 _atom_site_fract_z
 _atom_site_occupancy
  Y  Y0  1  0.843890  0.750000  0.798686  1
  Y  Y1  1  0.158601  0.250000  0.207295  1
  Y  Y2  1  0.341621  0.250000  0.708669  1
  Y  Y3  1  0.656937  0.750000  0.293437  1
  Y  Y4  1  0.375674  0.750000  0.694456  1
  Y  Y5  1  0.623162  0.250000  0.306106  1
  Y  Y6  1  0.875154  0.250000  0.806971  1
  Y  Y7  1  0.121057  0.750000  0.188025  1
  Y  Y8  1  0.942657  0.750000  0.504856  1
  Y  Y9  1  0.057452  0.250000  0.495824  1
  Y  Y10  1  0.445976  0.250000  0.996575  1
  Y  Y11  1  0.553091  0.750000  0.003641  1
  Y  Y12  1  0.674664  0.041847  0.564331  1
  Y  Y13  1  0.324259  0.957167  0.435331  1
  Y  Y14  1  0.176109  0.958678  0.935544  1
  Y  Y15  1  0.324259  0.542833  0.435331  1
  Y  Y16  1  0.825245  0.038342  0.063317  1
  Y  Y17  1  0.674664  0.458153  0.564331  1
  Y  Y18  1  0.825245  0.461658  0.063317  1
  Y  Y19  1  0.176109  0.541322  0.935544  1
  Co  Co20  1  0.931003  0.750000  0.009237  1
  Bi  Bi21  1  0.570054  0.492903  0.828078  1
  Bi  Bi22  1  0.431015  0.507888  0.171733  1
  Bi  Bi23  1  0.068181  0.507629  0.673067  1
  Bi  Bi24  1  0.431015  0.992112  0.171733  1
  Bi  Bi25  1  0.931415  0.493275  0.326585  1
  Bi  Bi26  1  0.570054  0.007097  0.828078  1
  Bi  Bi27  1  0.931415  0.006725  0.326585  1
  Bi  Bi28  1  0.068181  0.992371  0.673067  1
  Os  Os29  1  0.574763  0.750000  0.511351  1
  Os  Os30  1  0.424139  0.250000  0.489354  1
  Os  Os31  1  0.072940  0.250000  0.989544  1
