# generated using pymatgen
data_Ba4U4TiV3O24
_symmetry_space_group_name_H-M   'P 1'
_cell_length_a   6.59026190
_cell_length_b   8.62361007
_cell_length_c   10.28921844
_cell_angle_alpha   89.97180972
_cell_angle_beta   76.57553880
_cell_angle_gamma   89.94440614
_symmetry_Int_Tables_number   1
_chemical_formula_structural   Ba4U4TiV3O24
_chemical_formula_sum   'Ba4 U4 Ti1 V3 O24'
_cell_volume   568.77766061
_cell_formula_units_Z   1
loop_
 _symmetry_equiv_pos_site_id
 _symmetry_equiv_pos_as_xyz
  1  'x, y, z'
loop_
 _atom_site_type_symbol
 _atom_site_label
 _atom_site_symmetry_multiplicity
 _atom_site_fract_x
 _atom_site_fract_y
 _atom_site_fract_z
 _atom_site_occupancy
  Ba  Ba0  1  0.537910  0.261851  0.152625  1
  Ba  Ba1  1  0.459866  0.760751  0.343953  1
  Ba  Ba2  1  0.537906  0.240143  0.659993  1
  Ba  Ba3  1  0.458620  0.736537  0.844411  1
  U  U4  1  0.020517  0.978531  0.178750  1
  U  U5  1  0.978423  0.479526  0.322571  1
  U  U6  1  0.021922  0.521185  0.677315  1
  U  U7  1  0.978790  0.017749  0.821053  1
  Ti  Ti8  1  0.114207  0.348948  0.949695  1
  V  V9  1  0.883177  0.649890  0.050642  1
  V  V10  1  0.116896  0.150242  0.449121  1
  V  V11  1  0.882950  0.850639  0.550646  1
  O  O12  1  0.993360  0.149779  0.013252  1
  O  O13  1  0.625068  0.659891  0.055947  1
  O  O14  1  0.926630  0.438066  0.112348  1
  O  O15  1  0.311443  0.952965  0.126514  1
  O  O16  1  0.921870  0.715635  0.222901  1
  O  O17  1  0.729951  0.008128  0.238935  1
  O  O18  1  0.269391  0.507913  0.260981  1
  O  O19  1  0.077196  0.215118  0.276837  1
  O  O20  1  0.687511  0.455512  0.375729  1
  O  O21  1  0.070793  0.936738  0.389754  1
  O  O22  1  0.374468  0.158116  0.445167  1
  O  O23  1  0.008497  0.651684  0.485542  1
  O  O24  1  0.992413  0.349400  0.514978  1
  O  O25  1  0.624876  0.841768  0.555369  1
  O  O26  1  0.929233  0.063648  0.610355  1
  O  O27  1  0.312989  0.546835  0.625400  1
  O  O28  1  0.922552  0.785426  0.722808  1
  O  O29  1  0.731141  0.493599  0.738396  1
  O  O30  1  0.269651  0.990459  0.760446  1
  O  O31  1  0.082033  0.286108  0.776803  1
  O  O32  1  0.687998  0.043495  0.873484  1
  O  O33  1  0.071343  0.564105  0.888520  1
  O  O34  1  0.379137  0.341072  0.943721  1
  O  O35  1  0.009272  0.848550  0.985031  1
