# generated using pymatgen
data_Te10Pt4Rh
_symmetry_space_group_name_H-M   'P 1'
_cell_length_a   4.07795833
_cell_length_b   6.87609858
_cell_length_c   14.84665697
_cell_angle_alpha   103.49555484
_cell_angle_beta   89.77955063
_cell_angle_gamma   107.00571248
_symmetry_Int_Tables_number   1
_chemical_formula_structural   Te10Pt4Rh
_chemical_formula_sum   'Te10 Pt4 Rh1'
_cell_volume   386.18197221
_cell_formula_units_Z   1
loop_
 _symmetry_equiv_pos_site_id
 _symmetry_equiv_pos_as_xyz
  1  'x, y, z'
loop_
 _atom_site_type_symbol
 _atom_site_label
 _atom_site_symmetry_multiplicity
 _atom_site_fract_x
 _atom_site_fract_y
 _atom_site_fract_z
 _atom_site_occupancy
  Te  Te0  1  0.826575  0.672900  0.089415  1
  Te  Te1  1  0.438741  0.861400  0.887756  1
  Te  Te2  1  0.039303  0.060783  0.687769  1
  Te  Te3  1  0.626485  0.262370  0.484975  1
  Te  Te4  1  0.219879  0.467082  0.291597  1
  Te  Te5  1  0.564167  0.145364  0.116571  1
  Te  Te6  1  0.174187  0.328382  0.912303  1
  Te  Te7  1  0.778028  0.524237  0.710210  1
  Te  Te8  1  0.368269  0.731383  0.509806  1
  Te  Te9  1  0.964165  0.946248  0.309658  1
  Pt  Pt10  1  0.806781  0.594660  0.899218  1
  Pt  Pt11  1  0.408682  0.792251  0.699108  1
  Pt  Pt12  1  0.998125  0.997866  0.498668  1
  Pt  Pt13  1  0.194547  0.408444  0.102127  1
  Rh  Rh14  1  0.592067  0.206631  0.300822  1
