# generated using pymatgen
data_Tb2Pa2CdNi4Hg
_symmetry_space_group_name_H-M   'P 1'
_cell_length_a   7.46872700
_cell_length_b   7.45056394
_cell_length_c   3.56615000
_cell_angle_alpha   90.00000000
_cell_angle_beta   90.00000000
_cell_angle_gamma   94.13969966
_symmetry_Int_Tables_number   1
_chemical_formula_structural   Tb2Pa2CdNi4Hg
_chemical_formula_sum   'Tb2 Pa2 Cd1 Ni4 Hg1'
_cell_volume   197.92505987
_cell_formula_units_Z   1
loop_
 _symmetry_equiv_pos_site_id
 _symmetry_equiv_pos_as_xyz
  1  'x, y, z'
loop_
 _atom_site_type_symbol
 _atom_site_label
 _atom_site_symmetry_multiplicity
 _atom_site_fract_x
 _atom_site_fract_y
 _atom_site_fract_z
 _atom_site_occupancy
  Tb  Tb0  1  0.171468  0.327976  0.500000  1
  Tb  Tb1  1  0.828532  0.672024  0.500000  1
  Pa  Pa2  1  0.672485  0.171958  0.500000  1
  Pa  Pa3  1  0.327515  0.828042  0.500000  1
  Cd  Cd4  1  0.500000  0.500000  0.000000  1
  Ni  Ni5  1  0.136429  0.635579  0.000000  1
  Ni  Ni6  1  0.863571  0.364421  0.000000  1
  Ni  Ni7  1  0.614712  0.884424  0.000000  1
  Ni  Ni8  1  0.385288  0.115576  0.000000  1
  Hg  Hg9  1  0.000000  0.000000  0.000000  1
