# generated using pymatgen
data_La4P7(IrRh3)2
_symmetry_space_group_name_H-M   'P 1'
_cell_length_a   4.02373800
_cell_length_b   12.92279524
_cell_length_c   13.34316373
_cell_angle_alpha   80.84083807
_cell_angle_beta   90.00000000
_cell_angle_gamma   90.00000000
_symmetry_Int_Tables_number   1
_chemical_formula_structural   La4P7(IrRh3)2
_chemical_formula_sum   'La8 P14 Ir4 Rh12'
_cell_volume   684.97086988
_cell_formula_units_Z   2
loop_
 _symmetry_equiv_pos_site_id
 _symmetry_equiv_pos_as_xyz
  1  'x, y, z'
loop_
 _atom_site_type_symbol
 _atom_site_label
 _atom_site_symmetry_multiplicity
 _atom_site_fract_x
 _atom_site_fract_y
 _atom_site_fract_z
 _atom_site_occupancy
  La  La0  1  0.750000  0.790579  0.562512  1
  La  La1  1  0.250000  0.209421  0.437488  1
  La  La2  1  0.750000  0.484449  0.708007  1
  La  La3  1  0.250000  0.515551  0.291993  1
  La  La4  1  0.750000  0.722799  0.895731  1
  La  La5  1  0.250000  0.103507  0.787571  1
  La  La6  1  0.750000  0.896493  0.212429  1
  La  La7  1  0.250000  0.277201  0.104269  1
  P  P8  1  0.250000  0.909153  0.409525  1
  P  P9  1  0.750000  0.474652  0.126316  1
  P  P10  1  0.250000  0.525348  0.873684  1
  P  P11  1  0.750000  0.090847  0.590475  1
  P  P12  1  0.250000  0.740991  0.079732  1
  P  P13  1  0.750000  0.259009  0.920268  1
  P  P14  1  0.750000  0.154004  0.280733  1
  P  P15  1  0.250000  0.845996  0.719267  1
  P  P16  1  0.250000  0.050317  0.098251  1
  P  P17  1  0.750000  0.949683  0.901749  1
  P  P18  1  0.250000  0.314567  0.688644  1
  P  P19  1  0.750000  0.685433  0.311356  1
  P  P20  1  0.250000  0.607690  0.559020  1
  P  P21  1  0.750000  0.392310  0.440980  1
  Ir  Ir22  1  0.250000  0.727338  0.395235  1
  Ir  Ir23  1  0.750000  0.272662  0.604765  1
  Ir  Ir24  1  0.250000  0.341625  0.860796  1
  Ir  Ir25  1  0.750000  0.658375  0.139204  1
  Rh  Rh26  1  0.250000  0.987819  0.575860  1
  Rh  Rh27  1  0.750000  0.012181  0.424140  1
  Rh  Rh28  1  0.250000  0.663604  0.729714  1
  Rh  Rh29  1  0.750000  0.336396  0.270286  1
  Rh  Rh30  1  0.250000  0.551600  0.046583  1
  Rh  Rh31  1  0.750000  0.448400  0.953417  1
  Rh  Rh32  1  0.250000  0.059846  0.274331  1
  Rh  Rh33  1  0.750000  0.940154  0.725669  1
  Rh  Rh34  1  0.250000  0.425129  0.528953  1
  Rh  Rh35  1  0.750000  0.574871  0.471047  1
  Rh  Rh36  1  0.250000  0.917068  0.997305  1
  Rh  Rh37  1  0.750000  0.082932  0.002695  1
