# generated using pymatgen
data_La16Cd4Co2IrRu
_symmetry_space_group_name_H-M   'P 1'
_cell_length_a   10.04688460
_cell_length_b   10.01199291
_cell_length_c   10.07323110
_cell_angle_alpha   60.05011879
_cell_angle_beta   60.27827278
_cell_angle_gamma   60.04259014
_symmetry_Int_Tables_number   1
_chemical_formula_structural   La16Cd4Co2IrRu
_chemical_formula_sum   'La16 Cd4 Co2 Ir1 Ru1'
_cell_volume   718.48215310
_cell_formula_units_Z   1
loop_
 _symmetry_equiv_pos_site_id
 _symmetry_equiv_pos_as_xyz
  1  'x, y, z'
loop_
 _atom_site_type_symbol
 _atom_site_label
 _atom_site_symmetry_multiplicity
 _atom_site_fract_x
 _atom_site_fract_y
 _atom_site_fract_z
 _atom_site_occupancy
  La  La0  1  0.937788  0.942308  0.557873  1
  La  La1  1  0.560620  0.940047  0.560179  1
  La  La2  1  0.558360  0.942567  0.937448  1
  La  La3  1  0.683884  0.696318  0.309787  1
  La  La4  1  0.159359  0.150486  0.540022  1
  La  La5  1  0.309727  0.692928  0.685805  1
  La  La6  1  0.158796  0.148859  0.156207  1
  La  La7  1  0.538662  0.152134  0.158202  1
  La  La8  1  0.309963  0.689952  0.310575  1
  La  La9  1  0.308784  0.312035  0.686208  1
  La  La10  1  0.685800  0.311251  0.692563  1
  La  La11  1  0.939224  0.560250  0.557813  1
  La  La12  1  0.558393  0.560042  0.938614  1
  La  La13  1  0.157947  0.538452  0.155585  1
  La  La14  1  0.683983  0.311218  0.308803  1
  La  La15  1  0.940832  0.558210  0.940334  1
  Cd  Cd16  1  0.238015  0.920539  0.920236  1
  Cd  Cd17  1  0.921071  0.921599  0.921228  1
  Cd  Cd18  1  0.920163  0.920652  0.237886  1
  Cd  Cd19  1  0.920551  0.237369  0.920917  1
  Co  Co20  1  0.360733  0.918663  0.362061  1
  Co  Co21  1  0.361461  0.356702  0.363365  1
  Ir  Ir22  1  0.921665  0.357870  0.361606  1
  Ru  Ru23  1  0.364214  0.359548  0.916677  1
