# generated using pymatgen
data_La2MnAl20Rh3
_symmetry_space_group_name_H-M   'P 1'
_cell_length_a   6.90535387
_cell_length_b   6.90444319
_cell_length_c   9.19283271
_cell_angle_alpha   90.14932768
_cell_angle_beta   89.98876540
_cell_angle_gamma   97.28972757
_symmetry_Int_Tables_number   1
_chemical_formula_structural   La2MnAl20Rh3
_chemical_formula_sum   'La2 Mn1 Al20 Rh3'
_cell_volume   434.74830929
_cell_formula_units_Z   1
loop_
 _symmetry_equiv_pos_site_id
 _symmetry_equiv_pos_as_xyz
  1  'x, y, z'
loop_
 _atom_site_type_symbol
 _atom_site_label
 _atom_site_symmetry_multiplicity
 _atom_site_fract_x
 _atom_site_fract_y
 _atom_site_fract_z
 _atom_site_occupancy
  La  La0  1  0.874438  0.120622  0.747777  1
  La  La1  1  0.125562  0.879378  0.252223  1
  Mn  Mn2  1  0.500000  0.000000  0.500000  1
  Al  Al3  1  0.617890  0.373235  0.548514  1
  Al  Al4  1  0.382110  0.626765  0.451486  1
  Al  Al5  1  0.379852  0.621157  0.051950  1
  Al  Al6  1  0.620148  0.378843  0.948050  1
  Al  Al7  1  0.230719  0.222257  0.497995  1
  Al  Al8  1  0.769281  0.777743  0.502005  1
  Al  Al9  1  0.772379  0.773411  0.000633  1
  Al  Al10  1  0.227621  0.226589  0.999367  1
  Al  Al11  1  0.838979  0.161517  0.104621  1
  Al  Al12  1  0.161021  0.838483  0.895379  1
  Al  Al13  1  0.165702  0.842362  0.600912  1
  Al  Al14  1  0.834298  0.157638  0.399088  1
  Al  Al15  1  0.859341  0.591570  0.748901  1
  Al  Al16  1  0.140659  0.408430  0.251099  1
  Al  Al17  1  0.411287  0.137995  0.745497  1
  Al  Al18  1  0.588713  0.862005  0.254503  1
  Al  Al19  1  0.226209  0.480744  0.749504  1
  Al  Al20  1  0.773791  0.519256  0.250496  1
  Al  Al21  1  0.517745  0.777409  0.743350  1
  Al  Al22  1  0.482255  0.222591  0.256650  1
  Rh  Rh23  1  0.000000  0.500000  0.500000  1
  Rh  Rh24  1  0.000000  0.500000  0.000000  1
  Rh  Rh25  1  0.500000  0.000000  0.000000  1
