# generated using pymatgen
data_LaNd3(Tm3Pt4)2
_symmetry_space_group_name_H-M   'P 1'
_cell_length_a   7.58988100
_cell_length_b   7.66446907
_cell_length_c   14.64637800
_cell_angle_alpha   90.00761006
_cell_angle_beta   90.00000000
_cell_angle_gamma   90.00000000
_symmetry_Int_Tables_number   1
_chemical_formula_structural   LaNd3(Tm3Pt4)2
_chemical_formula_sum   'La2 Nd6 Tm12 Pt16'
_cell_volume   852.01507144
_cell_formula_units_Z   2
loop_
 _symmetry_equiv_pos_site_id
 _symmetry_equiv_pos_as_xyz
  1  'x, y, z'
loop_
 _atom_site_type_symbol
 _atom_site_label
 _atom_site_symmetry_multiplicity
 _atom_site_fract_x
 _atom_site_fract_y
 _atom_site_fract_z
 _atom_site_occupancy
  La  La0  1  0.501447  0.676438  0.903918  1
  La  La1  1  0.001447  0.823562  0.596082  1
  Nd  Nd2  1  0.501622  0.675954  0.595098  1
  Nd  Nd3  1  0.001622  0.824046  0.904902  1
  Nd  Nd4  1  0.498138  0.323873  0.095421  1
  Nd  Nd5  1  0.998138  0.176127  0.404579  1
  Nd  Nd6  1  0.497781  0.323966  0.404530  1
  Nd  Nd7  1  0.997781  0.176034  0.095470  1
  Tm  Tm8  1  0.656990  0.167524  0.622938  1
  Tm  Tm9  1  0.156990  0.332476  0.877062  1
  Tm  Tm10  1  0.341925  0.833655  0.123164  1
  Tm  Tm11  1  0.841925  0.666345  0.376836  1
  Tm  Tm12  1  0.342209  0.833864  0.376512  1
  Tm  Tm13  1  0.842209  0.666136  0.123488  1
  Tm  Tm14  1  0.658493  0.166562  0.876717  1
  Tm  Tm15  1  0.158493  0.333438  0.623283  1
  Tm  Tm16  1  0.821591  0.505214  0.749783  1
  Tm  Tm17  1  0.321591  0.994786  0.750217  1
  Tm  Tm18  1  0.178622  0.493296  0.250274  1
  Tm  Tm19  1  0.678622  0.006704  0.249726  1
  Pt  Pt20  1  0.675885  0.963631  0.456493  1
  Pt  Pt21  1  0.175885  0.536369  0.043507  1
  Pt  Pt22  1  0.323851  0.037011  0.955079  1
  Pt  Pt23  1  0.823851  0.462989  0.544921  1
  Pt  Pt24  1  0.322919  0.037244  0.544346  1
  Pt  Pt25  1  0.822919  0.462756  0.955654  1
  Pt  Pt26  1  0.678142  0.962907  0.043426  1
  Pt  Pt27  1  0.178142  0.537093  0.456574  1
  Pt  Pt28  1  0.454341  0.373279  0.749589  1
  Pt  Pt29  1  0.954341  0.126721  0.750411  1
  Pt  Pt30  1  0.545951  0.626800  0.250251  1
  Pt  Pt31  1  0.045951  0.873200  0.249749  1
  Pt  Pt32  1  0.687678  0.863808  0.749989  1
  Pt  Pt33  1  0.187678  0.636192  0.750011  1
  Pt  Pt34  1  0.312415  0.136977  0.249616  1
  Pt  Pt35  1  0.812415  0.363023  0.250384  1
