# generated using pymatgen
data_Y6P13Ir19Rh
_symmetry_space_group_name_H-M   'P 1'
_cell_length_a   13.35537793
_cell_length_b   13.34869458
_cell_length_c   3.97827569
_cell_angle_alpha   90.05541878
_cell_angle_beta   89.93871474
_cell_angle_gamma   120.01720101
_symmetry_Int_Tables_number   1
_chemical_formula_structural   Y6P13Ir19Rh
_chemical_formula_sum   'Y6 P13 Ir19 Rh1'
_cell_volume   614.10817906
_cell_formula_units_Z   1
loop_
 _symmetry_equiv_pos_site_id
 _symmetry_equiv_pos_as_xyz
  1  'x, y, z'
loop_
 _atom_site_type_symbol
 _atom_site_label
 _atom_site_symmetry_multiplicity
 _atom_site_fract_x
 _atom_site_fract_y
 _atom_site_fract_z
 _atom_site_occupancy
  Y  Y0  1  0.526735  0.716070  0.247612  1
  Y  Y1  1  0.283783  0.810430  0.247539  1
  Y  Y2  1  0.188644  0.472360  0.247605  1
  Y  Y3  1  0.473561  0.283960  0.752651  1
  Y  Y4  1  0.715826  0.189089  0.751680  1
  Y  Y5  1  0.810534  0.526490  0.752735  1
  P  P6  1  0.526345  0.140134  0.250135  1
  P  P7  1  0.859928  0.385798  0.250076  1
  P  P8  1  0.613857  0.473792  0.250019  1
  P  P9  1  0.943873  0.710532  0.259464  1
  P  P10  1  0.289652  0.233566  0.259420  1
  P  P11  1  0.766970  0.055736  0.256380  1
  P  P12  1  0.386438  0.526523  0.749655  1
  P  P13  1  0.473748  0.860255  0.749305  1
  P  P14  1  0.139858  0.613527  0.749810  1
  P  P15  1  0.711488  0.768038  0.740998  1
  P  P16  1  0.233371  0.944466  0.740923  1
  P  P17  1  0.054368  0.287023  0.741248  1
  P  P18  1  0.999801  0.000173  0.012670  1
  Ir  Ir19  1  0.333403  0.666856  0.750966  1
  Ir  Ir20  1  0.917702  0.247316  0.252006  1
  Ir  Ir21  1  0.752636  0.669762  0.252044  1
  Ir  Ir22  1  0.329919  0.082515  0.252210  1
  Ir  Ir23  1  0.436683  0.021401  0.751264  1
  Ir  Ir24  1  0.978385  0.415585  0.751366  1
  Ir  Ir25  1  0.584834  0.563777  0.751253  1
  Ir  Ir26  1  0.666702  0.333370  0.248768  1
  Ir  Ir27  1  0.099025  0.187623  0.248806  1
  Ir  Ir28  1  0.811739  0.909128  0.249263  1
  Ir  Ir29  1  0.088440  0.902319  0.251934  1
  Ir  Ir30  1  0.021880  0.584874  0.248829  1
  Ir  Ir31  1  0.415943  0.437248  0.248180  1
  Ir  Ir32  1  0.562559  0.978465  0.247957  1
  Ir  Ir33  1  0.670140  0.918977  0.746421  1
  Ir  Ir34  1  0.082509  0.752643  0.748258  1
  Ir  Ir35  1  0.248046  0.330849  0.746498  1
  Ir  Ir36  1  0.903036  0.814542  0.748321  1
  Ir  Ir37  1  0.185719  0.088668  0.748907  1
  Rh  Rh38  1  0.911920  0.096120  0.746821  1
