# generated using pymatgen
data_Y5Er3V4O20
_symmetry_space_group_name_H-M   'P 1'
_cell_length_a   3.72350600
_cell_length_b   10.35012123
_cell_length_c   11.28199825
_cell_angle_alpha   90.02430433
_cell_angle_beta   90.00000000
_cell_angle_gamma   90.00000000
_symmetry_Int_Tables_number   1
_chemical_formula_structural   Y5Er3V4O20
_chemical_formula_sum   'Y5 Er3 V4 O20'
_cell_volume   434.79394147
_cell_formula_units_Z   1
loop_
 _symmetry_equiv_pos_site_id
 _symmetry_equiv_pos_as_xyz
  1  'x, y, z'
loop_
 _atom_site_type_symbol
 _atom_site_label
 _atom_site_symmetry_multiplicity
 _atom_site_fract_x
 _atom_site_fract_y
 _atom_site_fract_z
 _atom_site_occupancy
  Y  Y0  1  0.250000  0.121735  0.272537  1
  Y  Y1  1  0.250000  0.135698  0.944012  1
  Y  Y2  1  0.750000  0.363800  0.444612  1
  Y  Y3  1  0.750000  0.378162  0.772355  1
  Y  Y4  1  0.250000  0.622445  0.227199  1
  Er  Er5  1  0.250000  0.637985  0.555217  1
  Er  Er6  1  0.750000  0.862399  0.054647  1
  Er  Er7  1  0.750000  0.875994  0.727704  1
  V  V8  1  0.250000  0.166271  0.616147  1
  V  V9  1  0.750000  0.332840  0.115910  1
  V  V10  1  0.250000  0.667997  0.883684  1
  V  V11  1  0.750000  0.832509  0.384456  1
  O  O12  1  0.750000  0.002102  0.893903  1
  O  O13  1  0.250000  0.002317  0.652341  1
  O  O14  1  0.250000  0.225823  0.455936  1
  O  O15  1  0.750000  0.246911  0.266739  1
  O  O16  1  0.750000  0.230751  0.613759  1
  O  O17  1  0.250000  0.269149  0.113740  1
  O  O18  1  0.250000  0.253066  0.766777  1
  O  O19  1  0.750000  0.273856  0.955859  1
  O  O20  1  0.750000  0.496809  0.151411  1
  O  O21  1  0.250000  0.496832  0.395490  1
  O  O22  1  0.750000  0.506652  0.605402  1
  O  O23  1  0.250000  0.504063  0.848959  1
  O  O24  1  0.250000  0.727855  0.043666  1
  O  O25  1  0.750000  0.748282  0.232121  1
  O  O26  1  0.750000  0.732631  0.886162  1
  O  O27  1  0.250000  0.768194  0.387576  1
  O  O28  1  0.250000  0.754144  0.732306  1
  O  O29  1  0.750000  0.772997  0.545184  1
  O  O30  1  0.750000  0.996250  0.348947  1
  O  O31  1  0.250000  0.993482  0.105241  1
