# generated using pymatgen
data_Rb2LiInSb2
_symmetry_space_group_name_H-M   'P 1'
_cell_length_a   11.07716688
_cell_length_b   11.07716624
_cell_length_c   6.98076000
_cell_angle_alpha   90.00000000
_cell_angle_beta   90.00000000
_cell_angle_gamma   101.41816596
_symmetry_Int_Tables_number   1
_chemical_formula_structural   Rb2LiInSb2
_chemical_formula_sum   'Rb8 Li4 In4 Sb8'
_cell_volume   839.61178221
_cell_formula_units_Z   4
loop_
 _symmetry_equiv_pos_site_id
 _symmetry_equiv_pos_as_xyz
  1  'x, y, z'
loop_
 _atom_site_type_symbol
 _atom_site_label
 _atom_site_symmetry_multiplicity
 _atom_site_fract_x
 _atom_site_fract_y
 _atom_site_fract_z
 _atom_site_occupancy
  Rb  Rb0  1  0.575848  0.924152  0.750000  1
  Rb  Rb1  1  0.924152  0.575848  0.250000  1
  Rb  Rb2  1  0.424152  0.075848  0.250000  1
  Rb  Rb3  1  0.075848  0.424152  0.750000  1
  Rb  Rb4  1  0.671879  0.328121  0.772845  1
  Rb  Rb5  1  0.828121  0.171879  0.272845  1
  Rb  Rb6  1  0.328121  0.671879  0.227155  1
  Rb  Rb7  1  0.171879  0.828121  0.727155  1
  Li  Li8  1  0.620187  0.620187  0.000000  1
  Li  Li9  1  0.879813  0.879813  0.500000  1
  Li  Li10  1  0.379813  0.379813  0.000000  1
  Li  Li11  1  0.120187  0.120187  0.500000  1
  In  In12  1  0.867996  0.867996  0.000000  1
  In  In13  1  0.632004  0.632004  0.500000  1
  In  In14  1  0.132004  0.132004  0.000000  1
  In  In15  1  0.367996  0.367996  0.500000  1
  Sb  Sb16  1  0.348667  0.151333  0.750000  1
  Sb  Sb17  1  0.151333  0.348667  0.250000  1
  Sb  Sb18  1  0.651333  0.848667  0.250000  1
  Sb  Sb19  1  0.848667  0.651333  0.750000  1
  Sb  Sb20  1  0.904377  0.095623  0.770723  1
  Sb  Sb21  1  0.595623  0.404377  0.270723  1
  Sb  Sb22  1  0.095623  0.904377  0.229277  1
  Sb  Sb23  1  0.404377  0.595623  0.729277  1
