# generated using pymatgen
data_AcIn3Ag
_symmetry_space_group_name_H-M   'P 1'
_cell_length_a   4.83414318
_cell_length_b   4.83415158
_cell_length_c   6.82535644
_cell_angle_alpha   69.28136332
_cell_angle_beta   69.25979916
_cell_angle_gamma   89.99999161
_symmetry_Int_Tables_number   1
_chemical_formula_structural   AcIn3Ag
_chemical_formula_sum   'Ac1 In3 Ag1'
_cell_volume   138.08010107
_cell_formula_units_Z   1
loop_
 _symmetry_equiv_pos_site_id
 _symmetry_equiv_pos_as_xyz
  1  'x, y, z'
loop_
 _atom_site_type_symbol
 _atom_site_label
 _atom_site_symmetry_multiplicity
 _atom_site_fract_x
 _atom_site_fract_y
 _atom_site_fract_z
 _atom_site_occupancy
  Ac  Ac0  1  0.996064  0.996048  0.007871  1
  In  In1  1  0.395039  0.394944  0.209921  1
  In  In2  1  0.743187  0.243193  0.513626  1
  In  In3  1  0.243224  0.743320  0.513552  1
  Ag  Ag4  1  0.622486  0.622496  0.755028  1
