# generated using pymatgen
data_Dy11Lu(TcRh)2
_symmetry_space_group_name_H-M   'P 1'
_cell_length_a   6.31659447
_cell_length_b   7.31550927
_cell_length_c   9.23635618
_cell_angle_alpha   90.05018575
_cell_angle_beta   89.78492663
_cell_angle_gamma   89.92503859
_symmetry_Int_Tables_number   1
_chemical_formula_structural   Dy11Lu(TcRh)2
_chemical_formula_sum   'Dy11 Lu1 Tc2 Rh2'
_cell_volume   426.80021822
_cell_formula_units_Z   1
loop_
 _symmetry_equiv_pos_site_id
 _symmetry_equiv_pos_as_xyz
  1  'x, y, z'
loop_
 _atom_site_type_symbol
 _atom_site_label
 _atom_site_symmetry_multiplicity
 _atom_site_fract_x
 _atom_site_fract_y
 _atom_site_fract_z
 _atom_site_occupancy
  Dy  Dy0  1  0.172256  0.178076  0.432290  1
  Dy  Dy1  1  0.665636  0.322575  0.560213  1
  Dy  Dy2  1  0.834095  0.821990  0.940305  1
  Dy  Dy3  1  0.665205  0.323278  0.940341  1
  Dy  Dy4  1  0.833871  0.821988  0.560247  1
  Dy  Dy5  1  0.327922  0.678535  0.431339  1
  Dy  Dy6  1  0.172875  0.178477  0.067417  1
  Dy  Dy7  1  0.871593  0.538116  0.249250  1
  Dy  Dy8  1  0.628419  0.036885  0.249426  1
  Dy  Dy9  1  0.138388  0.459821  0.750680  1
  Dy  Dy10  1  0.362041  0.958780  0.750600  1
  Lu  Lu11  1  0.328381  0.677793  0.068326  1
  Tc  Tc12  1  0.038088  0.886060  0.249124  1
  Tc  Tc13  1  0.462229  0.387641  0.249475  1
  Rh  Rh14  1  0.950477  0.114861  0.749635  1
  Rh  Rh15  1  0.548524  0.615124  0.751333  1
