# generated using pymatgen
data_Tb6Er3LuIn8
_symmetry_space_group_name_H-M   'P 1'
_cell_length_a   9.28638000
_cell_length_b   9.28638001
_cell_length_c   6.66822800
_cell_angle_alpha   90.00000000
_cell_angle_beta   90.00000000
_cell_angle_gamma   119.99999997
_symmetry_Int_Tables_number   1
_chemical_formula_structural   Tb6Er3LuIn8
_chemical_formula_sum   'Tb6 Er3 Lu1 In8'
_cell_volume   498.00531205
_cell_formula_units_Z   1
loop_
 _symmetry_equiv_pos_site_id
 _symmetry_equiv_pos_as_xyz
  1  'x, y, z'
loop_
 _atom_site_type_symbol
 _atom_site_label
 _atom_site_symmetry_multiplicity
 _atom_site_fract_x
 _atom_site_fract_y
 _atom_site_fract_z
 _atom_site_occupancy
  Tb  Tb0  1  0.289991  0.999883  0.750134  1
  Tb  Tb1  1  0.709892  0.999883  0.249866  1
  Tb  Tb2  1  0.000117  0.290108  0.750134  1
  Tb  Tb3  1  0.000117  0.710009  0.249866  1
  Tb  Tb4  1  0.709892  0.710009  0.750134  1
  Tb  Tb5  1  0.289991  0.290108  0.249866  1
  Er  Er6  1  0.333333  0.666667  0.500000  1
  Er  Er7  1  0.666667  0.333333  0.500000  1
  Er  Er8  1  0.666667  0.333333  0.000000  1
  Lu  Lu9  1  0.333333  0.666667  0.000000  1
  In  In10  1  0.000000  0.000000  0.500000  1
  In  In11  1  0.000000  0.000000  0.000000  1
  In  In12  1  0.627260  0.999769  0.750128  1
  In  In13  1  0.372510  0.999769  0.249872  1
  In  In14  1  0.000231  0.627490  0.750128  1
  In  In15  1  0.000231  0.372740  0.249872  1
  In  In16  1  0.372510  0.372740  0.750128  1
  In  In17  1  0.627260  0.627490  0.249872  1
