# generated using pymatgen
data_Ca2Fe3Re14C3
_symmetry_space_group_name_H-M   'P 1'
_cell_length_a   6.93357199
_cell_length_b   6.93357216
_cell_length_c   6.93357211
_cell_angle_alpha   82.46521675
_cell_angle_beta   82.46521497
_cell_angle_gamma   82.46522325
_symmetry_Int_Tables_number   1
_chemical_formula_structural   Ca2Fe3Re14C3
_chemical_formula_sum   'Ca2 Fe3 Re14 C3'
_cell_volume   325.38731984
_cell_formula_units_Z   1
loop_
 _symmetry_equiv_pos_site_id
 _symmetry_equiv_pos_as_xyz
  1  'x, y, z'
loop_
 _atom_site_type_symbol
 _atom_site_label
 _atom_site_symmetry_multiplicity
 _atom_site_fract_x
 _atom_site_fract_y
 _atom_site_fract_z
 _atom_site_occupancy
  Ca  Ca0  1  0.645877  0.645877  0.645877  1
  Ca  Ca1  1  0.354123  0.354123  0.354123  1
  Fe  Fe2  1  0.000000  0.000000  0.500000  1
  Fe  Fe3  1  0.500000  0.000000  0.000000  1
  Fe  Fe4  1  0.000000  0.500000  0.000000  1
  Re  Re5  1  0.721056  0.278944  0.000000  1
  Re  Re6  1  0.000000  0.721056  0.278944  1
  Re  Re7  1  0.278944  0.000000  0.721056  1
  Re  Re8  1  0.000000  0.278944  0.721056  1
  Re  Re9  1  0.721056  0.000000  0.278944  1
  Re  Re10  1  0.278944  0.721056  0.000000  1
  Re  Re11  1  0.344316  0.864430  0.344316  1
  Re  Re12  1  0.344316  0.344316  0.864430  1
  Re  Re13  1  0.864430  0.344316  0.344316  1
  Re  Re14  1  0.655684  0.135570  0.655684  1
  Re  Re15  1  0.655684  0.655684  0.135570  1
  Re  Re16  1  0.135570  0.655684  0.655684  1
  Re  Re17  1  0.897910  0.897910  0.897910  1
  Re  Re18  1  0.102090  0.102090  0.102090  1
  C  C19  1  0.500000  0.500000  0.000000  1
  C  C20  1  0.000000  0.500000  0.500000  1
  C  C21  1  0.500000  0.000000  0.500000  1
