# generated using pymatgen
data_Lu5P12Ir11Ru8
_symmetry_space_group_name_H-M   'P 1'
_cell_length_a   12.63283007
_cell_length_b   12.57283165
_cell_length_c   3.93608800
_cell_angle_alpha   90.00000000
_cell_angle_beta   90.00000000
_cell_angle_gamma   120.05130655
_symmetry_Int_Tables_number   1
_chemical_formula_structural   Lu5P12Ir11Ru8
_chemical_formula_sum   'Lu5 P12 Ir11 Ru8'
_cell_volume   541.13350404
_cell_formula_units_Z   1
loop_
 _symmetry_equiv_pos_site_id
 _symmetry_equiv_pos_as_xyz
  1  'x, y, z'
loop_
 _atom_site_type_symbol
 _atom_site_label
 _atom_site_symmetry_multiplicity
 _atom_site_fract_x
 _atom_site_fract_y
 _atom_site_fract_z
 _atom_site_occupancy
  Lu  Lu0  1  0.333304  0.666728  0.000000  1
  Lu  Lu1  1  0.669067  0.334500  0.000000  1
  Lu  Lu2  1  0.814812  0.999534  0.500000  1
  Lu  Lu3  1  0.998482  0.813779  0.500000  1
  Lu  Lu4  1  0.182529  0.184230  0.500000  1
  P  P5  1  0.176641  0.996823  0.000000  1
  P  P6  1  0.999157  0.179778  0.000000  1
  P  P7  1  0.818868  0.819752  0.000000  1
  P  P8  1  0.172996  0.481701  0.500000  1
  P  P9  1  0.518467  0.691113  0.500000  1
  P  P10  1  0.308867  0.827659  0.500000  1
  P  P11  1  0.692061  0.518672  0.500000  1
  P  P12  1  0.828700  0.309411  0.500000  1
  P  P13  1  0.484627  0.171299  0.500000  1
  P  P14  1  0.639483  0.999672  0.000000  1
  P  P15  1  0.000129  0.639449  0.000000  1
  P  P16  1  0.359210  0.363612  0.000000  1
  Ir  Ir17  1  0.363120  0.492579  0.500000  1
  Ir  Ir18  1  0.505257  0.868596  0.500000  1
  Ir  Ir19  1  0.131697  0.637791  0.500000  1
  Ir  Ir20  1  0.869369  0.506571  0.500000  1
  Ir  Ir21  1  0.639087  0.131121  0.500000  1
  Ir  Ir22  1  0.495282  0.360821  0.500000  1
  Ir  Ir23  1  0.372738  0.183065  0.000000  1
  Ir  Ir24  1  0.288169  0.002258  0.500000  1
  Ir  Ir25  1  0.000214  0.286724  0.500000  1
  Ir  Ir26  1  0.712933  0.713123  0.500000  1
  Ir  Ir27  1  0.999513  0.999574  0.000000  1
  Ru  Ru28  1  0.455109  0.002158  0.000000  1
  Ru  Ru29  1  0.000175  0.454158  0.000000  1
  Ru  Ru30  1  0.546346  0.544189  0.000000  1
  Ru  Ru31  1  0.181049  0.376419  0.000000  1
  Ru  Ru32  1  0.623045  0.804822  0.000000  1
  Ru  Ru33  1  0.195193  0.819806  0.000000  1
  Ru  Ru34  1  0.805646  0.624134  0.000000  1
  Ru  Ru35  1  0.818657  0.194379  0.000000  1
