# generated using pymatgen
data_Y2Th2Al3GaRh4
_symmetry_space_group_name_H-M   'P 1'
_cell_length_a   4.33237000
_cell_length_b   6.92267257
_cell_length_c   8.02299119
_cell_angle_alpha   89.85613056
_cell_angle_beta   90.00000000
_cell_angle_gamma   90.00000000
_symmetry_Int_Tables_number   1
_chemical_formula_structural   Y2Th2Al3GaRh4
_chemical_formula_sum   'Y2 Th2 Al3 Ga1 Rh4'
_cell_volume   240.62141529
_cell_formula_units_Z   1
loop_
 _symmetry_equiv_pos_site_id
 _symmetry_equiv_pos_as_xyz
  1  'x, y, z'
loop_
 _atom_site_type_symbol
 _atom_site_label
 _atom_site_symmetry_multiplicity
 _atom_site_fract_x
 _atom_site_fract_y
 _atom_site_fract_z
 _atom_site_occupancy
  Y  Y0  1  0.750000  0.038718  0.687835  1
  Y  Y1  1  0.750000  0.540771  0.814513  1
  Th  Th2  1  0.250000  0.962136  0.322486  1
  Th  Th3  1  0.250000  0.465335  0.174718  1
  Al  Al4  1  0.250000  0.365284  0.569673  1
  Al  Al5  1  0.750000  0.631215  0.445287  1
  Al  Al6  1  0.750000  0.134106  0.055769  1
  Ga  Ga7  1  0.250000  0.861682  0.928225  1
  Rh  Rh8  1  0.250000  0.242568  0.887468  1
  Rh  Rh9  1  0.250000  0.739193  0.609167  1
  Rh  Rh10  1  0.750000  0.759162  0.129428  1
  Rh  Rh11  1  0.750000  0.259829  0.375432  1
