# generated using pymatgen
data_Th3Ga3IrPtRh
_symmetry_space_group_name_H-M   'P 1'
_cell_length_a   7.30175000
_cell_length_b   7.30175051
_cell_length_c   4.11514900
_cell_angle_alpha   90.00000000
_cell_angle_beta   90.00000000
_cell_angle_gamma   120.00000676
_symmetry_Int_Tables_number   1
_chemical_formula_structural   Th3Ga3IrPtRh
_chemical_formula_sum   'Th3 Ga3 Ir1 Pt1 Rh1'
_cell_volume   190.00722512
_cell_formula_units_Z   1
loop_
 _symmetry_equiv_pos_site_id
 _symmetry_equiv_pos_as_xyz
  1  'x, y, z'
loop_
 _atom_site_type_symbol
 _atom_site_label
 _atom_site_symmetry_multiplicity
 _atom_site_fract_x
 _atom_site_fract_y
 _atom_site_fract_z
 _atom_site_occupancy
  Th  Th0  1  0.994929  0.407409  0.500000  1
  Th  Th1  1  0.592591  0.587520  0.500000  1
  Th  Th2  1  0.412480  0.005071  0.500000  1
  Ga  Ga3  1  0.997358  0.759741  0.000000  1
  Ga  Ga4  1  0.240259  0.237618  0.000000  1
  Ga  Ga5  1  0.762382  0.002642  0.000000  1
  Ir  Ir6  1  0.666667  0.333333  0.000000  1
  Pt  Pt7  1  0.333333  0.666667  0.000000  1
  Rh  Rh8  1  0.000000  0.000000  0.500000  1
