# generated using pymatgen
data_Pr6Sb7PPd16
_symmetry_space_group_name_H-M   'P 1'
_cell_length_a   9.40559457
_cell_length_b   9.40559398
_cell_length_c   9.40559400
_cell_angle_alpha   59.99999992
_cell_angle_beta   60.00000201
_cell_angle_gamma   59.99999519
_symmetry_Int_Tables_number   1
_chemical_formula_structural   Pr6Sb7PPd16
_chemical_formula_sum   'Pr6 Sb7 P1 Pd16'
_cell_volume   588.36076277
_cell_formula_units_Z   1
loop_
 _symmetry_equiv_pos_site_id
 _symmetry_equiv_pos_as_xyz
  1  'x, y, z'
loop_
 _atom_site_type_symbol
 _atom_site_label
 _atom_site_symmetry_multiplicity
 _atom_site_fract_x
 _atom_site_fract_y
 _atom_site_fract_z
 _atom_site_occupancy
  Pr  Pr0  1  0.715347  0.284653  0.284653  1
  Pr  Pr1  1  0.284653  0.715347  0.715347  1
  Pr  Pr2  1  0.284653  0.715347  0.284653  1
  Pr  Pr3  1  0.715347  0.284653  0.715347  1
  Pr  Pr4  1  0.284653  0.284653  0.715347  1
  Pr  Pr5  1  0.715347  0.715347  0.284653  1
  Sb  Sb6  1  0.000000  0.000000  0.000000  1
  Sb  Sb7  1  0.500000  0.000000  0.000000  1
  Sb  Sb8  1  0.000000  0.500000  0.500000  1
  Sb  Sb9  1  0.000000  0.500000  0.000000  1
  Sb  Sb10  1  0.500000  0.000000  0.500000  1
  Sb  Sb11  1  0.000000  0.000000  0.500000  1
  Sb  Sb12  1  0.500000  0.500000  0.000000  1
  P  P13  1  0.500000  0.500000  0.500000  1
  Pd  Pd14  1  0.118822  0.118822  0.118822  1
  Pd  Pd15  1  0.881178  0.881178  0.881178  1
  Pd  Pd16  1  0.118822  0.118822  0.643533  1
  Pd  Pd17  1  0.118822  0.643533  0.118822  1
  Pd  Pd18  1  0.881178  0.881178  0.356467  1
  Pd  Pd19  1  0.881178  0.356467  0.881178  1
  Pd  Pd20  1  0.643533  0.118822  0.118822  1
  Pd  Pd21  1  0.356467  0.881178  0.881178  1
  Pd  Pd22  1  0.330152  0.330152  0.330152  1
  Pd  Pd23  1  0.669848  0.669848  0.669848  1
  Pd  Pd24  1  0.330152  0.330152  0.009545  1
  Pd  Pd25  1  0.330152  0.009545  0.330152  1
  Pd  Pd26  1  0.669848  0.669848  0.990455  1
  Pd  Pd27  1  0.669848  0.990455  0.669848  1
  Pd  Pd28  1  0.009545  0.330152  0.330152  1
  Pd  Pd29  1  0.990455  0.669848  0.669848  1
