# generated using pymatgen
data_Dy9Ho7(C2Cl3)4
_symmetry_space_group_name_H-M   'P 1'
_cell_length_a   3.64366700
_cell_length_b   10.47522001
_cell_length_c   19.58522802
_cell_angle_alpha   90.00541353
_cell_angle_beta   90.00000000
_cell_angle_gamma   90.00000000
_symmetry_Int_Tables_number   1
_chemical_formula_structural   Dy9Ho7(C2Cl3)4
_chemical_formula_sum   'Dy9 Ho7 C8 Cl12'
_cell_volume   747.53316074
_cell_formula_units_Z   1
loop_
 _symmetry_equiv_pos_site_id
 _symmetry_equiv_pos_as_xyz
  1  'x, y, z'
loop_
 _atom_site_type_symbol
 _atom_site_label
 _atom_site_symmetry_multiplicity
 _atom_site_fract_x
 _atom_site_fract_y
 _atom_site_fract_z
 _atom_site_occupancy
  Dy  Dy0  1  0.250000  0.138816  0.572783  1
  Dy  Dy1  1  0.250000  0.638818  0.927198  1
  Dy  Dy2  1  0.750000  0.861014  0.427235  1
  Dy  Dy3  1  0.750000  0.361152  0.072784  1
  Dy  Dy4  1  0.250000  0.637985  0.755973  1
  Dy  Dy5  1  0.250000  0.138000  0.744020  1
  Dy  Dy6  1  0.750000  0.362021  0.243976  1
  Dy  Dy7  1  0.750000  0.861899  0.255927  1
  Dy  Dy8  1  0.250000  0.100277  0.331860  1
  Ho  Ho9  1  0.250000  0.599939  0.168584  1
  Ho  Ho10  1  0.750000  0.900094  0.668588  1
  Ho  Ho11  1  0.750000  0.400090  0.831407  1
  Ho  Ho12  1  0.250000  0.124317  0.164070  1
  Ho  Ho13  1  0.250000  0.624373  0.335830  1
  Ho  Ho14  1  0.750000  0.875577  0.835775  1
  Ho  Ho15  1  0.750000  0.375598  0.664227  1
  C  C16  1  0.250000  0.863062  0.348131  1
  C  C17  1  0.250000  0.363815  0.151844  1
  C  C18  1  0.750000  0.136277  0.651895  1
  C  C19  1  0.750000  0.636303  0.848111  1
  C  C20  1  0.250000  0.388368  0.749581  1
  C  C21  1  0.250000  0.888400  0.750418  1
  C  C22  1  0.750000  0.611537  0.250386  1
  C  C23  1  0.750000  0.111653  0.249140  1
  Cl  Cl24  1  0.250000  0.378068  0.951819  1
  Cl  Cl25  1  0.250000  0.878042  0.548183  1
  Cl  Cl26  1  0.750000  0.621929  0.048085  1
  Cl  Cl27  1  0.750000  0.121930  0.452206  1
  Cl  Cl28  1  0.250000  0.887732  0.945704  1
  Cl  Cl29  1  0.250000  0.387737  0.554300  1
  Cl  Cl30  1  0.750000  0.112294  0.054144  1
  Cl  Cl31  1  0.750000  0.612236  0.445819  1
  Cl  Cl32  1  0.250000  0.360920  0.354835  1
  Cl  Cl33  1  0.250000  0.860192  0.145159  1
  Cl  Cl34  1  0.750000  0.639769  0.645228  1
  Cl  Cl35  1  0.750000  0.139765  0.854774  1
