# generated using pymatgen
data_LiMn6As3P
_symmetry_space_group_name_H-M   'P 1'
_cell_length_a   7.10042400
_cell_length_b   7.10042388
_cell_length_c   3.45292600
_cell_angle_alpha   90.00000000
_cell_angle_beta   90.00000000
_cell_angle_gamma   119.99999124
_symmetry_Int_Tables_number   1
_chemical_formula_structural   LiMn6As3P
_chemical_formula_sum   'Li1 Mn6 As3 P1'
_cell_volume   150.76012895
_cell_formula_units_Z   1
loop_
 _symmetry_equiv_pos_site_id
 _symmetry_equiv_pos_as_xyz
  1  'x, y, z'
loop_
 _atom_site_type_symbol
 _atom_site_label
 _atom_site_symmetry_multiplicity
 _atom_site_fract_x
 _atom_site_fract_y
 _atom_site_fract_z
 _atom_site_occupancy
  Li  Li0  1  0.000000  0.000000  0.000000  1
  Mn  Mn1  1  0.208183  0.791817  0.500000  1
  Mn  Mn2  1  0.208183  0.416366  0.500000  1
  Mn  Mn3  1  0.529369  0.058739  0.000000  1
  Mn  Mn4  1  0.941261  0.470631  0.000000  1
  Mn  Mn5  1  0.529369  0.470631  0.000000  1
  Mn  Mn6  1  0.583634  0.791817  0.500000  1
  As  As7  1  0.824115  0.175885  0.500000  1
  As  As8  1  0.351770  0.175885  0.500000  1
  As  As9  1  0.824115  0.648230  0.500000  1
  P  P10  1  0.333333  0.666667  0.000000  1
