# generated using pymatgen
data_HfZrNiAs2
_symmetry_space_group_name_H-M   'P 1'
_cell_length_a   3.93712500
_cell_length_b   3.93712538
_cell_length_c   13.12492200
_cell_angle_alpha   90.00000000
_cell_angle_beta   90.00000000
_cell_angle_gamma   119.99998837
_symmetry_Int_Tables_number   1
_chemical_formula_structural   HfZrNiAs2
_chemical_formula_sum   'Hf2 Zr2 Ni2 As4'
_cell_volume   176.19186920
_cell_formula_units_Z   2
loop_
 _symmetry_equiv_pos_site_id
 _symmetry_equiv_pos_as_xyz
  1  'x, y, z'
loop_
 _atom_site_type_symbol
 _atom_site_label
 _atom_site_symmetry_multiplicity
 _atom_site_fract_x
 _atom_site_fract_y
 _atom_site_fract_z
 _atom_site_occupancy
  Hf  Hf0  1  0.666667  0.333333  0.387563  1
  Hf  Hf1  1  0.333333  0.666667  0.887563  1
  Zr  Zr2  1  0.333333  0.666667  0.610263  1
  Zr  Zr3  1  0.666667  0.333333  0.110263  1
  Ni  Ni4  1  0.000000  0.000000  0.754180  1
  Ni  Ni5  1  0.000000  0.000000  0.254180  1
  As  As6  1  0.333333  0.666667  0.250690  1
  As  As7  1  0.000000  0.000000  0.997305  1
  As  As8  1  0.000000  0.000000  0.497305  1
  As  As9  1  0.666667  0.333333  0.750690  1
