# generated using pymatgen
data_YbPrLu2(Si5Pt3)2
_symmetry_space_group_name_H-M   'P 1'
_cell_length_a   8.23113785
_cell_length_b   8.25204771
_cell_length_c   8.25204700
_cell_angle_alpha   136.71918311
_cell_angle_beta   104.97783972
_cell_angle_gamma   90.81610595
_symmetry_Int_Tables_number   1
_chemical_formula_structural   YbPrLu2(Si5Pt3)2
_chemical_formula_sum   'Yb1 Pr1 Lu2 Si10 Pt6'
_cell_volume   353.45738405
_cell_formula_units_Z   1
loop_
 _symmetry_equiv_pos_site_id
 _symmetry_equiv_pos_as_xyz
  1  'x, y, z'
loop_
 _atom_site_type_symbol
 _atom_site_label
 _atom_site_symmetry_multiplicity
 _atom_site_fract_x
 _atom_site_fract_y
 _atom_site_fract_z
 _atom_site_occupancy
  Yb  Yb0  1  0.861279  0.628563  0.232716  1
  Pr  Pr1  1  0.604451  0.872039  0.732414  1
  Lu  Lu2  1  0.140405  0.370073  0.770331  1
  Lu  Lu3  1  0.399288  0.129237  0.270051  1
  Si  Si4  1  0.499188  0.749301  0.248639  1
  Si  Si5  1  0.499188  0.250549  0.749887  1
  Si  Si6  1  0.227044  0.979870  0.748044  1
  Si  Si7  1  0.770957  0.521791  0.751570  1
  Si  Si8  1  0.770957  0.019387  0.249166  1
  Si  Si9  1  0.227044  0.479001  0.247174  1
  Si  Si10  1  0.040330  0.889887  0.150442  1
  Si  Si11  1  0.964042  0.115017  0.849024  1
  Si  Si12  1  0.736848  0.386736  0.350113  1
  Si  Si13  1  0.259173  0.608456  0.650717  1
  Pt  Pt14  1  0.002673  0.750830  0.752396  1
  Pt  Pt15  1  0.002673  0.250278  0.251844  1
  Pt  Pt16  1  0.248036  0.863426  0.384610  1
  Pt  Pt17  1  0.752298  0.139884  0.612413  1
  Pt  Pt18  1  0.473993  0.361451  0.112542  1
  Pt  Pt19  1  0.520134  0.634227  0.885906  1
