# generated using pymatgen
data_PrYGePd14
_symmetry_space_group_name_H-M   'P 1'
_cell_length_a   8.98284200
_cell_length_b   8.98284200
_cell_length_c   7.16885000
_cell_angle_alpha   90.00000000
_cell_angle_beta   90.00000000
_cell_angle_gamma   90.00000000
_symmetry_Int_Tables_number   1
_chemical_formula_structural   PrYGePd14
_chemical_formula_sum   'Pr2 Y2 Ge2 Pd28'
_cell_volume   578.46490418
_cell_formula_units_Z   2
loop_
 _symmetry_equiv_pos_site_id
 _symmetry_equiv_pos_as_xyz
  1  'x, y, z'
loop_
 _atom_site_type_symbol
 _atom_site_label
 _atom_site_symmetry_multiplicity
 _atom_site_fract_x
 _atom_site_fract_y
 _atom_site_fract_z
 _atom_site_occupancy
  Pr  Pr0  1  0.500000  0.000000  0.936446  1
  Pr  Pr1  1  0.000000  0.500000  0.063554  1
  Y  Y2  1  0.000000  0.000000  0.500000  1
  Y  Y3  1  0.500000  0.500000  0.500000  1
  Ge  Ge4  1  0.500000  0.000000  0.449385  1
  Ge  Ge5  1  0.000000  0.500000  0.550615  1
  Pd  Pd6  1  0.330182  0.830182  0.620535  1
  Pd  Pd7  1  0.330182  0.169818  0.620535  1
  Pd  Pd8  1  0.669818  0.830182  0.620535  1
  Pd  Pd9  1  0.669818  0.169818  0.620535  1
  Pd  Pd10  1  0.169818  0.669818  0.379465  1
  Pd  Pd11  1  0.169818  0.330182  0.379465  1
  Pd  Pd12  1  0.830182  0.669818  0.379465  1
  Pd  Pd13  1  0.830182  0.330182  0.379465  1
  Pd  Pd14  1  0.500000  0.764673  0.255719  1
  Pd  Pd15  1  0.500000  0.235327  0.255719  1
  Pd  Pd16  1  0.264673  0.000000  0.255719  1
  Pd  Pd17  1  0.735327  0.000000  0.255719  1
  Pd  Pd18  1  0.000000  0.735327  0.744281  1
  Pd  Pd19  1  0.000000  0.264673  0.744281  1
  Pd  Pd20  1  0.235327  0.500000  0.744281  1
  Pd  Pd21  1  0.764673  0.500000  0.744281  1
  Pd  Pd22  1  0.500000  0.349892  0.854183  1
  Pd  Pd23  1  0.500000  0.650108  0.854183  1
  Pd  Pd24  1  0.849892  0.000000  0.854183  1
  Pd  Pd25  1  0.150108  0.000000  0.854183  1
  Pd  Pd26  1  0.000000  0.150108  0.145817  1
  Pd  Pd27  1  0.000000  0.849892  0.145817  1
  Pd  Pd28  1  0.650108  0.500000  0.145817  1
  Pd  Pd29  1  0.349892  0.500000  0.145817  1
  Pd  Pd30  1  0.250000  0.750000  0.000000  1
  Pd  Pd31  1  0.250000  0.250000  0.000000  1
  Pd  Pd32  1  0.750000  0.750000  0.000000  1
  Pd  Pd33  1  0.750000  0.250000  0.000000  1
