# generated using pymatgen
data_Tb4Al16Zn2PdPt5
_symmetry_space_group_name_H-M   'P 1'
_cell_length_a   7.58786510
_cell_length_b   7.58786462
_cell_length_c   9.48965966
_cell_angle_alpha   89.97837040
_cell_angle_beta   89.97836712
_cell_angle_gamma   119.25835280
_symmetry_Int_Tables_number   1
_chemical_formula_structural   Tb4Al16Zn2PdPt5
_chemical_formula_sum   'Tb4 Al16 Zn2 Pd1 Pt5'
_cell_volume   476.66984201
_cell_formula_units_Z   1
loop_
 _symmetry_equiv_pos_site_id
 _symmetry_equiv_pos_as_xyz
  1  'x, y, z'
loop_
 _atom_site_type_symbol
 _atom_site_label
 _atom_site_symmetry_multiplicity
 _atom_site_fract_x
 _atom_site_fract_y
 _atom_site_fract_z
 _atom_site_occupancy
  Tb  Tb0  1  0.993444  0.670468  0.249916  1
  Tb  Tb1  1  0.006556  0.329532  0.750084  1
  Tb  Tb2  1  0.670468  0.993444  0.249916  1
  Tb  Tb3  1  0.329532  0.006556  0.750084  1
  Al  Al4  1  0.001402  0.332238  0.077605  1
  Al  Al5  1  0.998598  0.667762  0.922395  1
  Al  Al6  1  0.998398  0.667684  0.577650  1
  Al  Al7  1  0.332316  0.001602  0.422350  1
  Al  Al8  1  0.001602  0.332316  0.422350  1
  Al  Al9  1  0.667684  0.998398  0.577650  1
  Al  Al10  1  0.667762  0.998598  0.922395  1
  Al  Al11  1  0.332238  0.001402  0.077605  1
  Al  Al12  1  0.332664  0.332664  0.556127  1
  Al  Al13  1  0.667336  0.667336  0.443873  1
  Al  Al14  1  0.667415  0.667415  0.056017  1
  Al  Al15  1  0.332585  0.332585  0.943983  1
  Al  Al16  1  0.338295  0.544937  0.250055  1
  Al  Al17  1  0.661705  0.455063  0.749945  1
  Al  Al18  1  0.544937  0.338295  0.250055  1
  Al  Al19  1  0.455063  0.661705  0.749945  1
  Zn  Zn20  1  0.139376  0.139376  0.250812  1
  Zn  Zn21  1  0.860624  0.860624  0.749188  1
  Pd  Pd22  1  0.000000  0.000000  0.500000  1
  Pt  Pt23  1  0.672271  0.327729  0.000000  1
  Pt  Pt24  1  0.327729  0.672271  0.000000  1
  Pt  Pt25  1  0.327606  0.672394  0.500000  1
  Pt  Pt26  1  0.672394  0.327606  0.500000  1
  Pt  Pt27  1  0.000000  0.000000  0.000000  1
