# generated using pymatgen
data_Y6Sn6Ir5Au
_symmetry_space_group_name_H-M   'P 1'
_cell_length_a   7.58975400
_cell_length_b   7.58975333
_cell_length_c   7.85957300
_cell_angle_alpha   90.00000000
_cell_angle_beta   90.00000000
_cell_angle_gamma   120.00000292
_symmetry_Int_Tables_number   1
_chemical_formula_structural   Y6Sn6Ir5Au
_chemical_formula_sum   'Y6 Sn6 Ir5 Au1'
_cell_volume   392.08924714
_cell_formula_units_Z   1
loop_
 _symmetry_equiv_pos_site_id
 _symmetry_equiv_pos_as_xyz
  1  'x, y, z'
loop_
 _atom_site_type_symbol
 _atom_site_label
 _atom_site_symmetry_multiplicity
 _atom_site_fract_x
 _atom_site_fract_y
 _atom_site_fract_z
 _atom_site_occupancy
  Y  Y0  1  0.400846  0.991739  0.243564  1
  Y  Y1  1  0.591578  0.600345  0.756015  1
  Y  Y2  1  0.590895  0.599154  0.243564  1
  Y  Y3  1  0.008261  0.409105  0.243564  1
  Y  Y4  1  0.008766  0.408422  0.756015  1
  Y  Y5  1  0.399655  0.991234  0.756015  1
  Sn  Sn6  1  0.252020  0.260496  0.499840  1
  Sn  Sn7  1  0.262130  0.257924  0.000060  1
  Sn  Sn8  1  0.742076  0.004206  0.000060  1
  Sn  Sn9  1  0.008477  0.747980  0.499840  1
  Sn  Sn10  1  0.739504  0.991523  0.499840  1
  Sn  Sn11  1  0.995794  0.737870  0.000060  1
  Ir  Ir12  1  0.666667  0.333333  0.999957  1
  Ir  Ir13  1  0.333333  0.666667  0.000291  1
  Ir  Ir14  1  0.333333  0.666667  0.500266  1
  Ir  Ir15  1  0.000000  0.000000  0.750685  1
  Ir  Ir16  1  0.000000  0.000000  0.248502  1
  Au  Au17  1  0.666667  0.333333  0.501861  1
