# generated using pymatgen
data_TbYLu3Sn4
_symmetry_space_group_name_H-M   'P 1'
_cell_length_a   7.92511400
_cell_length_b   8.05508200
_cell_length_c   15.21745100
_cell_angle_alpha   90.00000000
_cell_angle_beta   90.00000000
_cell_angle_gamma   90.00000000
_symmetry_Int_Tables_number   1
_chemical_formula_structural   TbYLu3Sn4
_chemical_formula_sum   'Tb4 Y4 Lu12 Sn16'
_cell_volume   971.44316279
_cell_formula_units_Z   4
loop_
 _symmetry_equiv_pos_site_id
 _symmetry_equiv_pos_as_xyz
  1  'x, y, z'
loop_
 _atom_site_type_symbol
 _atom_site_label
 _atom_site_symmetry_multiplicity
 _atom_site_fract_x
 _atom_site_fract_y
 _atom_site_fract_z
 _atom_site_occupancy
  Tb  Tb0  1  0.479127  0.679113  0.096515  1
  Tb  Tb1  1  0.979127  0.820887  0.403485  1
  Tb  Tb2  1  0.520873  0.320887  0.596515  1
  Tb  Tb3  1  0.020873  0.179113  0.903485  1
  Y  Y4  1  0.521309  0.320522  0.902954  1
  Y  Y5  1  0.021309  0.179478  0.597046  1
  Y  Y6  1  0.478691  0.679478  0.402954  1
  Y  Y7  1  0.978691  0.820522  0.097046  1
  Lu  Lu8  1  0.366672  0.836783  0.876997  1
  Lu  Lu9  1  0.866672  0.663217  0.623003  1
  Lu  Lu10  1  0.633328  0.163217  0.376997  1
  Lu  Lu11  1  0.133328  0.336783  0.123003  1
  Lu  Lu12  1  0.633267  0.163198  0.123058  1
  Lu  Lu13  1  0.133267  0.336802  0.376942  1
  Lu  Lu14  1  0.366733  0.836802  0.623058  1
  Lu  Lu15  1  0.866733  0.663198  0.876942  1
  Lu  Lu16  1  0.197276  0.504800  0.750048  1
  Lu  Lu17  1  0.697276  0.995200  0.749952  1
  Lu  Lu18  1  0.802724  0.495200  0.250048  1
  Lu  Lu19  1  0.302724  0.004800  0.249952  1
  Sn  Sn20  1  0.295669  0.037967  0.041715  1
  Sn  Sn21  1  0.795669  0.462033  0.458285  1
  Sn  Sn22  1  0.704331  0.962033  0.541715  1
  Sn  Sn23  1  0.204331  0.537967  0.958285  1
  Sn  Sn24  1  0.704081  0.961243  0.958707  1
  Sn  Sn25  1  0.204081  0.538757  0.541293  1
  Sn  Sn26  1  0.295919  0.038757  0.458707  1
  Sn  Sn27  1  0.795919  0.461243  0.041293  1
  Sn  Sn28  1  0.563757  0.620746  0.749988  1
  Sn  Sn29  1  0.063757  0.879254  0.750012  1
  Sn  Sn30  1  0.436243  0.379254  0.249988  1
  Sn  Sn31  1  0.936243  0.120746  0.250012  1
  Sn  Sn32  1  0.330201  0.147896  0.749926  1
  Sn  Sn33  1  0.830201  0.352104  0.750074  1
  Sn  Sn34  1  0.669799  0.852104  0.249926  1
  Sn  Sn35  1  0.169799  0.647896  0.250074  1
