# generated using pymatgen
data_Ti8Al15Ir2Pd2Rh3
_symmetry_space_group_name_H-M   'P 1'
_cell_length_a   8.67776895
_cell_length_b   8.65587339
_cell_length_c   8.68240247
_cell_angle_alpha   119.98604893
_cell_angle_beta   119.91720768
_cell_angle_gamma   90.09652377
_symmetry_Int_Tables_number   1
_chemical_formula_structural   Ti8Al15Ir2Pd2Rh3
_chemical_formula_sum   'Ti8 Al15 Ir2 Pd2 Rh3'
_cell_volume   461.43691780
_cell_formula_units_Z   1
loop_
 _symmetry_equiv_pos_site_id
 _symmetry_equiv_pos_as_xyz
  1  'x, y, z'
loop_
 _atom_site_type_symbol
 _atom_site_label
 _atom_site_symmetry_multiplicity
 _atom_site_fract_x
 _atom_site_fract_y
 _atom_site_fract_z
 _atom_site_occupancy
  Ti  Ti0  1  0.788547  0.290747  0.073943  1
  Ti  Ti1  1  0.217940  0.291508  0.502192  1
  Ti  Ti2  1  0.211201  0.709428  0.499792  1
  Ti  Ti3  1  0.213757  0.713295  0.923387  1
  Ti  Ti4  1  0.789161  0.712804  0.499551  1
  Ti  Ti5  1  0.783429  0.285942  0.501063  1
  Ti  Ti6  1  0.383594  0.128214  0.744440  1
  Ti  Ti7  1  0.379590  0.634482  0.256581  1
  Al  Al8  1  0.997873  0.496861  0.499199  1
  Al  Al9  1  0.151536  0.344411  0.190352  1
  Al  Al10  1  0.154416  0.964751  0.810277  1
  Al  Al11  1  0.149514  0.346785  0.805363  1
  Al  Al12  1  0.540860  0.345565  0.195134  1
  Al  Al13  1  0.846387  0.653994  0.809483  1
  Al  Al14  1  0.848231  0.039706  0.191942  1
  Al  Al15  1  0.843724  0.652581  0.186600  1
  Al  Al16  1  0.466391  0.653373  0.810619  1
  Al  Al17  1  0.375984  0.123134  0.260414  1
  Al  Al18  1  0.862515  0.123261  0.746770  1
  Al  Al19  1  0.618777  0.875048  0.256333  1
  Al  Al20  1  0.622244  0.366001  0.743903  1
  Al  Al21  1  0.622890  0.876672  0.740359  1
  Al  Al22  1  0.136609  0.876377  0.253738  1
  Ir  Ir23  1  0.497074  0.497933  0.000806  1
  Ir  Ir24  1  0.497925  0.499777  0.497613  1
  Pd  Pd25  1  0.998474  0.999122  0.498807  1
  Pd  Pd26  1  0.500427  0.999001  0.000528  1
  Rh  Rh27  1  0.001208  0.499506  0.001016  1
  Rh  Rh28  1  0.000324  0.999935  0.999319  1
  Rh  Rh29  1  0.499393  0.999786  0.500475  1
