# generated using pymatgen
data_HfCu2Ir3S8
_symmetry_space_group_name_H-M   'P 1'
_cell_length_a   6.85904509
_cell_length_b   6.85904495
_cell_length_c   6.85904532
_cell_angle_alpha   64.05752027
_cell_angle_beta   64.05752156
_cell_angle_gamma   64.05752450
_symmetry_Int_Tables_number   1
_chemical_formula_structural   HfCu2Ir3S8
_chemical_formula_sum   'Hf1 Cu2 Ir3 S8'
_cell_volume   248.55993211
_cell_formula_units_Z   1
loop_
 _symmetry_equiv_pos_site_id
 _symmetry_equiv_pos_as_xyz
  1  'x, y, z'
loop_
 _atom_site_type_symbol
 _atom_site_label
 _atom_site_symmetry_multiplicity
 _atom_site_fract_x
 _atom_site_fract_y
 _atom_site_fract_z
 _atom_site_occupancy
  Hf  Hf0  1  0.625000  0.625000  0.625000  1
  Cu  Cu1  1  0.005964  0.005964  0.005964  1
  Cu  Cu2  1  0.244036  0.244036  0.244036  1
  Ir  Ir3  1  0.625000  0.625000  0.125000  1
  Ir  Ir4  1  0.125000  0.625000  0.625000  1
  Ir  Ir5  1  0.625000  0.125000  0.625000  1
  S  S6  1  0.372208  0.372208  0.857067  1
  S  S7  1  0.385783  0.385783  0.385783  1
  S  S8  1  0.864217  0.864217  0.864217  1
  S  S9  1  0.877792  0.877792  0.392933  1
  S  S10  1  0.372208  0.857067  0.372208  1
  S  S11  1  0.857067  0.372208  0.372208  1
  S  S12  1  0.392933  0.877792  0.877792  1
  S  S13  1  0.877792  0.392933  0.877792  1
