# generated using pymatgen
data_Nd6Al24Ir3Os2Ru3
_symmetry_space_group_name_H-M   'P 1'
_cell_length_a   8.90859900
_cell_length_b   8.92102538
_cell_length_c   9.65385176
_cell_angle_alpha   90.25060592
_cell_angle_beta   90.00000000
_cell_angle_gamma   119.95394399
_symmetry_Int_Tables_number   1
_chemical_formula_structural   Nd6Al24Ir3Os2Ru3
_chemical_formula_sum   'Nd6 Al24 Ir3 Os2 Ru3'
_cell_volume   664.73917576
_cell_formula_units_Z   1
loop_
 _symmetry_equiv_pos_site_id
 _symmetry_equiv_pos_as_xyz
  1  'x, y, z'
loop_
 _atom_site_type_symbol
 _atom_site_label
 _atom_site_symmetry_multiplicity
 _atom_site_fract_x
 _atom_site_fract_y
 _atom_site_fract_z
 _atom_site_occupancy
  Nd  Nd0  1  0.191623  0.383245  0.247752  1
  Nd  Nd1  1  0.808377  0.616755  0.752248  1
  Nd  Nd2  1  0.617694  0.808533  0.249529  1
  Nd  Nd3  1  0.382306  0.191467  0.750471  1
  Nd  Nd4  1  0.190840  0.808533  0.249529  1
  Nd  Nd5  1  0.809160  0.191467  0.750471  1
  Al  Al6  1  0.333087  0.666175  0.015039  1
  Al  Al7  1  0.666913  0.333825  0.984961  1
  Al  Al8  1  0.665448  0.330896  0.516077  1
  Al  Al9  1  0.334552  0.669104  0.483923  1
  Al  Al10  1  0.163155  0.326308  0.574855  1
  Al  Al11  1  0.836845  0.673692  0.425145  1
  Al  Al12  1  0.674271  0.838631  0.575996  1
  Al  Al13  1  0.836659  0.673318  0.076410  1
  Al  Al14  1  0.325729  0.161369  0.424004  1
  Al  Al15  1  0.163341  0.326682  0.923590  1
  Al  Al16  1  0.164360  0.838631  0.575996  1
  Al  Al17  1  0.326787  0.164881  0.075489  1
  Al  Al18  1  0.835640  0.161369  0.424004  1
  Al  Al19  1  0.673213  0.835119  0.924511  1
  Al  Al20  1  0.838095  0.164881  0.075489  1
  Al  Al21  1  0.161905  0.835119  0.924511  1
  Al  Al22  1  0.561724  0.123448  0.252026  1
  Al  Al23  1  0.438276  0.876552  0.747974  1
  Al  Al24  1  0.874730  0.437595  0.249768  1
  Al  Al25  1  0.125270  0.562405  0.750232  1
  Al  Al26  1  0.562865  0.437595  0.249768  1
  Al  Al27  1  0.437135  0.562405  0.750232  1
  Al  Al28  1  0.000352  0.000703  0.249989  1
  Al  Al29  1  0.999648  0.999297  0.750011  1
  Ir  Ir30  1  0.500000  0.000000  0.000000  1
  Ir  Ir31  1  0.000000  0.500000  0.500000  1
  Ir  Ir32  1  0.500000  0.500000  0.500000  1
  Os  Os33  1  0.000000  0.500000  0.000000  1
  Os  Os34  1  0.500000  0.500000  0.000000  1
  Ru  Ru35  1  0.500000  0.000000  0.500000  1
  Ru  Ru36  1  0.000000  0.000000  0.000000  1
  Ru  Ru37  1  0.000000  0.000000  0.500000  1
