# generated using pymatgen
data_Sr2Ca2YPb4
_symmetry_space_group_name_H-M   'P 1'
_cell_length_a   8.29956600
_cell_length_b   8.84413400
_cell_length_c   16.59507800
_cell_angle_alpha   90.00000000
_cell_angle_beta   90.00000000
_cell_angle_gamma   90.00000000
_symmetry_Int_Tables_number   1
_chemical_formula_structural   Sr2Ca2YPb4
_chemical_formula_sum   'Sr8 Ca8 Y4 Pb16'
_cell_volume   1218.11977886
_cell_formula_units_Z   4
loop_
 _symmetry_equiv_pos_site_id
 _symmetry_equiv_pos_as_xyz
  1  'x, y, z'
loop_
 _atom_site_type_symbol
 _atom_site_label
 _atom_site_symmetry_multiplicity
 _atom_site_fract_x
 _atom_site_fract_y
 _atom_site_fract_z
 _atom_site_occupancy
  Sr  Sr0  1  0.496075  0.681579  0.594910  1
  Sr  Sr1  1  0.996075  0.818421  0.905090  1
  Sr  Sr2  1  0.503925  0.318421  0.094910  1
  Sr  Sr3  1  0.003925  0.181579  0.405090  1
  Sr  Sr4  1  0.495733  0.319258  0.406873  1
  Sr  Sr5  1  0.995733  0.180742  0.093127  1
  Sr  Sr6  1  0.504267  0.680742  0.906873  1
  Sr  Sr7  1  0.004267  0.819258  0.593127  1
  Ca  Ca8  1  0.328155  0.837397  0.377658  1
  Ca  Ca9  1  0.828155  0.662603  0.122342  1
  Ca  Ca10  1  0.671845  0.162603  0.877658  1
  Ca  Ca11  1  0.171845  0.337397  0.622342  1
  Ca  Ca12  1  0.837849  0.499739  0.748218  1
  Ca  Ca13  1  0.337849  0.000261  0.751782  1
  Ca  Ca14  1  0.162151  0.500261  0.248218  1
  Ca  Ca15  1  0.662151  0.999739  0.251782  1
  Y  Y16  1  0.668836  0.164695  0.626018  1
  Y  Y17  1  0.168836  0.335305  0.873982  1
  Y  Y18  1  0.331164  0.835305  0.126018  1
  Y  Y19  1  0.831164  0.664695  0.373982  1
  Pb  Pb20  1  0.678307  0.958144  0.462951  1
  Pb  Pb21  1  0.178307  0.541856  0.037049  1
  Pb  Pb22  1  0.321693  0.041856  0.962951  1
  Pb  Pb23  1  0.821693  0.458144  0.537049  1
  Pb  Pb24  1  0.337596  0.042179  0.542809  1
  Pb  Pb25  1  0.837596  0.457821  0.957191  1
  Pb  Pb26  1  0.662404  0.957821  0.042809  1
  Pb  Pb27  1  0.162404  0.542179  0.457191  1
  Pb  Pb28  1  0.471999  0.377924  0.753392  1
  Pb  Pb29  1  0.971999  0.122076  0.746608  1
  Pb  Pb30  1  0.528001  0.622076  0.253392  1
  Pb  Pb31  1  0.028001  0.877924  0.246608  1
  Pb  Pb32  1  0.711187  0.866175  0.748004  1
  Pb  Pb33  1  0.211187  0.633825  0.751996  1
  Pb  Pb34  1  0.288813  0.133825  0.248004  1
  Pb  Pb35  1  0.788813  0.366175  0.251996  1
