# generated using pymatgen
data_Yb3Tm(Pt2O7)2
_symmetry_space_group_name_H-M   'P 1'
_cell_length_a   7.22222033
_cell_length_b   7.22222031
_cell_length_c   7.22221988
_cell_angle_alpha   60.14672077
_cell_angle_beta   60.14672108
_cell_angle_gamma   60.14672385
_symmetry_Int_Tables_number   1
_chemical_formula_structural   Yb3Tm(Pt2O7)2
_chemical_formula_sum   'Yb3 Tm1 Pt4 O14'
_cell_volume   267.26257137
_cell_formula_units_Z   1
loop_
 _symmetry_equiv_pos_site_id
 _symmetry_equiv_pos_as_xyz
  1  'x, y, z'
loop_
 _atom_site_type_symbol
 _atom_site_label
 _atom_site_symmetry_multiplicity
 _atom_site_fract_x
 _atom_site_fract_y
 _atom_site_fract_z
 _atom_site_occupancy
  Yb  Yb0  1  0.625000  0.625000  0.125000  1
  Yb  Yb1  1  0.625000  0.125000  0.625000  1
  Yb  Yb2  1  0.125000  0.625000  0.625000  1
  Tm  Tm3  1  0.625000  0.625000  0.625000  1
  Pt  Pt4  1  0.125000  0.125000  0.125000  1
  Pt  Pt5  1  0.625000  0.125000  0.125000  1
  Pt  Pt6  1  0.125000  0.625000  0.125000  1
  Pt  Pt7  1  0.125000  0.125000  0.625000  1
  O  O8  1  0.032057  0.460471  0.460471  1
  O  O9  1  0.789529  0.789529  0.217943  1
  O  O10  1  0.790693  0.208610  0.208610  1
  O  O11  1  0.460471  0.032057  0.460471  1
  O  O12  1  0.041390  0.041390  0.459307  1
  O  O13  1  0.041390  0.459307  0.041390  1
  O  O14  1  0.746347  0.746347  0.746347  1
  O  O15  1  0.503653  0.503653  0.503653  1
  O  O16  1  0.789529  0.217943  0.789529  1
  O  O17  1  0.208610  0.790693  0.208610  1
  O  O18  1  0.208610  0.208610  0.790693  1
  O  O19  1  0.459307  0.041390  0.041390  1
  O  O20  1  0.460471  0.460471  0.032057  1
  O  O21  1  0.217943  0.789529  0.789529  1
