# generated using pymatgen
data_Tb3Er5Re2(B12Rh)2
_symmetry_space_group_name_H-M   'P 1'
_cell_length_a   3.67129600
_cell_length_b   9.13167644
_cell_length_c   11.53021611
_cell_angle_alpha   90.41369789
_cell_angle_beta   90.00000000
_cell_angle_gamma   90.00000000
_symmetry_Int_Tables_number   1
_chemical_formula_structural   Tb3Er5Re2(B12Rh)2
_chemical_formula_sum   'Tb3 Er5 Re2 B24 Rh2'
_cell_volume   386.54142413
_cell_formula_units_Z   1
loop_
 _symmetry_equiv_pos_site_id
 _symmetry_equiv_pos_as_xyz
  1  'x, y, z'
loop_
 _atom_site_type_symbol
 _atom_site_label
 _atom_site_symmetry_multiplicity
 _atom_site_fract_x
 _atom_site_fract_y
 _atom_site_fract_z
 _atom_site_occupancy
  Tb  Tb0  1  0.000000  0.318735  0.411072  1
  Tb  Tb1  1  0.000000  0.681278  0.588987  1
  Tb  Tb2  1  0.000000  0.825812  0.083074  1
  Er  Er3  1  0.000000  0.173940  0.917359  1
  Er  Er4  1  0.000000  0.945466  0.371696  1
  Er  Er5  1  0.000000  0.054809  0.628374  1
  Er  Er6  1  0.000000  0.442131  0.126410  1
  Er  Er7  1  0.000000  0.557503  0.873288  1
  Re  Re8  1  0.000000  0.139116  0.179555  1
  Re  Re9  1  0.000000  0.861581  0.820225  1
  B  B10  1  0.500000  0.554693  0.433752  1
  B  B11  1  0.500000  0.445227  0.566328  1
  B  B12  1  0.500000  0.053477  0.067250  1
  B  B13  1  0.500000  0.947398  0.932303  1
  B  B14  1  0.500000  0.749541  0.420894  1
  B  B15  1  0.500000  0.250533  0.579225  1
  B  B16  1  0.500000  0.248799  0.080963  1
  B  B17  1  0.500000  0.751261  0.918279  1
  B  B18  1  0.500000  0.791230  0.265429  1
  B  B19  1  0.500000  0.208486  0.735126  1
  B  B20  1  0.500000  0.292755  0.234350  1
  B  B21  1  0.500000  0.707294  0.765474  1
  B  B22  1  0.500000  0.631767  0.183463  1
  B  B23  1  0.500000  0.367502  0.816888  1
  B  B24  1  0.500000  0.131539  0.314770  1
  B  B25  1  0.500000  0.868693  0.685272  1
  B  B26  1  0.500000  0.983247  0.213223  1
  B  B27  1  0.500000  0.017648  0.786948  1
  B  B28  1  0.500000  0.483604  0.287343  1
  B  B29  1  0.500000  0.516174  0.712663  1
  B  B30  1  0.500000  0.604742  0.029104  1
  B  B31  1  0.500000  0.394253  0.970605  1
  B  B32  1  0.500000  0.106127  0.471413  1
  B  B33  1  0.500000  0.893938  0.528639  1
  Rh  Rh34  1  0.000000  0.638221  0.320900  1
  Rh  Rh35  1  0.000000  0.361478  0.679356  1
