# generated using pymatgen
data_MgNb6VSe12
_symmetry_space_group_name_H-M   'P 1'
_cell_length_a   6.07180600
_cell_length_b   6.07180752
_cell_length_c   13.28694300
_cell_angle_alpha   90.00000000
_cell_angle_beta   90.00000000
_cell_angle_gamma   119.99999171
_symmetry_Int_Tables_number   1
_chemical_formula_structural   MgNb6VSe12
_chemical_formula_sum   'Mg1 Nb6 V1 Se12'
_cell_volume   424.22047188
_cell_formula_units_Z   1
loop_
 _symmetry_equiv_pos_site_id
 _symmetry_equiv_pos_as_xyz
  1  'x, y, z'
loop_
 _atom_site_type_symbol
 _atom_site_label
 _atom_site_symmetry_multiplicity
 _atom_site_fract_x
 _atom_site_fract_y
 _atom_site_fract_z
 _atom_site_occupancy
  Mg  Mg0  1  0.333333  0.666667  0.250000  1
  Nb  Nb1  1  0.000000  0.000000  0.510693  1
  Nb  Nb2  1  0.000000  0.000000  0.989307  1
  Nb  Nb3  1  0.333333  0.666667  0.988651  1
  Nb  Nb4  1  0.666667  0.333333  0.989679  1
  Nb  Nb5  1  0.666667  0.333333  0.510321  1
  Nb  Nb6  1  0.333333  0.666667  0.511349  1
  V  V7  1  0.666667  0.333333  0.750000  1
  Se  Se8  1  0.332448  0.330317  0.383878  1
  Se  Se9  1  0.669683  0.002131  0.383878  1
  Se  Se10  1  0.997869  0.667552  0.383878  1
  Se  Se11  1  0.330971  0.333200  0.636119  1
  Se  Se12  1  0.002229  0.669029  0.636119  1
  Se  Se13  1  0.666800  0.997771  0.636119  1
  Se  Se14  1  0.666800  0.669029  0.863881  1
  Se  Se15  1  0.330971  0.997771  0.863881  1
  Se  Se16  1  0.002229  0.333200  0.863881  1
  Se  Se17  1  0.669683  0.667552  0.116122  1
  Se  Se18  1  0.997869  0.330317  0.116122  1
  Se  Se19  1  0.332448  0.002131  0.116122  1
