# generated using pymatgen
data_PrB2IrOs
_symmetry_space_group_name_H-M   'P 1'
_cell_length_a   6.96364543
_cell_length_b   6.09027803
_cell_length_c   5.63268646
_cell_angle_alpha   72.76679198
_cell_angle_beta   56.64908406
_cell_angle_gamma   50.58412187
_symmetry_Int_Tables_number   1
_chemical_formula_structural   PrB2IrOs
_chemical_formula_sum   'Pr2 B4 Ir2 Os2'
_cell_volume   153.64331146
_cell_formula_units_Z   2
loop_
 _symmetry_equiv_pos_site_id
 _symmetry_equiv_pos_as_xyz
  1  'x, y, z'
loop_
 _atom_site_type_symbol
 _atom_site_label
 _atom_site_symmetry_multiplicity
 _atom_site_fract_x
 _atom_site_fract_y
 _atom_site_fract_z
 _atom_site_occupancy
  Pr  Pr0  1  0.500000  0.500000  0.500000  1
  Pr  Pr1  1  0.750000  0.750000  0.750000  1
  B  B2  1  0.174634  0.825366  0.174634  1
  B  B3  1  0.064201  0.435799  0.064201  1
  B  B4  1  0.825366  0.174634  0.825366  1
  B  B5  1  0.435799  0.064201  0.435799  1
  Ir  Ir6  1  0.383468  0.383468  0.116532  1
  Ir  Ir7  1  0.116532  0.116532  0.383468  1
  Os  Os8  1  0.865208  0.865208  0.134792  1
  Os  Os9  1  0.134792  0.134792  0.865208  1
