# generated using pymatgen
data_Ho3Er2Cd2(InPd)2
_symmetry_space_group_name_H-M   'P 1'
_cell_length_a   3.59691900
_cell_length_b   8.04251000
_cell_length_c   18.31194000
_cell_angle_alpha   90.00000000
_cell_angle_beta   90.00000000
_cell_angle_gamma   90.00000000
_symmetry_Int_Tables_number   1
_chemical_formula_structural   Ho3Er2Cd2(InPd)2
_chemical_formula_sum   'Ho6 Er4 Cd4 In4 Pd4'
_cell_volume   529.73250698
_cell_formula_units_Z   2
loop_
 _symmetry_equiv_pos_site_id
 _symmetry_equiv_pos_as_xyz
  1  'x, y, z'
loop_
 _atom_site_type_symbol
 _atom_site_label
 _atom_site_symmetry_multiplicity
 _atom_site_fract_x
 _atom_site_fract_y
 _atom_site_fract_z
 _atom_site_occupancy
  Ho  Ho0  1  0.000000  0.500000  0.500000  1
  Ho  Ho1  1  0.000000  0.000000  0.000000  1
  Ho  Ho2  1  0.000000  0.744751  0.280168  1
  Ho  Ho3  1  0.000000  0.255249  0.719832  1
  Ho  Ho4  1  0.000000  0.755249  0.780168  1
  Ho  Ho5  1  0.000000  0.244751  0.219832  1
  Er  Er6  1  0.000000  0.614396  0.083942  1
  Er  Er7  1  0.000000  0.385604  0.916058  1
  Er  Er8  1  0.000000  0.885604  0.583942  1
  Er  Er9  1  0.000000  0.114396  0.416058  1
  Cd  Cd10  1  0.500000  0.710825  0.931697  1
  Cd  Cd11  1  0.500000  0.289175  0.068303  1
  Cd  Cd12  1  0.500000  0.789175  0.431697  1
  Cd  Cd13  1  0.500000  0.210825  0.568303  1
  In  In14  1  0.500000  0.572403  0.647356  1
  In  In15  1  0.500000  0.427597  0.352644  1
  In  In16  1  0.500000  0.927597  0.147356  1
  In  In17  1  0.500000  0.072403  0.852644  1
  Pd  Pd18  1  0.500000  0.527212  0.196387  1
  Pd  Pd19  1  0.500000  0.472788  0.803613  1
  Pd  Pd20  1  0.500000  0.972788  0.696387  1
  Pd  Pd21  1  0.500000  0.027212  0.303613  1
