# generated using pymatgen
data_Sr8Yb11PaPt16
_symmetry_space_group_name_H-M   'P 1'
_cell_length_a   7.69077011
_cell_length_b   7.83216301
_cell_length_c   14.87797264
_cell_angle_alpha   90.08657507
_cell_angle_beta   90.37731703
_cell_angle_gamma   89.94792245
_symmetry_Int_Tables_number   1
_chemical_formula_structural   Sr8Yb11PaPt16
_chemical_formula_sum   'Sr8 Yb11 Pa1 Pt16'
_cell_volume   896.15929747
_cell_formula_units_Z   1
loop_
 _symmetry_equiv_pos_site_id
 _symmetry_equiv_pos_as_xyz
  1  'x, y, z'
loop_
 _atom_site_type_symbol
 _atom_site_label
 _atom_site_symmetry_multiplicity
 _atom_site_fract_x
 _atom_site_fract_y
 _atom_site_fract_z
 _atom_site_occupancy
  Sr  Sr0  1  0.504786  0.328306  0.904946  1
  Sr  Sr1  1  0.999681  0.176695  0.593464  1
  Sr  Sr2  1  0.499495  0.674568  0.403474  1
  Sr  Sr3  1  0.995305  0.823308  0.099118  1
  Sr  Sr4  1  0.499763  0.671383  0.100252  1
  Sr  Sr5  1  0.999251  0.824571  0.403672  1
  Sr  Sr6  1  0.502552  0.323770  0.593626  1
  Sr  Sr7  1  0.997073  0.182049  0.904237  1
  Yb  Yb8  1  0.838203  0.664538  0.621933  1
  Yb  Yb9  1  0.662392  0.166571  0.376768  1
  Yb  Yb10  1  0.159712  0.334225  0.123609  1
  Yb  Yb11  1  0.660960  0.165813  0.123288  1
  Yb  Yb12  1  0.162670  0.333169  0.377053  1
  Yb  Yb13  1  0.337582  0.832529  0.621416  1
  Yb  Yb14  1  0.839525  0.663263  0.877577  1
  Yb  Yb15  1  0.174076  0.494201  0.746333  1
  Yb  Yb16  1  0.683792  0.006069  0.746341  1
  Yb  Yb17  1  0.823844  0.500503  0.251535  1
  Yb  Yb18  1  0.322365  0.997877  0.252379  1
  Pa  Pa19  1  0.338964  0.840590  0.875550  1
  Pt  Pt20  1  0.319143  0.030494  0.032981  1
  Pt  Pt21  1  0.836520  0.460237  0.457147  1
  Pt  Pt22  1  0.664827  0.960560  0.543878  1
  Pt  Pt23  1  0.178147  0.564268  0.954986  1
  Pt  Pt24  1  0.652189  0.950970  0.951130  1
  Pt  Pt25  1  0.163281  0.537019  0.543520  1
  Pt  Pt26  1  0.337588  0.038372  0.457020  1
  Pt  Pt27  1  0.842774  0.459758  0.041679  1
  Pt  Pt28  1  0.534749  0.639699  0.759714  1
  Pt  Pt29  1  0.054070  0.860527  0.756255  1
  Pt  Pt30  1  0.453683  0.365861  0.248772  1
  Pt  Pt31  1  0.954478  0.131139  0.249551  1
  Pt  Pt32  1  0.313992  0.117512  0.757097  1
  Pt  Pt33  1  0.796826  0.379436  0.749091  1
  Pt  Pt34  1  0.697851  0.874972  0.250107  1
  Pt  Pt35  1  0.197890  0.625177  0.250502  1
