# generated using pymatgen
data_Y2Th2Zn3Si5
_symmetry_space_group_name_H-M   'P 1'
_cell_length_a   4.13642700
_cell_length_b   4.13642737
_cell_length_c   16.35639000
_cell_angle_alpha   90.00000000
_cell_angle_beta   90.00000000
_cell_angle_gamma   120.00000505
_symmetry_Int_Tables_number   1
_chemical_formula_structural   Y2Th2Zn3Si5
_chemical_formula_sum   'Y2 Th2 Zn3 Si5'
_cell_volume   242.36440326
_cell_formula_units_Z   1
loop_
 _symmetry_equiv_pos_site_id
 _symmetry_equiv_pos_as_xyz
  1  'x, y, z'
loop_
 _atom_site_type_symbol
 _atom_site_label
 _atom_site_symmetry_multiplicity
 _atom_site_fract_x
 _atom_site_fract_y
 _atom_site_fract_z
 _atom_site_occupancy
  Y  Y0  1  0.333333  0.666667  0.373850  1
  Y  Y1  1  0.333333  0.666667  0.881005  1
  Th  Th2  1  0.333333  0.666667  0.119489  1
  Th  Th3  1  0.333333  0.666667  0.626820  1
  Zn  Zn4  1  0.666667  0.333333  0.496390  1
  Zn  Zn5  1  0.000000  0.000000  0.251605  1
  Zn  Zn6  1  0.000000  0.000000  0.755517  1
  Si  Si7  1  0.666667  0.333333  0.253620  1
  Si  Si8  1  0.666667  0.333333  0.752554  1
  Si  Si9  1  0.000000  0.000000  0.995242  1
  Si  Si10  1  0.000000  0.000000  0.497333  1
  Si  Si11  1  0.666667  0.333333  0.996575  1
