# generated using pymatgen
data_Sc9In14Co6Ir
_symmetry_space_group_name_H-M   'P 1'
_cell_length_a   9.46630336
_cell_length_b   9.46630395
_cell_length_c   9.46630300
_cell_angle_alpha   59.99999984
_cell_angle_beta   59.99999775
_cell_angle_gamma   60.00000261
_symmetry_Int_Tables_number   1
_chemical_formula_structural   Sc9In14Co6Ir
_chemical_formula_sum   'Sc9 In14 Co6 Ir1'
_cell_volume   599.82735399
_cell_formula_units_Z   1
loop_
 _symmetry_equiv_pos_site_id
 _symmetry_equiv_pos_as_xyz
  1  'x, y, z'
loop_
 _atom_site_type_symbol
 _atom_site_label
 _atom_site_symmetry_multiplicity
 _atom_site_fract_x
 _atom_site_fract_y
 _atom_site_fract_z
 _atom_site_occupancy
  Sc  Sc0  1  0.118954  0.643141  0.118954  1
  Sc  Sc1  1  0.356859  0.881046  0.881046  1
  Sc  Sc2  1  0.881046  0.881046  0.881046  1
  Sc  Sc3  1  0.643141  0.118954  0.118954  1
  Sc  Sc4  1  0.500000  0.500000  0.500000  1
  Sc  Sc5  1  0.881046  0.881046  0.356859  1
  Sc  Sc6  1  0.118954  0.118954  0.118954  1
  Sc  Sc7  1  0.881046  0.356859  0.881046  1
  Sc  Sc8  1  0.118954  0.118954  0.643141  1
  In  In9  1  0.500000  0.841943  0.158057  1
  In  In10  1  0.500000  0.841943  0.500000  1
  In  In11  1  0.500000  0.158057  0.500000  1
  In  In12  1  0.500000  0.500000  0.841943  1
  In  In13  1  0.158057  0.500000  0.500000  1
  In  In14  1  0.841943  0.158057  0.500000  1
  In  In15  1  0.158057  0.841943  0.500000  1
  In  In16  1  0.500000  0.158057  0.841943  1
  In  In17  1  0.158057  0.500000  0.841943  1
  In  In18  1  0.500000  0.500000  0.158057  1
  In  In19  1  0.841943  0.500000  0.500000  1
  In  In20  1  0.841943  0.500000  0.158057  1
  In  In21  1  0.250000  0.250000  0.250000  1
  In  In22  1  0.750000  0.750000  0.750000  1
  Co  Co23  1  0.772638  0.772638  0.227362  1
  Co  Co24  1  0.227362  0.772638  0.227362  1
  Co  Co25  1  0.227362  0.772638  0.772638  1
  Co  Co26  1  0.227362  0.227362  0.772638  1
  Co  Co27  1  0.772638  0.227362  0.772638  1
  Co  Co28  1  0.772638  0.227362  0.227362  1
  Ir  Ir29  1  0.000000  0.000000  0.000000  1
