# generated using pymatgen
data_PmZn4Pd
_symmetry_space_group_name_H-M   'P 1'
_cell_length_a   5.28673800
_cell_length_b   5.28670172
_cell_length_c   4.42047400
_cell_angle_alpha   90.00000000
_cell_angle_beta   90.00000000
_cell_angle_gamma   60.00261213
_symmetry_Int_Tables_number   1
_chemical_formula_structural   PmZn4Pd
_chemical_formula_sum   'Pm1 Zn4 Pd1'
_cell_volume   106.99993132
_cell_formula_units_Z   1
loop_
 _symmetry_equiv_pos_site_id
 _symmetry_equiv_pos_as_xyz
  1  'x, y, z'
loop_
 _atom_site_type_symbol
 _atom_site_label
 _atom_site_symmetry_multiplicity
 _atom_site_fract_x
 _atom_site_fract_y
 _atom_site_fract_z
 _atom_site_occupancy
  Pm  Pm0  1  0.000009  0.000007  0.000000  1
  Zn  Zn1  1  0.666631  0.666634  0.000000  1
  Zn  Zn2  1  0.499814  0.001127  0.499999  1
  Zn  Zn3  1  0.001124  0.499020  0.499999  1
  Zn  Zn4  1  0.499046  0.499844  0.499999  1
  Pd  Pd5  1  0.333372  0.333371  0.000000  1
