# generated using pymatgen
data_Sm4TcCl4
_symmetry_space_group_name_H-M   'P 1'
_cell_length_a   8.84875750
_cell_length_b   8.84875728
_cell_length_c   6.65239538
_cell_angle_alpha   90.08468006
_cell_angle_beta   90.08467364
_cell_angle_gamma   89.62380786
_symmetry_Int_Tables_number   1
_chemical_formula_structural   Sm4TcCl4
_chemical_formula_sum   'Sm8 Tc2 Cl8'
_cell_volume   520.87357518
_cell_formula_units_Z   2
loop_
 _symmetry_equiv_pos_site_id
 _symmetry_equiv_pos_as_xyz
  1  'x, y, z'
loop_
 _atom_site_type_symbol
 _atom_site_label
 _atom_site_symmetry_multiplicity
 _atom_site_fract_x
 _atom_site_fract_y
 _atom_site_fract_z
 _atom_site_occupancy
  Sm  Sm0  1  0.104998  0.742280  0.987159  1
  Sm  Sm1  1  0.257720  0.895002  0.512841  1
  Sm  Sm2  1  0.895002  0.257720  0.012841  1
  Sm  Sm3  1  0.742280  0.104998  0.487159  1
  Sm  Sm4  1  0.743500  0.895902  0.002093  1
  Sm  Sm5  1  0.104098  0.256500  0.497907  1
  Sm  Sm6  1  0.256500  0.104098  0.997907  1
  Sm  Sm7  1  0.895902  0.743500  0.502093  1
  Tc  Tc8  1  0.005774  0.994226  0.250000  1
  Tc  Tc9  1  0.994226  0.005774  0.750000  1
  Cl  Cl10  1  0.415384  0.821929  0.914672  1
  Cl  Cl11  1  0.178071  0.584616  0.585328  1
  Cl  Cl12  1  0.584616  0.178071  0.085328  1
  Cl  Cl13  1  0.821929  0.415384  0.414672  1
  Cl  Cl14  1  0.818786  0.586073  0.913258  1
  Cl  Cl15  1  0.413927  0.181214  0.586742  1
  Cl  Cl16  1  0.181214  0.413927  0.086742  1
  Cl  Cl17  1  0.586073  0.818786  0.413258  1
