# generated using pymatgen
data_SrCa(Ga3Pd)2
_symmetry_space_group_name_H-M   'P 1'
_cell_length_a   6.18116663
_cell_length_b   6.18116657
_cell_length_c   5.99117800
_cell_angle_alpha   90.00000000
_cell_angle_beta   90.00000000
_cell_angle_gamma   117.04787126
_symmetry_Int_Tables_number   1
_chemical_formula_structural   SrCa(Ga3Pd)2
_chemical_formula_sum   'Sr1 Ca1 Ga6 Pd2'
_cell_volume   203.86793728
_cell_formula_units_Z   1
loop_
 _symmetry_equiv_pos_site_id
 _symmetry_equiv_pos_as_xyz
  1  'x, y, z'
loop_
 _atom_site_type_symbol
 _atom_site_label
 _atom_site_symmetry_multiplicity
 _atom_site_fract_x
 _atom_site_fract_y
 _atom_site_fract_z
 _atom_site_occupancy
  Sr  Sr0  1  0.765113  0.234887  0.250000  1
  Ca  Ca1  1  0.234176  0.765824  0.750000  1
  Ga  Ga2  1  0.663374  0.336626  0.750000  1
  Ga  Ga3  1  0.336072  0.663928  0.250000  1
  Ga  Ga4  1  0.717943  0.717710  0.998803  1
  Ga  Ga5  1  0.717943  0.717710  0.501197  1
  Ga  Ga6  1  0.282290  0.282057  0.998803  1
  Ga  Ga7  1  0.282290  0.282057  0.501197  1
  Pd  Pd8  1  0.902108  0.097892  0.750000  1
  Pd  Pd9  1  0.098691  0.901309  0.250000  1
