# generated using pymatgen
data_K5Rb11Ti8P4(O4F9)4
_symmetry_space_group_name_H-M   'P 1'
_cell_length_a   11.16271500
_cell_length_b   5.93705218
_cell_length_c   20.49010500
_cell_angle_alpha   74.14203170
_cell_angle_beta   90.00000000
_cell_angle_gamma   90.00000000
_symmetry_Int_Tables_number   1
_chemical_formula_structural   K5Rb11Ti8P4(O4F9)4
_chemical_formula_sum   'K5 Rb11 Ti8 P4 O16 F36'
_cell_volume   1306.27250363
_cell_formula_units_Z   1
loop_
 _symmetry_equiv_pos_site_id
 _symmetry_equiv_pos_as_xyz
  1  'x, y, z'
loop_
 _atom_site_type_symbol
 _atom_site_label
 _atom_site_symmetry_multiplicity
 _atom_site_fract_x
 _atom_site_fract_y
 _atom_site_fract_z
 _atom_site_occupancy
  K  K0  1  0.544428  0.339710  0.667338  1
  K  K1  1  0.258342  0.872659  0.640841  1
  K  K2  1  0.229619  0.457845  0.016515  1
  K  K3  1  0.744292  0.126536  0.359038  1
  K  K4  1  0.954868  0.339607  0.168304  1
  Rb  Rb5  1  0.047069  0.651743  0.833563  1
  Rb  Rb6  1  0.454165  0.652454  0.333929  1
  Rb  Rb7  1  0.271028  0.458117  0.513305  1
  Rb  Rb8  1  0.729723  0.542663  0.487528  1
  Rb  Rb9  1  0.757676  0.126487  0.860554  1
  Rb  Rb10  1  0.771483  0.543176  0.987582  1
  Rb  Rb11  1  0.456123  0.627042  0.851734  1
  Rb  Rb12  1  0.041870  0.626151  0.351461  1
  Rb  Rb13  1  0.239975  0.874775  0.138068  1
  Rb  Rb14  1  0.956762  0.373242  0.648103  1
  Rb  Rb15  1  0.543137  0.371967  0.148529  1
  Ti  Ti16  1  0.999905  0.001634  0.500251  1
  Ti  Ti17  1  0.744396  0.718492  0.752864  1
  Ti  Ti18  1  0.251499  0.281142  0.245012  1
  Ti  Ti19  1  0.248917  0.278804  0.745149  1
  Ti  Ti20  1  0.499394  0.001270  0.000201  1
  Ti  Ti21  1  0.001122  0.003705  0.000735  1
  Ti  Ti22  1  0.754696  0.716638  0.254065  1
  Ti  Ti23  1  0.499964  0.000545  0.500594  1
  P  P24  1  0.750736  0.954480  0.592616  1
  P  P25  1  0.251934  0.045734  0.909433  1
  P  P26  1  0.749393  0.953890  0.093284  1
  P  P27  1  0.247146  0.047931  0.407362  1
  O  O28  1  0.162257  0.085642  0.964245  1
  O  O29  1  0.377554  0.118879  0.930611  1
  O  O30  1  0.754857  0.191544  0.106008  1
  O  O31  1  0.623881  0.890840  0.069027  1
  O  O32  1  0.840174  0.930984  0.037046  1
  O  O33  1  0.248208  0.807962  0.396207  1
  O  O34  1  0.339912  0.070558  0.462685  1
  O  O35  1  0.220804  0.234210  0.841189  1
  O  O36  1  0.719610  0.750676  0.657135  1
  O  O37  1  0.277519  0.245004  0.340990  1
  O  O38  1  0.123933  0.119897  0.431864  1
  O  O39  1  0.247558  0.799226  0.903048  1
  O  O40  1  0.661243  0.932879  0.535808  1
  O  O41  1  0.745788  0.191711  0.605566  1
  O  O42  1  0.876094  0.889410  0.568719  1
  O  O43  1  0.779356  0.749844  0.158137  1
  F  F44  1  0.963547  0.855807  0.932611  1
  F  F45  1  0.445735  0.713900  0.560249  1
  F  F46  1  0.764177  0.657278  0.849487  1
  F  F47  1  0.130848  0.055229  0.256472  1
  F  F48  1  0.133068  0.523028  0.723032  1
  F  F49  1  0.132673  0.514822  0.238977  1
  F  F50  1  0.038620  0.154282  0.068549  1
  F  F51  1  0.370636  0.054484  0.758684  1
  F  F52  1  0.903917  0.260179  0.454869  1
  F  F53  1  0.944065  0.288370  0.941921  1
  F  F54  1  0.460888  0.148395  0.568807  1
  F  F55  1  0.865634  0.943369  0.741053  1
  F  F56  1  0.369344  0.520808  0.224701  1
  F  F57  1  0.364749  0.519192  0.737892  1
  F  F58  1  0.928796  0.831556  0.444103  1
  F  F59  1  0.869500  0.943622  0.259018  1
  F  F60  1  0.734872  0.668534  0.350079  1
  F  F61  1  0.095539  0.741791  0.544882  1
  F  F62  1  0.072145  0.170500  0.556353  1
  F  F63  1  0.404065  0.738821  0.043269  1
  F  F64  1  0.540848  0.852854  0.432680  1
  F  F65  1  0.555560  0.287392  0.441907  1
  F  F66  1  0.632485  0.939575  0.240581  1
  F  F67  1  0.273047  0.327645  0.649495  1
  F  F68  1  0.424320  0.172346  0.054987  1
  F  F69  1  0.863013  0.483462  0.759187  1
  F  F70  1  0.133101  0.056706  0.737475  1
  F  F71  1  0.057107  0.713857  0.057772  1
  F  F72  1  0.229983  0.343124  0.148292  1
  F  F73  1  0.871006  0.472719  0.274368  1
  F  F74  1  0.629666  0.944462  0.758335  1
  F  F75  1  0.638652  0.475022  0.262536  1
  F  F76  1  0.594652  0.262057  0.956248  1
  F  F77  1  0.367215  0.058788  0.238200  1
  F  F78  1  0.571614  0.830093  0.944818  1
  F  F79  1  0.626503  0.478227  0.771866  1
