# generated using pymatgen
data_Ca2Ce3Sn3Ge
_symmetry_space_group_name_H-M   'P 1'
_cell_length_a   9.39632300
_cell_length_b   9.39632239
_cell_length_c   6.68019500
_cell_angle_alpha   90.00000000
_cell_angle_beta   90.00000000
_cell_angle_gamma   119.99999864
_symmetry_Int_Tables_number   1
_chemical_formula_structural   Ca2Ce3Sn3Ge
_chemical_formula_sum   'Ca4 Ce6 Sn6 Ge2'
_cell_volume   510.78204661
_cell_formula_units_Z   2
loop_
 _symmetry_equiv_pos_site_id
 _symmetry_equiv_pos_as_xyz
  1  'x, y, z'
loop_
 _atom_site_type_symbol
 _atom_site_label
 _atom_site_symmetry_multiplicity
 _atom_site_fract_x
 _atom_site_fract_y
 _atom_site_fract_z
 _atom_site_occupancy
  Ca  Ca0  1  0.666667  0.333333  0.000000  1
  Ca  Ca1  1  0.333333  0.666667  0.000000  1
  Ca  Ca2  1  0.333333  0.666667  0.500000  1
  Ca  Ca3  1  0.666667  0.333333  0.500000  1
  Ce  Ce4  1  0.744006  0.744006  0.750000  1
  Ce  Ce5  1  0.255994  0.000000  0.750000  1
  Ce  Ce6  1  0.000000  0.255994  0.750000  1
  Ce  Ce7  1  0.255994  0.255994  0.250000  1
  Ce  Ce8  1  0.744006  0.000000  0.250000  1
  Ce  Ce9  1  0.000000  0.744006  0.250000  1
  Sn  Sn10  1  0.386742  0.386742  0.750000  1
  Sn  Sn11  1  0.613258  0.000000  0.750000  1
  Sn  Sn12  1  0.000000  0.613258  0.750000  1
  Sn  Sn13  1  0.613258  0.613258  0.250000  1
  Sn  Sn14  1  0.386742  0.000000  0.250000  1
  Sn  Sn15  1  0.000000  0.386742  0.250000  1
  Ge  Ge16  1  0.000000  0.000000  0.000000  1
  Ge  Ge17  1  0.000000  0.000000  0.500000  1
