# generated using pymatgen
data_PrBi7(Os2O11)2
_symmetry_space_group_name_H-M   'P 1'
_cell_length_a   6.63246730
_cell_length_b   7.59792443
_cell_length_c   9.94286284
_cell_angle_alpha   101.16623297
_cell_angle_beta   92.09173119
_cell_angle_gamma   90.04490167
_symmetry_Int_Tables_number   1
_chemical_formula_structural   PrBi7(Os2O11)2
_chemical_formula_sum   'Pr1 Bi7 Os4 O22'
_cell_volume   491.22208271
_cell_formula_units_Z   1
loop_
 _symmetry_equiv_pos_site_id
 _symmetry_equiv_pos_as_xyz
  1  'x, y, z'
loop_
 _atom_site_type_symbol
 _atom_site_label
 _atom_site_symmetry_multiplicity
 _atom_site_fract_x
 _atom_site_fract_y
 _atom_site_fract_z
 _atom_site_occupancy
  Pr  Pr0  1  0.748042  0.367713  0.478467  1
  Bi  Bi1  1  0.245824  0.630288  0.521183  1
  Bi  Bi2  1  0.749653  0.871863  0.477921  1
  Bi  Bi3  1  0.247626  0.126385  0.521487  1
  Bi  Bi4  1  0.480908  0.955940  0.821861  1
  Bi  Bi5  1  0.518963  0.043920  0.177873  1
  Bi  Bi6  1  0.407212  0.456674  0.827677  1
  Bi  Bi7  1  0.592609  0.543418  0.171880  1
  Os  Os8  1  0.938554  0.703990  0.812266  1
  Os  Os9  1  0.062700  0.296573  0.187953  1
  Os  Os10  1  0.937263  0.204753  0.814586  1
  Os  Os11  1  0.063538  0.794831  0.185806  1
  O  O12  1  0.232700  0.724345  0.768603  1
  O  O13  1  0.766496  0.276210  0.231588  1
  O  O14  1  0.642019  0.676273  0.827486  1
  O  O15  1  0.358491  0.323519  0.172108  1
  O  O16  1  0.642177  0.241776  0.840001  1
  O  O17  1  0.356798  0.757434  0.157862  1
  O  O18  1  0.893970  0.171993  0.613514  1
  O  O19  1  0.105802  0.830116  0.387093  1
  O  O20  1  0.231110  0.160717  0.766931  1
  O  O21  1  0.770029  0.840169  0.233460  1
  O  O22  1  0.908702  0.638546  0.608037  1
  O  O23  1  0.096405  0.360425  0.392331  1
  O  O24  1  0.000789  0.544711  0.181302  1
  O  O25  1  0.000201  0.455607  0.819247  1
  O  O26  1  0.996366  0.767769  0.999889  1
  O  O27  1  0.002859  0.232617  0.000900  1
  O  O28  1  0.574920  0.608818  0.392975  1
  O  O29  1  0.426292  0.394215  0.606115  1
  O  O30  1  0.145452  0.050246  0.205472  1
  O  O31  1  0.856124  0.950001  0.795703  1
  O  O32  1  0.541667  0.092006  0.398631  1
  O  O33  1  0.457741  0.906140  0.601790  1
