# generated using pymatgen
data_CsCuH5
_symmetry_space_group_name_H-M   'P 1'
_cell_length_a   11.22583100
_cell_length_b   7.88324400
_cell_length_c   4.73011300
_cell_angle_alpha   90.00000000
_cell_angle_beta   90.00000000
_cell_angle_gamma   90.00000000
_symmetry_Int_Tables_number   1
_chemical_formula_structural   CsCuH5
_chemical_formula_sum   'Cs4 Cu4 H20'
_cell_volume   418.59591391
_cell_formula_units_Z   4
loop_
 _symmetry_equiv_pos_site_id
 _symmetry_equiv_pos_as_xyz
  1  'x, y, z'
loop_
 _atom_site_type_symbol
 _atom_site_label
 _atom_site_symmetry_multiplicity
 _atom_site_fract_x
 _atom_site_fract_y
 _atom_site_fract_z
 _atom_site_occupancy
  Cs  Cs0  1  0.704909  0.083697  0.265286  1
  Cs  Cs1  1  0.204909  0.416302  0.265286  1
  Cs  Cs2  1  0.795091  0.583697  0.765286  1
  Cs  Cs3  1  0.295091  0.916303  0.765286  1
  Cu  Cu4  1  0.534792  0.545084  0.265787  1
  Cu  Cu5  1  0.034792  0.954916  0.265787  1
  Cu  Cu6  1  0.965208  0.045083  0.765786  1
  Cu  Cu7  1  0.465208  0.454917  0.765786  1
  H  H8  1  0.351556  0.315369  0.765248  1
  H  H9  1  0.851556  0.184631  0.765248  1
  H  H10  1  0.089025  0.659902  0.689516  1
  H  H11  1  0.589025  0.840097  0.689516  1
  H  H12  1  0.561897  0.403700  0.014685  1
  H  H13  1  0.061896  0.096300  0.014685  1
  H  H14  1  0.437848  0.595978  0.016475  1
  H  H15  1  0.937848  0.904023  0.016475  1
  H  H16  1  0.911486  0.335337  0.350000  1
  H  H17  1  0.411486  0.164664  0.350000  1
  H  H18  1  0.148444  0.815369  0.265247  1
  H  H19  1  0.648444  0.684630  0.265247  1
  H  H20  1  0.410976  0.159902  0.189518  1
  H  H21  1  0.910976  0.340097  0.189518  1
  H  H22  1  0.938104  0.903699  0.514685  1
  H  H23  1  0.438104  0.596301  0.514685  1
  H  H24  1  0.062152  0.095977  0.516475  1
  H  H25  1  0.562152  0.404023  0.516475  1
  H  H26  1  0.588514  0.835337  0.850002  1
  H  H27  1  0.088514  0.664664  0.850002  1
