# generated using pymatgen
data_Zr2(RhAu)3
_symmetry_space_group_name_H-M   'P 1'
_cell_length_a   4.10684100
_cell_length_b   4.25981400
_cell_length_c   7.77070400
_cell_angle_alpha   90.00000000
_cell_angle_beta   90.00000000
_cell_angle_gamma   90.00000000
_symmetry_Int_Tables_number   1
_chemical_formula_structural   Zr2(RhAu)3
_chemical_formula_sum   'Zr2 Rh3 Au3'
_cell_volume   135.94363922
_cell_formula_units_Z   1
loop_
 _symmetry_equiv_pos_site_id
 _symmetry_equiv_pos_as_xyz
  1  'x, y, z'
loop_
 _atom_site_type_symbol
 _atom_site_label
 _atom_site_symmetry_multiplicity
 _atom_site_fract_x
 _atom_site_fract_y
 _atom_site_fract_z
 _atom_site_occupancy
  Zr  Zr0  1  0.000000  0.000000  0.235424  1
  Zr  Zr1  1  0.000000  0.000000  0.764576  1
  Rh  Rh2  1  0.000000  0.500000  0.000000  1
  Rh  Rh3  1  0.500000  0.000000  0.500000  1
  Rh  Rh4  1  0.500000  0.000000  0.000000  1
  Au  Au5  1  0.500000  0.500000  0.245478  1
  Au  Au6  1  0.500000  0.500000  0.754522  1
  Au  Au7  1  0.000000  0.500000  0.500000  1
