# generated using pymatgen
data_TbYb3Pt3RhO14
_symmetry_space_group_name_H-M   'P 1'
_cell_length_a   7.24502127
_cell_length_b   7.24923868
_cell_length_c   7.24923800
_cell_angle_alpha   60.00000311
_cell_angle_beta   59.98074516
_cell_angle_gamma   59.98074763
_symmetry_Int_Tables_number   1
_chemical_formula_structural   TbYb3Pt3RhO14
_chemical_formula_sum   'Tb1 Yb3 Pt3 Rh1 O14'
_cell_volume   269.14293615
_cell_formula_units_Z   1
loop_
 _symmetry_equiv_pos_site_id
 _symmetry_equiv_pos_as_xyz
  1  'x, y, z'
loop_
 _atom_site_type_symbol
 _atom_site_label
 _atom_site_symmetry_multiplicity
 _atom_site_fract_x
 _atom_site_fract_y
 _atom_site_fract_z
 _atom_site_occupancy
  Tb  Tb0  1  0.125000  0.625000  0.625000  1
  Yb  Yb1  1  0.625000  0.625000  0.125000  1
  Yb  Yb2  1  0.625000  0.625000  0.625000  1
  Yb  Yb3  1  0.625000  0.125000  0.625000  1
  Pt  Pt4  1  0.125000  0.125000  0.125000  1
  Pt  Pt5  1  0.125000  0.625000  0.125000  1
  Pt  Pt6  1  0.125000  0.125000  0.625000  1
  Rh  Rh7  1  0.625000  0.125000  0.125000  1
  O  O8  1  0.042918  0.460159  0.460159  1
  O  O9  1  0.795114  0.795996  0.204445  1
  O  O10  1  0.795114  0.204445  0.204445  1
  O  O11  1  0.454886  0.045555  0.454004  1
  O  O12  1  0.042918  0.460159  0.036764  1
  O  O13  1  0.754940  0.748354  0.748354  1
  O  O14  1  0.042918  0.036764  0.460159  1
  O  O15  1  0.207082  0.789841  0.213236  1
  O  O16  1  0.207082  0.213236  0.789841  1
  O  O17  1  0.495060  0.501646  0.501646  1
  O  O18  1  0.795114  0.204445  0.795996  1
  O  O19  1  0.454886  0.045555  0.045555  1
  O  O20  1  0.454886  0.454004  0.045555  1
  O  O21  1  0.207082  0.789841  0.789841  1
