# generated using pymatgen
data_NdCu(PtAu)2
_symmetry_space_group_name_H-M   'P 1'
_cell_length_a   5.49595256
_cell_length_b   5.29781910
_cell_length_c   5.49595200
_cell_angle_alpha   121.35047393
_cell_angle_beta   119.43981036
_cell_angle_gamma   90.41463045
_symmetry_Int_Tables_number   1
_chemical_formula_structural   NdCu(PtAu)2
_chemical_formula_sum   'Nd1 Cu1 Pt2 Au2'
_cell_volume   111.32637071
_cell_formula_units_Z   1
loop_
 _symmetry_equiv_pos_site_id
 _symmetry_equiv_pos_as_xyz
  1  'x, y, z'
loop_
 _atom_site_type_symbol
 _atom_site_label
 _atom_site_symmetry_multiplicity
 _atom_site_fract_x
 _atom_site_fract_y
 _atom_site_fract_z
 _atom_site_occupancy
  Nd  Nd0  1  0.005808  0.005854  0.000046  1
  Cu  Cu1  1  0.622331  0.870047  0.247717  1
  Pt  Pt2  1  0.124428  0.371862  0.749463  1
  Pt  Pt3  1  0.622398  0.371862  0.247434  1
  Au  Au4  1  0.622421  0.372211  0.749790  1
  Au  Au5  1  0.252614  0.758164  0.505550  1
