# generated using pymatgen
data_La8TmLu(In3Br)2
_symmetry_space_group_name_H-M   'P 1'
_cell_length_a   9.66422300
_cell_length_b   9.66422271
_cell_length_c   6.88310800
_cell_angle_alpha   90.00000000
_cell_angle_beta   90.00000000
_cell_angle_gamma   120.00000442
_symmetry_Int_Tables_number   1
_chemical_formula_structural   La8TmLu(In3Br)2
_chemical_formula_sum   'La8 Tm1 Lu1 In6 Br2'
_cell_volume   556.73569700
_cell_formula_units_Z   1
loop_
 _symmetry_equiv_pos_site_id
 _symmetry_equiv_pos_as_xyz
  1  'x, y, z'
loop_
 _atom_site_type_symbol
 _atom_site_label
 _atom_site_symmetry_multiplicity
 _atom_site_fract_x
 _atom_site_fract_y
 _atom_site_fract_z
 _atom_site_occupancy
  La  La0  1  0.732360  0.732138  0.254354  1
  La  La1  1  0.999778  0.732138  0.745646  1
  La  La2  1  0.732360  0.000222  0.745646  1
  La  La3  1  0.267862  0.267640  0.745646  1
  La  La4  1  0.999778  0.267640  0.254354  1
  La  La5  1  0.267862  0.000222  0.254354  1
  La  La6  1  0.333333  0.666667  0.000000  1
  La  La7  1  0.666667  0.333333  0.000000  1
  Tm  Tm8  1  0.333333  0.666667  0.500000  1
  Lu  Lu9  1  0.666667  0.333333  0.500000  1
  In  In10  1  0.393272  0.000179  0.742217  1
  In  In11  1  0.999821  0.606728  0.257783  1
  In  In12  1  0.606907  0.000179  0.257783  1
  In  In13  1  0.999821  0.393093  0.742217  1
  In  In14  1  0.393272  0.393093  0.257783  1
  In  In15  1  0.606907  0.606728  0.742217  1
  Br  Br16  1  0.000000  0.000000  0.500000  1
  Br  Br17  1  0.000000  0.000000  0.000000  1
