# generated using pymatgen
data_Er5Sc3(P3Ir4)4
_symmetry_space_group_name_H-M   'P 1'
_cell_length_a   12.83411700
_cell_length_b   12.83411694
_cell_length_c   3.95393500
_cell_angle_alpha   90.00000000
_cell_angle_beta   90.00000000
_cell_angle_gamma   120.00000273
_symmetry_Int_Tables_number   1
_chemical_formula_structural   Er5Sc3(P3Ir4)4
_chemical_formula_sum   'Er5 Sc3 P12 Ir16'
_cell_volume   564.01691862
_cell_formula_units_Z   1
loop_
 _symmetry_equiv_pos_site_id
 _symmetry_equiv_pos_as_xyz
  1  'x, y, z'
loop_
 _atom_site_type_symbol
 _atom_site_label
 _atom_site_symmetry_multiplicity
 _atom_site_fract_x
 _atom_site_fract_y
 _atom_site_fract_z
 _atom_site_occupancy
  Er  Er0  1  0.333333  0.666667  0.500000  1
  Er  Er1  1  0.666667  0.333333  0.500000  1
  Er  Er2  1  0.000000  0.811830  0.000000  1
  Er  Er3  1  0.188170  0.188170  0.000000  1
  Er  Er4  1  0.811830  0.000000  0.000000  1
  Sc  Sc5  1  0.000000  0.444984  0.500000  1
  Sc  Sc6  1  0.555016  0.555016  0.500000  1
  Sc  Sc7  1  0.444984  0.000000  0.500000  1
  P  P8  1  0.000000  0.646026  0.500000  1
  P  P9  1  0.353974  0.353974  0.500000  1
  P  P10  1  0.646026  0.000000  0.500000  1
  P  P11  1  0.516603  0.686475  0.000000  1
  P  P12  1  0.313525  0.830129  0.000000  1
  P  P13  1  0.169871  0.483397  0.000000  1
  P  P14  1  0.483397  0.169871  0.000000  1
  P  P15  1  0.686475  0.516603  0.000000  1
  P  P16  1  0.830129  0.313525  0.000000  1
  P  P17  1  0.000000  0.176501  0.500000  1
  P  P18  1  0.823499  0.823499  0.500000  1
  P  P19  1  0.176501  0.000000  0.500000  1
  Ir  Ir20  1  0.509703  0.867414  0.000000  1
  Ir  Ir21  1  0.132586  0.642289  0.000000  1
  Ir  Ir22  1  0.357711  0.490297  0.000000  1
  Ir  Ir23  1  0.490297  0.357711  0.000000  1
  Ir  Ir24  1  0.867414  0.509703  0.000000  1
  Ir  Ir25  1  0.642289  0.132586  0.000000  1
  Ir  Ir26  1  0.000000  0.277764  0.000000  1
  Ir  Ir27  1  0.722236  0.722236  0.000000  1
  Ir  Ir28  1  0.277764  0.000000  0.000000  1
  Ir  Ir29  1  0.628143  0.807111  0.500000  1
  Ir  Ir30  1  0.192889  0.821032  0.500000  1
  Ir  Ir31  1  0.178968  0.371857  0.500000  1
  Ir  Ir32  1  0.371857  0.178968  0.500000  1
  Ir  Ir33  1  0.807111  0.628143  0.500000  1
  Ir  Ir34  1  0.821032  0.192889  0.500000  1
  Ir  Ir35  1  0.000000  0.000000  0.500000  1
