# generated using pymatgen
data_CeAl2GaAg
_symmetry_space_group_name_H-M   'P 1'
_cell_length_a   4.25741370
_cell_length_b   4.25741305
_cell_length_c   6.38082238
_cell_angle_alpha   70.51196228
_cell_angle_beta   70.51196638
_cell_angle_gamma   90.00000520
_symmetry_Int_Tables_number   1
_chemical_formula_structural   CeAl2GaAg
_chemical_formula_sum   'Ce1 Al2 Ga1 Ag1'
_cell_volume   101.97483091
_cell_formula_units_Z   1
loop_
 _symmetry_equiv_pos_site_id
 _symmetry_equiv_pos_as_xyz
  1  'x, y, z'
loop_
 _atom_site_type_symbol
 _atom_site_label
 _atom_site_symmetry_multiplicity
 _atom_site_fract_x
 _atom_site_fract_y
 _atom_site_fract_z
 _atom_site_occupancy
  Ce  Ce0  1  0.984515  0.984515  0.030970  1
  Al  Al1  1  0.750475  0.250475  0.499049  1
  Al  Al2  1  0.250475  0.750475  0.499049  1
  Ga  Ga3  1  0.394076  0.394076  0.211847  1
  Ag  Ag4  1  0.620458  0.620458  0.759084  1
