# generated using pymatgen
data_Y3ErHgIr
_symmetry_space_group_name_H-M   'P 1'
_cell_length_a   9.61229195
_cell_length_b   9.61229217
_cell_length_c   9.61229200
_cell_angle_alpha   60.00000057
_cell_angle_beta   59.99999982
_cell_angle_gamma   60.00000461
_symmetry_Int_Tables_number   1
_chemical_formula_structural   Y3ErHgIr
_chemical_formula_sum   'Y12 Er4 Hg4 Ir4'
_cell_volume   628.00903150
_cell_formula_units_Z   4
loop_
 _symmetry_equiv_pos_site_id
 _symmetry_equiv_pos_as_xyz
  1  'x, y, z'
loop_
 _atom_site_type_symbol
 _atom_site_label
 _atom_site_symmetry_multiplicity
 _atom_site_fract_x
 _atom_site_fract_y
 _atom_site_fract_z
 _atom_site_occupancy
  Y  Y0  1  0.808655  0.191345  0.191345  1
  Y  Y1  1  0.191345  0.808655  0.808655  1
  Y  Y2  1  0.191345  0.808655  0.191345  1
  Y  Y3  1  0.808655  0.191345  0.808655  1
  Y  Y4  1  0.191345  0.191345  0.808655  1
  Y  Y5  1  0.808655  0.808655  0.191345  1
  Y  Y6  1  0.939489  0.560511  0.560511  1
  Y  Y7  1  0.560511  0.939489  0.939489  1
  Y  Y8  1  0.560511  0.939489  0.560511  1
  Y  Y9  1  0.939489  0.560511  0.939489  1
  Y  Y10  1  0.560511  0.560511  0.939489  1
  Y  Y11  1  0.939489  0.939489  0.560511  1
  Er  Er12  1  0.349670  0.349670  0.349670  1
  Er  Er13  1  0.349670  0.349670  0.950990  1
  Er  Er14  1  0.349670  0.950990  0.349670  1
  Er  Er15  1  0.950990  0.349670  0.349670  1
  Hg  Hg16  1  0.584236  0.584236  0.584236  1
  Hg  Hg17  1  0.584236  0.584236  0.247291  1
  Hg  Hg18  1  0.584236  0.247291  0.584236  1
  Hg  Hg19  1  0.247291  0.584236  0.584236  1
  Ir  Ir20  1  0.142728  0.142728  0.142728  1
  Ir  Ir21  1  0.142728  0.142728  0.571816  1
  Ir  Ir22  1  0.142728  0.571816  0.142728  1
  Ir  Ir23  1  0.571816  0.142728  0.142728  1
