# generated using pymatgen
data_YbYHo8(In2Pt)4
_symmetry_space_group_name_H-M   'P 1'
_cell_length_a   3.60496500
_cell_length_b   8.16890470
_cell_length_c   18.28035680
_cell_angle_alpha   89.92604543
_cell_angle_beta   90.00000000
_cell_angle_gamma   90.00000000
_symmetry_Int_Tables_number   1
_chemical_formula_structural   YbYHo8(In2Pt)4
_chemical_formula_sum   'Yb1 Y1 Ho8 In8 Pt4'
_cell_volume   538.33075103
_cell_formula_units_Z   1
loop_
 _symmetry_equiv_pos_site_id
 _symmetry_equiv_pos_as_xyz
  1  'x, y, z'
loop_
 _atom_site_type_symbol
 _atom_site_label
 _atom_site_symmetry_multiplicity
 _atom_site_fract_x
 _atom_site_fract_y
 _atom_site_fract_z
 _atom_site_occupancy
  Yb  Yb0  1  0.000000  0.000000  0.000000  1
  Y  Y1  1  0.000000  0.500000  0.500000  1
  Ho  Ho2  1  0.000000  0.117256  0.414326  1
  Ho  Ho3  1  0.000000  0.882744  0.585674  1
  Ho  Ho4  1  0.000000  0.382103  0.914312  1
  Ho  Ho5  1  0.000000  0.617897  0.085688  1
  Ho  Ho6  1  0.000000  0.243038  0.220248  1
  Ho  Ho7  1  0.000000  0.756962  0.779752  1
  Ho  Ho8  1  0.000000  0.257034  0.720288  1
  Ho  Ho9  1  0.000000  0.742966  0.279712  1
  In  In10  1  0.500000  0.423486  0.350767  1
  In  In11  1  0.500000  0.576514  0.649233  1
  In  In12  1  0.500000  0.075928  0.850645  1
  In  In13  1  0.500000  0.924072  0.149355  1
  In  In14  1  0.500000  0.292935  0.066996  1
  In  In15  1  0.500000  0.707065  0.933004  1
  In  In16  1  0.500000  0.207230  0.566697  1
  In  In17  1  0.500000  0.792770  0.433303  1
  Pt  Pt18  1  0.500000  0.024869  0.303477  1
  Pt  Pt19  1  0.500000  0.975131  0.696523  1
  Pt  Pt20  1  0.500000  0.476138  0.803243  1
  Pt  Pt21  1  0.500000  0.523862  0.196757  1
