# generated using pymatgen
data_Sr10CrPN10
_symmetry_space_group_name_H-M   'P 1'
_cell_length_a   7.53688525
_cell_length_b   7.53688492
_cell_length_c   8.90287502
_cell_angle_alpha   76.60266948
_cell_angle_beta   76.60266453
_cell_angle_gamma   96.03926958
_symmetry_Int_Tables_number   1
_chemical_formula_structural   Sr10CrPN10
_chemical_formula_sum   'Sr10 Cr1 P1 N10'
_cell_volume   471.77950708
_cell_formula_units_Z   1
loop_
 _symmetry_equiv_pos_site_id
 _symmetry_equiv_pos_as_xyz
  1  'x, y, z'
loop_
 _atom_site_type_symbol
 _atom_site_label
 _atom_site_symmetry_multiplicity
 _atom_site_fract_x
 _atom_site_fract_y
 _atom_site_fract_z
 _atom_site_occupancy
  Sr  Sr0  1  0.403589  0.393036  0.376805  1
  Sr  Sr1  1  0.606964  0.596411  0.623195  1
  Sr  Sr2  1  0.665396  0.669392  0.006646  1
  Sr  Sr3  1  0.330608  0.334604  0.993354  1
  Sr  Sr4  1  0.922242  0.929046  0.194878  1
  Sr  Sr5  1  0.070954  0.077758  0.805122  1
  Sr  Sr6  1  0.556964  0.095317  0.763213  1
  Sr  Sr7  1  0.904683  0.443036  0.236787  1
  Sr  Sr8  1  0.450396  0.912409  0.237000  1
  Sr  Sr9  1  0.087591  0.549604  0.763000  1
  Cr  Cr10  1  0.242189  0.757811  0.000000  1
  P  P11  1  0.758160  0.241840  0.000000  1
  N  N12  1  0.659888  0.659338  0.319209  1
  N  N13  1  0.340662  0.340112  0.680791  1
  N  N14  1  0.722016  0.022152  0.986857  1
  N  N15  1  0.977848  0.277984  0.013143  1
  N  N16  1  0.280804  0.984668  0.016447  1
  N  N17  1  0.015332  0.719196  0.983553  1
  N  N18  1  0.400177  0.734148  0.828799  1
  N  N19  1  0.265852  0.599823  0.171200  1
  N  N20  1  0.607915  0.270230  0.162405  1
  N  N21  1  0.729770  0.392085  0.837594  1
