# generated using pymatgen
data_Tb4Y12MgCd3Ni4
_symmetry_space_group_name_H-M   'P 1'
_cell_length_a   9.59677725
_cell_length_b   9.59677779
_cell_length_c   9.59677711
_cell_angle_alpha   60.07526266
_cell_angle_beta   60.07526417
_cell_angle_gamma   60.07525750
_symmetry_Int_Tables_number   1
_chemical_formula_structural   Tb4Y12MgCd3Ni4
_chemical_formula_sum   'Tb4 Y12 Mg1 Cd3 Ni4'
_cell_volume   626.03893713
_cell_formula_units_Z   1
loop_
 _symmetry_equiv_pos_site_id
 _symmetry_equiv_pos_as_xyz
  1  'x, y, z'
loop_
 _atom_site_type_symbol
 _atom_site_label
 _atom_site_symmetry_multiplicity
 _atom_site_fract_x
 _atom_site_fract_y
 _atom_site_fract_z
 _atom_site_occupancy
  Tb  Tb0  1  0.596824  0.596824  0.596824  1
  Tb  Tb1  1  0.599317  0.599317  0.203593  1
  Tb  Tb2  1  0.599317  0.203593  0.599317  1
  Tb  Tb3  1  0.203593  0.599317  0.599317  1
  Y  Y4  1  0.060903  0.440679  0.440679  1
  Y  Y5  1  0.437445  0.063233  0.063233  1
  Y  Y6  1  0.440679  0.060903  0.440679  1
  Y  Y7  1  0.063233  0.437445  0.063233  1
  Y  Y8  1  0.440679  0.440679  0.060903  1
  Y  Y9  1  0.063233  0.063233  0.437445  1
  Y  Y10  1  0.186612  0.814730  0.814730  1
  Y  Y11  1  0.812827  0.187503  0.187503  1
  Y  Y12  1  0.814730  0.186612  0.814730  1
  Y  Y13  1  0.187503  0.812827  0.187503  1
  Y  Y14  1  0.814730  0.814730  0.186612  1
  Y  Y15  1  0.187503  0.187503  0.812827  1
  Mg  Mg16  1  0.825509  0.825509  0.825509  1
  Cd  Cd17  1  0.830537  0.830537  0.505333  1
  Cd  Cd18  1  0.830537  0.505333  0.830537  1
  Cd  Cd19  1  0.505333  0.830537  0.830537  1
  Ni  Ni20  1  0.394027  0.394027  0.394027  1
  Ni  Ni21  1  0.391633  0.391633  0.821662  1
  Ni  Ni22  1  0.391633  0.821662  0.391633  1
  Ni  Ni23  1  0.821662  0.391633  0.391633  1
