# generated using pymatgen
data_Zr5Ga2Te
_symmetry_space_group_name_H-M   'P 1'
_cell_length_a   5.49922203
_cell_length_b   8.25803572
_cell_length_c   8.27730806
_cell_angle_alpha   83.64978745
_cell_angle_beta   70.59846394
_cell_angle_gamma   70.55136028
_symmetry_Int_Tables_number   1
_chemical_formula_structural   Zr5Ga2Te
_chemical_formula_sum   'Zr10 Ga4 Te2'
_cell_volume   334.31931657
_cell_formula_units_Z   2
loop_
 _symmetry_equiv_pos_site_id
 _symmetry_equiv_pos_as_xyz
  1  'x, y, z'
loop_
 _atom_site_type_symbol
 _atom_site_label
 _atom_site_symmetry_multiplicity
 _atom_site_fract_x
 _atom_site_fract_y
 _atom_site_fract_z
 _atom_site_occupancy
  Zr  Zr0  1  0.712587  0.871405  0.703421  1
  Zr  Zr1  1  0.287413  0.128595  0.296579  1
  Zr  Zr2  1  0.783035  0.288667  0.145263  1
  Zr  Zr3  1  0.216965  0.711333  0.854737  1
  Zr  Zr4  1  0.571701  0.711333  0.145263  1
  Zr  Zr5  1  0.428299  0.288667  0.854737  1
  Zr  Zr6  1  0.083992  0.128595  0.703421  1
  Zr  Zr7  1  0.916008  0.871405  0.296579  1
  Zr  Zr8  1  0.740117  0.500000  0.500000  1
  Zr  Zr9  1  0.259883  0.500000  0.500000  1
  Ga  Ga10  1  0.338532  0.822936  0.500000  1
  Ga  Ga11  1  0.661468  0.177064  0.500000  1
  Ga  Ga12  1  0.250000  0.000000  0.000000  1
  Ga  Ga13  1  0.750000  0.000000  0.000000  1
  Te  Te14  1  0.163844  0.500000  0.172312  1
  Te  Te15  1  0.836156  0.500000  0.827688  1
