# generated using pymatgen
data_TmPa5Al24(Os3Ru)2
_symmetry_space_group_name_H-M   'P 1'
_cell_length_a   8.87943200
_cell_length_b   8.87221616
_cell_length_c   9.40548400
_cell_angle_alpha   90.00000000
_cell_angle_beta   90.00000000
_cell_angle_gamma   120.02690018
_symmetry_Int_Tables_number   1
_chemical_formula_structural   TmPa5Al24(Os3Ru)2
_chemical_formula_sum   'Tm1 Pa5 Al24 Os6 Ru2'
_cell_volume   641.52161729
_cell_formula_units_Z   1
loop_
 _symmetry_equiv_pos_site_id
 _symmetry_equiv_pos_as_xyz
  1  'x, y, z'
loop_
 _atom_site_type_symbol
 _atom_site_label
 _atom_site_symmetry_multiplicity
 _atom_site_fract_x
 _atom_site_fract_y
 _atom_site_fract_z
 _atom_site_occupancy
  Tm  Tm0  1  0.197571  0.395141  0.250000  1
  Pa  Pa1  1  0.802186  0.604372  0.750000  1
  Pa  Pa2  1  0.607617  0.806062  0.250000  1
  Pa  Pa3  1  0.394019  0.197640  0.750000  1
  Pa  Pa4  1  0.198446  0.806062  0.250000  1
  Pa  Pa5  1  0.803620  0.197640  0.750000  1
  Al  Al6  1  0.330718  0.661438  0.021488  1
  Al  Al7  1  0.665585  0.331168  0.984779  1
  Al  Al8  1  0.665585  0.331168  0.515221  1
  Al  Al9  1  0.330718  0.661438  0.478512  1
  Al  Al10  1  0.161719  0.323434  0.577061  1
  Al  Al11  1  0.838596  0.677192  0.418625  1
  Al  Al12  1  0.676451  0.838386  0.579078  1
  Al  Al13  1  0.838596  0.677192  0.081375  1
  Al  Al14  1  0.322861  0.162954  0.420859  1
  Al  Al15  1  0.161719  0.323434  0.922939  1
  Al  Al16  1  0.161938  0.838386  0.579078  1
  Al  Al17  1  0.322861  0.162954  0.079141  1
  Al  Al18  1  0.840092  0.162954  0.420859  1
  Al  Al19  1  0.676451  0.838386  0.920922  1
  Al  Al20  1  0.840092  0.162954  0.079141  1
  Al  Al21  1  0.161938  0.838386  0.920922  1
  Al  Al22  1  0.564037  0.128075  0.250000  1
  Al  Al23  1  0.436945  0.873893  0.750000  1
  Al  Al24  1  0.878980  0.437657  0.250000  1
  Al  Al25  1  0.127647  0.563098  0.750000  1
  Al  Al26  1  0.558678  0.437657  0.250000  1
  Al  Al27  1  0.435450  0.563098  0.750000  1
  Al  Al28  1  0.001352  0.002705  0.250000  1
  Al  Al29  1  0.000353  0.000705  0.750000  1
  Os  Os30  1  0.498971  0.997942  0.000867  1
  Os  Os31  1  0.996526  0.499566  0.996265  1
  Os  Os32  1  0.498971  0.997942  0.499133  1
  Os  Os33  1  0.503040  0.499566  0.996265  1
  Os  Os34  1  0.996526  0.499566  0.503735  1
  Os  Os35  1  0.503040  0.499566  0.503735  1
  Ru  Ru36  1  0.000055  0.000109  0.999746  1
  Ru  Ru37  1  0.000055  0.000109  0.500254  1
