# generated using pymatgen
data_BaNiPd7O16
_symmetry_space_group_name_H-M   'P 1'
_cell_length_a   6.22503657
_cell_length_b   7.36877496
_cell_length_c   7.37265460
_cell_angle_alpha   87.52731346
_cell_angle_beta   77.97595955
_cell_angle_gamma   77.84672702
_symmetry_Int_Tables_number   1
_chemical_formula_structural   BaNiPd7O16
_chemical_formula_sum   'Ba1 Ni1 Pd7 O16'
_cell_volume   323.35710837
_cell_formula_units_Z   1
loop_
 _symmetry_equiv_pos_site_id
 _symmetry_equiv_pos_as_xyz
  1  'x, y, z'
loop_
 _atom_site_type_symbol
 _atom_site_label
 _atom_site_symmetry_multiplicity
 _atom_site_fract_x
 _atom_site_fract_y
 _atom_site_fract_z
 _atom_site_occupancy
  Ba  Ba0  1  0.232891  0.000966  0.011946  1
  Ni  Ni1  1  0.079845  0.184449  0.484648  1
  Pd  Pd2  1  0.580898  0.183564  0.481863  1
  Pd  Pd3  1  0.320542  0.515733  0.182963  1
  Pd  Pd4  1  0.822743  0.519858  0.182984  1
  Pd  Pd5  1  0.173832  0.480666  0.815671  1
  Pd  Pd6  1  0.671586  0.476004  0.816370  1
  Pd  Pd7  1  0.412781  0.819060  0.515090  1
  Pd  Pd8  1  0.913706  0.818377  0.520250  1
  O  O9  1  0.398730  0.045640  0.350419  1
  O  O10  1  0.896047  0.044947  0.352933  1
  O  O11  1  0.082660  0.370473  0.280482  1
  O  O12  1  0.588496  0.366454  0.274365  1
  O  O13  1  0.073662  0.651745  0.048970  1
  O  O14  1  0.569128  0.650062  0.048918  1
  O  O15  1  0.269269  0.281574  0.627278  1
  O  O16  1  0.771763  0.287010  0.619838  1
  O  O17  1  0.221937  0.727904  0.363402  1
  O  O18  1  0.725987  0.725828  0.366095  1
  O  O19  1  0.418268  0.346726  0.952521  1
  O  O20  1  0.925562  0.347848  0.951791  1
  O  O21  1  0.409417  0.630888  0.724228  1
  O  O22  1  0.907129  0.627237  0.723772  1
  O  O23  1  0.593301  0.952008  0.651033  1
  O  O24  1  0.102398  0.944978  0.652172  1
