# generated using pymatgen
data_Pu2Si4TcPt3
_symmetry_space_group_name_H-M   'P 1'
_cell_length_a   4.20544400
_cell_length_b   4.20544400
_cell_length_c   9.79209600
_cell_angle_alpha   90.00000000
_cell_angle_beta   90.00000000
_cell_angle_gamma   90.00000000
_symmetry_Int_Tables_number   1
_chemical_formula_structural   Pu2Si4TcPt3
_chemical_formula_sum   'Pu2 Si4 Tc1 Pt3'
_cell_volume   173.18065228
_cell_formula_units_Z   1
loop_
 _symmetry_equiv_pos_site_id
 _symmetry_equiv_pos_as_xyz
  1  'x, y, z'
loop_
 _atom_site_type_symbol
 _atom_site_label
 _atom_site_symmetry_multiplicity
 _atom_site_fract_x
 _atom_site_fract_y
 _atom_site_fract_z
 _atom_site_occupancy
  Pu  Pu0  1  0.000000  0.500000  0.251736  1
  Pu  Pu1  1  0.500000  0.000000  0.748264  1
  Si  Si2  1  0.500000  0.000000  0.130271  1
  Si  Si3  1  0.000000  0.000000  0.500000  1
  Si  Si4  1  0.500000  0.500000  0.500000  1
  Si  Si5  1  0.000000  0.500000  0.869729  1
  Tc  Tc6  1  0.000000  0.000000  0.000000  1
  Pt  Pt7  1  0.500000  0.500000  0.000000  1
  Pt  Pt8  1  0.500000  0.000000  0.375963  1
  Pt  Pt9  1  0.000000  0.500000  0.624037  1
