# generated using pymatgen
data_Lu20Si15Ir
_symmetry_space_group_name_H-M   'P 1'
_cell_length_a   7.25361255
_cell_length_b   7.52199182
_cell_length_c   14.26220166
_cell_angle_alpha   89.88738225
_cell_angle_beta   89.65466747
_cell_angle_gamma   90.19658986
_symmetry_Int_Tables_number   1
_chemical_formula_structural   Lu20Si15Ir
_chemical_formula_sum   'Lu20 Si15 Ir1'
_cell_volume   778.14849502
_cell_formula_units_Z   1
loop_
 _symmetry_equiv_pos_site_id
 _symmetry_equiv_pos_as_xyz
  1  'x, y, z'
loop_
 _atom_site_type_symbol
 _atom_site_label
 _atom_site_symmetry_multiplicity
 _atom_site_fract_x
 _atom_site_fract_y
 _atom_site_fract_z
 _atom_site_occupancy
  Lu  Lu0  1  0.648727  0.993711  0.249110  1
  Lu  Lu1  1  0.149895  0.509546  0.247564  1
  Lu  Lu2  1  0.846156  0.488224  0.757474  1
  Lu  Lu3  1  0.351719  0.009668  0.752194  1
  Lu  Lu4  1  0.974049  0.812651  0.095991  1
  Lu  Lu5  1  0.474310  0.682419  0.402472  1
  Lu  Lu6  1  0.529152  0.327424  0.903237  1
  Lu  Lu7  1  0.025983  0.182900  0.598111  1
  Lu  Lu8  1  0.024395  0.187156  0.902675  1
  Lu  Lu9  1  0.525811  0.318865  0.597197  1
  Lu  Lu10  1  0.480734  0.678226  0.097739  1
  Lu  Lu11  1  0.973219  0.818652  0.401764  1
  Lu  Lu12  1  0.683386  0.811165  0.881744  1
  Lu  Lu13  1  0.177846  0.680452  0.622071  1
  Lu  Lu14  1  0.817502  0.334273  0.120264  1
  Lu  Lu15  1  0.316545  0.175767  0.375342  1
  Lu  Lu16  1  0.321602  0.177768  0.124766  1
  Lu  Lu17  1  0.820092  0.321403  0.376939  1
  Lu  Lu18  1  0.174717  0.674198  0.877263  1
  Lu  Lu19  1  0.682046  0.821650  0.622495  1
  Si  Si20  1  0.769600  0.633129  0.253516  1
  Si  Si21  1  0.270515  0.868425  0.250713  1
  Si  Si22  1  0.728603  0.125496  0.748406  1
  Si  Si23  1  0.231369  0.370273  0.745439  1
  Si  Si24  1  0.017661  0.105418  0.248841  1
  Si  Si25  1  0.521588  0.395265  0.252487  1
  Si  Si26  1  0.472380  0.607806  0.745699  1
  Si  Si27  1  0.978712  0.898436  0.747867  1
  Si  Si28  1  0.349444  0.971744  0.539764  1
  Si  Si29  1  0.649954  0.028441  0.042054  1
  Si  Si30  1  0.151439  0.469777  0.459863  1
  Si  Si31  1  0.160225  0.470662  0.040787  1
  Si  Si32  1  0.647144  0.029968  0.459410  1
  Si  Si33  1  0.349921  0.969117  0.961481  1
  Si  Si34  1  0.850387  0.529066  0.539870  1
  Ir  Ir35  1  0.853173  0.520857  0.957390  1
