# generated using pymatgen
data_Ho4Ge5PRh7
_symmetry_space_group_name_H-M   'P 1'
_cell_length_a   7.23258592
_cell_length_b   7.23258494
_cell_length_c   7.23258517
_cell_angle_alpha   109.51565266
_cell_angle_beta   109.51564950
_cell_angle_gamma   109.38240219
_symmetry_Int_Tables_number   1
_chemical_formula_structural   Ho4Ge5PRh7
_chemical_formula_sum   'Ho4 Ge5 P1 Rh7'
_cell_volume   291.24467665
_cell_formula_units_Z   1
loop_
 _symmetry_equiv_pos_site_id
 _symmetry_equiv_pos_as_xyz
  1  'x, y, z'
loop_
 _atom_site_type_symbol
 _atom_site_label
 _atom_site_symmetry_multiplicity
 _atom_site_fract_x
 _atom_site_fract_y
 _atom_site_fract_z
 _atom_site_occupancy
  Ho  Ho0  1  0.997634  0.997634  0.484774  1
  Ho  Ho1  1  0.997634  0.512860  0.000000  1
  Ho  Ho2  1  0.512860  0.997634  0.000000  1
  Ho  Ho3  1  0.512860  0.512860  0.515226  1
  Ge  Ge4  1  0.326698  0.005571  0.321127  1
  Ge  Ge5  1  0.005571  0.326698  0.321127  1
  Ge  Ge6  1  0.305877  0.305877  0.000000  1
  Ge  Ge7  1  0.684444  0.005571  0.678873  1
  Ge  Ge8  1  0.005571  0.684444  0.678873  1
  P  P9  1  0.662785  0.662785  0.000000  1
  Rh  Rh10  1  0.753696  0.253696  0.500000  1
  Rh  Rh11  1  0.745251  0.499039  0.246212  1
  Rh  Rh12  1  0.499039  0.252828  0.753788  1
  Rh  Rh13  1  0.252828  0.499039  0.753788  1
  Rh  Rh14  1  0.253696  0.753696  0.500000  1
  Rh  Rh15  1  0.499039  0.745251  0.246212  1
  Rh  Rh16  1  0.984518  0.984518  0.000000  1
