# generated using pymatgen
data_RbFePt5O12
_symmetry_space_group_name_H-M   'P 1'
_cell_length_a   8.72122533
_cell_length_b   8.64145033
_cell_length_c   8.70010700
_cell_angle_alpha   107.48270932
_cell_angle_beta   107.83855697
_cell_angle_gamma   113.31560711
_symmetry_Int_Tables_number   1
_chemical_formula_structural   RbFePt5O12
_chemical_formula_sum   'Rb2 Fe2 Pt10 O24'
_cell_volume   502.09645741
_cell_formula_units_Z   2
loop_
 _symmetry_equiv_pos_site_id
 _symmetry_equiv_pos_as_xyz
  1  'x, y, z'
loop_
 _atom_site_type_symbol
 _atom_site_label
 _atom_site_symmetry_multiplicity
 _atom_site_fract_x
 _atom_site_fract_y
 _atom_site_fract_z
 _atom_site_occupancy
  Rb  Rb0  1  0.291013  0.296254  0.998174  1
  Rb  Rb1  1  0.707588  0.710194  0.002858  1
  Fe  Fe2  1  0.858251  0.337912  0.190468  1
  Fe  Fe3  1  0.000519  0.809395  0.477021  1
  Pt  Pt4  1  0.667080  0.850464  0.516447  1
  Pt  Pt5  1  0.484283  0.004721  0.818154  1
  Pt  Pt6  1  0.814910  0.333813  0.817681  1
  Pt  Pt7  1  0.519010  0.003486  0.184975  1
  Pt  Pt8  1  0.665446  0.481918  0.480861  1
  Pt  Pt9  1  0.330478  0.146508  0.482462  1
  Pt  Pt10  1  0.334104  0.518469  0.521586  1
  Pt  Pt11  1  0.001279  0.183804  0.518000  1
  Pt  Pt12  1  0.145311  0.668119  0.815387  1
  Pt  Pt13  1  0.180574  0.663764  0.182401  1
  O  O14  1  0.673153  0.047330  0.721054  1
  O  O15  1  0.320640  0.968363  0.950890  1
  O  O16  1  0.653622  0.297578  0.947957  1
  O  O17  1  0.713827  0.990811  0.369345  1
  O  O18  1  0.618122  0.337944  0.625363  1
  O  O19  1  0.282112  0.986353  0.610776  1
  O  O20  1  0.676191  0.036347  0.050143  1
  O  O21  1  0.328444  0.954017  0.282324  1
  O  O22  1  0.680450  0.292480  0.295841  1
  O  O23  1  0.298138  0.346595  0.649213  1
  O  O24  1  0.957897  0.009058  0.636240  1
  O  O25  1  0.631778  0.682593  0.644297  1
  O  O26  1  0.037720  0.991202  0.356640  1
  O  O27  1  0.694629  0.648765  0.351995  1
  O  O28  1  0.368868  0.320567  0.358336  1
  O  O29  1  0.004599  0.380605  0.720216  1
  O  O30  1  0.338170  0.714395  0.722846  1
  O  O31  1  0.985350  0.632063  0.949950  1
  O  O32  1  0.377000  0.658451  0.374008  1
  O  O33  1  0.048486  0.344160  0.388970  1
  O  O34  1  0.954161  0.659557  0.607906  1
  O  O35  1  0.013581  0.368991  0.046095  1
  O  O36  1  0.346172  0.704068  0.049640  1
  O  O37  1  0.997043  0.618890  0.283483  1
