# generated using pymatgen
data_Tm4Al18Ni3Ir2Rh
_symmetry_space_group_name_H-M   'P 1'
_cell_length_a   7.47825513
_cell_length_b   7.47825002
_cell_length_c   9.27264812
_cell_angle_alpha   89.88537757
_cell_angle_beta   89.88541539
_cell_angle_gamma   119.93255011
_symmetry_Int_Tables_number   1
_chemical_formula_structural   Tm4Al18Ni3Ir2Rh
_chemical_formula_sum   'Tm4 Al18 Ni3 Ir2 Rh1'
_cell_volume   449.39266229
_cell_formula_units_Z   1
loop_
 _symmetry_equiv_pos_site_id
 _symmetry_equiv_pos_as_xyz
  1  'x, y, z'
loop_
 _atom_site_type_symbol
 _atom_site_label
 _atom_site_symmetry_multiplicity
 _atom_site_fract_x
 _atom_site_fract_y
 _atom_site_fract_z
 _atom_site_occupancy
  Tm  Tm0  1  0.996422  0.669111  0.249976  1
  Tm  Tm1  1  0.008983  0.335691  0.750148  1
  Tm  Tm2  1  0.664308  0.991017  0.249852  1
  Tm  Tm3  1  0.330889  0.003577  0.750024  1
  Al  Al4  1  0.118745  0.118450  0.249596  1
  Al  Al5  1  0.881550  0.881255  0.750404  1
  Al  Al6  1  0.992983  0.330566  0.074409  1
  Al  Al7  1  0.997432  0.667281  0.926113  1
  Al  Al8  1  0.999128  0.667789  0.574302  1
  Al  Al9  1  0.332211  0.000872  0.425698  1
  Al  Al10  1  0.997364  0.330284  0.425255  1
  Al  Al11  1  0.669716  0.002636  0.574745  1
  Al  Al12  1  0.669434  0.007017  0.925591  1
  Al  Al13  1  0.332719  0.002568  0.073887  1
  Al  Al14  1  0.329845  0.328898  0.551695  1
  Al  Al15  1  0.671102  0.670155  0.448305  1
  Al  Al16  1  0.670268  0.669285  0.051746  1
  Al  Al17  1  0.330715  0.329732  0.948254  1
  Al  Al18  1  0.338745  0.542771  0.249700  1
  Al  Al19  1  0.662494  0.448363  0.752825  1
  Al  Al20  1  0.551637  0.337506  0.247175  1
  Al  Al21  1  0.457229  0.661255  0.750300  1
  Ni  Ni22  1  0.670728  0.329271  0.000000  1
  Ni  Ni23  1  0.998965  0.001035  0.000000  1
  Ni  Ni24  1  0.999867  0.000135  0.500000  1
  Ir  Ir25  1  0.326891  0.673109  0.000000  1
  Ir  Ir26  1  0.327889  0.672112  0.500000  1
  Rh  Rh27  1  0.671740  0.328261  0.500000  1
