# generated using pymatgen
data_Zr4CoAuN
_symmetry_space_group_name_H-M   'P 1'
_cell_length_a   8.79519226
_cell_length_b   8.79519259
_cell_length_c   8.79519300
_cell_angle_alpha   60.00000221
_cell_angle_beta   60.00000097
_cell_angle_gamma   60.00000406
_symmetry_Int_Tables_number   1
_chemical_formula_structural   Zr4CoAuN
_chemical_formula_sum   'Zr16 Co4 Au4 N4'
_cell_volume   481.08419669
_cell_formula_units_Z   4
loop_
 _symmetry_equiv_pos_site_id
 _symmetry_equiv_pos_as_xyz
  1  'x, y, z'
loop_
 _atom_site_type_symbol
 _atom_site_label
 _atom_site_symmetry_multiplicity
 _atom_site_fract_x
 _atom_site_fract_y
 _atom_site_fract_z
 _atom_site_occupancy
  Zr  Zr0  1  0.068092  0.643969  0.643969  1
  Zr  Zr1  1  0.643969  0.068092  0.643969  1
  Zr  Zr2  1  0.643969  0.643969  0.068092  1
  Zr  Zr3  1  0.643969  0.643969  0.643969  1
  Zr  Zr4  1  0.817667  0.817667  0.182333  1
  Zr  Zr5  1  0.182333  0.182333  0.817667  1
  Zr  Zr6  1  0.817667  0.182333  0.817667  1
  Zr  Zr7  1  0.182333  0.817667  0.182333  1
  Zr  Zr8  1  0.182333  0.817667  0.817667  1
  Zr  Zr9  1  0.817667  0.182333  0.182333  1
  Zr  Zr10  1  0.432612  0.432612  0.067388  1
  Zr  Zr11  1  0.067388  0.067388  0.432612  1
  Zr  Zr12  1  0.432612  0.067388  0.432612  1
  Zr  Zr13  1  0.067388  0.432612  0.067388  1
  Zr  Zr14  1  0.067388  0.432612  0.432612  1
  Zr  Zr15  1  0.432612  0.067388  0.067388  1
  Co  Co16  1  0.442101  0.852633  0.852633  1
  Co  Co17  1  0.852633  0.442101  0.852633  1
  Co  Co18  1  0.852633  0.852633  0.442101  1
  Co  Co19  1  0.852633  0.852633  0.852633  1
  Au  Au20  1  0.754882  0.415039  0.415039  1
  Au  Au21  1  0.415039  0.754882  0.415039  1
  Au  Au22  1  0.415039  0.415039  0.754882  1
  Au  Au23  1  0.415039  0.415039  0.415039  1
  N  N24  1  0.623426  0.125525  0.125525  1
  N  N25  1  0.125525  0.623426  0.125525  1
  N  N26  1  0.125525  0.125525  0.623426  1
  N  N27  1  0.125525  0.125525  0.125525  1
